AV-unprocessed.smi:1413|AV-procd|sdf|5755|dock1
  -GOLD-   22720 5393D 1   1.00000     0.00000
 Structure written by MMmdl.
 53 55  0  0  0  0  0  0  0  0  1 V2000
  151.5915  145.2173  158.7384 C   0  0  0  0  0  0  0  0  0  0  0  0
  152.1397  143.8486  158.3218 C   0  0  2  0  0  0  0  0  0  0  0  0
  151.1043  143.0262  157.5305 C   0  0  0  0  0  0  0  0  0  0  0  0
  151.6166  141.6859  157.2604 N   0  0  0  0  0  0  0  0  0  0  0  0
  150.8963  140.9354  156.3062 C   0  0  0  0  0  0  0  0  0  0  0  0
  149.7013  141.4509  155.7518 C   0  0  0  0  0  0  0  0  0  0  0  0
  149.0019  140.6873  154.7981 C   0  0  0  0  0  0  0  0  0  0  0  0
  149.5015  139.4246  154.4253 C   0  0  0  0  0  0  0  0  0  0  0  0
  148.7888  138.6834  153.4444 N   0  0  0  0  0  0  0  0  0  0  0  0
  147.4753  138.7228  153.1619 C   0  0  0  0  0  0  0  0  0  0  0  0
  146.6562  139.4687  153.6977 O   0  0  0  0  0  0  0  0  0  0  0  0
  147.1633  137.8488  152.1935 N   0  0  0  0  0  0  0  0  0  0  0  0
  145.8362  137.6487  151.6124 C   0  0  1  0  0  0  0  0  0  0  0  0
  145.9913  137.4038  150.1042 C   0  0  0  0  0  0  0  0  0  0  0  0
  145.1073  136.4800  152.3077 C   0  0  1  0  0  0  0  0  0  0  0  0
  143.5884  136.4633  152.1346 C   0  0  0  0  0  0  0  0  0  0  0  0
  143.2256  135.0072  152.3715 C   0  0  0  0  0  0  0  0  0  0  0  0
  144.5437  134.2571  152.1559 C   0  0  0  0  0  0  0  0  0  0  0  0
  145.4756  135.2398  151.7238 O   0  0  0  0  0  0  0  0  0  0  0  0
  150.7112  138.9970  155.0213 C   0  0  0  0  0  0  0  0  0  0  0  0
  151.3871  139.7284  155.9324 N   0  0  0  0  0  0  0  0  0  0  0  0
  152.0917  140.9980  158.4586 C   0  0  0  0  0  0  0  0  0  0  0  0
  153.1046  141.8771  159.2148 C   0  0  2  0  0  0  0  0  0  0  0  0
  153.5468  141.2409  160.5368 C   0  0  0  0  0  0  0  0  0  0  0  0
  152.5047  143.1376  159.5018 O   0  0  0  0  0  0  0  0  0  0  0  0
  151.3031  145.8068  157.8679 H   0  0  0  0  0  0  0  0  0  0  0  0
  152.3408  145.7847  159.2910 H   0  0  0  0  0  0  0  0  0  0  0  0
  150.7146  145.1127  159.3781 H   0  0  0  0  0  0  0  0  0  0  0  0
  153.0294  144.0047  157.7089 H   0  0  0  0  0  0  0  0  0  0  0  0
  150.1798  142.9368  158.1024 H   0  0  0  0  0  0  0  0  0  0  0  0
  150.8570  143.5540  156.6103 H   0  0  0  0  0  0  0  0  0  0  0  0
  149.3261  142.4238  156.0321 H   0  0  0  0  0  0  0  0  0  0  0  0
  148.0921  141.0705  154.3595 H   0  0  0  0  0  0  0  0  0  0  0  0
  149.3528  138.0878  152.8561 H   0  0  0  0  0  0  0  0  0  0  0  0
  147.9071  137.2804  151.8163 H   0  0  0  0  0  0  0  0  0  0  0  0
  145.2388  138.5535  151.7374 H   0  0  0  0  0  0  0  0  0  0  0  0
  145.0204  137.2854  149.6224 H   0  0  0  0  0  0  0  0  0  0  0  0
  146.5726  136.5027  149.9050 H   0  0  0  0  0  0  0  0  0  0  0  0
  146.4960  138.2403  149.6200 H   0  0  0  0  0  0  0  0  0  0  0  0
  145.3572  136.4549  153.3705 H   0  0  0  0  0  0  0  0  0  0  0  0
  143.0749  137.1443  152.8138 H   0  0  0  0  0  0  0  0  0  0  0  0
  143.3241  136.7426  151.1136 H   0  0  0  0  0  0  0  0  0  0  0  0
  142.8646  134.8545  153.3891 H   0  0  0  0  0  0  0  0  0  0  0  0
  142.4466  134.6754  151.6847 H   0  0  0  0  0  0  0  0  0  0  0  0
  144.8914  133.8161  153.0910 H   0  0  0  0  0  0  0  0  0  0  0  0
  144.4543  133.4602  151.4171 H   0  0  0  0  0  0  0  0  0  0  0  0
  151.1783  138.0609  154.7581 H   0  0  0  0  0  0  0  0  0  0  0  0
  151.2409  140.7647  159.1006 H   0  0  0  0  0  0  0  0  0  0  0  0
  152.5647  140.0535  158.1866 H   0  0  0  0  0  0  0  0  0  0  0  0
  153.9886  142.0347  158.5942 H   0  0  0  0  0  0  0  0  0  0  0  0
  154.0220  140.2746  160.3667 H   0  0  0  0  0  0  0  0  0  0  0  0
  152.6983  141.0847  161.2035 H   0  0  0  0  0  0  0  0  0  0  0  0
  154.2647  141.8775  161.0543 H   0  0  0  0  0  0  0  0  0  0  0  0
  1  2  1  0  0  0  0
  1 26  1  0  0  0  0
  1 27  1  0  0  0  0
  1 28  1  0  0  0  0
  2 25  1  0  0  0  0
  2  3  1  0  0  0  0
  2 29  1  0  0  0  0
  3  4  1  0  0  0  0
  3 30  1  0  0  0  0
  3 31  1  0  0  0  0
  4  5  1  0  0  0  0
  4 22  1  0  0  0  0
  5 21  1  0  0  0  0
  5  6  2  0  0  0  0
  6  7  1  0  0  0  0
  6 32  1  0  0  0  0
  7  8  2  0  0  0  0
  7 33  1  0  0  0  0
  8  9  1  0  0  0  0
  8 20  1  0  0  0  0
  9 10  1  0  0  0  0
  9 34  1  0  0  0  0
 10 11  2  0  0  0  0
 10 12  1  0  0  0  0
 12 13  1  0  0  0  0
 12 35  1  0  0  0  0
 13 14  1  0  0  0  0
 13 15  1  0  0  0  0
 13 36  1  0  0  0  0
 14 37  1  0  0  0  0
 14 38  1  0  0  0  0
 14 39  1  0  0  0  0
 15 19  1  0  0  0  0
 15 16  1  0  0  0  0
 15 40  1  0  0  0  0
 16 17  1  0  0  0  0
 16 41  1  0  0  0  0
 16 42  1  0  0  0  0
 17 18  1  0  0  0  0
 17 43  1  0  0  0  0
 17 44  1  0  0  0  0
 18 19  1  0  0  0  0
 18 45  1  0  0  0  0
 18 46  1  0  0  0  0
 20 21  2  0  0  0  0
 20 47  1  0  0  0  0
 22 23  1  0  0  0  0
 22 48  1  0  0  0  0
 22 49  1  0  0  0  0
 23 24  1  0  0  0  0
 23 25  1  0  0  0  0
 23 50  1  0  0  0  0
 24 51  1  0  0  0  0
 24 52  1  0  0  0  0
 24 53  1  0  0  0  0
M  END
> <s_m_source_file>
AV-unprocessed.smi

> <i_m_source_file_index>
1413

> <i_lp_mmshare_version>
43012

> <i_f3d_flags>
0

> <s_epik_input>
W0NIM11bQ0BASF0xW0NIMl1OKFtDSDJdW0NASF0oTzEpW0NIM10pYzJbY0hdW2NIXWMoW2NIXW4yKVtOSF1DKD1PKVtOSF1bQ0BIXShbQ0gzXSlbQ0BASF0zW0NIMl1bQ0gyXVtDSDJdTzM=

> <s_epik_cmdline>
J2VwaWtfcHl0aG9uJywgJy1waCcsICc3LjAnLCAnLXRuJywgJzgnLCAnLW1hJywgJzIwMCcsICctbWV0YWxfYmluZGluZycsICctaW1hZScsICc8aW5maWxlLm1hZT4nLCAnLW9tYWUnLCAnPG91dGZpbGUubWFlPic=

> <r_lp_tautomer_probability>
1

> <r_epik_Ionization_Penalty>
0.00271172

> <r_epik_Ionization_Penalty_Charging>
0

> <r_epik_Ionization_Penalty_Neutral>
0.00271172

> <r_epik_State_Penalty>
0.00186503

> <r_epik_Charging_Adjusted_Penalty>
0.00186503

> <i_epik_Tot_Q>
0

> <i_epik_Tot_abs_Q>
0

> <r_epik_Metal_State_Penalty>
-0

> <b_epik_Metal_Only>
0

> <s_lp_Force_Field>
OPLS_2005

> <r_lp_Energy>
33.7939

> <b_lp_Chiralities_Consistent>
1

> <s_lp_Variant>
AV-unprocessed.smi:1413-8

> <Gold.Version>
5.8.1

> <Gold.Id.Protein>
6NUR|6NUR_protein|mol2

> <Gold.PLP.Fitness>
47.8311

> <Gold.PLP.PLP>
-45.0460

> <Gold.PLP.part.hbond>
-2.9365

> <Gold.PLP.part.metal>
0.0000

> <Gold.PLP.part.buried>
2.3612

> <Gold.PLP.part.nonpolar>
-44.9942

> <Gold.PLP.part.repulsive>
0.4632

> <Gold.PLP.ligand.clash>
0.0000

> <Gold.PLP.ligand.torsion>
1.1061

> <Gold.PLP.Chemscore.Hbond>
1.5404

> <Gold.PLP.Chemscore.CHOScore>
0.0000

> <Gold.PLP.Chemscore.Metal>
0.0000

> <Gold.Chemscore.Hbonds>
donor molecule, donor type, donor heavy atom, donor atom, acceptor molecule, acceptor atom, score
      L1  H     9    34       P1  7948  0.56
      L1  H    12    35       P1  7948  0.81

> <Gold.PLP.Chemscore.Internal.Correction>
0.3762

> <Gold.Rescore>
     Score         DG    S(hbond)    S(metal)    S(lipo)     H(rot)  DE(clash)    DE(int)     intcor
     17.70     -22.75       1.85        0.00     124.38       1.35       2.89       2.17       ----

> <Gold.Chemscore.Fitness>
17.6954

> <Gold.Chemscore.DG>
-22.7532

> <Gold.Chemscore.ZeroCoef>
-5.4800

> <Gold.Chemscore.Hbond>
1.8470

> <Gold.Chemscore.Metal>
0.0000

> <Gold.Chemscore.Lipo>
124.3833

> <Gold.Chemscore.Internal_Hbond>
0.0000

> <Gold.Chemscore.DEClash>
2.8852

> <Gold.Chemscore.DEInternal>
2.1726

> <Gold.Chemscore.Rot>
1.3471

> <Gold.Chemscore.Internal.Correction>
   9.000000E+99

> <Gold.Chemscore.Hbonds>
donor molecule, donor type, donor heavy atom, donor atom, acceptor molecule, acceptor atom, score
      L1  H     9    34       P1  7948  0.51
      L1  H    12    35       P1  7948  0.78

> <Gold.Chemscore.Hbond.Weighted>
-6.1689

> <Gold.Chemscore.Metal.Weighted>
-0.0000

> <Gold.Chemscore.Lipo.Weighted>
-14.5528

> <Gold.Chemscore.Internal_Hbond.Weighted>
0.0000

> <Gold.Chemscore.DEClash.Weighted>
2.8852

> <Gold.Chemscore.DEInternal.Weighted>
2.1726

> <Gold.Chemscore.Rot.Weighted>
3.4485

> <Gold.Chemscore.Internal.Correction.Weighted>
   9.000000E+99

> <Gold.Protein.RotatedTorsions>
[ 6907 6896 6895 6894 ] final  107.71 input  -60.11 | X-H torsion
[ 7974 7965 7964 7962 ] final   -8.42 input  175.53 | X-H torsion
[ 8008 7997 7996 7995 ] final   67.28 input   59.86 | X-H torsion
[ 10167 10162 10161 10158 ] final  -43.08 input  -65.29 | X-H torsion
[ 10718 10713 10712 10709 ] final  -75.35 input   66.30 | X-H torsion
[ 10763 10752 10751 10750 ] final  -85.65 input  -60.55 | X-H torsion
[ 11005 11000 10999 10996 ] final   28.66 input  -57.11 | X-H torsion

> <Gold.Protein.ActiveResidues>
 VAL166  LYS551  ARG553  GLY616  TRP617  ASP618  TYR619  PRO620  LYS621  CYS622 
 ASP623  PHE694  ASN695  SER759  ASP760  ASP761  ALA762  ILE779  LEU786  VAL792 
 PHE793  MET794  SER795  GLU796  ALA797  LYS798  CYS799  TRP800  GLU811  SER814 

> <Gold.Protein.RotatedAtoms>
  152.5143  133.9195  159.7526 H   0  0  0  0  0  0  0  0  0  0  0  0  # atno 6907 bound_to 6896
  150.9570  133.6478  159.2768 H   0  0  0  0  0  0  0  0  0  0  0  0  # atno 6908 bound_to 6896
  151.3737  135.0932  159.9526 H   0  0  0  0  0  0  0  0  0  0  0  0  # atno 6909 bound_to 6896
  146.2281  140.2466  142.8345 H   0  0  0  0  0  0  0  0  0  0  0  0  # atno 7974 bound_to 7965
  155.6904  140.3496  155.4891 H   0  0  0  0  0  0  0  0  0  0  0  0  # atno 8008 bound_to 7997
  155.9529  140.1122  157.0984 H   0  0  0  0  0  0  0  0  0  0  0  0  # atno 8009 bound_to 7997
  154.4126  140.1190  156.5063 H   0  0  0  0  0  0  0  0  0  0  0  0  # atno 8010 bound_to 7997
  140.6947  143.3002  151.3300 H   0  0  0  0  0  0  0  0  0  0  0  0  # atno 10167 bound_to 10162
  156.0210  130.4439  150.3030 H   0  0  0  0  0  0  0  0  0  0  0  0  # atno 10718 bound_to 10713
  154.6135  135.5477  153.7499 H   0  0  0  0  0  0  0  0  0  0  0  0  # atno 10763 bound_to 10752
  153.0206  135.6395  154.1543 H   0  0  0  0  0  0  0  0  0  0  0  0  # atno 10764 bound_to 10752
  154.1480  135.2904  155.3123 H   0  0  0  0  0  0  0  0  0  0  0  0  # atno 10765 bound_to 10752
  140.3132  134.2626  155.7730 H   0  0  0  0  0  0  0  0  0  0  0  0  # atno 11005 bound_to 11000
  144.9444  140.8112  143.5611 LP  0  0  0  0  0  0  0  0  0  0  0  0  # atno 17320 bound_to 7965
  145.2420  139.2068  143.4987 LP  0  0  0  0  0  0  0  0  0  0  0  0  # atno 17321 bound_to 7965
  139.6388  144.0580  152.2537 LP  0  0  0  0  0  0  0  0  0  0  0  0  # atno 17342 bound_to 10162
  140.0078  144.6246  150.7673 LP  0  0  0  0  0  0  0  0  0  0  0  0  # atno 17343 bound_to 10162
  157.1133  131.0227  151.3039 LP  0  0  0  0  0  0  0  0  0  0  0  0  # atno 17370 bound_to 10713
  157.4687  130.7696  149.7303 LP  0  0  0  0  0  0  0  0  0  0  0  0  # atno 17371 bound_to 10713
  141.2103  133.7722  156.9939 LP  0  0  0  0  0  0  0  0  0  0  0  0  # atno 17394 bound_to 11000
  140.1006  134.9538  157.1917 LP  0  0  0  0  0  0  0  0  0  0  0  0  # atno 17395 bound_to 11000

$$$$
