AV-unprocessed.smi:1133|AV-procd|sdf|4856|dock6
  -GOLD-   22720 3423D 1   1.00000     0.00000
 Structure written by MMmdl.
 41 42  0  0  0  0  0  0  0  0  1 V2000
  145.9752  143.1950  156.3049 C   0  0  0  0  0  0  0  0  0  0  0  0
  147.1311  142.2827  156.7220 C   0  0  0  0  0  0  0  0  0  0  0  0
  147.2611  142.0246  157.9188 O   0  0  0  0  0  0  0  0  0  0  0  0
  147.9617  141.7894  155.7721 N   0  0  0  0  0  0  0  0  0  0  0  0
  149.0388  140.8399  156.0750 C   0  0  0  0  0  0  0  0  0  0  0  0
  148.6535  139.4589  155.5142 C   0  0  0  0  0  0  0  0  0  0  0  0
  148.3502  139.5296  154.0018 C   0  0  0  0  0  0  0  0  0  0  0  0
  147.8073  138.2522  153.5500 N   0  0  0  0  0  0  0  0  0  0  0  0
  146.5958  137.7741  153.8665 C   0  0  0  0  0  0  0  0  0  0  0  0
  145.7810  138.3689  154.5723 O   0  0  0  0  0  0  0  0  0  0  0  0
  146.3813  136.5651  153.3290 N   0  0  0  0  0  0  0  0  0  0  0  0
  145.1646  135.7807  153.5026 C   0  0  0  0  0  0  0  0  0  0  0  0
  144.4979  135.4625  152.1537 C   0  0  0  0  0  0  0  0  0  0  0  0
  144.9456  134.1892  151.6284 N   0  0  0  0  0  0  0  0  0  0  0  0
  146.2549  133.7943  151.3885 C   0  0  0  0  0  0  0  0  0  0  0  0
  146.1933  132.5117  150.8922 C   0  0  0  0  0  0  0  0  0  0  0  0
  144.8643  132.1012  150.8167 N   0  0  0  0  0  0  0  0  0  0  0  0
  144.1840  133.1467  151.2693 C   0  0  0  0  0  0  0  0  0  0  0  0
  147.3707  140.6811  153.6746 C   0  0  0  0  0  0  0  0  0  0  0  0
  147.8204  142.0007  154.3263 C   0  0  0  0  0  0  0  0  0  0  0  0
  145.3173  142.6882  155.5981 H   0  0  0  0  0  0  0  0  0  0  0  0
  146.3512  144.1105  155.8475 H   0  0  0  0  0  0  0  0  0  0  0  0
  145.3767  143.4777  157.1716 H   0  0  0  0  0  0  0  0  0  0  0  0
  149.9668  141.1859  155.6173 H   0  0  0  0  0  0  0  0  0  0  0  0
  149.2462  140.7625  157.1430 H   0  0  0  0  0  0  0  0  0  0  0  0
  149.4556  138.7444  155.7025 H   0  0  0  0  0  0  0  0  0  0  0  0
  147.7780  139.0900  156.0510 H   0  0  0  0  0  0  0  0  0  0  0  0
  149.2927  139.7218  153.4853 H   0  0  0  0  0  0  0  0  0  0  0  0
  148.4032  137.6870  152.9630 H   0  0  0  0  0  0  0  0  0  0  0  0
  147.1113  136.1566  152.7639 H   0  0  0  0  0  0  0  0  0  0  0  0
  145.3900  134.8614  154.0464 H   0  0  0  0  0  0  0  0  0  0  0  0
  144.4801  136.3527  154.1297 H   0  0  0  0  0  0  0  0  0  0  0  0
  143.4127  135.4326  152.2614 H   0  0  0  0  0  0  0  0  0  0  0  0
  144.7227  136.2353  151.4173 H   0  0  0  0  0  0  0  0  0  0  0  0
  147.0981  134.4400  151.5852 H   0  0  0  0  0  0  0  0  0  0  0  0
  146.9964  131.8583  150.5848 H   0  0  0  0  0  0  0  0  0  0  0  0
  143.1059  133.1554  151.3394 H   0  0  0  0  0  0  0  0  0  0  0  0
  147.2886  140.8106  152.5949 H   0  0  0  0  0  0  0  0  0  0  0  0
  146.3709  140.4296  154.0322 H   0  0  0  0  0  0  0  0  0  0  0  0
  147.1263  142.7986  154.0665 H   0  0  0  0  0  0  0  0  0  0  0  0
  148.7822  142.3093  153.9141 H   0  0  0  0  0  0  0  0  0  0  0  0
  1  2  1  0  0  0  0
  1 21  1  0  0  0  0
  1 22  1  0  0  0  0
  1 23  1  0  0  0  0
  2  3  2  0  0  0  0
  2  4  1  0  0  0  0
  4 20  1  0  0  0  0
  4  5  1  0  0  0  0
  5  6  1  0  0  0  0
  5 24  1  0  0  0  0
  5 25  1  0  0  0  0
  6  7  1  0  0  0  0
  6 26  1  0  0  0  0
  6 27  1  0  0  0  0
  7  8  1  0  0  0  0
  7 19  1  0  0  0  0
  7 28  1  0  0  0  0
  8  9  1  0  0  0  0
  8 29  1  0  0  0  0
  9 10  2  0  0  0  0
  9 11  1  0  0  0  0
 11 12  1  0  0  0  0
 11 30  1  0  0  0  0
 12 13  1  0  0  0  0
 12 31  1  0  0  0  0
 12 32  1  0  0  0  0
 13 14  1  0  0  0  0
 13 33  1  0  0  0  0
 13 34  1  0  0  0  0
 14 18  1  0  0  0  0
 14 15  1  0  0  0  0
 15 16  2  0  0  0  0
 15 35  1  0  0  0  0
 16 17  1  0  0  0  0
 16 36  1  0  0  0  0
 17 18  2  0  0  0  0
 18 37  1  0  0  0  0
 19 20  1  0  0  0  0
 19 38  1  0  0  0  0
 19 39  1  0  0  0  0
 20 40  1  0  0  0  0
 20 41  1  0  0  0  0
M  END
> <s_m_source_file>
AV-unprocessed.smi

> <i_m_source_file_index>
1133

> <i_lp_mmshare_version>
43012

> <i_f3d_flags>
0

> <s_epik_input>
W0NIM11DKD1PKU4xW0NIMl1bQ0gyXVtDSF0oW0NIMl1bQ0gyXTEpW05IXUMoPU8pW05IXVtDSDJdW0NIMl1uMltjSF1bY0hdbltjSF0y

> <s_epik_cmdline>
J2VwaWtfcHl0aG9uJywgJy1waCcsICc3LjAnLCAnLXRuJywgJzgnLCAnLW1hJywgJzIwMCcsICctbWV0YWxfYmluZGluZycsICctaW1hZScsICc8aW5maWxlLm1hZT4nLCAnLW9tYWUnLCAnPG91dGZpbGUubWFlPic=

> <r_lp_tautomer_probability>
1

> <r_epik_Ionization_Penalty>
0.622276

> <r_epik_Ionization_Penalty_Charging>
0.622222

> <r_epik_Ionization_Penalty_Neutral>
5.3634e-05

> <r_epik_State_Penalty>
0.638348

> <r_epik_Charging_Adjusted_Penalty>
1.26057

> <i_epik_Tot_Q>
0

> <i_epik_Tot_abs_Q>
0

> <r_epik_Metal_State_Penalty>
0.307013

> <b_epik_Metal_Only>
0

> <s_lp_Force_Field>
OPLS_2005

> <r_lp_Energy>
21.3303

> <b_lp_Chiralities_Consistent>
1

> <s_lp_Variant>
AV-unprocessed.smi:1133-2

> <Gold.Version>
5.8.1

> <Gold.Id.Protein>
6NUR|6NUR_protein|mol2

> <Gold.PLP.Fitness>
43.1244

> <Gold.PLP.PLP>
-28.9239

> <Gold.PLP.part.hbond>
-2.0000

> <Gold.PLP.part.metal>
0.0000

> <Gold.PLP.part.buried>
-3.7432

> <Gold.PLP.part.nonpolar>
-23.2101

> <Gold.PLP.part.repulsive>
0.4373

> <Gold.PLP.ligand.clash>
0.0000

> <Gold.PLP.ligand.torsion>
0.3075

> <Gold.PLP.Chemscore.Hbond>
2.0000

> <Gold.PLP.Chemscore.CHOScore>
2.9294

> <Gold.PLP.Chemscore.Metal>
0.0000

> <Gold.Chemscore.Hbonds>
donor molecule, donor type, donor heavy atom, donor atom, acceptor molecule, acceptor atom, score
      L1  H     8    29       P1  7948  1.00
      L1  H    11    30       P1  7948  0.96
      L1  C    15    35       P1  7948  0.98
      L1  C    16    36       P1 10747  1.00

> <Gold.PLP.Chemscore.Internal.Correction>
0.0273

> <Gold.Rescore>
     Score         DG    S(hbond)    S(metal)    S(lipo)     H(rot)  DE(clash)    DE(int)     intcor
     12.08     -13.19       1.94        0.00      54.49       2.01       0.05       1.06       ----

> <Gold.Chemscore.Fitness>
12.0790

> <Gold.Chemscore.DG>
-13.1910

> <Gold.Chemscore.ZeroCoef>
-5.4800

> <Gold.Chemscore.Hbond>
1.9420

> <Gold.Chemscore.Metal>
0.0000

> <Gold.Chemscore.Lipo>
54.4874

> <Gold.Chemscore.Internal_Hbond>
0.0000

> <Gold.Chemscore.DEClash>
0.0474

> <Gold.Chemscore.DEInternal>
1.0646

> <Gold.Chemscore.Rot>
2.0119

> <Gold.Chemscore.Internal.Correction>
   9.000000E+99

> <Gold.Chemscore.Hbonds>
donor molecule, donor type, donor heavy atom, donor atom, acceptor molecule, acceptor atom, score
      L1  H     8    29       P1  7948  0.99
      L1  H    11    30       P1  7948  0.88

> <Gold.Chemscore.Hbond.Weighted>
-6.4863

> <Gold.Chemscore.Metal.Weighted>
-0.0000

> <Gold.Chemscore.Lipo.Weighted>
-6.3750

> <Gold.Chemscore.Internal_Hbond.Weighted>
0.0000

> <Gold.Chemscore.DEClash.Weighted>
0.0474

> <Gold.Chemscore.DEInternal.Weighted>
1.0646

> <Gold.Chemscore.Rot.Weighted>
5.1503

> <Gold.Chemscore.Internal.Correction.Weighted>
   9.000000E+99

> <Gold.Protein.RotatedTorsions>
[ 6907 6896 6895 6894 ] final   -6.41 input  -60.11 | X-H torsion
[ 7974 7965 7964 7962 ] final   24.22 input  175.53 | X-H torsion
[ 8008 7997 7996 7995 ] final -151.93 input   59.86 | X-H torsion
[ 10167 10162 10161 10158 ] final  -26.79 input  -65.29 | X-H torsion
[ 10718 10713 10712 10709 ] final  -61.19 input   66.30 | X-H torsion
[ 10763 10752 10751 10750 ] final  -55.73 input  -60.55 | X-H torsion
[ 11005 11000 10999 10996 ] final   26.73 input  -57.11 | X-H torsion

> <Gold.Protein.ActiveResidues>
 VAL166  LYS551  ARG553  GLY616  TRP617  ASP618  TYR619  PRO620  LYS621  CYS622 
 ASP623  PHE694  ASN695  SER759  ASP760  ASP761  ALA762  ILE779  LEU786  VAL792 
 PHE793  MET794  SER795  GLU796  ALA797  LYS798  CYS799  TRP800  GLU811  SER814 

> <Gold.Protein.RotatedAtoms>
  151.4660  135.1042  159.9737 H   0  0  0  0  0  0  0  0  0  0  0  0  # atno 6907 bound_to 6896
  152.4835  133.8309  159.7113 H   0  0  0  0  0  0  0  0  0  0  0  0  # atno 6908 bound_to 6896
  150.8925  133.7164  159.2927 H   0  0  0  0  0  0  0  0  0  0  0  0  # atno 6909 bound_to 6896
  146.1948  139.7635  142.8805 H   0  0  0  0  0  0  0  0  0  0  0  0  # atno 7974 bound_to 7965
  155.6472  140.0708  157.2599 H   0  0  0  0  0  0  0  0  0  0  0  0  # atno 8008 bound_to 7997
  154.4170  140.1740  156.1686 H   0  0  0  0  0  0  0  0  0  0  0  0  # atno 8009 bound_to 7997
  155.9807  140.3354  155.6663 H   0  0  0  0  0  0  0  0  0  0  0  0  # atno 8010 bound_to 7997
  140.7281  143.4148  151.1046 H   0  0  0  0  0  0  0  0  0  0  0  0  # atno 10167 bound_to 10162
  156.0939  130.4196  150.0959 H   0  0  0  0  0  0  0  0  0  0  0  0  # atno 10718 bound_to 10713
  154.1954  135.6420  153.5072 H   0  0  0  0  0  0  0  0  0  0  0  0  # atno 10763 bound_to 10752
  153.0025  135.5438  154.6371 H   0  0  0  0  0  0  0  0  0  0  0  0  # atno 10764 bound_to 10752
  154.5771  135.2922  155.0743 H   0  0  0  0  0  0  0  0  0  0  0  0  # atno 10765 bound_to 10752
  140.3339  134.2407  155.7698 H   0  0  0  0  0  0  0  0  0  0  0  0  # atno 11005 bound_to 11000
  145.3679  141.0337  143.3248 LP  0  0  0  0  0  0  0  0  0  0  0  0  # atno 17320 bound_to 7965
  144.8558  139.5252  143.6835 LP  0  0  0  0  0  0  0  0  0  0  0  0  # atno 17321 bound_to 7965
  139.7786  143.8388  152.3134 LP  0  0  0  0  0  0  0  0  0  0  0  0  # atno 17342 bound_to 10162
  139.8331  144.7244  150.9425 LP  0  0  0  0  0  0  0  0  0  0  0  0  # atno 17343 bound_to 10162
  156.8963  130.9605  151.3582 LP  0  0  0  0  0  0  0  0  0  0  0  0  # atno 17370 bound_to 10713
  157.6095  130.8572  149.8928 LP  0  0  0  0  0  0  0  0  0  0  0  0  # atno 17371 bound_to 10713
  141.2056  133.7855  157.0222 LP  0  0  0  0  0  0  0  0  0  0  0  0  # atno 17394 bound_to 11000
  140.0837  134.9633  157.1666 LP  0  0  0  0  0  0  0  0  0  0  0  0  # atno 17395 bound_to 11000

$$$$
