AV-unprocessed.smi:50|AV-procd|sdf|494|dock5
  -GOLD-   2262016363D 1   1.00000     0.00000
 Structure written by MMmdl.
 43 44  0  0  0  0  0  0  0  0  1 V2000
  147.9526  140.6350  154.9740 C   0  0  0  0  0  0  0  0  0  0  0  0
  148.4087  139.8070  153.7547 C   0  0  0  0  0  0  0  0  0  0  0  0
  147.1972  139.5738  152.8317 C   0  0  0  0  0  0  0  0  0  0  0  0
  149.1132  138.4681  154.1247 C   0  0  1  0  0  0  0  0  0  0  0  0
  149.4650  137.7238  152.9155 N   0  0  0  0  0  0  0  0  0  0  0  0
  150.3533  138.6742  155.0129 C   0  0  0  0  0  0  0  0  0  0  0  0
  151.2664  139.4624  154.7588 O   0  0  0  0  0  0  0  0  0  0  0  0
  150.2859  137.8973  156.1065 O   0  0  0  0  0  0  0  0  0  0  0  0
  151.4321  137.7380  156.9257 C   0  0  0  0  0  0  0  0  0  0  0  0
  151.2670  136.4958  157.8062 C   0  0  0  0  0  0  0  0  0  0  0  0
  150.6972  136.8726  159.0544 O   0  0  0  0  0  0  0  0  0  0  0  0
  149.3067  136.9244  159.0866 C   0  0  0  0  0  0  0  0  0  0  0  0
  148.8171  135.9177  160.0143 N   0  0  0  0  0  0  0  0  0  0  0  0
  148.1361  136.1107  161.1900 C   0  0  0  0  0  0  0  0  0  0  0  0
  147.8134  135.0068  161.8037 N   0  0  0  0  0  0  0  0  0  0  0  0
  148.3155  134.0018  160.9820 C   0  0  0  0  0  0  0  0  0  0  0  0
  148.2662  132.5754  161.1323 C   0  0  0  0  0  0  0  0  0  0  0  0
  147.7511  131.9225  162.0373 O   0  0  0  0  0  0  0  0  0  0  0  0
  148.9099  131.9113  160.0804 N   0  0  0  0  0  0  0  0  0  0  0  0
  149.5221  132.5550  159.0077 C   0  0  0  0  0  0  0  0  0  0  0  0
  150.0997  131.7742  158.0852 N   0  0  0  0  0  0  0  0  0  0  0  0
  149.5591  133.8683  158.8661 N   0  0  0  0  0  0  0  0  0  0  0  0
  148.9420  134.5510  159.8800 C   0  0  0  0  0  0  0  0  0  0  0  0
  148.4019  137.8587  154.6807 H   0  0  0  0  0  0  0  0  0  0  0  0
  148.9226  130.9026  160.1174 H   0  0  0  0  0  0  0  0  0  0  0  0
  147.3086  140.0490  155.6291 H   0  0  0  0  0  0  0  0  0  0  0  0
  147.3916  141.5170  154.6633 H   0  0  0  0  0  0  0  0  0  0  0  0
  148.7954  140.9941  155.5647 H   0  0  0  0  0  0  0  0  0  0  0  0
  149.1215  140.4212  153.2021 H   0  0  0  0  0  0  0  0  0  0  0  0
  146.4418  138.9582  153.3182 H   0  0  0  0  0  0  0  0  0  0  0  0
  147.4809  139.0782  151.9035 H   0  0  0  0  0  0  0  0  0  0  0  0
  146.7254  140.5173  152.5561 H   0  0  0  0  0  0  0  0  0  0  0  0
  149.0015  136.8273  152.8824 H   0  0  0  0  0  0  0  0  0  0  0  0
  149.1956  138.2230  152.0799 H   0  0  0  0  0  0  0  0  0  0  0  0
  152.3400  137.6669  156.3246 H   0  0  0  0  0  0  0  0  0  0  0  0
  151.5268  138.6212  157.5588 H   0  0  0  0  0  0  0  0  0  0  0  0
  150.5649  135.8108  157.3308 H   0  0  0  0  0  0  0  0  0  0  0  0
  152.2108  135.9552  157.8950 H   0  0  0  0  0  0  0  0  0  0  0  0
  149.0111  137.9015  159.4697 H   0  0  0  0  0  0  0  0  0  0  0  0
  148.8634  136.7989  158.0971 H   0  0  0  0  0  0  0  0  0  0  0  0
  147.8869  137.0891  161.5741 H   0  0  0  0  0  0  0  0  0  0  0  0
  150.0745  130.7702  158.1922 H   0  0  0  0  0  0  0  0  0  0  0  0
  150.5601  132.1846  157.2856 H   0  0  0  0  0  0  0  0  0  0  0  0
  1  2  1  0  0  0  0
  1 26  1  0  0  0  0
  1 27  1  0  0  0  0
  1 28  1  0  0  0  0
  2  3  1  0  0  0  0
  2  4  1  0  0  0  0
  2 29  1  0  0  0  0
  3 30  1  0  0  0  0
  3 31  1  0  0  0  0
  3 32  1  0  0  0  0
  4 24  1  0  0  0  0
  4  5  1  0  0  0  0
  4  6  1  0  0  0  0
  5 33  1  0  0  0  0
  5 34  1  0  0  0  0
  6  7  2  0  0  0  0
  6  8  1  0  0  0  0
  8  9  1  0  0  0  0
  9 10  1  0  0  0  0
  9 35  1  0  0  0  0
  9 36  1  0  0  0  0
 10 11  1  0  0  0  0
 10 37  1  0  0  0  0
 10 38  1  0  0  0  0
 11 12  1  0  0  0  0
 12 13  1  0  0  0  0
 12 39  1  0  0  0  0
 12 40  1  0  0  0  0
 13 23  1  0  0  0  0
 13 14  1  0  0  0  0
 14 15  2  0  0  0  0
 14 41  1  0  0  0  0
 15 16  1  0  0  0  0
 16 23  2  0  0  0  0
 16 17  1  0  0  0  0
 17 18  2  0  0  0  0
 17 19  1  0  0  0  0
 19 25  1  0  0  0  0
 19 20  1  0  0  0  0
 20 21  1  0  0  0  0
 20 22  2  0  0  0  0
 21 42  1  0  0  0  0
 21 43  1  0  0  0  0
 22 23  1  0  0  0  0
M  END
> <s_m_source_file>
AV-unprocessed.smi

> <i_m_source_file_index>
50

> <i_lp_mmshare_version>
43012

> <i_f3d_flags>
0

> <s_epik_input>
W0NIM11bQ0hdKFtDSDNdKVtDQEhdKFtOSDJdKUMoPU8pT1tDSDJdW0NIMl1PW0NIMl1uKFtjSF1uMSljKGMxMiluYyhbTkgyXSlbbkhdYzI9Tw==

> <s_epik_cmdline>
J2VwaWtfcHl0aG9uJywgJy1waCcsICc3LjAnLCAnLXRuJywgJzgnLCAnLW1hJywgJzIwMCcsICctbWV0YWxfYmluZGluZycsICctaW1hZScsICc8aW5maWxlLm1hZT4nLCAnLW9tYWUnLCAnPG91dGZpbGUubWFlPic=

> <r_lp_tautomer_probability>
0.99994

> <r_epik_Ionization_Penalty>
0.704142

> <r_epik_Ionization_Penalty_Charging>
0.00148332

> <r_epik_Ionization_Penalty_Neutral>
0.702658

> <r_epik_State_Penalty>
0.725442

> <r_epik_Charging_Adjusted_Penalty>
0.726926

> <i_epik_Tot_Q>
0

> <i_epik_Tot_abs_Q>
0

> <r_epik_Metal_State_Penalty>
1.04557

> <b_epik_Metal_Only>
0

> <s_epik_Chemistry_Notes>
This compound has an ester and may undergo hydrolysis at high or low pH. This compound contains an acetal/aminal-like group ( X-CH(R)-Y where X, Y are N, S, or O) that may be acid/base labile, releasing an aldehyde.

> <s_lp_Force_Field>
OPLS_2005

> <r_lp_Energy>
2.75991

> <b_lp_Chiralities_Consistent>
1

> <s_lp_Variant>
AV-unprocessed.smi:50-4

> <Gold.Version>
5.8.1

> <Gold.Id.Protein>
6NUR|6NUR_protein|mol2

> <Gold.PLP.Fitness>
36.5378

> <Gold.PLP.PLP>
-29.4110

> <Gold.PLP.part.hbond>
-4.2098

> <Gold.PLP.part.metal>
0.0000

> <Gold.PLP.part.buried>
-4.5167

> <Gold.PLP.part.nonpolar>
-21.8659

> <Gold.PLP.part.repulsive>
0.1417

> <Gold.PLP.ligand.clash>
0.0000

> <Gold.PLP.ligand.torsion>
1.2105

> <Gold.PLP.Chemscore.Hbond>
3.1400

> <Gold.PLP.Chemscore.CHOScore>
0.0000

> <Gold.PLP.Chemscore.Metal>
0.0000

> <Gold.Chemscore.Hbonds>
donor molecule, donor type, donor heavy atom, donor atom, acceptor molecule, acceptor atom, score
      L1  H     5    33       P1  7948  0.03
      L1  H     5    34       P1  7957  0.65
      P1  H  6896  6907       L1    11  0.55
      P1  H  7989  7998       L1     7  1.00

> <Gold.PLP.Chemscore.Internal.Correction>
0.1276

> <Gold.Rescore>
     Score         DG    S(hbond)    S(metal)    S(lipo)     H(rot)  DE(clash)    DE(int)     intcor
      5.00      -6.34       2.56        0.00      38.04       4.75       0.04       1.29       ----

> <Gold.Chemscore.Fitness>
5.0029

> <Gold.Chemscore.DG>
-6.3363

> <Gold.Chemscore.ZeroCoef>
-5.4800

> <Gold.Chemscore.Hbond>
2.5646

> <Gold.Chemscore.Metal>
0.0000

> <Gold.Chemscore.Lipo>
38.0403

> <Gold.Chemscore.Internal_Hbond>
0.0000

> <Gold.Chemscore.DEClash>
0.0442

> <Gold.Chemscore.DEInternal>
1.2891

> <Gold.Chemscore.Rot>
4.7501

> <Gold.Chemscore.Internal.Correction>
   9.000000E+99

> <Gold.Chemscore.Hbonds>
donor molecule, donor type, donor heavy atom, donor atom, acceptor molecule, acceptor atom, score
      L1  H     5    33       P1  7948  0.05
      L1  H     5    34       P1  7957  0.10
      P1  H  6896  6907       L1    11  0.01
      P1  H  7989  7998       L1     7  1.00

> <Gold.Chemscore.Hbond.Weighted>
-8.5658

> <Gold.Chemscore.Metal.Weighted>
-0.0000

> <Gold.Chemscore.Lipo.Weighted>
-4.4507

> <Gold.Chemscore.Internal_Hbond.Weighted>
0.0000

> <Gold.Chemscore.DEClash.Weighted>
0.0442

> <Gold.Chemscore.DEInternal.Weighted>
1.2891

> <Gold.Chemscore.Rot.Weighted>
12.1603

> <Gold.Chemscore.Internal.Correction.Weighted>
   9.000000E+99

> <Gold.Protein.RotatedTorsions>
[ 6907 6896 6895 6894 ] final  -24.73 input  -60.11 | X-H torsion
[ 7974 7965 7964 7962 ] final   98.94 input  175.53 | X-H torsion
[ 8008 7997 7996 7995 ] final  176.91 input   59.86 | X-H torsion
[ 10167 10162 10161 10158 ] final  -54.52 input  -65.29 | X-H torsion
[ 10718 10713 10712 10709 ] final  160.82 input   66.30 | X-H torsion
[ 10763 10752 10751 10750 ] final  -54.63 input  -60.55 | X-H torsion
[ 11005 11000 10999 10996 ] final  -29.50 input  -57.11 | X-H torsion

> <Gold.Protein.ActiveResidues>
 VAL166  LYS551  ARG553  GLY616  TRP617  ASP618  TYR619  PRO620  LYS621  CYS622 
 ASP623  PHE694  ASN695  SER759  ASP760  ASP761  ALA762  ILE779  LEU786  VAL792 
 PHE793  MET794  SER795  GLU796  ALA797  LYS798  CYS799  TRP800  GLU811  SER814 

> <Gold.Protein.RotatedAtoms>
  151.1853  135.0379  159.8809 H   0  0  0  0  0  0  0  0  0  0  0  0  # atno 6907 bound_to 6896
  152.5442  134.1017  159.8331 H   0  0  0  0  0  0  0  0  0  0  0  0  # atno 6908 bound_to 6896
  151.1139  133.5106  159.2637 H   0  0  0  0  0  0  0  0  0  0  0  0  # atno 6909 bound_to 6896
  145.4055  139.2341  143.3276 H   0  0  0  0  0  0  0  0  0  0  0  0  # atno 7974 bound_to 7965
  156.0714  140.1372  156.9824 H   0  0  0  0  0  0  0  0  0  0  0  0  # atno 8008 bound_to 7997
  154.4534  140.0971  156.6736 H   0  0  0  0  0  0  0  0  0  0  0  0  # atno 8009 bound_to 7997
  155.5222  140.3456  155.4411 H   0  0  0  0  0  0  0  0  0  0  0  0  # atno 8010 bound_to 7997
  140.6426  143.2516  151.4947 H   0  0  0  0  0  0  0  0  0  0  0  0  # atno 10167 bound_to 10162
  157.1451  131.0550  151.2307 H   0  0  0  0  0  0  0  0  0  0  0  0  # atno 10718 bound_to 10713
  154.1779  135.6448  153.5026 H   0  0  0  0  0  0  0  0  0  0  0  0  # atno 10763 bound_to 10752
  153.0067  135.5399  154.6545 H   0  0  0  0  0  0  0  0  0  0  0  0  # atno 10764 bound_to 10752
  154.5901  135.2933  155.0616 H   0  0  0  0  0  0  0  0  0  0  0  0  # atno 10765 bound_to 10752
  140.9302  133.7343  156.0925 H   0  0  0  0  0  0  0  0  0  0  0  0  # atno 11005 bound_to 11000
  146.2730  140.4759  142.8806 LP  0  0  0  0  0  0  0  0  0  0  0  0  # atno 17320 bound_to 7965
  144.8344  140.6759  143.6270 LP  0  0  0  0  0  0  0  0  0  0  0  0  # atno 17321 bound_to 7965
  139.5635  144.2097  152.1729 LP  0  0  0  0  0  0  0  0  0  0  0  0  # atno 17342 bound_to 10162
  140.1372  144.5234  150.6766 LP  0  0  0  0  0  0  0  0  0  0  0  0  # atno 17343 bound_to 10162
  157.4272  130.7470  149.6960 LP  0  0  0  0  0  0  0  0  0  0  0  0  # atno 17370 bound_to 10713
  155.9781  130.4055  150.3670 LP  0  0  0  0  0  0  0  0  0  0  0  0  # atno 17371 bound_to 10713
  140.7873  134.3657  157.5473 LP  0  0  0  0  0  0  0  0  0  0  0  0  # atno 17394 bound_to 11000
  139.8794  134.9118  156.3047 LP  0  0  0  0  0  0  0  0  0  0  0  0  # atno 17395 bound_to 11000

$$$$
