AV-unprocessed.smi:232|AV-procd|sdf|1780|dock8
  -GOLD-   2262020323D 1   1.00000     0.00000
 Structure written by MMmdl.
 52 55  0  0  0  0  0  0  0  0  1 V2000
  153.9799  138.2153  160.4263 C   0  0  0  0  0  0  0  0  0  0  0  0
  153.8688  139.2705  159.3188 C   0  0  0  0  0  0  0  0  0  0  0  0
  152.8202  140.3615  159.6228 C   0  0  1  0  0  0  0  0  0  0  0  0
  153.1453  141.2083  160.8637 C   0  0  0  0  0  0  0  0  0  0  0  0
  152.6322  142.6144  160.5307 C   0  0  0  0  0  0  0  0  0  0  0  0
  151.9897  142.4709  159.1477 C   0  0  1  0  0  0  0  0  0  0  0  0
  152.0765  143.7470  158.2949 C   0  0  0  0  0  0  0  0  0  0  0  0
  152.6710  141.3317  158.5436 N   0  0  0  0  0  0  0  0  0  0  0  0
  152.1203  140.8408  157.4081 C   0  0  0  0  0  0  0  0  0  0  0  0
  152.8121  139.9725  156.6228 N   0  0  0  0  0  0  0  0  0  0  0  0
  152.2601  139.5029  155.4997 C   0  0  0  0  0  0  0  0  0  0  0  0
  151.0569  139.7689  154.9853 N   0  0  0  0  0  0  0  0  0  0  0  0
  150.3650  140.6422  155.7722 C   0  0  0  0  0  0  0  0  0  0  0  0
  150.8187  141.2207  156.9896 C   0  0  0  0  0  0  0  0  0  0  0  0
  149.8440  142.0616  157.5119 N   0  0  0  0  0  0  0  0  0  0  0  0
  148.8665  141.9850  156.6498 C   0  0  0  0  0  0  0  0  0  0  0  0
  149.0948  141.1530  155.5765 N   0  0  0  0  0  0  0  0  0  0  0  0
  148.1880  140.8788  154.4763 C   0  0  0  0  0  0  0  0  0  0  0  0
  146.7932  140.4402  154.9629 C   0  0  1  0  0  0  0  0  0  0  0  0
  146.8915  139.2972  155.7925 O   0  0  0  0  0  0  0  0  0  0  0  0
  146.0265  141.5690  155.6812 C   0  0  1  0  0  0  0  0  0  0  0  0
  145.7706  142.8440  154.8592 C   0  0  0  0  0  0  0  0  0  0  0  0
  144.2803  143.0931  155.0267 C   0  0  0  0  0  0  0  0  0  0  0  0
  143.9230  142.2698  156.2586 C   0  0  0  0  0  0  0  0  0  0  0  0
  144.7500  141.1259  156.1284 O   0  0  0  0  0  0  0  0  0  0  0  0
  154.7035  137.4461  160.1558 H   0  0  0  0  0  0  0  0  0  0  0  0
  153.0218  137.7244  160.5984 H   0  0  0  0  0  0  0  0  0  0  0  0
  154.3052  138.6570  161.3684 H   0  0  0  0  0  0  0  0  0  0  0  0
  154.8437  139.7299  159.1518 H   0  0  0  0  0  0  0  0  0  0  0  0
  153.6118  138.7591  158.3908 H   0  0  0  0  0  0  0  0  0  0  0  0
  151.8518  139.8823  159.7801 H   0  0  0  0  0  0  0  0  0  0  0  0
  152.6733  140.7988  161.7575 H   0  0  0  0  0  0  0  0  0  0  0  0
  154.2202  141.2465  161.0458 H   0  0  0  0  0  0  0  0  0  0  0  0
  151.9220  142.9860  161.2701 H   0  0  0  0  0  0  0  0  0  0  0  0
  153.4720  143.3101  160.4986 H   0  0  0  0  0  0  0  0  0  0  0  0
  150.9383  142.2173  159.2930 H   0  0  0  0  0  0  0  0  0  0  0  0
  151.5942  144.5843  158.7995 H   0  0  0  0  0  0  0  0  0  0  0  0
  151.5824  143.6167  157.3317 H   0  0  0  0  0  0  0  0  0  0  0  0
  153.1131  144.0250  158.1024 H   0  0  0  0  0  0  0  0  0  0  0  0
  152.8704  138.8164  154.9314 H   0  0  0  0  0  0  0  0  0  0  0  0
  147.9445  142.5341  156.7758 H   0  0  0  0  0  0  0  0  0  0  0  0
  148.1150  141.7723  153.8544 H   0  0  0  0  0  0  0  0  0  0  0  0
  148.6327  140.1012  153.8543 H   0  0  0  0  0  0  0  0  0  0  0  0
  146.2031  140.1412  154.0955 H   0  0  0  0  0  0  0  0  0  0  0  0
  147.5051  139.4838  156.4864 H   0  0  0  0  0  0  0  0  0  0  0  0
  146.5854  141.8507  156.5753 H   0  0  0  0  0  0  0  0  0  0  0  0
  146.3516  143.6737  155.2640 H   0  0  0  0  0  0  0  0  0  0  0  0
  146.0360  142.7438  153.8065 H   0  0  0  0  0  0  0  0  0  0  0  0
  144.0326  144.1493  155.1356 H   0  0  0  0  0  0  0  0  0  0  0  0
  143.7435  142.7062  154.1597 H   0  0  0  0  0  0  0  0  0  0  0  0
  144.1781  142.8050  157.1747 H   0  0  0  0  0  0  0  0  0  0  0  0
  142.8669  142.0022  156.2965 H   0  0  0  0  0  0  0  0  0  0  0  0
  1  2  1  0  0  0  0
  1 26  1  0  0  0  0
  1 27  1  0  0  0  0
  1 28  1  0  0  0  0
  2  3  1  0  0  0  0
  2 29  1  0  0  0  0
  2 30  1  0  0  0  0
  3  8  1  0  0  0  0
  3  4  1  0  0  0  0
  3 31  1  0  0  0  0
  4  5  1  0  0  0  0
  4 32  1  0  0  0  0
  4 33  1  0  0  0  0
  5  6  1  0  0  0  0
  5 34  1  0  0  0  0
  5 35  1  0  0  0  0
  6  7  1  0  0  0  0
  6  8  1  0  0  0  0
  6 36  1  0  0  0  0
  7 37  1  0  0  0  0
  7 38  1  0  0  0  0
  7 39  1  0  0  0  0
  8  9  1  0  0  0  0
  9 14  1  0  0  0  0
  9 10  2  0  0  0  0
 10 11  1  0  0  0  0
 11 12  2  0  0  0  0
 11 40  1  0  0  0  0
 12 13  1  0  0  0  0
 13 17  1  0  0  0  0
 13 14  2  0  0  0  0
 14 15  1  0  0  0  0
 15 16  2  0  0  0  0
 16 17  1  0  0  0  0
 16 41  1  0  0  0  0
 17 18  1  0  0  0  0
 18 19  1  0  0  0  0
 18 42  1  0  0  0  0
 18 43  1  0  0  0  0
 19 20  1  0  0  0  0
 19 21  1  0  0  0  0
 19 44  1  0  0  0  0
 20 45  1  0  0  0  0
 21 25  1  0  0  0  0
 21 22  1  0  0  0  0
 21 46  1  0  0  0  0
 22 23  1  0  0  0  0
 22 47  1  0  0  0  0
 22 48  1  0  0  0  0
 23 24  1  0  0  0  0
 23 49  1  0  0  0  0
 23 50  1  0  0  0  0
 24 25  1  0  0  0  0
 24 51  1  0  0  0  0
 24 52  1  0  0  0  0
M  END
> <s_m_source_file>
AV-unprocessed.smi

> <i_m_source_file_index>
232

> <i_lp_mmshare_version>
43012

> <i_f3d_flags>
0

> <s_epik_input>
W0NIM11bQ0gyXVtDQEBIXTFbQ0gyXVtDSDJdW0NAQEhdKFtDSDNdKU4xYyhuW2NIXW4yKWMoYzIzKW5bY0hdbjNbQ0gyXVtDQEhdKFtPSF0pW0NAQEhdNFtDSDJdW0NIMl1bQ0gyXU80

> <s_epik_cmdline>
J2VwaWtfcHl0aG9uJywgJy1waCcsICc3LjAnLCAnLXRuJywgJzgnLCAnLW1hJywgJzIwMCcsICctbWV0YWxfYmluZGluZycsICctaW1hZScsICc8aW5maWxlLm1hZT4nLCAnLW9tYWUnLCAnPG91dGZpbGUubWFlPic=

> <r_lp_tautomer_probability>
1

> <r_epik_Ionization_Penalty>
0.00258048

> <r_epik_Ionization_Penalty_Charging>
0

> <r_epik_Ionization_Penalty_Neutral>
0.00258048

> <r_epik_State_Penalty>
0.00168551

> <r_epik_Charging_Adjusted_Penalty>
0.00168551

> <i_epik_Tot_Q>
0

> <i_epik_Tot_abs_Q>
0

> <r_epik_Metal_State_Penalty>
-0

> <b_epik_Metal_Only>
0

> <s_lp_Force_Field>
OPLS_2005

> <r_lp_Energy>
53.8555

> <b_lp_Chiralities_Consistent>
1

> <s_lp_Variant>
AV-unprocessed.smi:232-14

> <Gold.Version>
5.8.1

> <Gold.Id.Protein>
6NUR|6NUR_protein|mol2

> <Gold.PLP.Fitness>
46.0659

> <Gold.PLP.PLP>
-40.1337

> <Gold.PLP.part.hbond>
-2.0000

> <Gold.PLP.part.metal>
0.0000

> <Gold.PLP.part.buried>
-1.2541

> <Gold.PLP.part.nonpolar>
-37.4101

> <Gold.PLP.part.repulsive>
0.2776

> <Gold.PLP.ligand.clash>
0.7607

> <Gold.PLP.ligand.torsion>
0.3297

> <Gold.PLP.Chemscore.Hbond>
2.0000

> <Gold.PLP.Chemscore.CHOScore>
0.4175

> <Gold.PLP.Chemscore.Metal>
0.0000

> <Gold.Chemscore.Hbonds>
donor molecule, donor type, donor heavy atom, donor atom, acceptor molecule, acceptor atom, score
      P1  H  7989  7998       L1    12  0.90
      P1  H  7997  8008       L1    10  1.00
      L1  C    16    41       P1  8028  0.24

> <Gold.PLP.Chemscore.Internal.Correction>
0.1001

> <Gold.Rescore>
     Score         DG    S(hbond)    S(metal)    S(lipo)     H(rot)  DE(clash)    DE(int)     intcor
      9.27     -13.59       0.86        0.00      97.78       2.43       1.47       2.86       ----

> <Gold.Chemscore.Fitness>
9.2664

> <Gold.Chemscore.DG>
-13.5917

> <Gold.Chemscore.ZeroCoef>
-5.4800

> <Gold.Chemscore.Hbond>
0.8630

> <Gold.Chemscore.Metal>
0.0000

> <Gold.Chemscore.Lipo>
97.7785

> <Gold.Chemscore.Internal_Hbond>
0.0000

> <Gold.Chemscore.DEClash>
1.4673

> <Gold.Chemscore.DEInternal>
2.8580

> <Gold.Chemscore.Rot>
2.4260

> <Gold.Chemscore.Internal.Correction>
   9.000000E+99

> <Gold.Chemscore.Hbonds>
donor molecule, donor type, donor heavy atom, donor atom, acceptor molecule, acceptor atom, score
      P1  H  7989  7998       L1    12  0.08
      P1  H  7997  8008       L1    10  0.65

> <Gold.Chemscore.Hbond.Weighted>
-2.8823

> <Gold.Chemscore.Metal.Weighted>
-0.0000

> <Gold.Chemscore.Lipo.Weighted>
-11.4401

> <Gold.Chemscore.Internal_Hbond.Weighted>
0.0000

> <Gold.Chemscore.DEClash.Weighted>
1.4673

> <Gold.Chemscore.DEInternal.Weighted>
2.8580

> <Gold.Chemscore.Rot.Weighted>
6.2107

> <Gold.Chemscore.Internal.Correction.Weighted>
   9.000000E+99

> <Gold.Protein.RotatedTorsions>
[ 6907 6896 6895 6894 ] final  -13.56 input  -60.11 | X-H torsion
[ 7974 7965 7964 7962 ] final   59.24 input  175.53 | X-H torsion
[ 8008 7997 7996 7995 ] final  -45.43 input   59.86 | X-H torsion
[ 10167 10162 10161 10158 ] final   49.24 input  -65.29 | X-H torsion
[ 10718 10713 10712 10709 ] final  -94.24 input   66.30 | X-H torsion
[ 10763 10752 10751 10750 ] final  -84.20 input  -60.55 | X-H torsion
[ 11005 11000 10999 10996 ] final  133.61 input  -57.11 | X-H torsion

> <Gold.Protein.ActiveResidues>
 VAL166  LYS551  ARG553  GLY616  TRP617  ASP618  TYR619  PRO620  LYS621  CYS622 
 ASP623  PHE694  ASN695  SER759  ASP760  ASP761  ALA762  ILE779  LEU786  VAL792 
 PHE793  MET794  SER795  GLU796  ALA797  LYS798  CYS799  TRP800  GLU811  SER814 

> <Gold.Protein.RotatedAtoms>
  151.3531  135.0888  159.9409 H   0  0  0  0  0  0  0  0  0  0  0  0  # atno 6907 bound_to 6896
  152.5182  133.9333  159.7601 H   0  0  0  0  0  0  0  0  0  0  0  0  # atno 6908 bound_to 6896
  150.9712  133.6288  159.2767 H   0  0  0  0  0  0  0  0  0  0  0  0  # atno 6909 bound_to 6896
  145.9094  139.3642  143.0545 H   0  0  0  0  0  0  0  0  0  0  0  0  # atno 7974 bound_to 7965
  154.4001  140.1397  156.3847 H   0  0  0  0  0  0  0  0  0  0  0  0  # atno 8008 bound_to 7997
  155.7971  140.3477  155.5361 H   0  0  0  0  0  0  0  0  0  0  0  0  # atno 8009 bound_to 7997
  155.8521  140.0943  157.1658 H   0  0  0  0  0  0  0  0  0  0  0  0  # atno 8010 bound_to 7997
  140.2850  144.3113  150.6255 H   0  0  0  0  0  0  0  0  0  0  0  0  # atno 10167 bound_to 10162
  156.0024  130.5060  150.5897 H   0  0  0  0  0  0  0  0  0  0  0  0  # atno 10718 bound_to 10713
  154.5968  135.5529  153.7333 H   0  0  0  0  0  0  0  0  0  0  0  0  # atno 10763 bound_to 10752
  153.0138  135.6356  154.1771 H   0  0  0  0  0  0  0  0  0  0  0  0  # atno 10764 bound_to 10752
  154.1712  135.2892  155.3060 H   0  0  0  0  0  0  0  0  0  0  0  0  # atno 10765 bound_to 10752
  139.9862  134.9531  156.9749 H   0  0  0  0  0  0  0  0  0  0  0  0  # atno 11005 bound_to 11000
  145.8691  140.9430  143.0660 LP  0  0  0  0  0  0  0  0  0  0  0  0  # atno 17320 bound_to 7965
  144.6742  140.0631  143.7475 LP  0  0  0  0  0  0  0  0  0  0  0  0  # atno 17321 bound_to 7965
  140.5780  143.2175  151.7479 LP  0  0  0  0  0  0  0  0  0  0  0  0  # atno 17342 bound_to 10162
  139.4953  144.4121  152.0069 LP  0  0  0  0  0  0  0  0  0  0  0  0  # atno 17343 bound_to 10162
  157.3764  131.0774  151.1514 LP  0  0  0  0  0  0  0  0  0  0  0  0  # atno 17370 bound_to 10713
  157.2251  130.6499  149.5827 LP  0  0  0  0  0  0  0  0  0  0  0  0  # atno 17371 bound_to 10713
  140.4997  134.1110  155.7248 LP  0  0  0  0  0  0  0  0  0  0  0  0  # atno 17394 bound_to 11000
  141.1527  133.8940  157.2057 LP  0  0  0  0  0  0  0  0  0  0  0  0  # atno 17395 bound_to 11000

$$$$
