AV-unprocessed.smi:2800|AV-procd|sdf|10793|dock1
  -GOLD-   2272015223D 1   1.00000     0.00000
 Structure written by MMmdl.
 51 52  0  0  0  0  0  0  0  0  1 V2000
  151.4001  137.8378  154.3171 C   0  0  0  0  0  0  0  0  0  0  0  0
  150.5645  138.8372  155.0977 C   0  0  0  0  0  0  0  0  0  0  0  0
  151.2653  139.7421  155.8149 N   0  0  0  0  0  0  0  0  0  0  0  0
  150.5993  140.6728  156.5378 C   0  0  0  0  0  0  0  0  0  0  0  0
  151.3705  141.5943  157.2733 N   0  0  0  0  0  0  0  0  0  0  0  0
  150.9387  142.9689  157.4735 C   0  0  0  0  0  0  0  0  0  0  0  0
  151.9811  143.5672  158.4166 C   0  0  0  0  0  0  0  0  0  0  0  0
  152.3915  142.3741  159.2801 C   0  0  0  0  0  0  0  0  0  0  0  0
  152.2663  141.1693  158.3399 C   0  0  0  0  0  0  0  0  0  0  0  0
  149.1864  140.7186  156.5661 C   0  0  0  0  0  0  0  0  0  0  0  0
  148.4550  139.7755  155.8200 C   0  0  0  0  0  0  0  0  0  0  0  0
  149.1507  138.7990  155.0696 C   0  0  0  0  0  0  0  0  0  0  0  0
  148.4999  137.8237  154.2638 N   0  0  0  0  0  0  0  0  0  0  0  0
  147.3784  137.1333  154.5300 C   0  0  0  0  0  0  0  0  0  0  0  0
  146.7191  137.2215  155.5654 O   0  0  0  0  0  0  0  0  0  0  0  0
  147.0724  136.3100  153.5164 N   0  0  0  0  0  0  0  0  0  0  0  0
  145.9339  135.3887  153.4526 C   0  0  2  0  0  0  0  0  0  0  0  0
  146.4860  133.9486  153.3079 C   0  0  0  0  0  0  0  0  0  0  0  0
  147.4438  133.8631  152.2730 O   0  0  0  0  0  0  0  0  0  0  0  0
  144.9095  135.8429  152.3582 C   0  0  0  0  0  0  0  0  0  0  0  0
  143.8162  134.7630  152.1977 C   0  0  0  0  0  0  0  0  0  0  0  0
  145.6009  136.0062  150.9887 C   0  0  0  0  0  0  0  0  0  0  0  0
  144.2174  137.1752  152.7265 C   0  0  0  0  0  0  0  0  0  0  0  0
  145.4162  135.4257  154.4134 H   0  0  0  0  0  0  0  0  0  0  0  0
  151.1726  136.8214  154.6392 H   0  0  0  0  0  0  0  0  0  0  0  0
  152.4679  138.0054  154.4643 H   0  0  0  0  0  0  0  0  0  0  0  0
  151.1907  137.9179  153.2502 H   0  0  0  0  0  0  0  0  0  0  0  0
  150.8843  143.5173  156.5323 H   0  0  0  0  0  0  0  0  0  0  0  0
  149.9510  142.9758  157.9362 H   0  0  0  0  0  0  0  0  0  0  0  0
  152.8398  143.9192  157.8431 H   0  0  0  0  0  0  0  0  0  0  0  0
  151.5964  144.4052  158.9983 H   0  0  0  0  0  0  0  0  0  0  0  0
  153.3910  142.4777  159.7032 H   0  0  0  0  0  0  0  0  0  0  0  0
  151.6883  142.2659  160.1067 H   0  0  0  0  0  0  0  0  0  0  0  0
  151.8881  140.2971  158.8742 H   0  0  0  0  0  0  0  0  0  0  0  0
  153.2337  140.9147  157.9062 H   0  0  0  0  0  0  0  0  0  0  0  0
  148.6553  141.4579  157.1468 H   0  0  0  0  0  0  0  0  0  0  0  0
  147.3773  139.8291  155.8271 H   0  0  0  0  0  0  0  0  0  0  0  0
  148.9815  137.5761  153.4120 H   0  0  0  0  0  0  0  0  0  0  0  0
  147.6821  136.3162  152.7122 H   0  0  0  0  0  0  0  0  0  0  0  0
  146.9092  133.5718  154.2377 H   0  0  0  0  0  0  0  0  0  0  0  0
  145.6834  133.2619  153.0350 H   0  0  0  0  0  0  0  0  0  0  0  0
  147.9068  134.6854  152.2221 H   0  0  0  0  0  0  0  0  0  0  0  0
  143.1149  135.0215  151.4035 H   0  0  0  0  0  0  0  0  0  0  0  0
  143.2312  134.6336  153.1086 H   0  0  0  0  0  0  0  0  0  0  0  0
  144.2495  133.7942  151.9463 H   0  0  0  0  0  0  0  0  0  0  0  0
  146.1324  135.0986  150.7001 H   0  0  0  0  0  0  0  0  0  0  0  0
  146.3195  136.8256  150.9925 H   0  0  0  0  0  0  0  0  0  0  0  0
  144.8779  136.2248  150.2021 H   0  0  0  0  0  0  0  0  0  0  0  0
  143.4923  137.4624  151.9641 H   0  0  0  0  0  0  0  0  0  0  0  0
  144.9277  137.9965  152.8121 H   0  0  0  0  0  0  0  0  0  0  0  0
  143.6754  137.1078  153.6701 H   0  0  0  0  0  0  0  0  0  0  0  0
  1  2  1  0  0  0  0
  1 25  1  0  0  0  0
  1 26  1  0  0  0  0
  1 27  1  0  0  0  0
  2 12  1  0  0  0  0
  2  3  2  0  0  0  0
  3  4  1  0  0  0  0
  4  5  1  0  0  0  0
  4 10  2  0  0  0  0
  5  9  1  0  0  0  0
  5  6  1  0  0  0  0
  6  7  1  0  0  0  0
  6 28  1  0  0  0  0
  6 29  1  0  0  0  0
  7  8  1  0  0  0  0
  7 30  1  0  0  0  0
  7 31  1  0  0  0  0
  8  9  1  0  0  0  0
  8 32  1  0  0  0  0
  8 33  1  0  0  0  0
  9 34  1  0  0  0  0
  9 35  1  0  0  0  0
 10 11  1  0  0  0  0
 10 36  1  0  0  0  0
 11 12  2  0  0  0  0
 11 37  1  0  0  0  0
 12 13  1  0  0  0  0
 13 14  1  0  0  0  0
 13 38  1  0  0  0  0
 14 15  2  0  0  0  0
 14 16  1  0  0  0  0
 16 17  1  0  0  0  0
 16 39  1  0  0  0  0
 17 24  1  0  0  0  0
 17 18  1  0  0  0  0
 17 20  1  0  0  0  0
 18 19  1  0  0  0  0
 18 40  1  0  0  0  0
 18 41  1  0  0  0  0
 19 42  1  0  0  0  0
 20 21  1  0  0  0  0
 20 22  1  0  0  0  0
 20 23  1  0  0  0  0
 21 43  1  0  0  0  0
 21 44  1  0  0  0  0
 21 45  1  0  0  0  0
 22 46  1  0  0  0  0
 22 47  1  0  0  0  0
 22 48  1  0  0  0  0
 23 49  1  0  0  0  0
 23 50  1  0  0  0  0
 23 51  1  0  0  0  0
M  END
> <s_m_source_file>
AV-unprocessed.smi

> <i_m_source_file_index>
2800

> <i_lp_mmshare_version>
43012

> <i_f3d_flags>
0

> <s_epik_input>
W0NIMl0xW0NIMl1bQ0gyXVtDSDJdTjFjKG5jMltDSDNdKVtjSF1bY0hdYzJbTkhdQyg9TylbTkhdW0NASF0oW0NIMl1bT0hdKUMoW0NIM10pKFtDSDNdKVtDSDNd

> <s_epik_cmdline>
J2VwaWtfcHl0aG9uJywgJy1waCcsICc3LjAnLCAnLXRuJywgJzgnLCAnLW1hJywgJzIwMCcsICctbWV0YWxfYmluZGluZycsICctaW1hZScsICc8aW5maWxlLm1hZT4nLCAnLW9tYWUnLCAnPG91dGZpbGUubWFlPic=

> <r_lp_tautomer_probability>
1

> <r_epik_Ionization_Penalty>
0.307546

> <r_epik_Ionization_Penalty_Charging>
0

> <r_epik_Ionization_Penalty_Neutral>
0.307546

> <r_epik_State_Penalty>
0.300796

> <r_epik_Charging_Adjusted_Penalty>
0.300796

> <i_epik_Tot_Q>
0

> <i_epik_Tot_abs_Q>
0

> <r_epik_Metal_State_Penalty>
0.196869

> <b_epik_Metal_Only>
0

> <s_lp_Force_Field>
OPLS_2005

> <r_lp_Energy>
36.8798

> <b_lp_Chiralities_Consistent>
1

> <s_lp_Variant>
AV-unprocessed.smi:2800-1

> <Gold.Version>
5.8.1

> <Gold.Id.Protein>
6NUR|6NUR_protein|mol2

> <Gold.PLP.Fitness>
41.8006

> <Gold.PLP.PLP>
-35.5402

> <Gold.PLP.part.hbond>
-2.9713

> <Gold.PLP.part.metal>
0.0000

> <Gold.PLP.part.buried>
-4.3641

> <Gold.PLP.part.nonpolar>
-29.0702

> <Gold.PLP.part.repulsive>
0.0274

> <Gold.PLP.ligand.clash>
0.0000

> <Gold.PLP.ligand.torsion>
1.3387

> <Gold.PLP.Chemscore.Hbond>
2.8960

> <Gold.PLP.Chemscore.CHOScore>
0.0000

> <Gold.PLP.Chemscore.Metal>
0.0000

> <Gold.Chemscore.Hbonds>
donor molecule, donor type, donor heavy atom, donor atom, acceptor molecule, acceptor atom, score
      L1  H    13    38       P1  7948  0.87
      L1  H    16    39       P1  7948  0.99
      L1  H    19    42       P1  7948  1.00

> <Gold.PLP.Chemscore.Internal.Correction>
0.2498

> <Gold.Rescore>
     Score         DG    S(hbond)    S(metal)    S(lipo)     H(rot)  DE(clash)    DE(int)     intcor
     17.94     -19.78       2.63        0.00      89.25       1.92       0.00       1.84       ----

> <Gold.Chemscore.Fitness>
17.9385

> <Gold.Chemscore.DG>
-19.7755

> <Gold.Chemscore.ZeroCoef>
-5.4800

> <Gold.Chemscore.Hbond>
2.6269

> <Gold.Chemscore.Metal>
0.0000

> <Gold.Chemscore.Lipo>
89.2515

> <Gold.Chemscore.Internal_Hbond>
0.0000

> <Gold.Chemscore.DEClash>
0.0013

> <Gold.Chemscore.DEInternal>
1.8357

> <Gold.Chemscore.Rot>
1.9222

> <Gold.Chemscore.Internal.Correction>
   9.000000E+99

> <Gold.Chemscore.Hbonds>
donor molecule, donor type, donor heavy atom, donor atom, acceptor molecule, acceptor atom, score
      L1  H    13    38       P1  7948  0.80
      L1  H    16    39       P1  7948  0.92
      L1  H    19    42       P1  7948  0.50

> <Gold.Chemscore.Hbond.Weighted>
-8.7738

> <Gold.Chemscore.Metal.Weighted>
-0.0000

> <Gold.Chemscore.Lipo.Weighted>
-10.4424

> <Gold.Chemscore.Internal_Hbond.Weighted>
0.0000

> <Gold.Chemscore.DEClash.Weighted>
0.0013

> <Gold.Chemscore.DEInternal.Weighted>
1.8357

> <Gold.Chemscore.Rot.Weighted>
4.9208

> <Gold.Chemscore.Internal.Correction.Weighted>
   9.000000E+99

> <Gold.Protein.RotatedTorsions>
[ 6907 6896 6895 6894 ] final   44.48 input  -60.11 | X-H torsion
[ 7974 7965 7964 7962 ] final   90.24 input  175.53 | X-H torsion
[ 8008 7997 7996 7995 ] final    7.38 input   59.86 | X-H torsion
[ 10167 10162 10161 10158 ] final   78.66 input  -65.29 | X-H torsion
[ 10718 10713 10712 10709 ] final   70.46 input   66.30 | X-H torsion
[ 10763 10752 10751 10750 ] final  -94.73 input  -60.55 | X-H torsion
[ 11005 11000 10999 10996 ] final -154.63 input  -57.11 | X-H torsion

> <Gold.Protein.ActiveResidues>
 VAL166  LYS551  ARG553  GLY616  TRP617  ASP618  TYR619  PRO620  LYS621  CYS622 
 ASP623  PHE694  ASN695  SER759  ASP760  ASP761  ALA762  ILE779  LEU786  VAL792 
 PHE793  MET794  SER795  GLU796  ALA797  LYS798  CYS799  TRP800  GLU811  SER814 

> <Gold.Protein.RotatedAtoms>
  152.2330  134.8303  160.0470 H   0  0  0  0  0  0  0  0  0  0  0  0  # atno 6907 bound_to 6896
  151.9045  133.3541  159.3850 H   0  0  0  0  0  0  0  0  0  0  0  0  # atno 6908 bound_to 6896
  150.7031  134.4721  159.5474 H   0  0  0  0  0  0  0  0  0  0  0  0  # atno 6909 bound_to 6896
  145.5216  139.2279  143.2668 H   0  0  0  0  0  0  0  0  0  0  0  0  # atno 7974 bound_to 7965
  154.7531  140.2770  155.6276 H   0  0  0  0  0  0  0  0  0  0  0  0  # atno 8008 bound_to 7997
  156.2900  140.2674  156.2216 H   0  0  0  0  0  0  0  0  0  0  0  0  # atno 8009 bound_to 7997
  155.0112  140.0372  157.2390 H   0  0  0  0  0  0  0  0  0  0  0  0  # atno 8010 bound_to 7997
  139.9685  144.5911  150.8007 H   0  0  0  0  0  0  0  0  0  0  0  0  # atno 10167 bound_to 10162
  157.6401  130.9478  150.0654 H   0  0  0  0  0  0  0  0  0  0  0  0  # atno 10718 bound_to 10713
  154.7082  135.5147  153.8627 H   0  0  0  0  0  0  0  0  0  0  0  0  # atno 10763 bound_to 10752
  153.0759  135.6616  154.0157 H   0  0  0  0  0  0  0  0  0  0  0  0  # atno 10764 bound_to 10752
  154.0003  135.3011  155.3383 H   0  0  0  0  0  0  0  0  0  0  0  0  # atno 10765 bound_to 10752
  140.6953  134.3997  157.5215 H   0  0  0  0  0  0  0  0  0  0  0  0  # atno 11005 bound_to 11000
  146.2102  140.6029  142.9063 LP  0  0  0  0  0  0  0  0  0  0  0  0  # atno 17320 bound_to 7965
  144.7673  140.5558  143.6694 LP  0  0  0  0  0  0  0  0  0  0  0  0  # atno 17321 bound_to 7965
  140.7530  143.3000  151.3105 LP  0  0  0  0  0  0  0  0  0  0  0  0  # atno 17342 bound_to 10162
  139.6499  144.0381  152.2618 LP  0  0  0  0  0  0  0  0  0  0  0  0  # atno 17343 bound_to 10162
  156.1674  130.3645  149.9213 LP  0  0  0  0  0  0  0  0  0  0  0  0  # atno 17370 bound_to 10713
  156.7197  130.9002  151.3617 LP  0  0  0  0  0  0  0  0  0  0  0  0  # atno 17371 bound_to 10713
  139.8912  134.8786  156.2332 LP  0  0  0  0  0  0  0  0  0  0  0  0  # atno 17394 bound_to 11000
  141.0208  133.7042  156.1266 LP  0  0  0  0  0  0  0  0  0  0  0  0  # atno 17395 bound_to 11000

$$$$
