AV-unprocessed.smi:1196|AV-procd|sdf|4998|dock9
  -GOLD-   22720 4 03D 1   1.00000     0.00000
 Structure written by MMmdl.
 37 38  0  0  0  0  0  0  0  0  1 V2000
  145.5965  133.2887  150.2059 C   0  0  0  0  0  0  0  0  0  0  0  0
  145.5589  134.0138  151.5601 C   0  0  2  0  0  0  0  0  0  0  0  0
  145.0155  135.4491  151.4174 C   0  0  0  0  0  0  0  0  0  0  0  0
  143.9844  135.7530  152.3942 N   0  0  0  0  0  0  0  0  0  0  0  0
  143.3808  136.9655  152.6545 C   0  0  0  0  0  0  0  0  0  0  0  0
  142.4775  136.7622  153.6580 C   0  0  0  0  0  0  0  0  0  0  0  0
  142.6009  135.3746  153.9478 C   0  0  0  0  0  0  0  0  0  0  0  0
  143.5022  134.7730  153.1885 N   0  0  0  0  0  0  0  0  0  0  0  0
  146.8962  134.0421  152.1500 N   0  0  0  0  0  0  0  0  0  0  0  0
  147.5719  132.9736  152.5984 C   0  0  0  0  0  0  0  0  0  0  0  0
  147.1398  131.8226  152.5255 O   0  0  0  0  0  0  0  0  0  0  0  0
  148.9377  133.2674  153.2268 C   0  0  0  0  0  0  0  0  0  0  0  0
  148.8513  133.8932  154.6330 C   0  0  0  0  0  0  0  0  0  0  0  0
  150.0826  134.7474  154.9914 C   0  0  1  0  0  0  0  0  0  0  0  0
  149.9217  136.1452  154.6282 N   0  0  0  0  0  0  0  0  0  0  0  0
  150.0054  136.9630  155.6863 C   0  0  0  0  0  0  0  0  0  0  0  0
  149.9073  138.1875  155.6617 O   0  0  0  0  0  0  0  0  0  0  0  0
  150.2138  136.2117  156.7729 N   0  0  0  0  0  0  0  0  0  0  0  0
  150.2670  134.9115  156.4897 C   0  0  0  0  0  0  0  0  0  0  0  0
  150.4337  133.9873  157.2833 O   0  0  0  0  0  0  0  0  0  0  0  0
  144.6038  133.2471  149.7570 H   0  0  0  0  0  0  0  0  0  0  0  0
  145.9483  132.2624  150.3160 H   0  0  0  0  0  0  0  0  0  0  0  0
  146.2587  133.7945  149.5026 H   0  0  0  0  0  0  0  0  0  0  0  0
  144.8864  133.4620  152.2197 H   0  0  0  0  0  0  0  0  0  0  0  0
  145.8214  136.1771  151.5213 H   0  0  0  0  0  0  0  0  0  0  0  0
  144.5924  135.5940  150.4223 H   0  0  0  0  0  0  0  0  0  0  0  0
  143.6435  137.8618  152.1125 H   0  0  0  0  0  0  0  0  0  0  0  0
  141.8275  137.4930  154.1157 H   0  0  0  0  0  0  0  0  0  0  0  0
  142.0661  134.7908  154.6822 H   0  0  0  0  0  0  0  0  0  0  0  0
  147.3294  134.9487  152.2482 H   0  0  0  0  0  0  0  0  0  0  0  0
  149.5049  132.3369  153.2745 H   0  0  0  0  0  0  0  0  0  0  0  0
  149.4810  133.9327  152.5547 H   0  0  0  0  0  0  0  0  0  0  0  0
  147.9479  134.5013  154.7100 H   0  0  0  0  0  0  0  0  0  0  0  0
  148.7469  133.0974  155.3724 H   0  0  0  0  0  0  0  0  0  0  0  0
  150.9926  134.3448  154.5445 H   0  0  0  0  0  0  0  0  0  0  0  0
  149.7644  136.4526  153.6794 H   0  0  0  0  0  0  0  0  0  0  0  0
  150.3097  136.5877  157.7049 H   0  0  0  0  0  0  0  0  0  0  0  0
  1  2  1  0  0  0  0
  1 21  1  0  0  0  0
  1 22  1  0  0  0  0
  1 23  1  0  0  0  0
  2  3  1  0  0  0  0
  2  9  1  0  0  0  0
  2 24  1  0  0  0  0
  3  4  1  0  0  0  0
  3 25  1  0  0  0  0
  3 26  1  0  0  0  0
  4  8  1  0  0  0  0
  4  5  1  0  0  0  0
  5  6  2  0  0  0  0
  5 27  1  0  0  0  0
  6  7  1  0  0  0  0
  6 28  1  0  0  0  0
  7  8  2  0  0  0  0
  7 29  1  0  0  0  0
  9 10  1  0  0  0  0
  9 30  1  0  0  0  0
 10 11  2  0  0  0  0
 10 12  1  0  0  0  0
 12 13  1  0  0  0  0
 12 31  1  0  0  0  0
 12 32  1  0  0  0  0
 13 14  1  0  0  0  0
 13 33  1  0  0  0  0
 13 34  1  0  0  0  0
 14 19  1  0  0  0  0
 14 15  1  0  0  0  0
 14 35  1  0  0  0  0
 15 16  1  0  0  0  0
 15 36  1  0  0  0  0
 16 17  2  0  0  0  0
 16 18  1  0  0  0  0
 18 19  1  0  0  0  0
 18 37  1  0  0  0  0
 19 20  2  0  0  0  0
M  END
> <s_m_source_file>
AV-unprocessed.smi

> <i_m_source_file_index>
1196

> <i_lp_mmshare_version>
43012

> <i_f3d_flags>
0

> <s_epik_input>
bjFbY0hdW2NIXVtjSF1uMVtDSDJdW0NAQEhdKFtDSDNdKVtOSF1DKD1PKVtDSDJdW0NIMl1bQ0BASF0yW05IXUMoPU8pW05IXUMyPU8=

> <s_epik_cmdline>
J2VwaWtfcHl0aG9uJywgJy1waCcsICc3LjAnLCAnLXRuJywgJzgnLCAnLW1hJywgJzIwMCcsICctbWV0YWxfYmluZGluZycsICctaW1hZScsICc8aW5maWxlLm1hZT4nLCAnLW9tYWUnLCAnPG91dGZpbGUubWFlPic=

> <r_lp_tautomer_probability>
1

> <r_epik_Ionization_Penalty>
0.00815973

> <r_epik_Ionization_Penalty_Charging>
0

> <r_epik_Ionization_Penalty_Neutral>
0.00815973

> <r_epik_State_Penalty>
0.00583796

> <r_epik_Charging_Adjusted_Penalty>
0.00583796

> <i_epik_Tot_Q>
0

> <i_epik_Tot_abs_Q>
0

> <r_epik_Metal_State_Penalty>
0.409204

> <b_epik_Metal_Only>
0

> <s_lp_Force_Field>
OPLS_2005

> <r_lp_Energy>
16.3903

> <b_lp_Chiralities_Consistent>
1

> <s_lp_Variant>
AV-unprocessed.smi:1196-3

> <Gold.Version>
5.8.1

> <Gold.Id.Protein>
6NUR|6NUR_protein|mol2

> <Gold.PLP.Fitness>
42.6400

> <Gold.PLP.PLP>
-29.8059

> <Gold.PLP.part.hbond>
-3.1563

> <Gold.PLP.part.metal>
0.0000

> <Gold.PLP.part.buried>
-4.3648

> <Gold.PLP.part.nonpolar>
-23.1415

> <Gold.PLP.part.repulsive>
0.4792

> <Gold.PLP.ligand.clash>
0.0000

> <Gold.PLP.ligand.torsion>
1.4445

> <Gold.PLP.Chemscore.Hbond>
2.6873

> <Gold.PLP.Chemscore.CHOScore>
2.5297

> <Gold.PLP.Chemscore.Metal>
0.0000

> <Gold.Chemscore.Hbonds>
donor molecule, donor type, donor heavy atom, donor atom, acceptor molecule, acceptor atom, score
      L1  H     9    30       P1  7948  0.86
      L1  H    15    36       P1  7948  1.00
      P1  H  6896  6908       L1    20  0.77
      L1  C     5    27       P1 10171  1.00
      L1  C     5    27       P1 10175  0.85
      L1  C     7    29       P1 11000  0.59

> <Gold.PLP.Chemscore.Internal.Correction>
0.0719

> <Gold.Rescore>
     Score         DG    S(hbond)    S(metal)    S(lipo)     H(rot)  DE(clash)    DE(int)     intcor
      9.44     -11.24       2.31        0.00      47.99       2.96       0.08       1.72       ----

> <Gold.Chemscore.Fitness>
9.4408

> <Gold.Chemscore.DG>
-11.2384

> <Gold.Chemscore.ZeroCoef>
-5.4800

> <Gold.Chemscore.Hbond>
2.3099

> <Gold.Chemscore.Metal>
0.0000

> <Gold.Chemscore.Lipo>
47.9893

> <Gold.Chemscore.Internal_Hbond>
0.0000

> <Gold.Chemscore.DEClash>
0.0779

> <Gold.Chemscore.DEInternal>
1.7196

> <Gold.Chemscore.Rot>
2.9575

> <Gold.Chemscore.Internal.Correction>
   9.000000E+99

> <Gold.Chemscore.Hbonds>
donor molecule, donor type, donor heavy atom, donor atom, acceptor molecule, acceptor atom, score
      L1  H     9    30       P1  7948  0.79
      L1  H    15    36       P1  7948  0.37
      P1  H  6896  6908       L1    20  0.73

> <Gold.Chemscore.Hbond.Weighted>
-7.7150

> <Gold.Chemscore.Metal.Weighted>
-0.0000

> <Gold.Chemscore.Lipo.Weighted>
-5.6147

> <Gold.Chemscore.Internal_Hbond.Weighted>
0.0000

> <Gold.Chemscore.DEClash.Weighted>
0.0779

> <Gold.Chemscore.DEInternal.Weighted>
1.7196

> <Gold.Chemscore.Rot.Weighted>
7.5713

> <Gold.Chemscore.Internal.Correction.Weighted>
   9.000000E+99

> <Gold.Protein.RotatedTorsions>
[ 6907 6896 6895 6894 ] final  118.45 input  -60.11 | X-H torsion
[ 7974 7965 7964 7962 ] final  -32.46 input  175.53 | X-H torsion
[ 8008 7997 7996 7995 ] final   47.28 input   59.86 | X-H torsion
[ 10167 10162 10161 10158 ] final  152.86 input  -65.29 | X-H torsion
[ 10718 10713 10712 10709 ] final -159.43 input   66.30 | X-H torsion
[ 10763 10752 10751 10750 ] final   50.50 input  -60.55 | X-H torsion
[ 11005 11000 10999 10996 ] final -174.70 input  -57.11 | X-H torsion

> <Gold.Protein.ActiveResidues>
 VAL166  LYS551  ARG553  GLY616  TRP617  ASP618  TYR619  PRO620  LYS621  CYS622 
 ASP623  PHE694  ASN695  SER759  ASP760  ASP761  ALA762  ILE779  LEU786  VAL792 
 PHE793  MET794  SER795  GLU796  ALA797  LYS798  CYS799  TRP800  GLU811  SER814 

> <Gold.Protein.RotatedAtoms>
  152.4542  133.7689  159.6787 H   0  0  0  0  0  0  0  0  0  0  0  0  # atno 6907 bound_to 6896
  150.8463  133.7847  159.3048 H   0  0  0  0  0  0  0  0  0  0  0  0  # atno 6908 bound_to 6896
  151.5456  135.1071  159.9989 H   0  0  0  0  0  0  0  0  0  0  0  0  # atno 6909 bound_to 6896
  146.0988  140.5795  142.8830 H   0  0  0  0  0  0  0  0  0  0  0  0  # atno 7974 bound_to 7965
  155.3665  140.3421  155.4242 H   0  0  0  0  0  0  0  0  0  0  0  0  # atno 8008 bound_to 7997
  156.1686  140.1624  156.8522 H   0  0  0  0  0  0  0  0  0  0  0  0  # atno 8009 bound_to 7997
  154.5210  140.0767  156.8153 H   0  0  0  0  0  0  0  0  0  0  0  0  # atno 8010 bound_to 7997
  139.4830  144.5322  151.7703 H   0  0  0  0  0  0  0  0  0  0  0  0  # atno 10167 bound_to 10162
  156.5679  130.8676  151.2829 H   0  0  0  0  0  0  0  0  0  0  0  0  # atno 10718 bound_to 10713
  152.9784  135.5877  154.4262 H   0  0  0  0  0  0  0  0  0  0  0  0  # atno 10763 bound_to 10752
  154.3881  135.2767  155.2173 H   0  0  0  0  0  0  0  0  0  0  0  0  # atno 10764 bound_to 10752
  154.4058  135.6093  153.5978 H   0  0  0  0  0  0  0  0  0  0  0  0  # atno 10765 bound_to 10752
  140.4716  134.6160  157.4884 H   0  0  0  0  0  0  0  0  0  0  0  0  # atno 11005 bound_to 11000
  144.7416  140.4957  143.6865 LP  0  0  0  0  0  0  0  0  0  0  0  0  # atno 17320 bound_to 7965
  145.5896  139.1494  143.3190 LP  0  0  0  0  0  0  0  0  0  0  0  0  # atno 17321 bound_to 7965
  140.4850  144.1394  150.5939 LP  0  0  0  0  0  0  0  0  0  0  0  0  # atno 17342 bound_to 10162
  140.4235  143.2600  151.9685 LP  0  0  0  0  0  0  0  0  0  0  0  0  # atno 17343 bound_to 10162
  157.7354  130.9762  150.2082 LP  0  0  0  0  0  0  0  0  0  0  0  0  # atno 17370 bound_to 10713
  156.2740  130.3725  149.8002 LP  0  0  0  0  0  0  0  0  0  0  0  0  # atno 17371 bound_to 10713
  139.9882  134.7028  155.9737 LP  0  0  0  0  0  0  0  0  0  0  0  0  # atno 17394 bound_to 11000
  141.1574  133.6541  156.4206 LP  0  0  0  0  0  0  0  0  0  0  0  0  # atno 17395 bound_to 11000

$$$$
