AV-unprocessed.smi:2620|AV-procd|sdf|10224|dock6
  -GOLD-   2272014233D 1   1.00000     0.00000
 Structure written by MMmdl.
 35 36  0  0  0  0  0  0  0  0  2 V2000
  146.8535  139.3125  152.1117 C   0  0  0  0  0  0  0  0  0  0  0  0
  147.3088  139.1142  153.4387 O   0  0  0  0  0  0  0  0  0  0  0  0
  147.9422  140.2642  153.9723 C   0  0  0  0  0  0  0  0  0  0  0  0
  149.4400  139.9712  154.1437 C   0  0  0  0  0  0  0  0  0  0  0  0
  149.8095  139.8828  155.5626 N   0  0  0  0  0  0  0  0  0  0  0  0
  150.3760  141.0334  156.1441 C   0  0  0  0  0  0  0  0  0  0  0  0
  150.7542  141.0736  157.4357 C   0  0  0  0  0  0  0  0  0  0  0  0
  151.3572  142.3043  158.0036 C   0  0  0  0  0  0  0  0  0  0  0  0
  151.2555  143.3868  157.4240 O   0  0  0  0  0  0  0  0  0  0  0  0
  152.0690  142.1954  159.3128 C   0  0  0  0  0  0  0  0  0  0  0  0
  151.8176  143.1663  160.3114 C   0  0  0  0  0  0  0  0  0  0  0  0
  152.4755  143.1084  161.5542 C   0  0  0  0  0  0  0  0  0  0  0  0
  153.3949  142.0772  161.8149 C   0  0  0  0  0  0  0  0  0  0  0  0
  153.6526  141.1035  160.8327 C   0  0  0  0  0  0  0  0  0  0  0  0
  152.9972  141.1535  159.5853 C   0  0  0  0  0  0  0  0  0  0  0  0
  153.2708  140.1665  158.6780 O   0  5  0  0  0  0  0  0  0  0  0  0
  150.5730  139.8717  158.2267 C   0  0  0  0  0  0  0  0  0  0  0  0
  150.0417  138.7637  157.6729 C   0  0  0  0  0  0  0  0  0  0  0  0
  149.8629  137.5692  158.4299 C   0  0  0  0  0  0  0  0  0  0  0  0
  149.7388  136.5942  159.0414 N   0  0  0  0  0  0  0  0  0  0  0  0
  149.6262  138.7232  156.2638 C   0  0  0  0  0  0  0  0  0  0  0  0
  149.1476  137.7154  155.7402 O   0  0  0  0  0  0  0  0  0  0  0  0
  146.3737  138.4034  151.7493 H   0  0  0  0  0  0  0  0  0  0  0  0
  147.6816  139.5463  151.4413 H   0  0  0  0  0  0  0  0  0  0  0  0
  146.1232  140.1210  152.0615 H   0  0  0  0  0  0  0  0  0  0  0  0
  147.7956  141.1137  153.3030 H   0  0  0  0  0  0  0  0  0  0  0  0
  147.4972  140.5216  154.9349 H   0  0  0  0  0  0  0  0  0  0  0  0
  149.6894  139.0400  153.6327 H   0  0  0  0  0  0  0  0  0  0  0  0
  150.0299  140.7370  153.6371 H   0  0  0  0  0  0  0  0  0  0  0  0
  150.4813  141.8720  155.4698 H   0  0  0  0  0  0  0  0  0  0  0  0
  151.1216  143.9718  160.1271 H   0  0  0  0  0  0  0  0  0  0  0  0
  152.2770  143.8575  162.3063 H   0  0  0  0  0  0  0  0  0  0  0  0
  153.9018  142.0314  162.7673 H   0  0  0  0  0  0  0  0  0  0  0  0
  154.3567  140.3111  161.0418 H   0  0  0  0  0  0  0  0  0  0  0  0
  150.8749  139.8476  159.2642 H   0  0  0  0  0  0  0  0  0  0  0  0
  1  2  1  0  0  0  0
  1 23  1  0  0  0  0
  1 24  1  0  0  0  0
  1 25  1  0  0  0  0
  2  3  1  0  0  0  0
  3  4  1  0  0  0  0
  3 26  1  0  0  0  0
  3 27  1  0  0  0  0
  4  5  1  0  0  0  0
  4 28  1  0  0  0  0
  4 29  1  0  0  0  0
  5 21  1  0  0  0  0
  5  6  1  0  0  0  0
  6  7  2  0  0  0  0
  6 30  1  0  0  0  0
  7  8  1  0  0  0  0
  7 17  1  0  0  0  0
  8  9  2  0  0  0  0
  8 10  1  0  0  0  0
 10 15  1  0  0  0  0
 10 11  2  0  0  0  0
 11 12  1  0  0  0  0
 11 31  1  0  0  0  0
 12 13  2  0  0  0  0
 12 32  1  0  0  0  0
 13 14  1  0  0  0  0
 13 33  1  0  0  0  0
 14 15  2  0  0  0  0
 14 34  1  0  0  0  0
 15 16  1  0  0  0  0
 17 18  2  0  0  0  0
 17 35  1  0  0  0  0
 18 19  1  0  0  0  0
 18 21  1  0  0  0  0
 19 20  3  0  0  0  0
 21 22  2  0  0  0  0
M  CHG  1  16  -1
M  END
> <s_m_source_file>
AV-unprocessed.smi

> <i_m_source_file_index>
2620

> <i_lp_mmshare_version>
43012

> <i_f3d_flags>
0

> <s_epik_input>
W0NIM11PW0NIMl1bQ0gyXW4xW2NIXWMoW2NIXWMoQyNOKWMxPU8pQyg9TyljMltjSF1bY0hdW2NIXVtjSF1jMltPSF0=

> <s_epik_cmdline>
J2VwaWtfcHl0aG9uJywgJy1waCcsICc3LjAnLCAnLXRuJywgJzgnLCAnLW1hJywgJzIwMCcsICctbWV0YWxfYmluZGluZycsICctaW1hZScsICc8aW5maWxlLm1hZT4nLCAnLW9tYWUnLCAnPG91dGZpbGUubWFlPic=

> <r_epik_Ionization_Penalty>
0.694682

> <r_epik_Ionization_Penalty_Charging>
0.694682

> <r_epik_Ionization_Penalty_Neutral>
1.08437e-11

> <r_epik_State_Penalty>
0.716871

> <r_epik_Charging_Adjusted_Penalty>
1.41155

> <i_epik_Tot_Q>
-1

> <i_epik_Tot_abs_Q>
1

> <r_epik_Metal_State_Penalty>
0.716871

> <b_epik_Metal_Only>
0

> <s_lp_Force_Field>
OPLS_2005

> <r_lp_Energy>
23.3851

> <b_lp_Chiralities_Consistent>
1

> <s_lp_Variant>
AV-unprocessed.smi:2620-2

> <Gold.Version>
5.8.1

> <Gold.Id.Protein>
6NUR|6NUR_protein|mol2

> <Gold.PLP.Fitness>
47.1069

> <Gold.PLP.PLP>
-40.5382

> <Gold.PLP.part.hbond>
-2.0000

> <Gold.PLP.part.metal>
0.0000

> <Gold.PLP.part.buried>
-3.8321

> <Gold.PLP.part.nonpolar>
-34.7102

> <Gold.PLP.part.repulsive>
0.3641

> <Gold.PLP.ligand.clash>
0.0000

> <Gold.PLP.ligand.torsion>
1.8888

> <Gold.PLP.Chemscore.Hbond>
2.8880

> <Gold.PLP.Chemscore.CHOScore>
0.0000

> <Gold.PLP.Chemscore.Metal>
0.0000

> <Gold.Chemscore.Hbonds>
donor molecule, donor type, donor heavy atom, donor atom, acceptor molecule, acceptor atom, score
      P1  H  6896  6907       L1    20  0.71
      P1  H  7997  8008       L1    16  1.45

> <Gold.PLP.Chemscore.Internal.Correction>
1.6823

> <Gold.Rescore>
     Score         DG    S(hbond)    S(metal)    S(lipo)     H(rot)  DE(clash)    DE(int)     intcor
     16.63     -19.55       1.92        0.00      96.84       1.44       0.05       2.87       ----

> <Gold.Chemscore.Fitness>
16.6315

> <Gold.Chemscore.DG>
-19.5496

> <Gold.Chemscore.ZeroCoef>
-5.4800

> <Gold.Chemscore.Hbond>
1.9220

> <Gold.Chemscore.Metal>
0.0000

> <Gold.Chemscore.Lipo>
96.8358

> <Gold.Chemscore.Internal_Hbond>
0.0000

> <Gold.Chemscore.DEClash>
0.0478

> <Gold.Chemscore.DEInternal>
2.8704

> <Gold.Chemscore.Rot>
1.4374

> <Gold.Chemscore.Internal.Correction>
   9.000000E+99

> <Gold.Chemscore.Hbonds>
donor molecule, donor type, donor heavy atom, donor atom, acceptor molecule, acceptor atom, score
      P1  H  6896  6907       L1    20  0.71
      P1  H  7997  8008       L1    16  0.70

> <Gold.Chemscore.Hbond.Weighted>
-6.4196

> <Gold.Chemscore.Metal.Weighted>
-0.0000

> <Gold.Chemscore.Lipo.Weighted>
-11.3298

> <Gold.Chemscore.Internal_Hbond.Weighted>
0.0000

> <Gold.Chemscore.DEClash.Weighted>
0.0478

> <Gold.Chemscore.DEInternal.Weighted>
2.8704

> <Gold.Chemscore.Rot.Weighted>
3.6797

> <Gold.Chemscore.Internal.Correction.Weighted>
   9.000000E+99

> <Gold.Protein.RotatedTorsions>
[ 6907 6896 6895 6894 ] final  -40.43 input  -60.11 | X-H torsion
[ 7974 7965 7964 7962 ] final -147.84 input  175.53 | X-H torsion
[ 8008 7997 7996 7995 ] final -100.30 input   59.86 | X-H torsion
[ 10167 10162 10161 10158 ] final   -7.22 input  -65.29 | X-H torsion
[ 10718 10713 10712 10709 ] final  -20.83 input   66.30 | X-H torsion
[ 10763 10752 10751 10750 ] final -138.23 input  -60.55 | X-H torsion
[ 11005 11000 10999 10996 ] final  -29.09 input  -57.11 | X-H torsion

> <Gold.Protein.ActiveResidues>
 VAL166  LYS551  ARG553  GLY616  TRP617  ASP618  TYR619  PRO620  LYS621  CYS622 
 ASP623  PHE694  ASN695  SER759  ASP760  ASP761  ALA762  ILE779  LEU786  VAL792 
 PHE793  MET794  SER795  GLU796  ALA797  LYS798  CYS799  TRP800  GLU811  SER814 

> <Gold.Protein.RotatedAtoms>
  150.9785  134.9145  159.7830 H   0  0  0  0  0  0  0  0  0  0  0  0  # atno 6907 bound_to 6896
  152.5214  134.3443  159.9238 H   0  0  0  0  0  0  0  0  0  0  0  0  # atno 6908 bound_to 6896
  151.3450  133.3906  159.2709 H   0  0  0  0  0  0  0  0  0  0  0  0  # atno 6909 bound_to 6896
  144.8067  140.5275  143.5670 H   0  0  0  0  0  0  0  0  0  0  0  0  # atno 7974 bound_to 7965
  154.8267  140.0442  157.1448 H   0  0  0  0  0  0  0  0  0  0  0  0  # atno 8008 bound_to 7997
  154.9199  140.3025  155.5201 H   0  0  0  0  0  0  0  0  0  0  0  0  # atno 8009 bound_to 7997
  156.2984  140.2342  156.4248 H   0  0  0  0  0  0  0  0  0  0  0  0  # atno 8010 bound_to 7997
  140.7022  143.6105  150.8708 H   0  0  0  0  0  0  0  0  0  0  0  0  # atno 10167 bound_to 10162
  156.5265  130.4645  149.6569 H   0  0  0  0  0  0  0  0  0  0  0  0  # atno 10718 bound_to 10713
  154.8642  135.3618  154.5351 H   0  0  0  0  0  0  0  0  0  0  0  0  # atno 10763 bound_to 10752
  153.5975  135.7013  153.5403 H   0  0  0  0  0  0  0  0  0  0  0  0  # atno 10764 bound_to 10752
  153.3320  135.4122  155.1464 H   0  0  0  0  0  0  0  0  0  0  0  0  # atno 10765 bound_to 10752
  140.9266  133.7365  156.0876 H   0  0  0  0  0  0  0  0  0  0  0  0  # atno 11005 bound_to 11000
  145.5420  139.1475  143.3441 LP  0  0  0  0  0  0  0  0  0  0  0  0  # atno 17320 bound_to 7965
  146.2360  140.5560  142.8955 LP  0  0  0  0  0  0  0  0  0  0  0  0  # atno 17321 bound_to 7965
  139.9828  143.5932  152.2937 LP  0  0  0  0  0  0  0  0  0  0  0  0  # atno 17342 bound_to 10162
  139.6559  144.7662  151.2056 LP  0  0  0  0  0  0  0  0  0  0  0  0  # atno 17343 bound_to 10162
  156.3100  130.7224  151.2114 LP  0  0  0  0  0  0  0  0  0  0  0  0  # atno 17370 bound_to 10713
  157.7428  131.0484  150.4992 LP  0  0  0  0  0  0  0  0  0  0  0  0  # atno 17371 bound_to 10713
  140.7918  134.3608  157.5462 LP  0  0  0  0  0  0  0  0  0  0  0  0  # atno 17394 bound_to 11000
  139.8787  134.9145  156.3108 LP  0  0  0  0  0  0  0  0  0  0  0  0  # atno 17395 bound_to 11000

$$$$
