AV-unprocessed.smi:514|AV-procd|sdf|2776|dock8
  -GOLD-   2262023243D 1   1.00000     0.00000
 Structure written by MMmdl.
 46 48  0  0  0  0  0  0  0  0  2 V2000
  152.3752  144.5699  158.6037 C   0  0  0  0  0  0  0  0  0  0  0  0
  151.1545  143.6533  158.5021 C   0  0  0  0  0  0  0  0  0  0  0  0
  151.1043  143.1156  157.1928 O   0  0  0  0  0  0  0  0  0  0  0  0
  150.5959  141.7944  157.1460 C   0  0  0  0  0  0  0  0  0  0  0  0
  150.3526  141.3554  155.6868 C   0  0  0  0  0  0  0  0  0  0  0  0
  150.1196  139.9178  155.5509 N   0  0  0  0  0  0  0  0  0  0  0  0
  149.0530  139.2496  155.0139 C   0  0  0  0  0  0  0  0  0  0  0  0
  147.9045  139.8687  154.4906 N   0  0  0  0  0  0  0  0  0  0  0  0
  146.5548  139.3340  154.6943 C   0  0  0  0  0  0  0  0  0  0  0  0
  145.6098  140.3886  155.2991 C   0  0  0  0  0  0  0  0  0  0  0  0
  145.5569  141.5915  154.4445 N   0  3  0  0  0  0  0  0  0  0  0  0
  146.8997  142.1164  154.1260 C   0  0  0  0  0  0  0  0  0  0  0  0
  147.7940  140.9965  153.5623 C   0  0  0  0  0  0  0  0  0  0  0  0
  149.1640  137.9183  155.0717 N   0  0  0  0  0  0  0  0  0  0  0  0
  150.3795  137.7146  155.6985 C   0  0  0  0  0  0  0  0  0  0  0  0
  150.9579  138.8977  156.0188 C   0  0  0  0  0  0  0  0  0  0  0  0
  152.2363  138.9664  156.7473 C   0  0  0  0  0  0  0  0  0  0  0  0
  152.7580  140.0171  157.1131 O   0  0  0  0  0  0  0  0  0  0  0  0
  152.7814  137.7491  156.9857 N   0  0  0  0  0  0  0  0  0  0  0  0
  152.2609  136.5268  156.6628 C   0  0  0  0  0  0  0  0  0  0  0  0
  152.8884  135.5025  156.9310 O   0  0  0  0  0  0  0  0  0  0  0  0
  151.0377  136.5008  156.0432 N   0  0  0  0  0  0  0  0  0  0  0  0
  150.4065  135.2295  155.6829 C   0  0  0  0  0  0  0  0  0  0  0  0
  153.6714  137.7436  157.4620 H   0  0  0  0  0  0  0  0  0  0  0  0
  152.4523  145.0089  159.5986 H   0  0  0  0  0  0  0  0  0  0  0  0
  152.3131  145.3841  157.8813 H   0  0  0  0  0  0  0  0  0  0  0  0
  153.2953  144.0189  158.4082 H   0  0  0  0  0  0  0  0  0  0  0  0
  151.2272  142.8504  159.2367 H   0  0  0  0  0  0  0  0  0  0  0  0
  150.2458  144.2181  158.7145 H   0  0  0  0  0  0  0  0  0  0  0  0
  151.3011  141.1094  157.6188 H   0  0  0  0  0  0  0  0  0  0  0  0
  149.6749  141.7596  157.7262 H   0  0  0  0  0  0  0  0  0  0  0  0
  149.4934  141.8877  155.2812 H   0  0  0  0  0  0  0  0  0  0  0  0
  151.1787  141.6556  155.0469 H   0  0  0  0  0  0  0  0  0  0  0  0
  146.1625  138.9760  153.7413 H   0  0  0  0  0  0  0  0  0  0  0  0
  146.5820  138.4678  155.3557 H   0  0  0  0  0  0  0  0  0  0  0  0
  144.6042  139.9828  155.4100 H   0  0  0  0  0  0  0  0  0  0  0  0
  145.9529  140.6727  156.2948 H   0  0  0  0  0  0  0  0  0  0  0  0
  145.1033  141.3408  153.5776 H   0  0  0  0  0  0  0  0  0  0  0  0
  146.8049  142.9287  153.4053 H   0  0  0  0  0  0  0  0  0  0  0  0
  147.3404  142.5392  155.0295 H   0  0  0  0  0  0  0  0  0  0  0  0
  148.7647  141.3946  153.2950 H   0  0  0  0  0  0  0  0  0  0  0  0
  147.3718  140.6314  152.6249 H   0  0  0  0  0  0  0  0  0  0  0  0
  150.7559  134.9046  154.7027 H   0  0  0  0  0  0  0  0  0  0  0  0
  149.3208  135.3187  155.6407 H   0  0  0  0  0  0  0  0  0  0  0  0
  150.6267  134.4398  156.4026 H   0  0  0  0  0  0  0  0  0  0  0  0
  145.0138  142.3087  154.9036 H   0  0  0  0  0  0  0  0  0  0  0  0
  1  2  1  0  0  0  0
  1 25  1  0  0  0  0
  1 26  1  0  0  0  0
  1 27  1  0  0  0  0
  2  3  1  0  0  0  0
  2 28  1  0  0  0  0
  2 29  1  0  0  0  0
  3  4  1  0  0  0  0
  4  5  1  0  0  0  0
  4 30  1  0  0  0  0
  4 31  1  0  0  0  0
  5  6  1  0  0  0  0
  5 32  1  0  0  0  0
  5 33  1  0  0  0  0
  6 16  1  0  0  0  0
  6  7  1  0  0  0  0
  7  8  1  0  0  0  0
  7 14  2  0  0  0  0
  8 13  1  0  0  0  0
  8  9  1  0  0  0  0
  9 10  1  0  0  0  0
  9 34  1  0  0  0  0
  9 35  1  0  0  0  0
 10 11  1  0  0  0  0
 10 36  1  0  0  0  0
 10 37  1  0  0  0  0
 11 12  1  0  0  0  0
 11 38  1  0  0  0  0
 11 46  1  0  0  0  0
 12 13  1  0  0  0  0
 12 39  1  0  0  0  0
 12 40  1  0  0  0  0
 13 41  1  0  0  0  0
 13 42  1  0  0  0  0
 14 15  1  0  0  0  0
 15 22  1  0  0  0  0
 15 16  2  0  0  0  0
 16 17  1  0  0  0  0
 17 18  2  0  0  0  0
 17 19  1  0  0  0  0
 19 24  1  0  0  0  0
 19 20  1  0  0  0  0
 20 21  2  0  0  0  0
 20 22  1  0  0  0  0
 22 23  1  0  0  0  0
 23 43  1  0  0  0  0
 23 44  1  0  0  0  0
 23 45  1  0  0  0  0
M  CHG  1  11   1
M  END
> <s_m_source_file>
AV-unprocessed.smi

> <i_m_source_file_index>
514

> <i_lp_mmshare_version>
43012

> <i_f3d_flags>
0

> <s_epik_input>
W0NIM11uMWMoPU8pW25IXWMoPU8pYyhjMTIpbihbQ0gyXVtDSDJdT1tDSDJdW0NIM10pYyhuMilOM1tDSDJdW0NIMl1bTkhdW0NIMl1bQ0gyXTM=

> <s_epik_cmdline>
J2VwaWtfcHl0aG9uJywgJy1waCcsICc3LjAnLCAnLXRuJywgJzgnLCAnLW1hJywgJzIwMCcsICctbWV0YWxfYmluZGluZycsICctaW1hZScsICc8aW5maWxlLm1hZT4nLCAnLW9tYWUnLCAnPG91dGZpbGUubWFlPic=

> <r_epik_Ionization_Penalty>
0.00860326

> <r_epik_Ionization_Penalty_Charging>
0.00860166

> <r_epik_Ionization_Penalty_Neutral>
1.60107e-06

> <r_epik_State_Penalty>
0.00646614

> <r_epik_Charging_Adjusted_Penalty>
0.0150678

> <i_epik_Tot_Q>
1

> <i_epik_Tot_abs_Q>
1

> <r_epik_Metal_State_Penalty>
0.0342529

> <b_epik_Metal_Only>
0

> <s_lp_Force_Field>
OPLS_2005

> <r_lp_Energy>
46.1071

> <b_lp_Chiralities_Consistent>
1

> <s_lp_Variant>
AV-unprocessed.smi:514-1

> <Gold.Version>
5.8.1

> <Gold.Id.Protein>
6NUR|6NUR_protein|mol2

> <Gold.PLP.Fitness>
40.7546

> <Gold.PLP.PLP>
-31.7412

> <Gold.PLP.part.hbond>
-3.0000

> <Gold.PLP.part.metal>
0.0000

> <Gold.PLP.part.buried>
-3.5012

> <Gold.PLP.part.nonpolar>
-26.7568

> <Gold.PLP.part.repulsive>
0.5149

> <Gold.PLP.ligand.clash>
0.0000

> <Gold.PLP.ligand.torsion>
0.9816

> <Gold.PLP.Chemscore.Hbond>
3.6500

> <Gold.PLP.Chemscore.CHOScore>
0.0000

> <Gold.PLP.Chemscore.Metal>
0.0000

> <Gold.Chemscore.Hbonds>
donor molecule, donor type, donor heavy atom, donor atom, acceptor molecule, acceptor atom, score
      L1  H    11    38       P1 10175  2.00
      P1  H  7997  8008       L1    18  1.00
      P1  H 10752 10763       L1    21  0.60

> <Gold.PLP.Chemscore.Internal.Correction>
0.0265

> <Gold.Rescore>
     Score         DG    S(hbond)    S(metal)    S(lipo)     H(rot)  DE(clash)    DE(int)     intcor
     12.24     -14.55       1.96        0.00      59.85       1.75       0.05       2.25       ----

> <Gold.Chemscore.Fitness>
12.2428

> <Gold.Chemscore.DG>
-14.5451

> <Gold.Chemscore.ZeroCoef>
-5.4800

> <Gold.Chemscore.Hbond>
1.9558

> <Gold.Chemscore.Metal>
0.0000

> <Gold.Chemscore.Lipo>
59.8531

> <Gold.Chemscore.Internal_Hbond>
0.0000

> <Gold.Chemscore.DEClash>
0.0477

> <Gold.Chemscore.DEInternal>
2.2546

> <Gold.Chemscore.Rot>
1.7461

> <Gold.Chemscore.Internal.Correction>
   9.000000E+99

> <Gold.Chemscore.Hbonds>
donor molecule, donor type, donor heavy atom, donor atom, acceptor molecule, acceptor atom, score
      L1  H    11    38       P1 10175  0.25
      P1  H  7997  8008       L1    18  0.83
      P1  H 10752 10763       L1    21  0.04

> <Gold.Chemscore.Hbond.Weighted>
-6.5324

> <Gold.Chemscore.Metal.Weighted>
-0.0000

> <Gold.Chemscore.Lipo.Weighted>
-7.0028

> <Gold.Chemscore.Internal_Hbond.Weighted>
0.0000

> <Gold.Chemscore.DEClash.Weighted>
0.0477

> <Gold.Chemscore.DEInternal.Weighted>
2.2546

> <Gold.Chemscore.Rot.Weighted>
4.4701

> <Gold.Chemscore.Internal.Correction.Weighted>
   9.000000E+99

> <Gold.Protein.RotatedTorsions>
[ 6907 6896 6895 6894 ] final  -99.76 input  -60.11 | X-H torsion
[ 7974 7965 7964 7962 ] final -137.22 input  175.53 | X-H torsion
[ 8008 7997 7996 7995 ] final  -73.31 input   59.86 | X-H torsion
[ 10167 10162 10161 10158 ] final  -25.27 input  -65.29 | X-H torsion
[ 10718 10713 10712 10709 ] final   76.41 input   66.30 | X-H torsion
[ 10763 10752 10751 10750 ] final  114.96 input  -60.55 | X-H torsion
[ 11005 11000 10999 10996 ] final  -99.63 input  -57.11 | X-H torsion

> <Gold.Protein.ActiveResidues>
 VAL166  LYS551  ARG553  GLY616  TRP617  ASP618  TYR619  PRO620  LYS621  CYS622 
 ASP623  PHE694  ASN695  SER759  ASP760  ASP761  ALA762  ILE779  LEU786  VAL792 
 PHE793  MET794  SER795  GLU796  ALA797  LYS798  CYS799  TRP800  GLU811  SER814 

> <Gold.Protein.RotatedAtoms>
  150.7091  134.0991  159.3959 H   0  0  0  0  0  0  0  0  0  0  0  0  # atno 6907 bound_to 6896
  151.8977  135.0388  160.0513 H   0  0  0  0  0  0  0  0  0  0  0  0  # atno 6908 bound_to 6896
  152.2439  133.5123  159.5323 H   0  0  0  0  0  0  0  0  0  0  0  0  # atno 6909 bound_to 6896
  144.8861  140.6576  143.5175 H   0  0  0  0  0  0  0  0  0  0  0  0  # atno 7974 bound_to 7965
  154.5237  140.0781  156.8219 H   0  0  0  0  0  0  0  0  0  0  0  0  # atno 8008 bound_to 7997
  155.3522  140.3413  155.4221 H   0  0  0  0  0  0  0  0  0  0  0  0  # atno 8009 bound_to 7997
  156.1708  140.1619  156.8437 H   0  0  0  0  0  0  0  0  0  0  0  0  # atno 8010 bound_to 7997
  140.7287  143.4280  151.0847 H   0  0  0  0  0  0  0  0  0  0  0  0  # atno 10167 bound_to 10162
  157.6672  130.9773  150.1493 H   0  0  0  0  0  0  0  0  0  0  0  0  # atno 10718 bound_to 10713
  153.5151  135.3609  155.2605 H   0  0  0  0  0  0  0  0  0  0  0  0  # atno 10763 bound_to 10752
  154.8739  135.4032  154.3324 H   0  0  0  0  0  0  0  0  0  0  0  0  # atno 10764 bound_to 10752
  153.3984  135.7074  153.6510 H   0  0  0  0  0  0  0  0  0  0  0  0  # atno 10765 bound_to 10752
  141.1301  133.8336  157.0997 H   0  0  0  0  0  0  0  0  0  0  0  0  # atno 11005 bound_to 11000
  145.3867  139.1625  143.4251 LP  0  0  0  0  0  0  0  0  0  0  0  0  # atno 17320 bound_to 7965
  146.3025  140.3953  142.8699 LP  0  0  0  0  0  0  0  0  0  0  0  0  # atno 17321 bound_to 7965
  139.7933  143.8187  152.3154 LP  0  0  0  0  0  0  0  0  0  0  0  0  # atno 17342 bound_to 10162
  139.8178  144.7308  150.9612 LP  0  0  0  0  0  0  0  0  0  0  0  0  # atno 17343 bound_to 10162
  156.2296  130.3681  149.8460 LP  0  0  0  0  0  0  0  0  0  0  0  0  # atno 17370 bound_to 10713
  156.6290  130.8658  151.3491 LP  0  0  0  0  0  0  0  0  0  0  0  0  # atno 17371 bound_to 10713
  140.0341  134.9887  157.0837 LP  0  0  0  0  0  0  0  0  0  0  0  0  # atno 17394 bound_to 11000
  140.4238  134.1852  155.7165 LP  0  0  0  0  0  0  0  0  0  0  0  0  # atno 17395 bound_to 11000

$$$$
