#       Name:                AV-unprocessed.smi:625
#       Creating user name   scv26
#       Creation time:       Fri Mar 27 00:02:10 2020


#       File generated by GOLD software.
#

@<TRIPOS>MOLECULE
AV-unprocessed.smi:625
    55    57     1
SMALL
NO_CHARGES


@<TRIPOS>ATOM
      1 ****        -4.4415   2.0044  -3.0713 C.3            1 S1                 0.0000
      2 ****        -3.8580   2.0358  -1.7385 N.am           1 S1                 0.0000
      3 ****        -3.4883   0.9473  -1.0438 C.2            1 S1                 0.0000
      4 ****        -3.6225  -0.1889  -1.5016 O.2            1 S1                 0.0000
      5 ****        -2.9229   1.2497   0.2733 C.2            1 S1                 0.0000
      6 ****        -2.7458   2.6051   0.7729 C.2            1 S1                 0.0000
      7 ****        -2.1847   2.8233   1.9786 C.2            1 S1                 0.0000
      8 ****        -1.7329   1.7203   2.8317 C.2            1 S1                 0.0000
      9 ****        -1.1918   1.9161   3.9198 O.2            1 S1                 0.0000
     10 ****        -1.9418   0.4632   2.3361 N.am           1 S1                 0.0000
     11 ****        -1.5062  -0.7314   3.0828 C.3            1 S1                 0.0000
     12 ****        -0.0968  -1.2301   2.7181 C.2            1 S1                 0.0000
     13 ****         0.3424  -2.2414   3.2638 O.2            1 S1                 0.0000
     14 ****         0.5942  -0.5398   1.7952 N.am           1 S1                 0.0000
     15 ****         1.8971  -0.8943   1.2432 C.3            1 S1                 0.0000
     16 ****         3.0139  -0.3849   2.1699 C.3            1 S1                 0.0000
     17 ****         2.0016  -0.3087  -0.1849 C.3            1 S1                 0.0000
     18 ****         0.9065  -0.7886  -1.1667 C.3            1 S1                 0.0000
     19 ****         1.7151  -1.2063  -2.4086 C.3            1 S1                 0.0000
     20 ****         2.4303  -2.5381  -2.1165 C.3            1 S1                 0.0000
     21 ****         3.5466  -2.1155  -1.1440 C.3            1 S1                 0.0000
     22 ****         3.3008  -0.6016  -0.9754 C.3            1 S1                 0.0000
     23 ****         2.8743  -0.2159  -2.3889 C.3            1 S1                 0.0000
     24 ****        -2.5236   0.2413   1.0722 C.2            1 S1                 0.0000
     25 ****        -4.6387   3.0197  -3.4146 H              1 S1                 0.0000
     26 ****        -5.3842   1.4556  -3.0694 H              1 S1                 0.0000
     27 ****        -3.7631   1.5301  -3.7818 H              1 S1                 0.0000
     28 ****        -3.7248   2.9424  -1.3145 H              1 S1                 0.0000
     29 ****        -3.0579   3.4625   0.1950 H              1 S1                 0.0000
     30 ****        -2.0636   3.8381   2.3280 H              1 S1                 0.0000
     31 ****        -1.5450  -0.5599   4.1597 H              1 S1                 0.0000
     32 ****        -2.2093  -1.5463   2.9046 H              1 S1                 0.0000
     33 ****         0.1550   0.2821   1.4066 H              1 S1                 0.0000
     34 ****         1.9538  -1.9818   1.1897 H              1 S1                 0.0000
     35 ****         3.9972  -0.6765   1.8011 H              1 S1                 0.0000
     36 ****         2.9119  -0.7955   3.1749 H              1 S1                 0.0000
     37 ****         2.9968   0.7025   2.2515 H              1 S1                 0.0000
     38 ****         1.9152   0.7764  -0.0990 H              1 S1                 0.0000
     39 ****         0.3140  -1.6175  -0.7766 H              1 S1                 0.0000
     40 ****         0.2184   0.0254  -1.3993 H              1 S1                 0.0000
     41 ****         1.1299  -1.2168  -3.3286 H              1 S1                 0.0000
     42 ****         1.7605  -3.2822  -1.6840 H              1 S1                 0.0000
     43 ****         2.8556  -2.9602  -3.0278 H              1 S1                 0.0000
     44 ****         3.5241  -2.6687  -0.2063 H              1 S1                 0.0000
     45 ****         4.5236  -2.2915  -1.5961 H              1 S1                 0.0000
     46 ****         4.1699  -0.0572  -0.6051 H              1 S1                 0.0000
     47 ****         3.6343  -0.4241  -3.1441 H              1 S1                 0.0000
     48 ****         2.5562   0.8244  -2.4806 H              1 S1                 0.0000
     49 ****        -2.5976  -0.8020   0.7969 H              1 S1                 0.0000
     50 ****        -4.0152  -0.3179  -2.4121 LP             1 S1                 0.0000
     51 ****        -3.3386  -0.9819  -0.9625 LP             1 S1                 0.0000
     52 ****        -1.0487   2.8505   4.2462 LP             1 S1                 0.0000
     53 ****        -0.8952   1.1408   4.4775 LP             1 S1                 0.0000
     54 ****        -0.2149  -2.7291   3.9357 LP             1 S1                 0.0000
     55 ****         1.2568  -2.5757   3.0355 LP             1 S1                 0.0000
@<TRIPOS>BOND
    1    1    2 1     
    2    1   25 1     
    3    1   26 1     
    4    1   27 1     
    5    2    3 am    
    6    2   28 1     
    7    3    4 2     
    8    3    5 1     
    9    5   24 2     
   10    5    6 1     
   11    6    7 2     
   12    6   29 1     
   13    7    8 1     
   14    7   30 1     
   15    8    9 2     
   16    8   10 am    
   17   10   11 1     
   18   10   24 1     
   19   11   12 1     
   20   11   31 1     
   21   11   32 1     
   22   12   13 2     
   23   12   14 am    
   24   14   15 1     
   25   14   33 1     
   26   15   16 1     
   27   15   17 1     
   28   15   34 1     
   29   16   35 1     
   30   16   36 1     
   31   16   37 1     
   32   17   22 1     
   33   17   18 1     
   34   17   38 1     
   35   18   19 1     
   36   18   39 1     
   37   18   40 1     
   38   19   23 1     
   39   19   20 1     
   40   19   41 1     
   41   20   21 1     
   42   20   42 1     
   43   20   43 1     
   44   21   22 1     
   45   21   44 1     
   46   21   45 1     
   47   22   23 1     
   48   22   46 1     
   49   23   47 1     
   50   23   48 1     
   51   24   49 1     
   52    4   50 1     
   53    4   51 1     
   54    9   52 1     
   55    9   53 1     
   56   13   54 1     
   57   13   55 1     
@<TRIPOS>SUBSTRUCTURE
      1 S1             1
@<TRIPOS>SET
LONE_PAIRS      STATIC     ATOMS    <user>   **** ""
6 50 51 52 53 54 55
DONOR_HYDROGENS      STATIC     ATOMS    <user>   **** ""
2 28 33
ATOM$BLUE        STATIC     ATOMS    COLORGROUP SYSTEM
6 50 51 52 53 54 55
ATOM$RED        STATIC     ATOMS    COLORGROUP SYSTEM
2 28 33
