AV-unprocessed.smi:527|AV-procd|sdf|2817|dock1
  -GOLD-   2262023293D 1   1.00000     0.00000
 Structure written by MMmdl.
 42 43  0  0  0  0  0  0  0  0  1 V2000
  153.3679  142.4519  161.4197 C   0  0  0  0  0  0  0  0  0  0  0  0
  153.0233  142.5638  159.9229 C   0  0  2  0  0  0  0  0  0  0  0  0
  152.1170  143.7897  159.6944 C   0  0  0  0  0  0  0  0  0  0  0  0
  151.7745  143.9749  158.2127 C   0  0  0  0  0  0  0  0  0  0  0  0
  151.0941  142.7203  157.6583 C   0  0  0  0  0  0  0  0  0  0  0  0
  151.9707  141.4696  157.8589 C   0  0  2  0  0  0  0  0  0  0  0  0
  151.2453  140.3004  157.3634 N   0  0  0  0  0  0  0  0  0  0  0  0
  151.7249  139.3922  156.5004 C   0  0  0  0  0  0  0  0  0  0  0  0
  152.8153  139.5028  155.9356 O   0  0  0  0  0  0  0  0  0  0  0  0
  150.8588  138.3723  156.3436 N   0  0  0  0  0  0  0  0  0  0  0  0
  150.9460  137.3458  155.4733 C   0  0  0  0  0  0  0  0  0  0  0  0
  151.8745  137.1715  154.6793 O   0  0  0  0  0  0  0  0  0  0  0  0
  149.7745  136.3563  155.5295 C   0  0  0  0  0  0  0  0  0  0  0  0
  150.2029  134.9678  155.5121 N   0  0  0  0  0  0  0  0  0  0  0  0
  149.7161  133.9496  154.7019 C   0  0  0  0  0  0  0  0  0  0  0  0
  150.4195  132.8135  155.0330 C   0  0  0  0  0  0  0  0  0  0  0  0
  151.3385  133.1071  156.0378 N   0  0  0  0  0  0  0  0  0  0  0  0
  151.1538  134.4008  156.2679 C   0  0  0  0  0  0  0  0  0  0  0  0
  152.3751  141.2729  159.3456 C   0  0  1  0  0  0  0  0  0  0  0  0
  153.2944  140.0425  159.5092 C   0  0  0  0  0  0  0  0  0  0  0  0
  152.4908  142.1851  162.0103 H   0  0  0  0  0  0  0  0  0  0  0  0
  153.7494  143.3984  161.8042 H   0  0  0  0  0  0  0  0  0  0  0  0
  154.1402  141.7064  161.6058 H   0  0  0  0  0  0  0  0  0  0  0  0
  153.9562  142.7418  159.3859 H   0  0  0  0  0  0  0  0  0  0  0  0
  151.1962  143.6802  160.2691 H   0  0  0  0  0  0  0  0  0  0  0  0
  152.6060  144.6912  160.0653 H   0  0  0  0  0  0  0  0  0  0  0  0
  151.1215  144.8389  158.0860 H   0  0  0  0  0  0  0  0  0  0  0  0
  152.6825  144.1847  157.6456 H   0  0  0  0  0  0  0  0  0  0  0  0
  150.1314  142.5828  158.1533 H   0  0  0  0  0  0  0  0  0  0  0  0
  150.8790  142.8619  156.5983 H   0  0  0  0  0  0  0  0  0  0  0  0
  152.8884  141.6005  157.2815 H   0  0  0  0  0  0  0  0  0  0  0  0
  150.3026  140.1795  157.7038 H   0  0  0  0  0  0  0  0  0  0  0  0
  150.0479  138.3785  156.9442 H   0  0  0  0  0  0  0  0  0  0  0  0
  149.1929  136.5339  156.4351 H   0  0  0  0  0  0  0  0  0  0  0  0
  149.1109  136.5245  154.6802 H   0  0  0  0  0  0  0  0  0  0  0  0
  148.9336  134.1139  153.9757 H   0  0  0  0  0  0  0  0  0  0  0  0
  150.3360  131.8159  154.6279 H   0  0  0  0  0  0  0  0  0  0  0  0
  151.7238  134.9494  157.0033 H   0  0  0  0  0  0  0  0  0  0  0  0
  151.4641  141.0781  159.9139 H   0  0  0  0  0  0  0  0  0  0  0  0
  154.2499  140.1949  159.0064 H   0  0  0  0  0  0  0  0  0  0  0  0
  152.8456  139.1402  159.0944 H   0  0  0  0  0  0  0  0  0  0  0  0
  153.4989  139.8251  160.5567 H   0  0  0  0  0  0  0  0  0  0  0  0
  1  2  1  0  0  0  0
  1 21  1  0  0  0  0
  1 22  1  0  0  0  0
  1 23  1  0  0  0  0
  2 19  1  0  0  0  0
  2  3  1  0  0  0  0
  2 24  1  0  0  0  0
  3  4  1  0  0  0  0
  3 25  1  0  0  0  0
  3 26  1  0  0  0  0
  4  5  1  0  0  0  0
  4 27  1  0  0  0  0
  4 28  1  0  0  0  0
  5  6  1  0  0  0  0
  5 29  1  0  0  0  0
  5 30  1  0  0  0  0
  6  7  1  0  0  0  0
  6 19  1  0  0  0  0
  6 31  1  0  0  0  0
  7  8  1  0  0  0  0
  7 32  1  0  0  0  0
  8  9  2  0  0  0  0
  8 10  1  0  0  0  0
 10 11  1  0  0  0  0
 10 33  1  0  0  0  0
 11 12  2  0  0  0  0
 11 13  1  0  0  0  0
 13 14  1  0  0  0  0
 13 34  1  0  0  0  0
 13 35  1  0  0  0  0
 14 18  1  0  0  0  0
 14 15  1  0  0  0  0
 15 16  2  0  0  0  0
 15 36  1  0  0  0  0
 16 17  1  0  0  0  0
 16 37  1  0  0  0  0
 17 18  2  0  0  0  0
 18 38  1  0  0  0  0
 19 20  1  0  0  0  0
 19 39  1  0  0  0  0
 20 40  1  0  0  0  0
 20 41  1  0  0  0  0
 20 42  1  0  0  0  0
M  END
> <s_m_source_file>
AV-unprocessed.smi

> <i_m_source_file_index>
527

> <i_lp_mmshare_version>
43012

> <i_f3d_flags>
0

> <s_epik_input>
W0NIM11bQ0BASF0xW0NIMl1bQ0gyXVtDSDJdW0NASF0oW0NASF0xW0NIM10pW05IXUMoPU8pW05IXUMoPU8pW0NIMl1uMltjSF1bY0hdbltjSF0y

> <s_epik_cmdline>
J2VwaWtfcHl0aG9uJywgJy1waCcsICc3LjAnLCAnLXRuJywgJzgnLCAnLW1hJywgJzIwMCcsICctbWV0YWxfYmluZGluZycsICctaW1hZScsICc8aW5maWxlLm1hZT4nLCAnLW9tYWUnLCAnPG91dGZpbGUubWFlPic=

> <r_lp_tautomer_probability>
1

> <r_epik_Ionization_Penalty>
0.172132

> <r_epik_Ionization_Penalty_Charging>
0.172105

> <r_epik_Ionization_Penalty_Neutral>
2.71747e-05

> <r_epik_State_Penalty>
0.161503

> <r_epik_Charging_Adjusted_Penalty>
0.333607

> <i_epik_Tot_Q>
0

> <i_epik_Tot_abs_Q>
0

> <r_epik_Metal_State_Penalty>
0.124763

> <b_epik_Metal_Only>
0

> <s_lp_Force_Field>
OPLS_2005

> <r_lp_Energy>
15.8984

> <b_lp_Chiralities_Consistent>
1

> <s_lp_Variant>
AV-unprocessed.smi:527-3

> <Gold.Version>
5.8.1

> <Gold.Id.Protein>
6NUR|6NUR_protein|mol2

> <Gold.PLP.Fitness>
48.8310

> <Gold.PLP.PLP>
-40.7529

> <Gold.PLP.part.hbond>
-2.0000

> <Gold.PLP.part.metal>
0.0000

> <Gold.PLP.part.buried>
-6.4767

> <Gold.PLP.part.nonpolar>
-32.8100

> <Gold.PLP.part.repulsive>
0.2117

> <Gold.PLP.ligand.clash>
0.0000

> <Gold.PLP.ligand.torsion>
0.4309

> <Gold.PLP.Chemscore.Hbond>
1.9920

> <Gold.PLP.Chemscore.CHOScore>
0.9799

> <Gold.PLP.Chemscore.Metal>
0.0000

> <Gold.Chemscore.Hbonds>
donor molecule, donor type, donor heavy atom, donor atom, acceptor molecule, acceptor atom, score
      P1  H  7997  8009       L1     9  1.00
      P1  H 10752 10765       L1    12  1.00

> <Gold.PLP.Chemscore.Internal.Correction>
0.0241

> <Gold.Rescore>
     Score         DG    S(hbond)    S(metal)    S(lipo)     H(rot)  DE(clash)    DE(int)     intcor
     17.39     -19.20       1.96        0.00      97.53       1.66       0.13       1.68       ----

> <Gold.Chemscore.Fitness>
17.3861

> <Gold.Chemscore.DG>
-19.1961

> <Gold.Chemscore.ZeroCoef>
-5.4800

> <Gold.Chemscore.Hbond>
1.9646

> <Gold.Chemscore.Metal>
0.0000

> <Gold.Chemscore.Lipo>
97.5319

> <Gold.Chemscore.Internal_Hbond>
0.0000

> <Gold.Chemscore.DEClash>
0.1288

> <Gold.Chemscore.DEInternal>
1.6811

> <Gold.Chemscore.Rot>
1.6629

> <Gold.Chemscore.Internal.Correction>
   9.000000E+99

> <Gold.Chemscore.Hbonds>
donor molecule, donor type, donor heavy atom, donor atom, acceptor molecule, acceptor atom, score
      P1  H  7997  8009       L1     9  1.00
      P1  H 10752 10765       L1    12  0.95

> <Gold.Chemscore.Hbond.Weighted>
-6.5617

> <Gold.Chemscore.Metal.Weighted>
-0.0000

> <Gold.Chemscore.Lipo.Weighted>
-11.4112

> <Gold.Chemscore.Internal_Hbond.Weighted>
0.0000

> <Gold.Chemscore.DEClash.Weighted>
0.1288

> <Gold.Chemscore.DEInternal.Weighted>
1.6811

> <Gold.Chemscore.Rot.Weighted>
4.2569

> <Gold.Chemscore.Internal.Correction.Weighted>
   9.000000E+99

> <Gold.Protein.RotatedTorsions>
[ 6907 6896 6895 6894 ] final -127.28 input  -60.11 | X-H torsion
[ 7974 7965 7964 7962 ] final   47.25 input  175.53 | X-H torsion
[ 8008 7997 7996 7995 ] final -153.61 input   59.86 | X-H torsion
[ 10167 10162 10161 10158 ] final -140.76 input  -65.29 | X-H torsion
[ 10718 10713 10712 10709 ] final   97.93 input   66.30 | X-H torsion
[ 10763 10752 10751 10750 ] final  170.99 input  -60.55 | X-H torsion
[ 11005 11000 10999 10996 ] final  -77.60 input  -57.11 | X-H torsion

> <Gold.Protein.ActiveResidues>
 VAL166  LYS551  ARG553  GLY616  TRP617  ASP618  TYR619  PRO620  LYS621  CYS622 
 ASP623  PHE694  ASN695  SER759  ASP760  ASP761  ALA762  ILE779  LEU786  VAL792 
 PHE793  MET794  SER795  GLU796  ALA797  LYS798  CYS799  TRP800  GLU811  SER814 

> <Gold.Protein.RotatedAtoms>
  150.9056  133.7062  159.2867 H   0  0  0  0  0  0  0  0  0  0  0  0  # atno 6907 bound_to 6896
  151.4566  135.1033  159.9722 H   0  0  0  0  0  0  0  0  0  0  0  0  # atno 6908 bound_to 6896
  152.4902  133.8430  159.7217 H   0  0  0  0  0  0  0  0  0  0  0  0  # atno 6909 bound_to 6896
  146.0315  139.4770  142.9834 H   0  0  0  0  0  0  0  0  0  0  0  0  # atno 7974 bound_to 7965
  155.6735  140.0736  157.2511 H   0  0  0  0  0  0  0  0  0  0  0  0  # atno 8008 bound_to 7997
  154.4119  140.1695  156.1956 H   0  0  0  0  0  0  0  0  0  0  0  0  # atno 8009 bound_to 7997
  155.9596  140.3371  155.6482 H   0  0  0  0  0  0  0  0  0  0  0  0  # atno 8010 bound_to 7997
  139.8251  143.7522  152.2666 H   0  0  0  0  0  0  0  0  0  0  0  0  # atno 10167 bound_to 10162
  157.6904  131.0624  150.4718 H   0  0  0  0  0  0  0  0  0  0  0  0  # atno 10718 bound_to 10713
  154.4055  135.2755  155.2070 H   0  0  0  0  0  0  0  0  0  0  0  0  # atno 10763 bound_to 10752
  154.4078  135.6029  153.5938 H   0  0  0  0  0  0  0  0  0  0  0  0  # atno 10764 bound_to 10752
  152.9831  135.5942  154.4329 H   0  0  0  0  0  0  0  0  0  0  0  0  # atno 10765 bound_to 10752
  141.1661  133.7029  156.7845 H   0  0  0  0  0  0  0  0  0  0  0  0  # atno 11005 bound_to 11000
  145.7032  141.0129  143.1493 LP  0  0  0  0  0  0  0  0  0  0  0  0  # atno 17320 bound_to 7965
  144.7033  139.8669  143.7438 LP  0  0  0  0  0  0  0  0  0  0  0  0  # atno 17321 bound_to 7965
  139.7712  144.7476  151.0222 LP  0  0  0  0  0  0  0  0  0  0  0  0  # atno 17342 bound_to 10162
  140.7811  143.4643  151.0234 LP  0  0  0  0  0  0  0  0  0  0  0  0  # atno 17343 bound_to 10162
  156.5055  130.4127  149.6329 LP  0  0  0  0  0  0  0  0  0  0  0  0  # atno 17370 bound_to 10713
  156.3288  130.7320  151.2246 LP  0  0  0  0  0  0  0  0  0  0  0  0  # atno 17371 bound_to 10713
  140.2370  134.8642  157.3535 LP  0  0  0  0  0  0  0  0  0  0  0  0  # atno 17394 bound_to 11000
  140.1833  134.4462  155.7759 LP  0  0  0  0  0  0  0  0  0  0  0  0  # atno 17395 bound_to 11000

$$$$
