AV-unprocessed.smi:2801|AV-procd|sdf|10800|dock3
  -GOLD-   2272015233D 1   1.00000     0.00000
 Structure written by MMmdl.
 32 32  0  0  0  0  0  0  0  0  1 V2000
  153.4738  142.6062  162.9572 C   0  0  0  0  0  0  0  0  0  0  0  0
  152.6282  143.1414  161.7996 C   0  0  0  0  0  0  0  0  0  0  0  0
  152.8006  142.2857  160.6765 O   0  0  0  0  0  0  0  0  0  0  0  0
  152.0481  142.6379  159.5175 C   0  0  1  0  0  0  0  0  0  0  0  0
  152.5722  143.9937  159.0073 C   0  0  0  0  0  0  0  0  0  0  0  0
  151.8447  144.4757  157.7459 C   0  0  0  0  0  0  0  0  0  0  0  0
  152.1916  141.5472  158.4431 C   0  0  0  0  0  0  0  0  0  0  0  0
  153.1151  140.7377  158.5212 O   0  0  0  0  0  0  0  0  0  0  0  0
  151.2442  141.5442  157.4868 N   0  0  0  0  0  0  0  0  0  0  0  0
  151.0941  140.6820  156.3638 C   0  0  0  0  0  0  0  0  0  0  0  0
  151.9817  139.6226  156.0541 C   0  0  0  0  0  0  0  0  0  0  0  0
  151.7372  138.8486  154.9025 C   0  0  0  0  0  0  0  0  0  0  0  0
  150.7010  139.0650  154.0659 N   0  0  0  0  0  0  0  0  0  0  0  0
  149.8638  140.0824  154.3546 C   0  0  0  0  0  0  0  0  0  0  0  0
  150.0153  140.9182  155.4802 C   0  0  0  0  0  0  0  0  0  0  0  0
  149.1251  141.9323  155.6981 O   0  0  0  0  0  0  0  0  0  0  0  0
  153.3723  143.2392  163.8388 H   0  0  0  0  0  0  0  0  0  0  0  0
  154.5297  142.5730  162.6877 H   0  0  0  0  0  0  0  0  0  0  0  0
  153.1658  141.5974  163.2329 H   0  0  0  0  0  0  0  0  0  0  0  0
  151.5822  143.1873  162.1044 H   0  0  0  0  0  0  0  0  0  0  0  0
  152.9440  144.1551  161.5491 H   0  0  0  0  0  0  0  0  0  0  0  0
  150.9955  142.7512  159.7855 H   0  0  0  0  0  0  0  0  0  0  0  0
  152.4773  144.7494  159.7883 H   0  0  0  0  0  0  0  0  0  0  0  0
  153.6373  143.9163  158.7842 H   0  0  0  0  0  0  0  0  0  0  0  0
  152.2476  145.4297  157.4059 H   0  0  0  0  0  0  0  0  0  0  0  0
  150.7793  144.6133  157.9324 H   0  0  0  0  0  0  0  0  0  0  0  0
  151.9528  143.7599  156.9307 H   0  0  0  0  0  0  0  0  0  0  0  0
  150.5048  142.2222  157.6018 H   0  0  0  0  0  0  0  0  0  0  0  0
  152.8445  139.3940  156.6592 H   0  0  0  0  0  0  0  0  0  0  0  0
  152.3982  138.0351  154.6427 H   0  0  0  0  0  0  0  0  0  0  0  0
  149.0482  140.2367  153.6635 H   0  0  0  0  0  0  0  0  0  0  0  0
  149.5029  142.7888  155.5666 H   0  0  0  0  0  0  0  0  0  0  0  0
  1  2  1  0  0  0  0
  1 17  1  0  0  0  0
  1 18  1  0  0  0  0
  1 19  1  0  0  0  0
  2  3  1  0  0  0  0
  2 20  1  0  0  0  0
  2 21  1  0  0  0  0
  3  4  1  0  0  0  0
  4  5  1  0  0  0  0
  4  7  1  0  0  0  0
  4 22  1  0  0  0  0
  5  6  1  0  0  0  0
  5 23  1  0  0  0  0
  5 24  1  0  0  0  0
  6 25  1  0  0  0  0
  6 26  1  0  0  0  0
  6 27  1  0  0  0  0
  7  8  2  0  0  0  0
  7  9  1  0  0  0  0
  9 10  1  0  0  0  0
  9 28  1  0  0  0  0
 10 15  1  0  0  0  0
 10 11  2  0  0  0  0
 11 12  1  0  0  0  0
 11 29  1  0  0  0  0
 12 13  2  0  0  0  0
 12 30  1  0  0  0  0
 13 14  1  0  0  0  0
 14 15  2  0  0  0  0
 14 31  1  0  0  0  0
 15 16  1  0  0  0  0
 16 32  1  0  0  0  0
M  END
> <s_m_source_file>
AV-unprocessed.smi

> <i_m_source_file_index>
2801

> <i_lp_mmshare_version>
43012

> <i_f3d_flags>
0

> <s_epik_input>
W0NIM11bQ0gyXU9bQ0BIXShbQ0gyXVtDSDNdKUMoPU8pW05IXWMxW2NIXVtjSF1uW2NIXWMxW09IXQ==

> <s_epik_cmdline>
J2VwaWtfcHl0aG9uJywgJy1waCcsICc3LjAnLCAnLXRuJywgJzgnLCAnLW1hJywgJzIwMCcsICctbWV0YWxfYmluZGluZycsICctaW1hZScsICc8aW5maWxlLm1hZT4nLCAnLW9tYWUnLCAnPG91dGZpbGUubWFlPic=

> <r_lp_tautomer_probability>
0.43658

> <r_epik_Ionization_Penalty>
0.0250035

> <r_epik_Ionization_Penalty_Charging>
0

> <r_epik_Ionization_Penalty_Neutral>
0.0250035

> <r_epik_State_Penalty>
0.520524

> <r_epik_Charging_Adjusted_Penalty>
0.520524

> <i_epik_Tot_Q>
0

> <i_epik_Tot_abs_Q>
0

> <r_epik_Metal_State_Penalty>
0.772586

> <b_epik_Metal_Only>
0

> <s_lp_Force_Field>
OPLS_2005

> <r_lp_Energy>
11.8743

> <b_lp_Chiralities_Consistent>
1

> <s_lp_Variant>
AV-unprocessed.smi:2801-4

> <Gold.Version>
5.8.1

> <Gold.Id.Protein>
6NUR|6NUR_protein|mol2

> <Gold.PLP.Fitness>
42.9799

> <Gold.PLP.PLP>
-38.6633

> <Gold.PLP.part.hbond>
-2.9305

> <Gold.PLP.part.metal>
0.0000

> <Gold.PLP.part.buried>
-0.9024

> <Gold.PLP.part.nonpolar>
-34.3185

> <Gold.PLP.part.repulsive>
0.2785

> <Gold.PLP.ligand.clash>
0.0000

> <Gold.PLP.ligand.torsion>
0.5350

> <Gold.PLP.Chemscore.Hbond>
1.1161

> <Gold.PLP.Chemscore.CHOScore>
0.6738

> <Gold.PLP.Chemscore.Metal>
0.0000

> <Gold.Chemscore.Hbonds>
donor molecule, donor type, donor heavy atom, donor atom, acceptor molecule, acceptor atom, score
      L1  H    16    32       P1  8028  0.75
      P1  H  7997  8009       L1     8  0.39
      L1  C    14    31       P1  7957  0.65

> <Gold.PLP.Chemscore.Internal.Correction>
0.0168

> <Gold.Rescore>
     Score         DG    S(hbond)    S(metal)    S(lipo)     H(rot)  DE(clash)    DE(int)     intcor
     14.70     -16.87       1.59        0.00      98.27       2.11       0.29       1.88       ----

> <Gold.Chemscore.Fitness>
14.6970

> <Gold.Chemscore.DG>
-16.8698

> <Gold.Chemscore.ZeroCoef>
-5.4800

> <Gold.Chemscore.Hbond>
1.5870

> <Gold.Chemscore.Metal>
0.0000

> <Gold.Chemscore.Lipo>
98.2740

> <Gold.Chemscore.Internal_Hbond>
0.0000

> <Gold.Chemscore.DEClash>
0.2890

> <Gold.Chemscore.DEInternal>
1.8838

> <Gold.Chemscore.Rot>
2.1129

> <Gold.Chemscore.Internal.Correction>
   9.000000E+99

> <Gold.Chemscore.Hbonds>
donor molecule, donor type, donor heavy atom, donor atom, acceptor molecule, acceptor atom, score
      L1  H    16    32       P1  8028  0.69
      P1  H  7997  8009       L1     8  0.38

> <Gold.Chemscore.Hbond.Weighted>
-5.3007

> <Gold.Chemscore.Metal.Weighted>
-0.0000

> <Gold.Chemscore.Lipo.Weighted>
-11.4981

> <Gold.Chemscore.Internal_Hbond.Weighted>
0.0000

> <Gold.Chemscore.DEClash.Weighted>
0.2890

> <Gold.Chemscore.DEInternal.Weighted>
1.8838

> <Gold.Chemscore.Rot.Weighted>
5.4089

> <Gold.Chemscore.Internal.Correction.Weighted>
   9.000000E+99

> <Gold.Protein.RotatedTorsions>
[ 6907 6896 6895 6894 ] final -156.64 input  -60.11 | X-H torsion
[ 7974 7965 7964 7962 ] final  110.78 input  175.53 | X-H torsion
[ 8008 7997 7996 7995 ] final  147.82 input   59.86 | X-H torsion
[ 10167 10162 10161 10158 ] final  -29.31 input  -65.29 | X-H torsion
[ 10718 10713 10712 10709 ] final   40.78 input   66.30 | X-H torsion
[ 10763 10752 10751 10750 ] final -138.12 input  -60.55 | X-H torsion
[ 11005 11000 10999 10996 ] final -157.46 input  -57.11 | X-H torsion

> <Gold.Protein.ActiveResidues>
 VAL166  LYS551  ARG553  GLY616  TRP617  ASP618  TYR619  PRO620  LYS621  CYS622 
 ASP623  PHE694  ASN695  SER759  ASP760  ASP761  ALA762  ILE779  LEU786  VAL792 
 PHE793  MET794  SER795  GLU796  ALA797  LYS798  CYS799  TRP800  GLU811  SER814 

> <Gold.Protein.RotatedAtoms>
  151.2907  133.4167  159.2632 H   0  0  0  0  0  0  0  0  0  0  0  0  # atno 6907 bound_to 6896
  151.0280  134.9519  159.8106 H   0  0  0  0  0  0  0  0  0  0  0  0  # atno 6908 bound_to 6896
  152.5339  134.2868  159.9081 H   0  0  0  0  0  0  0  0  0  0  0  0  # atno 6909 bound_to 6896
  145.2506  139.2741  143.4069 H   0  0  0  0  0  0  0  0  0  0  0  0  # atno 7974 bound_to 7965
  156.2812  140.2145  156.5600 H   0  0  0  0  0  0  0  0  0  0  0  0  # atno 8008 bound_to 7997
  154.7221  140.0502  157.0672 H   0  0  0  0  0  0  0  0  0  0  0  0  # atno 8009 bound_to 7997
  155.0465  140.3151  155.4710 H   0  0  0  0  0  0  0  0  0  0  0  0  # atno 8010 bound_to 7997
  140.7262  143.3939  151.1382 H   0  0  0  0  0  0  0  0  0  0  0  0  # atno 10167 bound_to 10162
  157.3861  130.7780  149.7232 H   0  0  0  0  0  0  0  0  0  0  0  0  # atno 10718 bound_to 10713
  154.8645  135.3621  154.5334 H   0  0  0  0  0  0  0  0  0  0  0  0  # atno 10763 bound_to 10752
  153.5958  135.7014  153.5409 H   0  0  0  0  0  0  0  0  0  0  0  0  # atno 10764 bound_to 10752
  153.3333  135.4118  155.1475 H   0  0  0  0  0  0  0  0  0  0  0  0  # atno 10765 bound_to 10752
  140.6644  134.4315  157.5233 H   0  0  0  0  0  0  0  0  0  0  0  0  # atno 11005 bound_to 11000
  146.3303  140.2896  142.8614 LP  0  0  0  0  0  0  0  0  0  0  0  0  # atno 17320 bound_to 7965
  144.9506  140.8174  143.5574 LP  0  0  0  0  0  0  0  0  0  0  0  0  # atno 17321 bound_to 7965
  139.7548  143.8724  152.3086 LP  0  0  0  0  0  0  0  0  0  0  0  0  # atno 17342 bound_to 10162
  139.8590  144.7127  150.9123 LP  0  0  0  0  0  0  0  0  0  0  0  0  # atno 17343 bound_to 10162
  155.9787  130.4048  150.3632 LP  0  0  0  0  0  0  0  0  0  0  0  0  # atno 17370 bound_to 10713
  157.1742  131.0376  151.2780 LP  0  0  0  0  0  0  0  0  0  0  0  0  # atno 17371 bound_to 10713
  139.9002  134.8573  156.1928 LP  0  0  0  0  0  0  0  0  0  0  0  0  # atno 17394 bound_to 11000
  141.0441  133.6922  156.1650 LP  0  0  0  0  0  0  0  0  0  0  0  0  # atno 17395 bound_to 11000

$$$$
