#       Name:                AV-unprocessed.smi:2033
#       Creating user name   scv26
#       Creation time:       Fri Mar 27 10:53:40 2020


#       File generated by GOLD software.
#

@<TRIPOS>MOLECULE
AV-unprocessed.smi:2033
    39    40     1
SMALL
NO_CHARGES


@<TRIPOS>ATOM
      1 ****        -6.5112   2.4786  -0.4245 C.3            1 S1                 0.0000
      2 ****        -5.1444   2.2942   0.1398 C.2            1 S1                 0.0000
      3 ****        -4.9191   2.1158   1.4438 N.2            1 S1                 0.0000
      4 ****        -3.5687   1.9655   1.7250 N.2            1 S1                 0.0000
      5 ****        -2.7946   2.0210   0.6319 C.2            1 S1                 0.0000
      6 ****        -1.4580   1.8995   0.6874 N.pl3          1 S1                -1.0000
      7 ****        -0.8761   0.7113   0.4060 C.2            1 S1                 0.0000
      8 ****        -1.4581  -0.3345   0.1077 O.2            1 S1                 0.0000
      9 ****         0.4640   0.7362   0.4730 N.am           1 S1                 0.0000
     10 ****         1.3664  -0.3867   0.2081 C.3            1 S1                 0.0000
     11 ****         2.7377  -0.0643   0.8531 C.3            1 S1                 0.0000
     12 ****         3.9367  -0.9165   0.3791 C.3            1 S1                 0.0000
     13 ****         3.6599  -2.4294   0.2603 C.3            1 S1                 0.0000
     14 ****         2.5604  -2.8603  -0.7453 C.3            1 S1                 0.0000
     15 ****         2.1201  -1.8105  -1.6644 N.am           1 S1                 0.0000
     16 ****         1.5458  -0.6500  -1.3041 C.2            1 S1                 0.0000
     17 ****         1.2051   0.1829  -2.1434 O.2            1 S1                 0.0000
     18 ****        -3.6997   2.2911  -0.8572 S.3            1 S1                 0.0000
     19 ****        -7.0179   1.5161  -0.4943 H              1 S1                 0.0000
     20 ****        -6.4533   2.9174  -1.4207 H              1 S1                 0.0000
     21 ****        -7.0977   3.1403   0.2134 H              1 S1                 0.0000
     22 ****         0.8954   1.6159   0.7150 H              1 S1                 0.0000
     23 ****         0.9465  -1.2745   0.6828 H              1 S1                 0.0000
     24 ****         2.9881   0.9849   0.6874 H              1 S1                 0.0000
     25 ****         2.6364  -0.1735   1.9336 H              1 S1                 0.0000
     26 ****         4.2953  -0.5416  -0.5806 H              1 S1                 0.0000
     27 ****         4.7668  -0.7609   1.0687 H              1 S1                 0.0000
     28 ****         4.5932  -2.9140  -0.0287 H              1 S1                 0.0000
     29 ****         3.4191  -2.8317   1.2449 H              1 S1                 0.0000
     30 ****         2.9209  -3.7003  -1.3395 H              1 S1                 0.0000
     31 ****         1.6909  -3.2402  -0.2073 H              1 S1                 0.0000
     32 ****         2.2502  -1.9824  -2.6508 H              1 S1                 0.0000
     33 ****        -5.6396   2.0932   2.1369 LP             1 S1                 0.0000
     34 ****        -3.2097   1.8297   2.6484 LP             1 S1                 0.0000
     35 ****        -0.8938   2.6867   0.9365 LP             1 S1                 0.0000
     36 ****        -2.4566  -0.3539   0.0565 LP             1 S1                 0.0000
     37 ****        -0.9315  -1.1629  -0.0829 LP             1 S1                 0.0000
     38 ****         0.8030   1.0509  -1.8519 LP             1 S1                 0.0000
     39 ****         1.3303  -0.0082  -3.1170 LP             1 S1                 0.0000
@<TRIPOS>BOND
    1    1    2 1     
    2    1   19 1     
    3    1   20 1     
    4    1   21 1     
    5    2   18 1     
    6    2    3 2     
    7    3    4 1     
    8    4    5 2     
    9    5    6 1     
   10    5   18 1     
   11    6    7 1     
   12    7    8 2     
   13    7    9 am    
   14    9   10 1     
   15    9   22 1     
   16   10   16 1     
   17   10   11 1     
   18   10   23 1     
   19   11   12 1     
   20   11   24 1     
   21   11   25 1     
   22   12   13 1     
   23   12   26 1     
   24   12   27 1     
   25   13   14 1     
   26   13   28 1     
   27   13   29 1     
   28   14   15 1     
   29   14   30 1     
   30   14   31 1     
   31   15   16 am    
   32   15   32 1     
   33   16   17 2     
   34    3   33 1     
   35    4   34 1     
   36    6   35 1     
   37    8   36 1     
   38    8   37 1     
   39   17   38 1     
   40   17   39 1     
@<TRIPOS>SUBSTRUCTURE
      1 S1             1
@<TRIPOS>SET
LONE_PAIRS      STATIC     ATOMS    <user>   **** ""
7 33 34 35 36 37 38 39
DONOR_HYDROGENS      STATIC     ATOMS    <user>   **** ""
2 22 32
ATOM$BLUE        STATIC     ATOMS    COLORGROUP SYSTEM
7 33 34 35 36 37 38 39
ATOM$RED        STATIC     ATOMS    COLORGROUP SYSTEM
2 22 32
