AV-unprocessed.smi:1591|AV-procd|sdf|6400|dock5
  -GOLD-   22720 7 33D 1   1.00000     0.00000
 Structure written by MMmdl.
 51 54  0  0  0  0  0  0  0  0  2 V2000
  149.2878  134.4813  155.2003 C   0  0  0  0  0  0  0  0  0  0  0  0
  148.3427  133.8084  154.1921 C   0  0  0  0  0  0  0  0  0  0  0  0
  147.0285  134.5906  153.9365 C   0  0  1  0  0  0  0  0  0  0  0  0
  147.3536  135.9979  153.6892 N   0  0  0  0  0  0  0  0  0  0  0  0
  147.3309  136.9917  154.5914 C   0  0  0  0  0  0  0  0  0  0  0  0
  146.9768  136.8456  155.7608 O   0  0  0  0  0  0  0  0  0  0  0  0
  147.7782  138.3658  154.0853 C   0  0  0  0  0  0  0  0  0  0  0  0
  149.1721  138.6421  154.4639 N   0  0  0  0  0  0  0  0  0  0  0  0
  150.0272  137.5366  154.6193 C   0  0  0  0  0  0  0  0  0  0  0  0
  151.3149  137.6785  154.9858 C   0  0  0  0  0  0  0  0  0  0  0  0
  151.8189  139.0246  155.2252 C   0  0  0  0  0  0  0  0  0  0  0  0
  152.9923  139.1735  155.5607 O   0  0  0  0  0  0  0  0  0  0  0  0
  150.9508  140.0657  155.0628 N   0  5  0  0  0  0  0  0  0  0  0  0
  149.6427  139.9060  154.6898 C   0  0  0  0  0  0  0  0  0  0  0  0
  148.8778  140.8603  154.5506 O   0  0  0  0  0  0  0  0  0  0  0  0
  146.1228  134.0260  152.7914 C   0  0  0  0  0  0  0  0  0  0  0  0
  146.9731  133.8320  151.4993 C   0  0  0  0  0  0  0  0  0  0  0  0
  146.1102  133.2909  150.3409 C   0  0  1  0  0  0  0  0  0  0  0  0
  145.5071  131.9298  150.7436 C   0  0  0  0  0  0  0  0  0  0  0  0
  144.6298  132.1160  151.9983 C   0  0  2  0  0  0  0  0  0  0  0  0
  143.4944  133.1139  151.6903 C   0  0  0  0  0  0  0  0  0  0  0  0
  144.1073  134.4702  151.2846 C   0  0  2  0  0  0  0  0  0  0  0  0
  144.9807  134.2913  150.0278 C   0  0  0  0  0  0  0  0  0  0  0  0
  144.9688  135.0121  152.4453 C   0  0  0  0  0  0  0  0  0  0  0  0
  145.4924  132.6518  153.1621 C   0  0  0  0  0  0  0  0  0  0  0  0
  150.1490  133.8452  155.4056 H   0  0  0  0  0  0  0  0  0  0  0  0
  148.7820  134.6709  156.1475 H   0  0  0  0  0  0  0  0  0  0  0  0
  149.6689  135.4322  154.8270 H   0  0  0  0  0  0  0  0  0  0  0  0
  148.8830  133.6572  153.2579 H   0  0  0  0  0  0  0  0  0  0  0  0
  148.1181  132.8165  154.5801 H   0  0  0  0  0  0  0  0  0  0  0  0
  146.4468  134.5169  154.8572 H   0  0  0  0  0  0  0  0  0  0  0  0
  147.6550  136.2290  152.7539 H   0  0  0  0  0  0  0  0  0  0  0  0
  147.6606  138.4166  153.0014 H   0  0  0  0  0  0  0  0  0  0  0  0
  147.1054  139.1296  154.4786 H   0  0  0  0  0  0  0  0  0  0  0  0
  149.5732  136.5747  154.4304 H   0  0  0  0  0  0  0  0  0  0  0  0
  151.9571  136.8180  155.1030 H   0  0  0  0  0  0  0  0  0  0  0  0
  147.4328  134.7771  151.2063 H   0  0  0  0  0  0  0  0  0  0  0  0
  147.7966  133.1386  151.6729 H   0  0  0  0  0  0  0  0  0  0  0  0
  146.7334  133.1622  149.4554 H   0  0  0  0  0  0  0  0  0  0  0  0
  144.9143  131.5215  149.9242 H   0  0  0  0  0  0  0  0  0  0  0  0
  146.3004  131.2076  150.9404 H   0  0  0  0  0  0  0  0  0  0  0  0
  144.1986  131.1555  152.2825 H   0  0  0  0  0  0  0  0  0  0  0  0
  142.8615  132.7303  150.8890 H   0  0  0  0  0  0  0  0  0  0  0  0
  142.8497  133.2346  152.5616 H   0  0  0  0  0  0  0  0  0  0  0  0
  143.3062  135.1778  151.0686 H   0  0  0  0  0  0  0  0  0  0  0  0
  145.3982  135.2497  149.7174 H   0  0  0  0  0  0  0  0  0  0  0  0
  144.3764  133.9323  149.1937 H   0  0  0  0  0  0  0  0  0  0  0  0
  144.3167  135.1684  153.3037 H   0  0  0  0  0  0  0  0  0  0  0  0
  145.3730  135.9910  152.1834 H   0  0  0  0  0  0  0  0  0  0  0  0
  146.2662  131.9219  153.4021 H   0  0  0  0  0  0  0  0  0  0  0  0
  144.8717  132.7415  154.0538 H   0  0  0  0  0  0  0  0  0  0  0  0
  1  2  1  0  0  0  0
  1 26  1  0  0  0  0
  1 27  1  0  0  0  0
  1 28  1  0  0  0  0
  2  3  1  0  0  0  0
  2 29  1  0  0  0  0
  2 30  1  0  0  0  0
  3  4  1  0  0  0  0
  3 16  1  0  0  0  0
  3 31  1  0  0  0  0
  4  5  1  0  0  0  0
  4 32  1  0  0  0  0
  5  6  2  0  0  0  0
  5  7  1  0  0  0  0
  7  8  1  0  0  0  0
  7 33  1  0  0  0  0
  7 34  1  0  0  0  0
  8 14  1  0  0  0  0
  8  9  1  0  0  0  0
  9 10  2  0  0  0  0
  9 35  1  0  0  0  0
 10 11  1  0  0  0  0
 10 36  1  0  0  0  0
 11 12  2  0  0  0  0
 11 13  1  0  0  0  0
 13 14  1  0  0  0  0
 14 15  2  0  0  0  0
 16 24  1  0  0  0  0
 16 25  1  0  0  0  0
 16 17  1  0  0  0  0
 17 18  1  0  0  0  0
 17 37  1  0  0  0  0
 17 38  1  0  0  0  0
 18 23  1  0  0  0  0
 18 19  1  0  0  0  0
 18 39  1  0  0  0  0
 19 20  1  0  0  0  0
 19 40  1  0  0  0  0
 19 41  1  0  0  0  0
 20 21  1  0  0  0  0
 20 25  1  0  0  0  0
 20 42  1  0  0  0  0
 21 22  1  0  0  0  0
 21 43  1  0  0  0  0
 21 44  1  0  0  0  0
 22 23  1  0  0  0  0
 22 24  1  0  0  0  0
 22 45  1  0  0  0  0
 23 46  1  0  0  0  0
 23 47  1  0  0  0  0
 24 48  1  0  0  0  0
 24 49  1  0  0  0  0
 25 50  1  0  0  0  0
 25 51  1  0  0  0  0
M  CHG  1  13  -1
M  END
> <s_m_source_file>
AV-unprocessed.smi

> <i_m_source_file_index>
1591

> <i_lp_mmshare_version>
43012

> <i_f3d_flags>
0

> <s_epik_input>
W0NIMl0xW0NASF0oW0NIMl0yKVtDSDJdW0NASF0oW0NIMl0zKVtDSDJdW0NAQEhdMVtDSDJdQzIzW0NASF0oW0NIMl1bQ0gzXSlbTkhdQyg9TylbQ0gyXW40W2NIXVtjSF1jKD1PKVtuSF1jND1P

> <s_epik_cmdline>
J2VwaWtfcHl0aG9uJywgJy1waCcsICc3LjAnLCAnLXRuJywgJzgnLCAnLW1hJywgJzIwMCcsICctbWV0YWxfYmluZGluZycsICctaW1hZScsICc8aW5maWxlLm1hZT4nLCAnLW9tYWUnLCAnPG91dGZpbGUubWFlPic=

> <r_lp_tautomer_probability>
0.999537

> <r_epik_Ionization_Penalty>
3.13902

> <r_epik_Ionization_Penalty_Charging>
2.97334e-08

> <r_epik_Ionization_Penalty_Neutral>
3.13902

> <r_epik_State_Penalty>
3.13814

> <r_epik_Charging_Adjusted_Penalty>
3.13814

> <i_epik_Tot_Q>
-1

> <i_epik_Tot_abs_Q>
1

> <r_epik_Metal_State_Penalty>
0.465244

> <b_epik_Metal_Only>
1

> <s_lp_Force_Field>
OPLS_2005

> <r_lp_Energy>
49.2124

> <b_lp_Chiralities_Consistent>
1

> <s_lp_Variant>
AV-unprocessed.smi:1591-4

> <Gold.Version>
5.8.1

> <Gold.Id.Protein>
6NUR|6NUR_protein|mol2

> <Gold.PLP.Fitness>
43.6462

> <Gold.PLP.PLP>
-35.6968

> <Gold.PLP.part.hbond>
-2.4071

> <Gold.PLP.part.metal>
0.0000

> <Gold.PLP.part.buried>
1.3429

> <Gold.PLP.part.nonpolar>
-33.2290

> <Gold.PLP.part.repulsive>
0.2103

> <Gold.PLP.ligand.clash>
0.0000

> <Gold.PLP.ligand.torsion>
1.1731

> <Gold.PLP.Chemscore.Hbond>
2.7176

> <Gold.PLP.Chemscore.CHOScore>
0.6718

> <Gold.PLP.Chemscore.Metal>
0.0000

> <Gold.Chemscore.Hbonds>
donor molecule, donor type, donor heavy atom, donor atom, acceptor molecule, acceptor atom, score
      L1  H     4    32       P1  7948  0.82
      P1  H  7989  7998       L1    13  1.00
      P1  H  7997  8008       L1    12  1.00
      L1  C     9    35       P1  7948  0.47

> <Gold.PLP.Chemscore.Internal.Correction>
0.1274

> <Gold.Rescore>
     Score         DG    S(hbond)    S(metal)    S(lipo)     H(rot)  DE(clash)    DE(int)     intcor
     14.74     -16.11       1.74        0.00      84.52       1.99       0.45       0.92       ----

> <Gold.Chemscore.Fitness>
14.7352

> <Gold.Chemscore.DG>
-16.1055

> <Gold.Chemscore.ZeroCoef>
-5.4800

> <Gold.Chemscore.Hbond>
1.7425

> <Gold.Chemscore.Metal>
0.0000

> <Gold.Chemscore.Lipo>
84.5239

> <Gold.Chemscore.Internal_Hbond>
0.0000

> <Gold.Chemscore.DEClash>
0.4517

> <Gold.Chemscore.DEInternal>
0.9186

> <Gold.Chemscore.Rot>
1.9858

> <Gold.Chemscore.Internal.Correction>
   9.000000E+99

> <Gold.Chemscore.Hbonds>
donor molecule, donor type, donor heavy atom, donor atom, acceptor molecule, acceptor atom, score
      L1  H     4    32       P1  7948  0.79
      P1  H  7989  7998       L1    13  0.08
      P1  H  7997  8008       L1    12  1.00

> <Gold.Chemscore.Hbond.Weighted>
-5.8199

> <Gold.Chemscore.Metal.Weighted>
-0.0000

> <Gold.Chemscore.Lipo.Weighted>
-9.8893

> <Gold.Chemscore.Internal_Hbond.Weighted>
0.0000

> <Gold.Chemscore.DEClash.Weighted>
0.4517

> <Gold.Chemscore.DEInternal.Weighted>
0.9186

> <Gold.Chemscore.Rot.Weighted>
5.0836

> <Gold.Chemscore.Internal.Correction.Weighted>
   9.000000E+99

> <Gold.Protein.RotatedTorsions>
[ 6907 6896 6895 6894 ] final  -67.59 input  -60.11 | X-H torsion
[ 7974 7965 7964 7962 ] final   32.00 input  175.53 | X-H torsion
[ 8008 7997 7996 7995 ] final  -32.03 input   59.86 | X-H torsion
[ 10167 10162 10161 10158 ] final  -46.19 input  -65.29 | X-H torsion
[ 10718 10713 10712 10709 ] final -115.92 input   66.30 | X-H torsion
[ 10763 10752 10751 10750 ] final  130.12 input  -60.55 | X-H torsion
[ 11005 11000 10999 10996 ] final   42.38 input  -57.11 | X-H torsion

> <Gold.Protein.ActiveResidues>
 VAL166  LYS551  ARG553  GLY616  TRP617  ASP618  TYR619  PRO620  LYS621  CYS622 
 ASP623  PHE694  ASN695  SER759  ASP760  ASP761  ALA762  ILE779  LEU786  VAL792 
 PHE793  MET794  SER795  GLU796  ALA797  LYS798  CYS799  TRP800  GLU811  SER814 

> <Gold.Protein.RotatedAtoms>
  150.7401  134.5859  159.5962 H   0  0  0  0  0  0  0  0  0  0  0  0  # atno 6907 bound_to 6896
  152.3260  134.7317  160.0311 H   0  0  0  0  0  0  0  0  0  0  0  0  # atno 6908 bound_to 6896
  151.7817  133.3314  159.3510 H   0  0  0  0  0  0  0  0  0  0  0  0  # atno 6909 bound_to 6896
  146.1514  139.6583  142.9096 H   0  0  0  0  0  0  0  0  0  0  0  0  # atno 7974 bound_to 7965
  154.4193  140.1748  156.1662 H   0  0  0  0  0  0  0  0  0  0  0  0  # atno 8008 bound_to 7997
  155.9798  140.3378  155.6628 H   0  0  0  0  0  0  0  0  0  0  0  0  # atno 8009 bound_to 7997
  155.6515  140.0691  157.2576 H   0  0  0  0  0  0  0  0  0  0  0  0  # atno 8010 bound_to 7997
  140.6828  143.2843  151.3747 H   0  0  0  0  0  0  0  0  0  0  0  0  # atno 10167 bound_to 10162
  156.0928  130.6107  150.8968 H   0  0  0  0  0  0  0  0  0  0  0  0  # atno 10718 bound_to 10713
  153.7529  135.3207  155.3324 H   0  0  0  0  0  0  0  0  0  0  0  0  # atno 10763 bound_to 10752
  154.8257  135.4571  154.0914 H   0  0  0  0  0  0  0  0  0  0  0  0  # atno 10764 bound_to 10752
  153.2122  135.6937  153.8183 H   0  0  0  0  0  0  0  0  0  0  0  0  # atno 10765 bound_to 10752
  140.1745  134.4181  155.8237 H   0  0  0  0  0  0  0  0  0  0  0  0  # atno 11005 bound_to 11000
  145.4813  141.0438  143.2644 LP  0  0  0  0  0  0  0  0  0  0  0  0  # atno 17320 bound_to 7965
  144.7909  139.6330  143.7113 LP  0  0  0  0  0  0  0  0  0  0  0  0  # atno 17321 bound_to 7965
  139.6162  144.0998  152.2348 LP  0  0  0  0  0  0  0  0  0  0  0  0  # atno 17342 bound_to 10162
  140.0427  144.5994  150.7398 LP  0  0  0  0  0  0  0  0  0  0  0  0  # atno 17343 bound_to 10162
  157.6081  131.0938  150.8843 LP  0  0  0  0  0  0  0  0  0  0  0  0  # atno 17370 bound_to 10713
  156.8987  130.5239  149.5283 LP  0  0  0  0  0  0  0  0  0  0  0  0  # atno 17371 bound_to 10713
  141.2219  133.6971  156.7821 LP  0  0  0  0  0  0  0  0  0  0  0  0  # atno 17394 bound_to 11000
  140.2339  134.8665  157.3505 LP  0  0  0  0  0  0  0  0  0  0  0  0  # atno 17395 bound_to 11000

$$$$
