AV-unprocessed.smi:709|AV-procd|sdf|3459|dock5
  -GOLD-   22720 0443D 1   1.00000     0.00000
 Structure written by MMmdl.
 48 50  0  0  0  0  0  0  0  0  1 V2000
  146.5424  129.2162  151.6359 C   0  0  0  0  0  0  0  0  0  0  0  0
  146.4872  130.2488  152.7638 C   0  0  0  0  0  0  0  0  0  0  0  0
  146.1065  131.5000  152.2177 O   0  0  0  0  0  0  0  0  0  0  0  0
  145.8521  132.4815  153.2096 C   0  0  1  0  0  0  0  0  0  0  0  0
  147.1086  133.1292  153.8019 C   0  0  0  0  0  0  0  0  0  0  0  0
  146.2904  134.4210  153.8271 C   0  0  1  0  0  0  0  0  0  0  0  0
  147.0901  135.6050  153.5331 N   0  0  0  0  0  0  0  0  0  0  0  0
  146.8946  136.8067  154.0916 C   0  0  0  0  0  0  0  0  0  0  0  0
  146.0330  137.0211  154.9440 O   0  0  0  0  0  0  0  0  0  0  0  0
  147.7589  137.7124  153.5989 N   0  0  0  0  0  0  0  0  0  0  0  0
  147.8581  139.0871  153.8747 C   0  0  0  0  0  0  0  0  0  0  0  0
  146.9911  140.0271  153.4207 C   0  0  0  0  0  0  0  0  0  0  0  0
  147.1738  141.4221  153.7422 C   0  0  0  0  0  0  0  0  0  0  0  0
  148.2293  141.7702  154.4912 C   0  0  0  0  0  0  0  0  0  0  0  0
  149.1474  140.8155  154.9609 N   0  0  0  0  0  0  0  0  0  0  0  0
  150.2703  141.2956  155.7704 C   0  0  0  0  0  0  0  0  0  0  0  0
  149.0223  139.4817  154.6917 C   0  0  0  0  0  0  0  0  0  0  0  0
  149.8445  138.6655  155.1157 O   0  0  0  0  0  0  0  0  0  0  0  0
  145.4730  133.8652  152.6282 C   0  0  0  0  0  0  0  0  0  0  0  0
  143.9933  134.2296  152.5645 C   0  0  0  0  0  0  0  0  0  0  0  0
  143.8461  135.3992  151.5850 C   0  0  0  0  0  0  0  0  0  0  0  0
  145.1113  135.3942  150.7222 C   0  0  0  0  0  0  0  0  0  0  0  0
  145.9355  134.1967  151.2009 C   0  0  0  0  0  0  0  0  0  0  0  0
  146.8257  128.2356  152.0186 H   0  0  0  0  0  0  0  0  0  0  0  0
  147.2716  129.5040  150.8784 H   0  0  0  0  0  0  0  0  0  0  0  0
  145.5726  129.1178  151.1475 H   0  0  0  0  0  0  0  0  0  0  0  0
  145.7675  129.9347  153.5211 H   0  0  0  0  0  0  0  0  0  0  0  0
  147.4627  130.3253  153.2460 H   0  0  0  0  0  0  0  0  0  0  0  0
  145.1439  132.1497  153.9730 H   0  0  0  0  0  0  0  0  0  0  0  0
  147.3986  132.7510  154.7825 H   0  0  0  0  0  0  0  0  0  0  0  0
  147.9502  133.1497  153.1067 H   0  0  0  0  0  0  0  0  0  0  0  0
  145.6994  134.4985  154.7435 H   0  0  0  0  0  0  0  0  0  0  0  0
  147.8224  135.5065  152.8454 H   0  0  0  0  0  0  0  0  0  0  0  0
  148.4574  137.3628  152.9590 H   0  0  0  0  0  0  0  0  0  0  0  0
  146.1517  139.7717  152.7944 H   0  0  0  0  0  0  0  0  0  0  0  0
  146.4758  142.1668  153.3891 H   0  0  0  0  0  0  0  0  0  0  0  0
  148.4341  142.7922  154.7753 H   0  0  0  0  0  0  0  0  0  0  0  0
  151.2210  141.0324  155.3037 H   0  0  0  0  0  0  0  0  0  0  0  0
  150.2438  140.8478  156.7650 H   0  0  0  0  0  0  0  0  0  0  0  0
  150.2630  142.3783  155.9015 H   0  0  0  0  0  0  0  0  0  0  0  0
  143.4196  133.3773  152.1983 H   0  0  0  0  0  0  0  0  0  0  0  0
  143.5861  134.4835  153.5437 H   0  0  0  0  0  0  0  0  0  0  0  0
  142.9430  135.2981  150.9823 H   0  0  0  0  0  0  0  0  0  0  0  0
  143.7713  136.3423  152.1276 H   0  0  0  0  0  0  0  0  0  0  0  0
  144.8816  135.3221  149.6586 H   0  0  0  0  0  0  0  0  0  0  0  0
  145.6668  136.3203  150.8730 H   0  0  0  0  0  0  0  0  0  0  0  0
  147.0054  134.3929  151.1293 H   0  0  0  0  0  0  0  0  0  0  0  0
  145.7342  133.3547  150.5379 H   0  0  0  0  0  0  0  0  0  0  0  0
  1  2  1  0  0  0  0
  1 24  1  0  0  0  0
  1 25  1  0  0  0  0
  1 26  1  0  0  0  0
  2  3  1  0  0  0  0
  2 27  1  0  0  0  0
  2 28  1  0  0  0  0
  3  4  1  0  0  0  0
  4 19  1  0  0  0  0
  4  5  1  0  0  0  0
  4 29  1  0  0  0  0
  5  6  1  0  0  0  0
  5 30  1  0  0  0  0
  5 31  1  0  0  0  0
  6  7  1  0  0  0  0
  6 19  1  0  0  0  0
  6 32  1  0  0  0  0
  7  8  1  0  0  0  0
  7 33  1  0  0  0  0
  8  9  2  0  0  0  0
  8 10  1  0  0  0  0
 10 11  1  0  0  0  0
 10 34  1  0  0  0  0
 11 17  1  0  0  0  0
 11 12  2  0  0  0  0
 12 13  1  0  0  0  0
 12 35  1  0  0  0  0
 13 14  2  0  0  0  0
 13 36  1  0  0  0  0
 14 15  1  0  0  0  0
 14 37  1  0  0  0  0
 15 16  1  0  0  0  0
 15 17  1  0  0  0  0
 16 38  1  0  0  0  0
 16 39  1  0  0  0  0
 16 40  1  0  0  0  0
 17 18  2  0  0  0  0
 19 23  1  0  0  0  0
 19 20  1  0  0  0  0
 20 21  1  0  0  0  0
 20 41  1  0  0  0  0
 20 42  1  0  0  0  0
 21 22  1  0  0  0  0
 21 43  1  0  0  0  0
 21 44  1  0  0  0  0
 22 23  1  0  0  0  0
 22 45  1  0  0  0  0
 22 46  1  0  0  0  0
 23 47  1  0  0  0  0
 23 48  1  0  0  0  0
M  END
> <s_m_source_file>
AV-unprocessed.smi

> <i_m_source_file_index>
709

> <i_lp_mmshare_version>
43012

> <i_f3d_flags>
0

> <s_epik_input>
W0NIMl0xW0NIMl1bQ0gyXVtDSDJdQzEyW0NASF0oT1tDSDJdW0NIM10pW0NIMl1bQ0BIXTJbTkhdQyg9TylbTkhdYzNbY0hdW2NIXVtjSF1uKFtDSDNdKWMzPU8=

> <s_epik_cmdline>
J2VwaWtfcHl0aG9uJywgJy1waCcsICc3LjAnLCAnLXRuJywgJzgnLCAnLW1hJywgJzIwMCcsICctbWV0YWxfYmluZGluZycsICctaW1hZScsICc8aW5maWxlLm1hZT4nLCAnLW9tYWUnLCAnPG91dGZpbGUubWFlPic=

> <r_lp_tautomer_probability>
1

> <r_epik_Ionization_Penalty>
2.50859e-05

> <r_epik_Ionization_Penalty_Charging>
5.10493e-06

> <r_epik_Ionization_Penalty_Neutral>
1.9981e-05

> <r_epik_State_Penalty>
-0

> <r_epik_Charging_Adjusted_Penalty>
5.10493e-06

> <i_epik_Tot_Q>
0

> <i_epik_Tot_abs_Q>
0

> <r_epik_Metal_State_Penalty>
-0

> <b_epik_Metal_Only>
0

> <s_lp_Force_Field>
OPLS_2005

> <r_lp_Energy>
49.4881

> <b_lp_Chiralities_Consistent>
1

> <s_lp_Variant>
AV-unprocessed.smi:709-2

> <Gold.Version>
5.8.1

> <Gold.Id.Protein>
6NUR|6NUR_protein|mol2

> <Gold.PLP.Fitness>
44.5638

> <Gold.PLP.PLP>
-37.2887

> <Gold.PLP.part.hbond>
-1.6509

> <Gold.PLP.part.metal>
0.0000

> <Gold.PLP.part.buried>
-2.9723

> <Gold.PLP.part.nonpolar>
-31.8592

> <Gold.PLP.part.repulsive>
0.3357

> <Gold.PLP.ligand.clash>
0.0000

> <Gold.PLP.ligand.torsion>
0.9723

> <Gold.PLP.Chemscore.Hbond>
1.9600

> <Gold.PLP.Chemscore.CHOScore>
1.0000

> <Gold.PLP.Chemscore.Metal>
0.0000

> <Gold.Chemscore.Hbonds>
donor molecule, donor type, donor heavy atom, donor atom, acceptor molecule, acceptor atom, score
      L1  H     7    33       P1  7948  0.99
      L1  H    10    34       P1  7948  1.00
      L1  C    14    37       P1  8028  1.00

> <Gold.PLP.Chemscore.Internal.Correction>
0.3397

> <Gold.Rescore>
     Score         DG    S(hbond)    S(metal)    S(lipo)     H(rot)  DE(clash)    DE(int)     intcor
     16.99     -18.27       1.89        0.00      84.98       1.36       0.24       1.03       ----

> <Gold.Chemscore.Fitness>
16.9917

> <Gold.Chemscore.DG>
-18.2665

> <Gold.Chemscore.ZeroCoef>
-5.4800

> <Gold.Chemscore.Hbond>
1.8937

> <Gold.Chemscore.Metal>
0.0000

> <Gold.Chemscore.Lipo>
84.9822

> <Gold.Chemscore.Internal_Hbond>
0.0000

> <Gold.Chemscore.DEClash>
0.2445

> <Gold.Chemscore.DEInternal>
1.0303

> <Gold.Chemscore.Rot>
1.3599

> <Gold.Chemscore.Internal.Correction>
   9.000000E+99

> <Gold.Chemscore.Hbonds>
donor molecule, donor type, donor heavy atom, donor atom, acceptor molecule, acceptor atom, score
      L1  H     7    33       P1  7948  0.94
      L1  H    10    34       P1  7948  0.95

> <Gold.Chemscore.Hbond.Weighted>
-6.3248

> <Gold.Chemscore.Metal.Weighted>
-0.0000

> <Gold.Chemscore.Lipo.Weighted>
-9.9429

> <Gold.Chemscore.Internal_Hbond.Weighted>
0.0000

> <Gold.Chemscore.DEClash.Weighted>
0.2445

> <Gold.Chemscore.DEInternal.Weighted>
1.0303

> <Gold.Chemscore.Rot.Weighted>
3.4813

> <Gold.Chemscore.Internal.Correction.Weighted>
   9.000000E+99

> <Gold.Protein.RotatedTorsions>
[ 6907 6896 6895 6894 ] final -170.62 input  -60.11 | X-H torsion
[ 7974 7965 7964 7962 ] final  143.61 input  175.53 | X-H torsion
[ 8008 7997 7996 7995 ] final  132.67 input   59.86 | X-H torsion
[ 10167 10162 10161 10158 ] final  116.71 input  -65.29 | X-H torsion
[ 10718 10713 10712 10709 ] final   19.89 input   66.30 | X-H torsion
[ 10763 10752 10751 10750 ] final  -50.01 input  -60.55 | X-H torsion
[ 11005 11000 10999 10996 ] final -137.18 input  -57.11 | X-H torsion

> <Gold.Protein.ActiveResidues>
 VAL166  LYS551  ARG553  GLY616  TRP617  ASP618  TYR619  PRO620  LYS621  CYS622 
 ASP623  PHE694  ASN695  SER759  ASP760  ASP761  ALA762  ILE779  LEU786  VAL792 
 PHE793  MET794  SER795  GLU796  ALA797  LYS798  CYS799  TRP800  GLU811  SER814 

> <Gold.Protein.RotatedAtoms>
  151.5107  133.3485  159.2884 H   0  0  0  0  0  0  0  0  0  0  0  0  # atno 6907 bound_to 6896
  150.8714  134.8091  159.7169 H   0  0  0  0  0  0  0  0  0  0  0  0  # atno 6908 bound_to 6896
  152.4701  134.4991  159.9771 H   0  0  0  0  0  0  0  0  0  0  0  0  # atno 6909 bound_to 6896
  144.8906  139.5564  143.5800 H   0  0  0  0  0  0  0  0  0  0  0  0  # atno 7974 bound_to 7965
  156.2985  140.2540  156.3127 H   0  0  0  0  0  0  0  0  0  0  0  0  # atno 8008 bound_to 7997
  154.9311  140.0398  157.2067 H   0  0  0  0  0  0  0  0  0  0  0  0  # atno 8009 bound_to 7997
  154.8217  140.2861  155.5786 H   0  0  0  0  0  0  0  0  0  0  0  0  # atno 8010 bound_to 7997
  139.6228  144.7104  151.2597 H   0  0  0  0  0  0  0  0  0  0  0  0  # atno 10167 bound_to 10162
  157.1168  130.6532  149.5912 H   0  0  0  0  0  0  0  0  0  0  0  0  # atno 10718 bound_to 10713
  154.1034  135.6560  153.4872 H   0  0  0  0  0  0  0  0  0  0  0  0  # atno 10763 bound_to 10752
  153.0281  135.5230  154.7264 H   0  0  0  0  0  0  0  0  0  0  0  0  # atno 10764 bound_to 10752
  154.6422  135.2990  155.0058 H   0  0  0  0  0  0  0  0  0  0  0  0  # atno 10765 bound_to 10752
  140.8736  134.2020  157.4636 H   0  0  0  0  0  0  0  0  0  0  0  0  # atno 11005 bound_to 11000
  146.3051  139.7554  142.9062 LP  0  0  0  0  0  0  0  0  0  0  0  0  # atno 17320 bound_to 7965
  145.3790  141.0355  143.3188 LP  0  0  0  0  0  0  0  0  0  0  0  0  # atno 17321 bound_to 7965
  140.7393  143.6623  150.8153 LP  0  0  0  0  0  0  0  0  0  0  0  0  # atno 17342 bound_to 10162
  140.0237  143.5516  152.2790 LP  0  0  0  0  0  0  0  0  0  0  0  0  # atno 17343 bound_to 10162
  155.9838  130.4859  150.6949 LP  0  0  0  0  0  0  0  0  0  0  0  0  # atno 17370 bound_to 10713
  157.4511  131.0872  151.0844 LP  0  0  0  0  0  0  0  0  0  0  0  0  # atno 17371 bound_to 10713
  139.8714  134.9785  156.5001 LP  0  0  0  0  0  0  0  0  0  0  0  0  # atno 17394 bound_to 11000
  140.8545  133.8107  155.9202 LP  0  0  0  0  0  0  0  0  0  0  0  0  # atno 17395 bound_to 11000

$$$$
