AV-unprocessed.smi:3238|AV-procd|sdf|12377|dock8
  -GOLD-   2272018243D 1   1.00000     0.00000
 Structure written by MMmdl.
 37 39  0  0  0  0  0  0  0  0  1 V2000
  146.6191  138.6082  152.4628 C   0  0  0  0  0  0  0  0  0  0  0  0
  147.5040  139.7075  152.8169 N   0  0  0  0  0  0  0  0  0  0  0  0
  147.6165  140.2185  154.0516 C   0  0  0  0  0  0  0  0  0  0  0  0
  146.9681  139.7987  155.0116 O   0  0  0  0  0  0  0  0  0  0  0  0
  148.6234  141.3649  154.2129 C   0  0  0  0  0  0  0  0  0  0  0  0
  149.7876  140.9867  155.0759 C   0  0  0  0  0  0  0  0  0  0  0  0
  150.6895  140.1008  154.6685 N   0  0  0  0  0  0  0  0  0  0  0  0
  151.5970  140.0482  155.7358 O   0  0  0  0  0  0  0  0  0  0  0  0
  151.1242  140.9114  156.6668 C   0  0  0  0  0  0  0  0  0  0  0  0
  151.9072  141.1254  157.9204 C   0  0  0  0  0  0  0  0  0  0  0  0
  151.4471  142.3661  158.7110 C   0  0  2  0  0  0  0  0  0  0  0  0
  151.2034  143.6173  157.8345 C   0  0  0  0  0  0  0  0  0  0  0  0
  152.0953  144.6845  158.4940 C   0  0  1  0  0  0  0  0  0  0  0  0
  151.5129  145.0670  159.8673 C   0  0  0  0  0  0  0  0  0  0  0  0
  151.8211  143.8240  160.7236 C   0  0  0  0  0  0  0  0  0  0  0  0
  152.5041  142.8788  159.7162 C   0  0  2  0  0  0  0  0  0  0  0  0
  153.3183  143.8644  158.8835 C   0  0  0  0  0  0  0  0  0  0  0  0
  150.0090  141.5386  156.3016 N   0  0  0  0  0  0  0  0  0  0  0  0
  146.7335  138.3646  151.4065 H   0  0  0  0  0  0  0  0  0  0  0  0
  145.5767  138.8755  152.6409 H   0  0  0  0  0  0  0  0  0  0  0  0
  146.8544  137.7164  153.0453 H   0  0  0  0  0  0  0  0  0  0  0  0
  148.0695  140.1018  152.0789 H   0  0  0  0  0  0  0  0  0  0  0  0
  148.9797  141.6644  153.2264 H   0  0  0  0  0  0  0  0  0  0  0  0
  148.1261  142.2332  154.6475 H   0  0  0  0  0  0  0  0  0  0  0  0
  151.7987  140.2347  158.5401 H   0  0  0  0  0  0  0  0  0  0  0  0
  152.9654  141.1955  157.6673 H   0  0  0  0  0  0  0  0  0  0  0  0
  150.5365  142.1017  159.2510 H   0  0  0  0  0  0  0  0  0  0  0  0
  151.5213  143.4522  156.8043 H   0  0  0  0  0  0  0  0  0  0  0  0
  150.1529  143.9091  157.8118 H   0  0  0  0  0  0  0  0  0  0  0  0
  152.2997  145.5409  157.8509 H   0  0  0  0  0  0  0  0  0  0  0  0
  152.0143  145.9467  160.2731 H   0  0  0  0  0  0  0  0  0  0  0  0
  150.4451  145.2833  159.8157 H   0  0  0  0  0  0  0  0  0  0  0  0
  152.5024  144.0793  161.5365 H   0  0  0  0  0  0  0  0  0  0  0  0
  150.9247  143.3883  161.1667 H   0  0  0  0  0  0  0  0  0  0  0  0
  153.0844  142.0884  160.1936 H   0  0  0  0  0  0  0  0  0  0  0  0
  153.8227  143.4067  158.0311 H   0  0  0  0  0  0  0  0  0  0  0  0
  154.0478  144.4269  159.4691 H   0  0  0  0  0  0  0  0  0  0  0  0
  1  2  1  0  0  0  0
  1 19  1  0  0  0  0
  1 20  1  0  0  0  0
  1 21  1  0  0  0  0
  2  3  1  0  0  0  0
  2 22  1  0  0  0  0
  3  4  2  0  0  0  0
  3  5  1  0  0  0  0
  5  6  1  0  0  0  0
  5 23  1  0  0  0  0
  5 24  1  0  0  0  0
  6 18  1  0  0  0  0
  6  7  2  0  0  0  0
  7  8  1  0  0  0  0
  8  9  1  0  0  0  0
  9 10  1  0  0  0  0
  9 18  2  0  0  0  0
 10 11  1  0  0  0  0
 10 25  1  0  0  0  0
 10 26  1  0  0  0  0
 11 16  1  0  0  0  0
 11 12  1  0  0  0  0
 11 27  1  0  0  0  0
 12 13  1  0  0  0  0
 12 28  1  0  0  0  0
 12 29  1  0  0  0  0
 13 17  1  0  0  0  0
 13 14  1  0  0  0  0
 13 30  1  0  0  0  0
 14 15  1  0  0  0  0
 14 31  1  0  0  0  0
 14 32  1  0  0  0  0
 15 16  1  0  0  0  0
 15 33  1  0  0  0  0
 15 34  1  0  0  0  0
 16 17  1  0  0  0  0
 16 35  1  0  0  0  0
 17 36  1  0  0  0  0
 17 37  1  0  0  0  0
M  END
> <s_m_source_file>
AV-unprocessed.smi

> <i_m_source_file_index>
3238

> <i_lp_mmshare_version>
43012

> <i_f3d_flags>
0

> <s_epik_input>
W0NIM11bTkhdQyg9TylbQ0gyXWMxbm9jKG4xKVtDSDJdW0NASF0oW0NIMl1bQ0BIXTIzKVtDQEhdKFtDSDJdMylbQ0gyXVtDSDJdMg==

> <s_epik_cmdline>
J2VwaWtfcHl0aG9uJywgJy1waCcsICc3LjAnLCAnLXRuJywgJzgnLCAnLW1hJywgJzIwMCcsICctbWV0YWxfYmluZGluZycsICctaW1hZScsICc8aW5maWxlLm1hZT4nLCAnLW9tYWUnLCAnPG91dGZpbGUubWFlPic=

> <r_lp_tautomer_probability>
1

> <r_epik_Ionization_Penalty>
1.02915e-07

> <r_epik_Ionization_Penalty_Charging>
0

> <r_epik_Ionization_Penalty_Neutral>
1.02915e-07

> <r_epik_State_Penalty>
-0

> <r_epik_Charging_Adjusted_Penalty>
0

> <i_epik_Tot_Q>
0

> <i_epik_Tot_abs_Q>
0

> <r_epik_Metal_State_Penalty>
-0

> <b_epik_Metal_Only>
0

> <s_lp_Force_Field>
OPLS_2005

> <r_lp_Energy>
47.6747

> <b_lp_Chiralities_Consistent>
1

> <s_lp_Variant>
AV-unprocessed.smi:3238-3

> <Gold.Version>
5.8.1

> <Gold.Id.Protein>
6NUR|6NUR_protein|mol2

> <Gold.PLP.Fitness>
48.5984

> <Gold.PLP.PLP>
-43.3823

> <Gold.PLP.part.hbond>
-1.9292

> <Gold.PLP.part.metal>
0.0000

> <Gold.PLP.part.buried>
-4.6000

> <Gold.PLP.part.nonpolar>
-36.3331

> <Gold.PLP.part.repulsive>
0.3229

> <Gold.PLP.ligand.clash>
0.0000

> <Gold.PLP.ligand.torsion>
0.3902

> <Gold.PLP.Chemscore.Hbond>
1.9920

> <Gold.PLP.Chemscore.CHOScore>
0.0000

> <Gold.PLP.Chemscore.Metal>
0.0000

> <Gold.Chemscore.Hbonds>
donor molecule, donor type, donor heavy atom, donor atom, acceptor molecule, acceptor atom, score
      L1  H     2    22       P1  7957  0.96
      P1  H  7989  7998       L1     7  1.00

> <Gold.PLP.Chemscore.Internal.Correction>
0.0205

> <Gold.Rescore>
     Score         DG    S(hbond)    S(metal)    S(lipo)     H(rot)  DE(clash)    DE(int)     intcor
     15.97     -18.06       1.45        0.00     106.43       1.85       0.15       1.94       ----

> <Gold.Chemscore.Fitness>
15.9686

> <Gold.Chemscore.DG>
-18.0559

> <Gold.Chemscore.ZeroCoef>
-5.4800

> <Gold.Chemscore.Hbond>
1.4544

> <Gold.Chemscore.Metal>
0.0000

> <Gold.Chemscore.Lipo>
106.4297

> <Gold.Chemscore.Internal_Hbond>
0.0000

> <Gold.Chemscore.DEClash>
0.1509

> <Gold.Chemscore.DEInternal>
1.9364

> <Gold.Chemscore.Rot>
1.8492

> <Gold.Chemscore.Internal.Correction>
   9.000000E+99

> <Gold.Chemscore.Hbonds>
donor molecule, donor type, donor heavy atom, donor atom, acceptor molecule, acceptor atom, score
      L1  H     2    22       P1  7957  0.92
      P1  H  7989  7998       L1     7  0.18

> <Gold.Chemscore.Hbond.Weighted>
-4.8576

> <Gold.Chemscore.Metal.Weighted>
-0.0000

> <Gold.Chemscore.Lipo.Weighted>
-12.4523

> <Gold.Chemscore.Internal_Hbond.Weighted>
0.0000

> <Gold.Chemscore.DEClash.Weighted>
0.1509

> <Gold.Chemscore.DEInternal.Weighted>
1.9364

> <Gold.Chemscore.Rot.Weighted>
4.7340

> <Gold.Chemscore.Internal.Correction.Weighted>
   9.000000E+99

> <Gold.Protein.RotatedTorsions>
[ 6907 6896 6895 6894 ] final   68.83 input  -60.11 | X-H torsion
[ 7974 7965 7964 7962 ] final  -69.81 input  175.53 | X-H torsion
[ 8008 7997 7996 7995 ] final  -36.29 input   59.86 | X-H torsion
[ 10167 10162 10161 10158 ] final   53.13 input  -65.29 | X-H torsion
[ 10718 10713 10712 10709 ] final   71.97 input   66.30 | X-H torsion
[ 10763 10752 10751 10750 ] final  -63.18 input  -60.55 | X-H torsion
[ 11005 11000 10999 10996 ] final  -49.96 input  -57.11 | X-H torsion

> <Gold.Protein.ActiveResidues>
 VAL166  LYS551  ARG553  GLY616  TRP617  ASP618  TYR619  PRO620  LYS621  CYS622 
 ASP623  PHE694  ASN695  SER759  ASP760  ASP761  ALA762  ILE779  LEU786  VAL792 
 PHE793  MET794  SER795  GLU796  ALA797  LYS798  CYS799  TRP800  GLU811  SER814 

> <Gold.Protein.RotatedAtoms>
  152.4646  134.5104  159.9751 H   0  0  0  0  0  0  0  0  0  0  0  0  # atno 6907 bound_to 6896
  151.5145  133.3472  159.2898 H   0  0  0  0  0  0  0  0  0  0  0  0  # atno 6908 bound_to 6896
  150.8625  134.8009  159.7156 H   0  0  0  0  0  0  0  0  0  0  0  0  # atno 6909 bound_to 6896
  145.6990  140.9124  143.0741 H   0  0  0  0  0  0  0  0  0  0  0  0  # atno 7974 bound_to 7965
  154.4076  140.1634  156.2351 H   0  0  0  0  0  0  0  0  0  0  0  0  # atno 8008 bound_to 7997
  155.9249  140.3418  155.6180 H   0  0  0  0  0  0  0  0  0  0  0  0  # atno 8009 bound_to 7997
  155.7177  140.0764  157.2335 H   0  0  0  0  0  0  0  0  0  0  0  0  # atno 8010 bound_to 7997
  140.2440  144.3552  150.6370 H   0  0  0  0  0  0  0  0  0  0  0  0  # atno 10167 bound_to 10162
  157.6478  130.9555  150.0863 H   0  0  0  0  0  0  0  0  0  0  0  0  # atno 10718 bound_to 10713
  154.3111  135.6215  153.5466 H   0  0  0  0  0  0  0  0  0  0  0  0  # atno 10763 bound_to 10752
  152.9829  135.5701  154.5176 H   0  0  0  0  0  0  0  0  0  0  0  0  # atno 10764 bound_to 10752
  154.4825  135.2864  155.1536 H   0  0  0  0  0  0  0  0  0  0  0  0  # atno 10765 bound_to 10752
  141.0789  133.6658  156.3661 H   0  0  0  0  0  0  0  0  0  0  0  0  # atno 11005 bound_to 11000
  144.6974  139.8922  143.7454 LP  0  0  0  0  0  0  0  0  0  0  0  0  # atno 17320 bound_to 7965
  146.0814  139.3802  143.0462 LP  0  0  0  0  0  0  0  0  0  0  0  0  # atno 17321 bound_to 7965
  140.6092  143.2169  151.6920 LP  0  0  0  0  0  0  0  0  0  0  0  0  # atno 17342 bound_to 10162
  139.5068  144.3669  152.0508 LP  0  0  0  0  0  0  0  0  0  0  0  0  # atno 17343 bound_to 10162
  156.1825  130.3650  149.9017 LP  0  0  0  0  0  0  0  0  0  0  0  0  # atno 17370 bound_to 10713
  156.6965  130.8916  151.3594 LP  0  0  0  0  0  0  0  0  0  0  0  0  # atno 17371 bound_to 10713
  140.5513  134.6025  157.5408 LP  0  0  0  0  0  0  0  0  0  0  0  0  # atno 17394 bound_to 11000
  139.9602  134.7466  156.0254 LP  0  0  0  0  0  0  0  0  0  0  0  0  # atno 17395 bound_to 11000

$$$$
