#       Name:                AV-unprocessed.smi:514
#       Creating user name   scv26
#       Creation time:       Thu Mar 26 23:24:53 2020


#       File generated by GOLD software.
#

@<TRIPOS>MOLECULE
AV-unprocessed.smi:514
    53    55     1
SMALL
NO_CHARGES


@<TRIPOS>ATOM
      1 ****        -3.9684   2.7494   3.0048 C.3            1 S1                 0.0000
      2 ****        -3.6212   2.0666   1.6801 C.3            1 S1                 0.0000
      3 ****        -2.2110   1.9970   1.5548 O.3            1 S1                 0.0000
      4 ****        -1.7994   1.3737   0.3502 C.3            1 S1                 0.0000
      5 ****        -0.2629   1.3708   0.2995 C.3            1 S1                 0.0000
      6 ****         0.2569   0.5466  -0.7885 N.pl3          1 S1                 0.0000
      7 ****         0.8127  -0.6994  -0.7344 C.2            1 S1                 0.0000
      8 ****         0.9594  -1.4383   0.4492 N.pl3          1 S1                 0.0000
      9 ****         2.0602  -2.3782   0.6680 C.3            1 S1                 0.0000
     10 ****         2.7583  -2.1339   2.0180 C.3            1 S1                 0.0000
     11 ****         1.7874  -2.2127   3.1277 N.4            1 S1                 1.0000
     12 ****         0.6155  -1.3403   2.9147 C.3            1 S1                 0.0000
     13 ****        -0.0110  -1.6082   1.5334 C.3            1 S1                 0.0000
     14 ****         1.2492  -1.1530  -1.9120 N.2            1 S1                 0.0000
     15 ****         0.9324  -0.1301  -2.7897 C.2            1 S1                 0.0000
     16 ****         0.3423   0.9066  -2.1390 C.2            1 S1                 0.0000
     17 ****        -0.0804   2.1591  -2.8068 C.2            1 S1                 0.0000
     18 ****        -0.5856   3.0803  -2.1689 O.2            1 S1                 0.0000
     19 ****         0.1652   2.1360  -4.1550 N.pl3          1 S1                -1.0000
     20 ****         0.7536   1.1040  -4.8538 C.2            1 S1                 0.0000
     21 ****         0.9381   1.1641  -6.0702 O.2            1 S1                 0.0000
     22 ****         1.1500  -0.0274  -4.1906 N.am           1 S1                 0.0000
     23 ****         1.7883  -1.1366  -4.9051 C.3            1 S1                 0.0000
     24 ****        -5.0484   2.8206   3.1343 H              1 S1                 0.0000
     25 ****        -3.5595   3.7592   3.0429 H              1 S1                 0.0000
     26 ****        -3.5651   2.1916   3.8503 H              1 S1                 0.0000
     27 ****        -4.0520   1.0646   1.6543 H              1 S1                 0.0000
     28 ****        -4.0456   2.6312   0.8486 H              1 S1                 0.0000
     29 ****        -2.1936   0.3583   0.3061 H              1 S1                 0.0000
     30 ****        -2.2106   1.9077  -0.5065 H              1 S1                 0.0000
     31 ****         0.1125   2.3873   0.1846 H              1 S1                 0.0000
     32 ****         0.1539   1.0310   1.2441 H              1 S1                 0.0000
     33 ****         1.6757  -3.3977   0.6177 H              1 S1                 0.0000
     34 ****         2.7955  -2.2877  -0.1321 H              1 S1                 0.0000
     35 ****         3.5483  -2.8677   2.1786 H              1 S1                 0.0000
     36 ****         3.2284  -1.1495   2.0248 H              1 S1                 0.0000
     37 ****         1.4624  -3.1665   3.1944 H              1 S1                 0.0000
     38 ****        -0.1131  -1.5180   3.7056 H              1 S1                 0.0000
     39 ****         0.9297  -0.2995   2.9978 H              1 S1                 0.0000
     40 ****        -0.8811  -0.9760   1.3876 H              1 S1                 0.0000
     41 ****        -0.3907  -2.6305   1.4977 H              1 S1                 0.0000
     42 ****         1.1020  -1.5625  -5.6381 H              1 S1                 0.0000
     43 ****         2.0990  -1.9420  -4.2403 H              1 S1                 0.0000
     44 ****         2.6793  -0.7916  -5.4316 H              1 S1                 0.0000
     45 ****         2.2433  -1.9600   3.9927 H              1 S1                 0.0000
     46 ****        -1.8466   1.4750   2.3260 LP             1 S1                 0.0000
     47 ****        -1.8415   2.9260   1.5769 LP             1 S1                 0.0000
     48 ****         1.6980  -2.0239  -2.1123 LP             1 S1                 0.0000
     49 ****        -0.7174   2.9915  -1.1816 LP             1 S1                 0.0000
     50 ****        -0.8648   3.9186  -2.6372 LP             1 S1                 0.0000
     51 ****        -0.1077   2.9422  -4.6800 LP             1 S1                 0.0000
     52 ****         0.6583   1.9784  -6.5787 LP             1 S1                 0.0000
     53 ****         1.3677   0.3986  -6.5492 LP             1 S1                 0.0000
@<TRIPOS>BOND
    1    1    2 1     
    2    1   24 1     
    3    1   25 1     
    4    1   26 1     
    5    2    3 1     
    6    2   27 1     
    7    2   28 1     
    8    3    4 1     
    9    4    5 1     
   10    4   29 1     
   11    4   30 1     
   12    5    6 1     
   13    5   31 1     
   14    5   32 1     
   15    6   16 1     
   16    6    7 1     
   17    7    8 1     
   18    7   14 2     
   19    8   13 1     
   20    8    9 1     
   21    9   10 1     
   22    9   33 1     
   23    9   34 1     
   24   10   11 1     
   25   10   35 1     
   26   10   36 1     
   27   11   12 1     
   28   11   37 1     
   29   11   45 1     
   30   12   13 1     
   31   12   38 1     
   32   12   39 1     
   33   13   40 1     
   34   13   41 1     
   35   14   15 1     
   36   15   22 1     
   37   15   16 2     
   38   16   17 1     
   39   17   18 2     
   40   17   19 1     
   41   19   20 1     
   42   20   21 2     
   43   20   22 am    
   44   22   23 1     
   45   23   42 1     
   46   23   43 1     
   47   23   44 1     
   48    3   46 1     
   49    3   47 1     
   50   14   48 1     
   51   18   49 1     
   52   18   50 1     
   53   19   51 1     
   54   21   52 1     
   55   21   53 1     
@<TRIPOS>SUBSTRUCTURE
      1 S1             1
@<TRIPOS>SET
LONE_PAIRS      STATIC     ATOMS    <user>   **** ""
8 46 47 48 49 50 51 52 53
DONOR_HYDROGENS      STATIC     ATOMS    <user>   **** ""
2 37 45
ATOM$BLUE        STATIC     ATOMS    COLORGROUP SYSTEM
8 46 47 48 49 50 51 52 53
ATOM$RED        STATIC     ATOMS    COLORGROUP SYSTEM
2 37 45
