#       Name:                AV-unprocessed.smi:2950
#       Creating user name   scv26
#       Creation time:       Fri Mar 27 16:18:09 2020


#       File generated by GOLD software.
#

@<TRIPOS>MOLECULE
AV-unprocessed.smi:2950
    34    35     1
SMALL
NO_CHARGES


@<TRIPOS>ATOM
      1 ****        -3.0758   3.0516   0.5139 C.3            1 S1                 0.0000
      2 ****        -1.7319   2.8620   0.1073 O.3            1 S1                 0.0000
      3 ****        -1.2877   1.5310   0.3063 C.3            1 S1                 0.0000
      4 ****         0.1651   1.4172  -0.1716 C.3            1 S1                 0.0000
      5 ****         0.6827   0.0693   0.0033 N.pl3          1 S1                 0.0000
      6 ****         1.3675  -0.4349   1.0603 C.2            1 S1                 0.0000
      7 ****         1.6931   0.4134   2.2566 C.3            1 S1                 0.0000
      8 ****         2.1794  -0.3180   3.3639 O.3            1 S1                 0.0000
      9 ****         1.7290  -1.7160   0.9541 N.2            1 S1                 0.0000
     10 ****         1.2253  -2.0755  -0.2804 C.ar           1 S1                 0.0000
     11 ****         1.2749  -3.3085  -0.9695 C.ar           1 S1                 0.0000
     12 ****         0.6774  -3.4405  -2.2402 C.ar           1 S1                 0.0000
     13 ****         0.0227  -2.3444  -2.8385 C.ar           1 S1                 0.0000
     14 ****        -0.0377  -1.1068  -2.1692 C.ar           1 S1                 0.0000
     15 ****         0.5617  -0.9803  -0.9017 C.ar           1 S1                 0.0000
     16 ****        -3.3691   4.0865   0.3381 H              1 S1                 0.0000
     17 ****        -3.2002   2.8424   1.5772 H              1 S1                 0.0000
     18 ****        -3.7529   2.4095  -0.0510 H              1 S1                 0.0000
     19 ****        -1.3610   1.2676   1.3626 H              1 S1                 0.0000
     20 ****        -1.9212   0.8391  -0.2512 H              1 S1                 0.0000
     21 ****         0.2332   1.6797  -1.2279 H              1 S1                 0.0000
     22 ****         0.8014   2.1241   0.3609 H              1 S1                 0.0000
     23 ****         2.4395   1.1550   1.9710 H              1 S1                 0.0000
     24 ****         0.8000   0.9528   2.5721 H              1 S1                 0.0000
     25 ****         2.3609   0.2863   4.0672 H              1 S1                 0.0000
     26 ****         1.7732  -4.1539  -0.5187 H              1 S1                 0.0000
     27 ****         0.7211  -4.3875  -2.7580 H              1 S1                 0.0000
     28 ****        -0.4329  -2.4547  -3.8117 H              1 S1                 0.0000
     29 ****        -0.5389  -0.2656  -2.6246 H              1 S1                 0.0000
     30 ****        -1.1470   3.4776   0.6354 LP             1 S1                 0.0000
     31 ****        -1.6567   3.0832  -0.8650 LP             1 S1                 0.0000
     32 ****         3.0179  -0.7992   3.1081 LP             1 S1                 0.0000
     33 ****         1.4913  -0.9811   3.6584 LP             1 S1                 0.0000
     34 ****         2.2385  -2.2765   1.6070 LP             1 S1                 0.0000
@<TRIPOS>BOND
    1    1    2 1     
    2    1   16 1     
    3    1   17 1     
    4    1   18 1     
    5    2    3 1     
    6    3    4 1     
    7    3   19 1     
    8    3   20 1     
    9    4    5 1     
   10    4   21 1     
   11    4   22 1     
   12    5   15 1     
   13    5    6 1     
   14    6    7 1     
   15    6    9 2     
   16    7    8 1     
   17    7   23 1     
   18    7   24 1     
   19    8   25 1     
   20    9   10 1     
   21   10   15 ar    
   22   10   11 ar    
   23   11   12 ar    
   24   11   26 1     
   25   12   13 ar    
   26   12   27 1     
   27   13   14 ar    
   28   13   28 1     
   29   14   15 ar    
   30   14   29 1     
   31    2   30 1     
   32    2   31 1     
   33    8   32 1     
   34    8   33 1     
   35    9   34 1     
@<TRIPOS>SUBSTRUCTURE
      1 S1             1
@<TRIPOS>SET
LONE_PAIRS      STATIC     ATOMS    <user>   **** ""
5 30 31 32 33 34
DONOR_HYDROGENS      STATIC     ATOMS    <user>   **** ""
1 25
ATOM$BLUE        STATIC     ATOMS    COLORGROUP SYSTEM
5 30 31 32 33 34
ATOM$RED        STATIC     ATOMS    COLORGROUP SYSTEM
1 25
