AV-unprocessed.smi:2492|AV-procd|sdf|9817|dock5
  -GOLD-   2272013443D 1   1.00000     0.00000
 Structure written by MMmdl.
 32 33  0  0  0  0  0  0  0  0  2 V2000
  152.4979  144.6923  157.9556 C   0  0  0  0  0  0  0  0  0  0  0  0
  151.5301  145.1137  159.4288 S   0  0  0  0  0  0  0  0  0  0  0  0
  151.6650  143.5584  160.3569 C   0  0  2  0  0  0  0  0  0  0  0  0
  152.7722  143.5983  161.4069 C   0  0  0  0  0  0  0  0  0  0  0  0
  153.0517  142.1262  161.7108 C   0  0  0  0  0  0  0  0  0  0  0  0
  152.7506  141.3585  160.4075 C   0  0  2  0  0  0  0  0  0  0  0  0
  153.9717  140.8537  159.7829 N   0  0  0  0  0  0  0  0  0  0  0  0
  154.3445  139.5676  159.7111 C   0  0  0  0  0  0  0  0  0  0  0  0
  153.6317  138.6925  160.2080 O   0  0  0  0  0  0  0  0  0  0  0  0
  155.5204  139.3760  159.0712 N   0  5  0  0  0  0  0  0  0  0  0  0
  156.6107  140.0613  159.4529 C   0  0  0  0  0  0  0  0  0  0  0  0
  157.6075  140.4554  158.6593 N   0  0  0  0  0  0  0  0  0  0  0  0
  158.4244  141.0987  159.5357 C   0  0  0  0  0  0  0  0  0  0  0  0
  159.7111  141.7315  159.1300 C   0  0  0  0  0  0  0  0  0  0  0  0
  158.0053  141.1414  160.7915 N   0  0  0  0  0  0  0  0  0  0  0  0
  156.7865  140.4503  160.7427 O   0  0  0  0  0  0  0  0  0  0  0  0
  152.0350  142.3584  159.4794 C   0  0  0  0  0  0  0  0  0  0  0  0
  152.4942  145.5260  157.2536 H   0  0  0  0  0  0  0  0  0  0  0  0
  152.0747  143.8191  157.4585 H   0  0  0  0  0  0  0  0  0  0  0  0
  153.5315  144.4748  158.2244 H   0  0  0  0  0  0  0  0  0  0  0  0
  150.7154  143.3614  160.8565 H   0  0  0  0  0  0  0  0  0  0  0  0
  153.6686  144.0592  160.9888 H   0  0  0  0  0  0  0  0  0  0  0  0
  152.4897  144.1626  162.2959 H   0  0  0  0  0  0  0  0  0  0  0  0
  154.0662  141.9737  162.0823 H   0  0  0  0  0  0  0  0  0  0  0  0
  152.3716  141.7846  162.4921 H   0  0  0  0  0  0  0  0  0  0  0  0
  152.0807  140.5242  160.6235 H   0  0  0  0  0  0  0  0  0  0  0  0
  154.5860  141.5371  159.3651 H   0  0  0  0  0  0  0  0  0  0  0  0
  159.6000  142.8152  159.0885 H   0  0  0  0  0  0  0  0  0  0  0  0
  160.0208  141.3769  158.1464 H   0  0  0  0  0  0  0  0  0  0  0  0
  160.4973  141.4888  159.8458 H   0  0  0  0  0  0  0  0  0  0  0  0
  151.1604  141.9160  159.0017 H   0  0  0  0  0  0  0  0  0  0  0  0
  152.7061  142.6843  158.6827 H   0  0  0  0  0  0  0  0  0  0  0  0
  1  2  1  0  0  0  0
  1 18  1  0  0  0  0
  1 19  1  0  0  0  0
  1 20  1  0  0  0  0
  2  3  1  0  0  0  0
  3 17  1  0  0  0  0
  3  4  1  0  0  0  0
  3 21  1  0  0  0  0
  4  5  1  0  0  0  0
  4 22  1  0  0  0  0
  4 23  1  0  0  0  0
  5  6  1  0  0  0  0
  5 24  1  0  0  0  0
  5 25  1  0  0  0  0
  6  7  1  0  0  0  0
  6 17  1  0  0  0  0
  6 26  1  0  0  0  0
  7  8  1  0  0  0  0
  7 27  1  0  0  0  0
  8  9  2  0  0  0  0
  8 10  1  0  0  0  0
 10 11  1  0  0  0  0
 11 16  1  0  0  0  0
 11 12  2  0  0  0  0
 12 13  1  0  0  0  0
 13 14  1  0  0  0  0
 13 15  2  0  0  0  0
 14 28  1  0  0  0  0
 14 29  1  0  0  0  0
 14 30  1  0  0  0  0
 15 16  1  0  0  0  0
 17 31  1  0  0  0  0
 17 32  1  0  0  0  0
M  CHG  1  10  -1
M  END
> <s_m_source_file>
AV-unprocessed.smi

> <i_m_source_file_index>
2492

> <i_lp_mmshare_version>
43012

> <i_f3d_flags>
0

> <s_epik_input>
W0NIM11TW0NAQEhdMVtDSDJdW0NIMl1bQ0BIXShbQ0gyXTEpW05IXUMoPU8pW05IXWMybmMoW0NIM10pbm8y

> <s_epik_cmdline>
J2VwaWtfcHl0aG9uJywgJy1waCcsICc3LjAnLCAnLXRuJywgJzgnLCAnLW1hJywgJzIwMCcsICctbWV0YWxfYmluZGluZycsICctaW1hZScsICc8aW5maWxlLm1hZT4nLCAnLW9tYWUnLCAnPG91dGZpbGUubWFlPic=

> <r_lp_tautomer_probability>
1

> <r_epik_Ionization_Penalty>
6.26454

> <r_epik_Ionization_Penalty_Charging>
6.26445

> <r_epik_Ionization_Penalty_Neutral>
9.05726e-05

> <r_epik_State_Penalty>
6.26444

> <r_epik_Charging_Adjusted_Penalty>
12.5289

> <i_epik_Tot_Q>
-1

> <i_epik_Tot_abs_Q>
1

> <r_epik_Metal_State_Penalty>
2.20125

> <b_epik_Metal_Only>
1

> <s_lp_Force_Field>
OPLS_2005

> <r_lp_Energy>
10.8343

> <b_lp_Chiralities_Consistent>
1

> <s_lp_Variant>
AV-unprocessed.smi:2492-7

> <Gold.Version>
5.8.1

> <Gold.Id.Protein>
6NUR|6NUR_protein|mol2

> <Gold.PLP.Fitness>
40.4871

> <Gold.PLP.PLP>
-37.1253

> <Gold.PLP.part.hbond>
-3.2391

> <Gold.PLP.part.metal>
0.0000

> <Gold.PLP.part.buried>
-6.3860

> <Gold.PLP.part.nonpolar>
-28.8663

> <Gold.PLP.part.repulsive>
0.1910

> <Gold.PLP.ligand.clash>
0.0000

> <Gold.PLP.ligand.torsion>
1.3273

> <Gold.PLP.Chemscore.Hbond>
2.0000

> <Gold.PLP.Chemscore.CHOScore>
0.0000

> <Gold.PLP.Chemscore.Metal>
0.0000

> <Gold.Chemscore.Hbonds>
donor molecule, donor type, donor heavy atom, donor atom, acceptor molecule, acceptor atom, score
      P1  H  7997  8010       L1    10  1.40

> <Gold.PLP.Chemscore.Internal.Correction>
0.0164

> <Gold.Rescore>
     Score         DG    S(hbond)    S(metal)    S(lipo)     H(rot)  DE(clash)    DE(int)     intcor
     13.29     -15.03       0.79        0.00      86.86       1.27       0.14       1.59       ----

> <Gold.Chemscore.Fitness>
13.2939

> <Gold.Chemscore.DG>
-15.0256

> <Gold.Chemscore.ZeroCoef>
-5.4800

> <Gold.Chemscore.Hbond>
0.7897

> <Gold.Chemscore.Metal>
0.0000

> <Gold.Chemscore.Lipo>
86.8566

> <Gold.Chemscore.Internal_Hbond>
0.0000

> <Gold.Chemscore.DEClash>
0.1423

> <Gold.Chemscore.DEInternal>
1.5894

> <Gold.Chemscore.Rot>
1.2712

> <Gold.Chemscore.Internal.Correction>
   9.000000E+99

> <Gold.Chemscore.Hbonds>
donor molecule, donor type, donor heavy atom, donor atom, acceptor molecule, acceptor atom, score
      P1  H  7997  8010       L1    10  0.06

> <Gold.Chemscore.Hbond.Weighted>
-2.6376

> <Gold.Chemscore.Metal.Weighted>
-0.0000

> <Gold.Chemscore.Lipo.Weighted>
-10.1622

> <Gold.Chemscore.Internal_Hbond.Weighted>
0.0000

> <Gold.Chemscore.DEClash.Weighted>
0.1423

> <Gold.Chemscore.DEInternal.Weighted>
1.5894

> <Gold.Chemscore.Rot.Weighted>
3.2542

> <Gold.Chemscore.Internal.Correction.Weighted>
   9.000000E+99

> <Gold.Protein.RotatedTorsions>
[ 6907 6896 6895 6894 ] final  135.58 input  -60.11 | X-H torsion
[ 7974 7965 7964 7962 ] final    4.24 input  175.53 | X-H torsion
[ 8008 7997 7996 7995 ] final  -25.65 input   59.86 | X-H torsion
[ 10167 10162 10161 10158 ] final  103.04 input  -65.29 | X-H torsion
[ 10718 10713 10712 10709 ] final -164.78 input   66.30 | X-H torsion
[ 10763 10752 10751 10750 ] final -120.13 input  -60.55 | X-H torsion
[ 11005 11000 10999 10996 ] final -125.08 input  -57.11 | X-H torsion

> <Gold.Protein.ActiveResidues>
 VAL166  LYS551  ARG553  GLY616  TRP617  ASP618  TYR619  PRO620  LYS621  CYS622 
 ASP623  PHE694  ASN695  SER759  ASP760  ASP761  ALA762  ILE779  LEU786  VAL792 
 PHE793  MET794  SER795  GLU796  ALA797  LYS798  CYS799  TRP800  GLU811  SER814 

> <Gold.Protein.RotatedAtoms>
  152.2989  133.5635  159.5605 H   0  0  0  0  0  0  0  0  0  0  0  0  # atno 6907 bound_to 6896
  150.7268  134.0321  159.3745 H   0  0  0  0  0  0  0  0  0  0  0  0  # atno 6908 bound_to 6896
  151.8222  135.0648  160.0477 H   0  0  0  0  0  0  0  0  0  0  0  0  # atno 6909 bound_to 6896
  146.2444  140.0565  142.8371 H   0  0  0  0  0  0  0  0  0  0  0  0  # atno 7974 bound_to 7965
  154.4465  140.1920  156.0653 H   0  0  0  0  0  0  0  0  0  0  0  0  # atno 8008 bound_to 7997
  156.0552  140.3303  155.7370 H   0  0  0  0  0  0  0  0  0  0  0  0  # atno 8009 bound_to 7997
  155.5496  140.0594  157.2843 H   0  0  0  0  0  0  0  0  0  0  0  0  # atno 8010 bound_to 7997
  139.7298  144.7039  151.0740 H   0  0  0  0  0  0  0  0  0  0  0  0  # atno 10167 bound_to 10162
  156.6439  130.8980  151.3001 H   0  0  0  0  0  0  0  0  0  0  0  0  # atno 10718 bound_to 10713
  154.8636  135.4213  154.2411 H   0  0  0  0  0  0  0  0  0  0  0  0  # atno 10763 bound_to 10752
  153.3376  135.6992  153.6900 H   0  0  0  0  0  0  0  0  0  0  0  0  # atno 10764 bound_to 10752
  153.5891  135.3558  155.2877 H   0  0  0  0  0  0  0  0  0  0  0  0  # atno 10765 bound_to 10752
  140.9790  134.0699  157.3786 H   0  0  0  0  0  0  0  0  0  0  0  0  # atno 11005 bound_to 11000
  145.0938  140.9302  143.4753 LP  0  0  0  0  0  0  0  0  0  0  0  0  # atno 17320 bound_to 7965
  145.0743  139.3008  143.5816 LP  0  0  0  0  0  0  0  0  0  0  0  0  # atno 17321 bound_to 7965
  140.7769  143.5058  150.9714 LP  0  0  0  0  0  0  0  0  0  0  0  0  # atno 17342 bound_to 10162
  139.8746  143.7149  152.3163 LP  0  0  0  0  0  0  0  0  0  0  0  0  # atno 17343 bound_to 10162
  157.7162  130.9500  150.1265 LP  0  0  0  0  0  0  0  0  0  0  0  0  # atno 17370 bound_to 10713
  156.2137  130.3668  149.8639 LP  0  0  0  0  0  0  0  0  0  0  0  0  # atno 17371 bound_to 10713
  139.8942  135.0135  156.6941 LP  0  0  0  0  0  0  0  0  0  0  0  0  # atno 17394 bound_to 11000
  140.7215  133.9137  155.8150 LP  0  0  0  0  0  0  0  0  0  0  0  0  # atno 17395 bound_to 11000

$$$$
