AV-unprocessed.smi:2134|AV-procd|sdf|8694|dock2
  -GOLD-   2272011453D 1   1.00000     0.00000
 Structure written by MMmdl.
 35 36  0  0  0  0  0  0  0  0  1 V2000
  151.8274  137.5065  154.4150 C   0  0  0  0  0  0  0  0  0  0  0  0
  150.9421  138.6390  154.6785 N   0  0  0  0  0  0  0  0  0  0  0  0
  149.6761  138.5214  154.1426 N   0  0  0  0  0  0  0  0  0  0  0  0
  148.8558  139.5238  154.0882 C   0  0  0  0  0  0  0  0  0  0  0  0
  147.5119  139.3528  153.4758 C   0  0  0  0  0  0  0  0  0  0  0  0
  146.5704  140.0764  153.8014 O   0  0  0  0  0  0  0  0  0  0  0  0
  147.4085  138.3861  152.5443 N   0  0  0  0  0  0  0  0  0  0  0  0
  146.2217  138.0977  151.7432 C   0  0  0  0  0  0  0  0  0  0  0  0
  145.3091  137.0576  152.4210 C   0  0  0  0  0  0  0  0  0  0  0  0
  145.2468  135.7315  151.6828 C   0  0  0  0  0  0  0  0  0  0  0  0
  144.1939  135.4466  150.7884 C   0  0  0  0  0  0  0  0  0  0  0  0
  144.1668  134.1920  150.1500 C   0  0  0  0  0  0  0  0  0  0  0  0
  145.1982  133.2741  150.4323 C   0  0  0  0  0  0  0  0  0  0  0  0
  146.2126  133.5367  151.2842 N   0  0  0  0  0  0  0  0  0  0  0  0
  146.2300  134.7415  151.8937 C   0  0  0  0  0  0  0  0  0  0  0  0
  149.2678  140.8866  154.6084 C   0  0  0  0  0  0  0  0  0  0  0  0
  150.3415  140.7864  155.7099 C   0  0  0  0  0  0  0  0  0  0  0  0
  151.3718  139.6916  155.4182 C   0  0  0  0  0  0  0  0  0  0  0  0
  152.5118  139.7891  155.8718 O   0  0  0  0  0  0  0  0  0  0  0  0
  152.1772  137.0647  155.3493 H   0  0  0  0  0  0  0  0  0  0  0  0
  152.6987  137.8275  153.8422 H   0  0  0  0  0  0  0  0  0  0  0  0
  151.3295  136.7199  153.8453 H   0  0  0  0  0  0  0  0  0  0  0  0
  148.2337  137.8384  152.3457 H   0  0  0  0  0  0  0  0  0  0  0  0
  145.6715  139.0276  151.5986 H   0  0  0  0  0  0  0  0  0  0  0  0
  146.5019  137.7546  150.7460 H   0  0  0  0  0  0  0  0  0  0  0  0
  145.6524  136.8801  153.4410 H   0  0  0  0  0  0  0  0  0  0  0  0
  144.2982  137.4576  152.5078 H   0  0  0  0  0  0  0  0  0  0  0  0
  143.4143  136.1706  150.6015 H   0  0  0  0  0  0  0  0  0  0  0  0
  143.3735  133.9380  149.4626 H   0  0  0  0  0  0  0  0  0  0  0  0
  145.2080  132.3024  149.9610 H   0  0  0  0  0  0  0  0  0  0  0  0
  147.0483  134.9177  152.5766 H   0  0  0  0  0  0  0  0  0  0  0  0
  149.6401  141.4897  153.7795 H   0  0  0  0  0  0  0  0  0  0  0  0
  148.4070  141.4198  155.0140 H   0  0  0  0  0  0  0  0  0  0  0  0
  150.8408  141.7470  155.8411 H   0  0  0  0  0  0  0  0  0  0  0  0
  149.8681  140.5451  156.6623 H   0  0  0  0  0  0  0  0  0  0  0  0
  1  2  1  0  0  0  0
  1 20  1  0  0  0  0
  1 21  1  0  0  0  0
  1 22  1  0  0  0  0
  2 18  1  0  0  0  0
  2  3  1  0  0  0  0
  3  4  2  0  0  0  0
  4  5  1  0  0  0  0
  4 16  1  0  0  0  0
  5  6  2  0  0  0  0
  5  7  1  0  0  0  0
  7  8  1  0  0  0  0
  7 23  1  0  0  0  0
  8  9  1  0  0  0  0
  8 24  1  0  0  0  0
  8 25  1  0  0  0  0
  9 10  1  0  0  0  0
  9 26  1  0  0  0  0
  9 27  1  0  0  0  0
 10 15  1  0  0  0  0
 10 11  2  0  0  0  0
 11 12  1  0  0  0  0
 11 28  1  0  0  0  0
 12 13  2  0  0  0  0
 12 29  1  0  0  0  0
 13 14  1  0  0  0  0
 13 30  1  0  0  0  0
 14 15  2  0  0  0  0
 15 31  1  0  0  0  0
 16 17  1  0  0  0  0
 16 32  1  0  0  0  0
 16 33  1  0  0  0  0
 17 18  1  0  0  0  0
 17 34  1  0  0  0  0
 17 35  1  0  0  0  0
 18 19  2  0  0  0  0
M  END
> <s_m_source_file>
AV-unprocessed.smi

> <i_m_source_file_index>
2134

> <i_lp_mmshare_version>
43012

> <i_f3d_flags>
0

> <s_epik_input>
Tz1DMVtDSDJdW0NIMl1DKD1OTjFbQ0gzXSlDKD1PKVtOSF1bQ0gyXVtDSDJdYzJbY0hdW2NIXVtjSF1uW2NIXTI=

> <s_epik_cmdline>
J2VwaWtfcHl0aG9uJywgJy1waCcsICc3LjAnLCAnLXRuJywgJzgnLCAnLW1hJywgJzIwMCcsICctbWV0YWxfYmluZGluZycsICctaW1hZScsICc8aW5maWxlLm1hZT4nLCAnLW9tYWUnLCAnPG91dGZpbGUubWFlPic=

> <r_epik_Ionization_Penalty>
0.00938916

> <r_epik_Ionization_Penalty_Charging>
0

> <r_epik_Ionization_Penalty_Neutral>
0.00938916

> <r_epik_State_Penalty>
0.00707201

> <r_epik_Charging_Adjusted_Penalty>
0.00707201

> <i_epik_Tot_Q>
0

> <i_epik_Tot_abs_Q>
0

> <r_epik_Metal_State_Penalty>
0.0638513

> <b_epik_Metal_Only>
0

> <s_epik_Chemistry_Notes>
This compound has an imine and may undergo hydrolysis.

> <s_lp_Force_Field>
OPLS_2005

> <r_lp_Energy>
16.2415

> <b_lp_Chiralities_Consistent>
1

> <s_lp_Variant>
AV-unprocessed.smi:2134-1

> <Gold.Version>
5.8.1

> <Gold.Id.Protein>
6NUR|6NUR_protein|mol2

> <Gold.PLP.Fitness>
40.4091

> <Gold.PLP.PLP>
-34.5249

> <Gold.PLP.part.hbond>
-2.9585

> <Gold.PLP.part.metal>
0.0000

> <Gold.PLP.part.buried>
1.9419

> <Gold.PLP.part.nonpolar>
-35.0146

> <Gold.PLP.part.repulsive>
0.6321

> <Gold.PLP.ligand.clash>
0.0000

> <Gold.PLP.ligand.torsion>
1.1912

> <Gold.PLP.Chemscore.Hbond>
1.9760

> <Gold.PLP.Chemscore.CHOScore>
0.7745

> <Gold.PLP.Chemscore.Metal>
0.0000

> <Gold.Chemscore.Hbonds>
donor molecule, donor type, donor heavy atom, donor atom, acceptor molecule, acceptor atom, score
      L1  H     7    23       P1  7948  0.99
      P1  H  7997  8010       L1    19  1.00
      L1  C    15    31       P1  7948  0.78

> <Gold.PLP.Chemscore.Internal.Correction>
0.0150

> <Gold.Rescore>
     Score         DG    S(hbond)    S(metal)    S(lipo)     H(rot)  DE(clash)    DE(int)     intcor
     15.33     -16.73       1.93        0.00      72.67       1.45       0.22       1.18       ----

> <Gold.Chemscore.Fitness>
15.3322

> <Gold.Chemscore.DG>
-16.7284

> <Gold.Chemscore.ZeroCoef>
-5.4800

> <Gold.Chemscore.Hbond>
1.9320

> <Gold.Chemscore.Metal>
0.0000

> <Gold.Chemscore.Lipo>
72.6714

> <Gold.Chemscore.Internal_Hbond>
0.0000

> <Gold.Chemscore.DEClash>
0.2161

> <Gold.Chemscore.DEInternal>
1.1801

> <Gold.Chemscore.Rot>
1.4480

> <Gold.Chemscore.Internal.Correction>
   9.000000E+99

> <Gold.Chemscore.Hbonds>
donor molecule, donor type, donor heavy atom, donor atom, acceptor molecule, acceptor atom, score
      L1  H     7    23       P1  7948  0.93
      P1  H  7997  8010       L1    19  1.00

> <Gold.Chemscore.Hbond.Weighted>
-6.4529

> <Gold.Chemscore.Metal.Weighted>
-0.0000

> <Gold.Chemscore.Lipo.Weighted>
-8.5026

> <Gold.Chemscore.Internal_Hbond.Weighted>
0.0000

> <Gold.Chemscore.DEClash.Weighted>
0.2161

> <Gold.Chemscore.DEInternal.Weighted>
1.1801

> <Gold.Chemscore.Rot.Weighted>
3.7070

> <Gold.Chemscore.Internal.Correction.Weighted>
   9.000000E+99

> <Gold.Protein.RotatedTorsions>
[ 6907 6896 6895 6894 ] final -108.09 input  -60.11 | X-H torsion
[ 7974 7965 7964 7962 ] final -143.56 input  175.53 | X-H torsion
[ 8008 7997 7996 7995 ] final   91.21 input   59.86 | X-H torsion
[ 10167 10162 10161 10158 ] final  -29.41 input  -65.29 | X-H torsion
[ 10718 10713 10712 10709 ] final -174.44 input   66.30 | X-H torsion
[ 10763 10752 10751 10750 ] final    0.49 input  -60.55 | X-H torsion
[ 11005 11000 10999 10996 ] final -100.59 input  -57.11 | X-H torsion

> <Gold.Protein.ActiveResidues>
 VAL166  LYS551  ARG553  GLY616  TRP617  ASP618  TYR619  PRO620  LYS621  CYS622 
 ASP623  PHE694  ASN695  SER759  ASP760  ASP761  ALA762  ILE779  LEU786  VAL792 
 PHE793  MET794  SER795  GLU796  ALA797  LYS798  CYS799  TRP800  GLU811  SER814 

> <Gold.Protein.RotatedAtoms>
  150.7481  133.9729  159.3551 H   0  0  0  0  0  0  0  0  0  0  0  0  # atno 6907 bound_to 6896
  151.7664  135.0795  160.0362 H   0  0  0  0  0  0  0  0  0  0  0  0  # atno 6908 bound_to 6896
  152.3368  133.5984  159.5884 H   0  0  0  0  0  0  0  0  0  0  0  0  # atno 6909 bound_to 6896
  144.8360  140.5819  143.5483 H   0  0  0  0  0  0  0  0  0  0  0  0  # atno 7974 bound_to 7965
  156.0211  140.3340  155.7039 H   0  0  0  0  0  0  0  0  0  0  0  0  # atno 8008 bound_to 7997
  155.6021  140.0657  157.2747 H   0  0  0  0  0  0  0  0  0  0  0  0  # atno 8009 bound_to 7997
  154.4316  140.1808  156.1172 H   0  0  0  0  0  0  0  0  0  0  0  0  # atno 8010 bound_to 7997
  140.7261  143.3931  151.1395 H   0  0  0  0  0  0  0  0  0  0  0  0  # atno 10167 bound_to 10162
  156.7851  130.9497  151.3120 H   0  0  0  0  0  0  0  0  0  0  0  0  # atno 10718 bound_to 10713
  153.3200  135.6968  153.7039 H   0  0  0  0  0  0  0  0  0  0  0  0  # atno 10763 bound_to 10752
  153.5883  135.3485  155.2902 H   0  0  0  0  0  0  0  0  0  0  0  0  # atno 10764 bound_to 10752
  154.8595  135.4311  154.2361 H   0  0  0  0  0  0  0  0  0  0  0  0  # atno 10765 bound_to 10752
  141.1264  133.8411  157.1122 H   0  0  0  0  0  0  0  0  0  0  0  0  # atno 11005 bound_to 11000
  145.4793  139.1496  143.3770 LP  0  0  0  0  0  0  0  0  0  0  0  0  # atno 17320 bound_to 7965
  146.2659  140.4929  142.8834 LP  0  0  0  0  0  0  0  0  0  0  0  0  # atno 17321 bound_to 7965
  139.7539  143.8736  152.3084 LP  0  0  0  0  0  0  0  0  0  0  0  0  # atno 17342 bound_to 10162
  139.8599  144.7122  150.9111 LP  0  0  0  0  0  0  0  0  0  0  0  0  # atno 17343 bound_to 10162
  157.6628  130.8981  149.9866 LP  0  0  0  0  0  0  0  0  0  0  0  0  # atno 17370 bound_to 10713
  156.1194  130.3646  149.9913 LP  0  0  0  0  0  0  0  0  0  0  0  0  # atno 17371 bound_to 10713
  140.0268  134.9920  157.0701 LP  0  0  0  0  0  0  0  0  0  0  0  0  # atno 17394 bound_to 11000
  140.4350  134.1741  155.7170 LP  0  0  0  0  0  0  0  0  0  0  0  0  # atno 17395 bound_to 11000

$$$$
