#       Name:                AV-unprocessed.smi:102
#       Creating user name   scv26
#       Creation time:       Thu Mar 26 17:47:39 2020


#       File generated by GOLD software.
#

@<TRIPOS>MOLECULE
AV-unprocessed.smi:102
    56    57     1
SMALL
NO_CHARGES


@<TRIPOS>ATOM
      1 ****        -4.8625   2.9230  -1.1442 C.3            1 S1                 0.0000
      2 ****        -4.4908   1.6067  -0.4734 C.2            1 S1                 0.0000
      3 ****        -5.3527   0.8363  -0.0498 O.2            1 S1                 0.0000
      4 ****        -3.1643   1.4151  -0.4143 O.3            1 S1                 0.0000
      5 ****        -2.6530   0.2348   0.1824 C.3            1 S1                 0.0000
      6 ****        -1.1250   0.2370   0.0768 C.3            1 S1                 0.0000
      7 ****        -0.7242  -0.0704  -1.2510 O.3            1 S1                 0.0000
      8 ****         0.5949  -0.5102  -1.2257 C.3            1 S1                 0.0000
      9 ****         1.4995   0.6956  -1.4363 N.am           1 S1                 0.0000
     10 ****         1.9545   1.4898  -0.3867 C.2            1 S1                 0.0000
     11 ****         2.6927   2.6099  -0.5693 C.2            1 S1                 0.0000
     12 ****         3.0913   3.3225   0.4981 F              1 S1                 0.0000
     13 ****         3.0354   3.0660  -1.9118 C.2            1 S1                 0.0000
     14 ****         3.7100   4.0585  -2.1777 O.2            1 S1                 0.0000
     15 ****         2.5108   2.2762  -2.9371 N.am           1 S1                 0.0000
     16 ****         1.7380   1.1271  -2.7626 C.2            1 S1                 0.0000
     17 ****         1.2983   0.5362  -3.7481 O.2            1 S1                 0.0000
     18 ****         0.8077  -1.2196   0.1263 C.3            1 S1                 0.0000
     19 ****         0.8829  -2.6293  -0.0453 O.3            1 S1                 0.0000
     20 ****         2.0645  -3.2168  -0.3024 C.2            1 S1                 0.0000
     21 ****         1.9499  -4.7312  -0.4140 C.3            1 S1                 0.0000
     22 ****         3.1429  -2.6410  -0.4466 O.2            1 S1                 0.0000
     23 ****        -0.4594  -0.8671   0.9068 C.3            1 S1                 0.0000
     24 ****        -0.1357  -0.3859   2.2048 O.3            1 S1                 0.0000
     25 ****         0.0906  -1.2510   3.2096 C.2            1 S1                 0.0000
     26 ****         0.4189  -0.5490   4.5206 C.3            1 S1                 0.0000
     27 ****         0.0564  -2.4790   3.1301 O.2            1 S1                 0.0000
     28 ****         2.6966   2.5686  -3.8856 H              1 S1                 0.0000
     29 ****        -4.0202   3.6152  -1.1332 H              1 S1                 0.0000
     30 ****        -5.6983   3.3906  -0.6233 H              1 S1                 0.0000
     31 ****        -5.1539   2.7487  -2.1799 H              1 S1                 0.0000
     32 ****        -2.9495   0.2148   1.2321 H              1 S1                 0.0000
     33 ****        -3.0696  -0.6535  -0.2948 H              1 S1                 0.0000
     34 ****        -0.7277   1.2135   0.3582 H              1 S1                 0.0000
     35 ****         0.7889  -1.1808  -2.0647 H              1 S1                 0.0000
     36 ****         1.7089   1.2409   0.6338 H              1 S1                 0.0000
     37 ****         1.7084  -0.8608   0.6234 H              1 S1                 0.0000
     38 ****         1.2170  -5.1138   0.2968 H              1 S1                 0.0000
     39 ****         2.9105  -5.2022  -0.2040 H              1 S1                 0.0000
     40 ****         1.6389  -5.0131  -1.4200 H              1 S1                 0.0000
     41 ****        -1.1273  -1.7293   0.9549 H              1 S1                 0.0000
     42 ****        -0.0931   0.4116   4.5817 H              1 S1                 0.0000
     43 ****         1.4923  -0.3753   4.5960 H              1 S1                 0.0000
     44 ****         0.1064  -1.1600   5.3678 H              1 S1                 0.0000
     45 ****        -6.3208   1.0693  -0.1426 LP             1 S1                 0.0000
     46 ****        -5.0847  -0.0224   0.3871 LP             1 S1                 0.0000
     47 ****        -0.7958   0.7472  -1.8223 LP             1 S1                 0.0000
     48 ****        -1.3119  -0.7892  -1.6224 LP             1 S1                 0.0000
     49 ****         4.0734   4.6282  -1.4405 LP             1 S1                 0.0000
     50 ****         3.8954   4.2963  -3.1311 LP             1 S1                 0.0000
     51 ****         0.7449  -0.2884  -3.6309 LP             1 S1                 0.0000
     52 ****         1.4943   0.8806  -4.6662 LP             1 S1                 0.0000
     53 ****         3.1914  -1.6448  -0.3741 LP             1 S1                 0.0000
     54 ****         3.9704  -3.1694  -0.6361 LP             1 S1                 0.0000
     55 ****        -0.1552  -2.9178   2.2568 LP             1 S1                 0.0000
     56 ****         0.2403  -3.0377   3.9389 LP             1 S1                 0.0000
@<TRIPOS>BOND
    1    1    2 1     
    2    1   29 1     
    3    1   30 1     
    4    1   31 1     
    5    2    3 2     
    6    2    4 1     
    7    4    5 1     
    8    5    6 1     
    9    5   32 1     
   10    5   33 1     
   11    6   23 1     
   12    6    7 1     
   13    6   34 1     
   14    7    8 1     
   15    8    9 1     
   16    8   18 1     
   17    8   35 1     
   18    9   16 1     
   19    9   10 1     
   20   10   11 2     
   21   10   36 1     
   22   11   12 1     
   23   11   13 1     
   24   13   14 2     
   25   13   15 1     
   26   15   28 1     
   27   15   16 1     
   28   16   17 2     
   29   18   19 1     
   30   18   23 1     
   31   18   37 1     
   32   19   20 1     
   33   20   21 1     
   34   20   22 2     
   35   21   38 1     
   36   21   39 1     
   37   21   40 1     
   38   23   24 1     
   39   23   41 1     
   40   24   25 1     
   41   25   26 1     
   42   25   27 2     
   43   26   42 1     
   44   26   43 1     
   45   26   44 1     
   46    3   45 1     
   47    3   46 1     
   48    7   47 1     
   49    7   48 1     
   50   14   49 1     
   51   14   50 1     
   52   17   51 1     
   53   17   52 1     
   54   22   53 1     
   55   22   54 1     
   56   27   55 1     
   57   27   56 1     
@<TRIPOS>SUBSTRUCTURE
      1 S1             1
@<TRIPOS>SET
LONE_PAIRS      STATIC     ATOMS    <user>   **** ""
12 45 46 47 48 49 50 51 52 53 54 55 56
DONOR_HYDROGENS      STATIC     ATOMS    <user>   **** ""
1 28
ATOM$BLUE        STATIC     ATOMS    COLORGROUP SYSTEM
12 45 46 47 48 49 50 51 52 53 54 55 56
ATOM$RED        STATIC     ATOMS    COLORGROUP SYSTEM
1 28
