AV-unprocessed.smi:72|AV-procd|sdf|713|dock1
  -GOLD-   2262017 33D 1   1.00000     0.00000
 Structure written by MMmdl.
 28 29  0  0  0  0  0  0  0  0  2 V2000
  153.7936  138.1054  154.9078 N   0  0  0  0  0  0  0  0  0  0  0  0
  152.6474  138.6249  154.9803 C   0  0  0  0  0  0  0  0  0  0  0  0
  151.5537  138.0827  154.2051 N   0  0  0  0  0  0  0  0  0  0  0  0
  150.4008  138.6723  154.2900 C   0  0  0  0  0  0  0  0  0  0  0  0
  150.1980  139.8558  155.1198 N   0  0  0  0  0  0  0  0  0  0  0  0
  148.8524  140.5584  155.2328 C   0  0  2  0  0  0  0  0  0  0  0  0
  147.8294  139.6141  155.3762 O   0  0  0  0  0  0  0  0  0  0  0  0
  147.2154  139.3712  154.1136 C   0  0  1  0  0  0  0  0  0  0  0  0
  145.8477  138.6864  154.2792 C   0  0  0  0  0  0  0  0  0  0  0  0
  145.2457  138.4957  153.0165 O   0  0  0  0  0  0  0  0  0  0  0  0
  147.1882  140.7754  153.5033 C   0  0  1  0  0  0  0  0  0  0  0  0
  146.0866  141.5150  154.0061 O   0  0  0  0  0  0  0  0  0  0  0  0
  148.5340  141.3505  153.9446 C   0  0  1  0  0  0  0  0  0  0  0  0
  148.4856  142.7514  154.1428 O   0  0  0  0  0  0  0  0  0  0  0  0
  151.2812  140.3337  155.9063 C   0  0  0  0  0  0  0  0  0  0  0  0
  151.0812  141.2999  156.6428 O   0  0  0  0  0  0  0  0  0  0  0  0
  152.4877  139.7079  155.8152 N   0  5  0  0  0  0  0  0  0  0  0  0
  148.9198  141.1652  156.1374 H   0  0  0  0  0  0  0  0  0  0  0  0
  147.8712  138.7492  153.5014 H   0  0  0  0  0  0  0  0  0  0  0  0
  147.1050  140.7422  152.4166 H   0  0  0  0  0  0  0  0  0  0  0  0
  149.2841  141.1232  153.1853 H   0  0  0  0  0  0  0  0  0  0  0  0
  154.4648  138.5757  155.4976 H   0  0  0  0  0  0  0  0  0  0  0  0
  149.5257  138.3144  153.7481 H   0  0  0  0  0  0  0  0  0  0  0  0
  145.9394  137.7334  154.8010 H   0  0  0  0  0  0  0  0  0  0  0  0
  145.1803  139.3178  154.8665 H   0  0  0  0  0  0  0  0  0  0  0  0
  144.8173  139.2993  152.7644 H   0  0  0  0  0  0  0  0  0  0  0  0
  145.3631  141.4064  153.4075 H   0  0  0  0  0  0  0  0  0  0  0  0
  148.5803  142.9205  155.0686 H   0  0  0  0  0  0  0  0  0  0  0  0
  1  2  2  0  0  0  0
  1 22  1  0  0  0  0
  2 17  1  0  0  0  0
  2  3  1  0  0  0  0
  3  4  2  0  0  0  0
  4  5  1  0  0  0  0
  4 23  1  0  0  0  0
  5  6  1  0  0  0  0
  5 15  1  0  0  0  0
  6 18  1  0  0  0  0
  6 13  1  0  0  0  0
  6  7  1  0  0  0  0
  7  8  1  0  0  0  0
  8 19  1  0  0  0  0
  8  9  1  0  0  0  0
  8 11  1  0  0  0  0
  9 10  1  0  0  0  0
  9 24  1  0  0  0  0
  9 25  1  0  0  0  0
 10 26  1  0  0  0  0
 11 20  1  0  0  0  0
 11 12  1  0  0  0  0
 11 13  1  0  0  0  0
 12 27  1  0  0  0  0
 13 21  1  0  0  0  0
 13 14  1  0  0  0  0
 14 28  1  0  0  0  0
 15 16  2  0  0  0  0
 15 17  1  0  0  0  0
M  CHG  1  17  -1
M  END
> <s_m_source_file>
AV-unprocessed.smi

> <i_m_source_file_index>
72

> <i_lp_mmshare_version>
43012

> <i_f3d_flags>
0

> <s_epik_input>
W05IMl1jMW5bY0hdbihjKD1PKW4xKVtDQEBIXTJPW0NASF0oW0NIMl1bT0hdKVtDQEBIXShbT0hdKVtDQEhdMltPSF0=

> <s_epik_cmdline>
J2VwaWtfcHl0aG9uJywgJy1waCcsICc3LjAnLCAnLXRuJywgJzgnLCAnLW1hJywgJzIwMCcsICctbWV0YWxfYmluZGluZycsICctaW1hZScsICc8aW5maWxlLm1hZT4nLCAnLW9tYWUnLCAnPG91dGZpbGUubWFlPic=

> <r_lp_tautomer_probability>
7.17554e-07

> <r_epik_Ionization_Penalty>
12.8705

> <r_epik_Ionization_Penalty_Charging>
5.64144

> <r_epik_Ionization_Penalty_Neutral>
7.22905

> <r_epik_State_Penalty>
3.30104

> <r_epik_Charging_Adjusted_Penalty>
8.94249

> <i_epik_Tot_Q>
-1

> <i_epik_Tot_abs_Q>
1

> <r_epik_Metal_State_Penalty>
0.529074

> <b_epik_Metal_Only>
1

> <s_epik_Chemistry_Notes>
This compound contains an acetal/aminal-like group ( X-CH(R)-Y where X, Y are N, S, or O) that may be acid/base labile, releasing an aldehyde.

> <s_lp_Force_Field>
OPLS_2005

> <r_lp_Energy>
36.0241

> <b_lp_Chiralities_Consistent>
1

> <s_lp_Variant>
AV-unprocessed.smi:72-51

> <Gold.Version>
5.8.1

> <Gold.Id.Protein>
6NUR|6NUR_protein|mol2

> <Gold.PLP.Fitness>
44.0334

> <Gold.PLP.PLP>
-28.9775

> <Gold.PLP.part.hbond>
-7.5466

> <Gold.PLP.part.metal>
0.0000

> <Gold.PLP.part.buried>
-1.9541

> <Gold.PLP.part.nonpolar>
-19.3359

> <Gold.PLP.part.repulsive>
0.2622

> <Gold.PLP.ligand.clash>
0.0000

> <Gold.PLP.ligand.torsion>
0.3113

> <Gold.PLP.Chemscore.Hbond>
4.8875

> <Gold.PLP.Chemscore.CHOScore>
0.3310

> <Gold.PLP.Chemscore.Metal>
0.0000

> <Gold.Chemscore.Hbonds>
donor molecule, donor type, donor heavy atom, donor atom, acceptor molecule, acceptor atom, score
      L1  H    10    26       P1 10175  1.00
      L1  H    12    27       P1 10175  0.68
      L1  H    14    28       P1  8028  0.35
      P1  H  7997  8010       L1    17  2.00
      P1  H  8022  8030       L1    14  0.61
      L1  C     4    23       P1  7948  0.24

> <Gold.PLP.Chemscore.Internal.Correction>
0.0229

> <Gold.Rescore>
     Score         DG    S(hbond)    S(metal)    S(lipo)     H(rot)  DE(clash)    DE(int)     intcor
      6.61      -6.85       2.82        0.00      19.52       4.04       0.08       0.16       ----

> <Gold.Chemscore.Fitness>
6.6144

> <Gold.Chemscore.DG>
-6.8526

> <Gold.Chemscore.ZeroCoef>
-5.4800

> <Gold.Chemscore.Hbond>
2.8241

> <Gold.Chemscore.Metal>
0.0000

> <Gold.Chemscore.Lipo>
19.5161

> <Gold.Chemscore.Internal_Hbond>
0.0000

> <Gold.Chemscore.DEClash>
0.0766

> <Gold.Chemscore.DEInternal>
0.1616

> <Gold.Chemscore.Rot>
4.0403

> <Gold.Chemscore.Internal.Correction>
   9.000000E+99

> <Gold.Chemscore.Hbonds>
donor molecule, donor type, donor heavy atom, donor atom, acceptor molecule, acceptor atom, score
      L1  H    10    26       P1 10175  1.00
      L1  H    12    27       P1 10175  0.11
      L1  H    14    28       P1  8028  0.36
      P1  H  7997  8010       L1    17  0.43
      P1  H  8022  8030       L1    14  0.06

> <Gold.Chemscore.Hbond.Weighted>
-9.4323

> <Gold.Chemscore.Metal.Weighted>
-0.0000

> <Gold.Chemscore.Lipo.Weighted>
-2.2834

> <Gold.Chemscore.Internal_Hbond.Weighted>
0.0000

> <Gold.Chemscore.DEClash.Weighted>
0.0766

> <Gold.Chemscore.DEInternal.Weighted>
0.1616

> <Gold.Chemscore.Rot.Weighted>
10.3431

> <Gold.Chemscore.Internal.Correction.Weighted>
   9.000000E+99

> <Gold.Protein.RotatedTorsions>
[ 6907 6896 6895 6894 ] final   97.93 input  -60.11 | X-H torsion
[ 7974 7965 7964 7962 ] final   51.90 input  175.53 | X-H torsion
[ 8008 7997 7996 7995 ] final   70.07 input   59.86 | X-H torsion
[ 10167 10162 10161 10158 ] final  -40.57 input  -65.29 | X-H torsion
[ 10718 10713 10712 10709 ] final -101.91 input   66.30 | X-H torsion
[ 10763 10752 10751 10750 ] final -101.34 input  -60.55 | X-H torsion
[ 11005 11000 10999 10996 ] final -158.34 input  -57.11 | X-H torsion

> <Gold.Protein.ActiveResidues>
 VAL166  LYS551  ARG553  GLY616  TRP617  ASP618  TYR619  PRO620  LYS621  CYS622 
 ASP623  PHE694  ASN695  SER759  ASP760  ASP761  ALA762  ILE779  LEU786  VAL792 
 PHE793  MET794  SER795  GLU796  ALA797  LYS798  CYS799  TRP800  GLU811  SER814 

> <Gold.Protein.RotatedAtoms>
  152.5416  134.0658  159.8171 H   0  0  0  0  0  0  0  0  0  0  0  0  # atno 6907 bound_to 6896
  151.0779  133.5406  159.2630 H   0  0  0  0  0  0  0  0  0  0  0  0  # atno 6908 bound_to 6896
  151.2244  135.0539  159.9016 H   0  0  0  0  0  0  0  0  0  0  0  0  # atno 6909 bound_to 6896
  145.9868  139.4297  143.0098 H   0  0  0  0  0  0  0  0  0  0  0  0  # atno 7974 bound_to 7965
  155.7333  140.3491  155.5069 H   0  0  0  0  0  0  0  0  0  0  0  0  # atno 8008 bound_to 7997
  155.9162  140.1059  157.1263 H   0  0  0  0  0  0  0  0  0  0  0  0  # atno 8009 bound_to 7997
  154.4063  140.1258  156.4608 H   0  0  0  0  0  0  0  0  0  0  0  0  # atno 8010 bound_to 7997
  140.7030  143.3145  151.2943 H   0  0  0  0  0  0  0  0  0  0  0  0  # atno 10167 bound_to 10162
  156.0210  130.5395  150.7032 H   0  0  0  0  0  0  0  0  0  0  0  0  # atno 10718 bound_to 10713
  154.7650  135.4901  153.9536 H   0  0  0  0  0  0  0  0  0  0  0  0  # atno 10763 bound_to 10752
  153.1296  135.6750  153.9207 H   0  0  0  0  0  0  0  0  0  0  0  0  # atno 10764 bound_to 10752
  153.8914  135.3120  155.3426 H   0  0  0  0  0  0  0  0  0  0  0  0  # atno 10765 bound_to 10752
  140.6547  134.4413  157.5235 H   0  0  0  0  0  0  0  0  0  0  0  0  # atno 11005 bound_to 11000
  145.7689  140.9904  143.1160 LP  0  0  0  0  0  0  0  0  0  0  0  0  # atno 17320 bound_to 7965
  144.6877  139.9423  143.7475 LP  0  0  0  0  0  0  0  0  0  0  0  0  # atno 17321 bound_to 7965
  139.6579  144.0242  152.2672 LP  0  0  0  0  0  0  0  0  0  0  0  0  # atno 17342 bound_to 10162
  139.9800  144.6435  150.7910 LP  0  0  0  0  0  0  0  0  0  0  0  0  # atno 17343 bound_to 10162
  157.4687  131.0891  151.0666 LP  0  0  0  0  0  0  0  0  0  0  0  0  # atno 17370 bound_to 10713
  157.1132  130.6030  149.5487 LP  0  0  0  0  0  0  0  0  0  0  0  0  # atno 17371 bound_to 10713
  139.9033  134.8505  156.1805 LP  0  0  0  0  0  0  0  0  0  0  0  0  # atno 17394 bound_to 11000
  141.0510  133.6889  156.1772 LP  0  0  0  0  0  0  0  0  0  0  0  0  # atno 17395 bound_to 11000

$$$$
