AV-unprocessed.smi:438|AV-procd|sdf|2576|dock6
  -GOLD-   2262022553D 1   1.00000     0.00000
 Structure written by MMmdl.
 48 49  0  0  0  0  0  0  0  0  1 V2000
  142.1626  135.6764  153.5261 C   0  0  0  0  0  0  0  0  0  0  0  0
  143.5342  135.3189  154.0680 C   0  0  0  0  0  0  0  0  0  0  0  0
  143.6474  135.2964  155.4142 N   0  0  0  0  0  0  0  0  0  0  0  0
  144.8468  134.9908  155.9076 C   0  0  0  0  0  0  0  0  0  0  0  0
  144.9648  134.9918  157.6863 S   0  0  0  0  0  0  0  0  0  0  0  0
  146.3096  136.1915  157.9866 C   0  0  0  0  0  0  0  0  0  0  0  0
  146.6083  136.5114  159.4573 C   0  0  0  0  0  0  0  0  0  0  0  0
  147.4137  137.4011  159.7281 O   0  0  0  0  0  0  0  0  0  0  0  0
  145.9741  135.7894  160.3948 N   0  0  0  0  0  0  0  0  0  0  0  0
  146.1245  135.9243  161.8434 C   0  0  1  0  0  0  0  0  0  0  0  0
  144.9443  136.7026  162.4690 C   0  0  0  0  0  0  0  0  0  0  0  0
  143.6307  135.9062  162.4166 C   0  0  0  0  0  0  0  0  0  0  0  0
  143.7887  134.5257  163.0705 C   0  0  0  0  0  0  0  0  0  0  0  0
  144.9515  133.7387  162.4455 C   0  0  0  0  0  0  0  0  0  0  0  0
  146.2741  134.5325  162.5070 C   0  0  1  0  0  0  0  0  0  0  0  0
  147.4467  133.7192  161.9322 C   0  0  0  0  0  0  0  0  0  0  0  0
  145.9506  134.6920  155.2207 N   0  0  0  0  0  0  0  0  0  0  0  0
  145.8552  134.7117  153.8746 C   0  0  0  0  0  0  0  0  0  0  0  0
  146.9726  134.4109  153.1516 O   0  0  0  0  0  0  0  0  0  0  0  0
  144.6378  135.0324  153.2237 C   0  0  0  0  0  0  0  0  0  0  0  0
  144.5321  135.0607  151.7048 C   0  0  0  0  0  0  0  0  0  0  0  0
  145.5367  136.0343  151.0748 C   0  0  0  0  0  0  0  0  0  0  0  0
  145.1017  136.3987  149.7834 O   0  0  0  0  0  0  0  0  0  0  0  0
  141.8224  134.9231  152.8157 H   0  0  0  0  0  0  0  0  0  0  0  0
  142.1954  136.6408  153.0195 H   0  0  0  0  0  0  0  0  0  0  0  0
  141.4229  135.7414  154.3250 H   0  0  0  0  0  0  0  0  0  0  0  0
  147.2192  135.7911  157.5390 H   0  0  0  0  0  0  0  0  0  0  0  0
  146.0892  137.1174  157.4546 H   0  0  0  0  0  0  0  0  0  0  0  0
  145.3317  135.0778  160.0771 H   0  0  0  0  0  0  0  0  0  0  0  0
  147.0412  136.4876  162.0282 H   0  0  0  0  0  0  0  0  0  0  0  0
  145.1797  136.9286  163.5097 H   0  0  0  0  0  0  0  0  0  0  0  0
  144.8124  137.6673  161.9781 H   0  0  0  0  0  0  0  0  0  0  0  0
  142.8360  136.4639  162.9123 H   0  0  0  0  0  0  0  0  0  0  0  0
  143.3202  135.7881  161.3799 H   0  0  0  0  0  0  0  0  0  0  0  0
  143.9644  134.6473  164.1400 H   0  0  0  0  0  0  0  0  0  0  0  0
  142.8620  133.9600  162.9724 H   0  0  0  0  0  0  0  0  0  0  0  0
  145.0646  132.7869  162.9659 H   0  0  0  0  0  0  0  0  0  0  0  0
  144.7102  133.4931  161.4104 H   0  0  0  0  0  0  0  0  0  0  0  0
  146.4990  134.7027  163.5611 H   0  0  0  0  0  0  0  0  0  0  0  0
  147.2809  133.4507  160.8885 H   0  0  0  0  0  0  0  0  0  0  0  0
  147.5884  132.7931  162.4897 H   0  0  0  0  0  0  0  0  0  0  0  0
  148.3788  134.2821  161.9884 H   0  0  0  0  0  0  0  0  0  0  0  0
  147.4607  135.1798  152.9006 H   0  0  0  0  0  0  0  0  0  0  0  0
  144.6776  134.0586  151.3012 H   0  0  0  0  0  0  0  0  0  0  0  0
  143.5165  135.3403  151.4216 H   0  0  0  0  0  0  0  0  0  0  0  0
  145.6360  136.9341  151.6828 H   0  0  0  0  0  0  0  0  0  0  0  0
  146.5246  135.5789  151.0010 H   0  0  0  0  0  0  0  0  0  0  0  0
  145.4073  135.7490  149.1689 H   0  0  0  0  0  0  0  0  0  0  0  0
  1  2  1  0  0  0  0
  1 24  1  0  0  0  0
  1 25  1  0  0  0  0
  1 26  1  0  0  0  0
  2 20  1  0  0  0  0
  2  3  2  0  0  0  0
  3  4  1  0  0  0  0
  4  5  1  0  0  0  0
  4 17  2  0  0  0  0
  5  6  1  0  0  0  0
  6  7  1  0  0  0  0
  6 27  1  0  0  0  0
  6 28  1  0  0  0  0
  7  8  2  0  0  0  0
  7  9  1  0  0  0  0
  9 10  1  0  0  0  0
  9 29  1  0  0  0  0
 10 15  1  0  0  0  0
 10 11  1  0  0  0  0
 10 30  1  0  0  0  0
 11 12  1  0  0  0  0
 11 31  1  0  0  0  0
 11 32  1  0  0  0  0
 12 13  1  0  0  0  0
 12 33  1  0  0  0  0
 12 34  1  0  0  0  0
 13 14  1  0  0  0  0
 13 35  1  0  0  0  0
 13 36  1  0  0  0  0
 14 15  1  0  0  0  0
 14 37  1  0  0  0  0
 14 38  1  0  0  0  0
 15 16  1  0  0  0  0
 15 39  1  0  0  0  0
 16 40  1  0  0  0  0
 16 41  1  0  0  0  0
 16 42  1  0  0  0  0
 17 18  1  0  0  0  0
 18 19  1  0  0  0  0
 18 20  2  0  0  0  0
 19 43  1  0  0  0  0
 20 21  1  0  0  0  0
 21 22  1  0  0  0  0
 21 44  1  0  0  0  0
 21 45  1  0  0  0  0
 22 23  1  0  0  0  0
 22 46  1  0  0  0  0
 22 47  1  0  0  0  0
 23 48  1  0  0  0  0
M  END
> <s_m_source_file>
AV-unprocessed.smi

> <i_m_source_file_index>
438

> <i_lp_mmshare_version>
43012

> <i_f3d_flags>
0

> <s_epik_input>
W09IXVtDSDJdW0NIMl1jMWMoW09IXSluYyhuYzFbQ0gzXSlTW0NIMl1DKD1PKVtOSF1bQ0BASF0yW0NIMl1bQ0gyXVtDSDJdW0NIMl1bQ0BIXTJbQ0gzXQ==

> <s_epik_cmdline>
J2VwaWtfcHl0aG9uJywgJy1waCcsICc3LjAnLCAnLXRuJywgJzgnLCAnLW1hJywgJzIwMCcsICctbWV0YWxfYmluZGluZycsICctaW1hZScsICc8aW5maWxlLm1hZT4nLCAnLW9tYWUnLCAnPG91dGZpbGUubWFlPic=

> <r_lp_tautomer_probability>
0.0660145

> <r_epik_Ionization_Penalty>
2.91405

> <r_epik_Ionization_Penalty_Charging>
0

> <r_epik_Ionization_Penalty_Neutral>
2.91405

> <r_epik_State_Penalty>
2.44767

> <r_epik_Charging_Adjusted_Penalty>
2.44767

> <i_epik_Tot_Q>
0

> <i_epik_Tot_abs_Q>
0

> <r_epik_Metal_State_Penalty>
3.04288

> <b_epik_Metal_Only>
0

> <s_lp_Force_Field>
OPLS_2005

> <r_lp_Energy>
-3.37475

> <b_lp_Chiralities_Consistent>
1

> <s_lp_Variant>
AV-unprocessed.smi:438-14

> <Gold.Version>
5.8.1

> <Gold.Id.Protein>
6NUR|6NUR_protein|mol2

> <Gold.PLP.Fitness>
42.9058

> <Gold.PLP.PLP>
-35.0746

> <Gold.PLP.part.hbond>
-4.0000

> <Gold.PLP.part.metal>
0.0000

> <Gold.PLP.part.buried>
-6.8563

> <Gold.PLP.part.nonpolar>
-24.1301

> <Gold.PLP.part.repulsive>
0.1403

> <Gold.PLP.ligand.clash>
0.0000

> <Gold.PLP.ligand.torsion>
0.3872

> <Gold.PLP.Chemscore.Hbond>
2.8400

> <Gold.PLP.Chemscore.CHOScore>
0.0000

> <Gold.PLP.Chemscore.Metal>
0.0000

> <Gold.Chemscore.Hbonds>
donor molecule, donor type, donor heavy atom, donor atom, acceptor molecule, acceptor atom, score
      L1  H    19    43       P1  7948  0.88
      L1  H    23    48       P1  7921  1.00
      P1  H  6934  6947       L1     8  0.86

> <Gold.PLP.Chemscore.Internal.Correction>
0.0855

> <Gold.Rescore>
     Score         DG    S(hbond)    S(metal)    S(lipo)     H(rot)  DE(clash)    DE(int)     intcor
     13.77     -14.74       2.82        0.00      73.73       3.44       0.00       0.97       ----

> <Gold.Chemscore.Fitness>
13.7699

> <Gold.Chemscore.DG>
-14.7387

> <Gold.Chemscore.ZeroCoef>
-5.4800

> <Gold.Chemscore.Hbond>
2.8228

> <Gold.Chemscore.Metal>
0.0000

> <Gold.Chemscore.Lipo>
73.7307

> <Gold.Chemscore.Internal_Hbond>
0.0000

> <Gold.Chemscore.DEClash>
0.0000

> <Gold.Chemscore.DEInternal>
0.9688

> <Gold.Chemscore.Rot>
3.4359

> <Gold.Chemscore.Internal.Correction>
   9.000000E+99

> <Gold.Chemscore.Hbonds>
donor molecule, donor type, donor heavy atom, donor atom, acceptor molecule, acceptor atom, score
      L1  H    19    43       P1  7948  0.83
      L1  H    23    48       P1  7921  0.99
      P1  H  6934  6947       L1     8  0.80

> <Gold.Chemscore.Hbond.Weighted>
-9.4283

> <Gold.Chemscore.Metal.Weighted>
-0.0000

> <Gold.Chemscore.Lipo.Weighted>
-8.6265

> <Gold.Chemscore.Internal_Hbond.Weighted>
0.0000

> <Gold.Chemscore.DEClash.Weighted>
0.0000

> <Gold.Chemscore.DEInternal.Weighted>
0.9688

> <Gold.Chemscore.Rot.Weighted>
8.7960

> <Gold.Chemscore.Internal.Correction.Weighted>
   9.000000E+99

> <Gold.Protein.RotatedTorsions>
[ 6907 6896 6895 6894 ] final   17.02 input  -60.11 | X-H torsion
[ 7974 7965 7964 7962 ] final  114.44 input  175.53 | X-H torsion
[ 8008 7997 7996 7995 ] final  156.16 input   59.86 | X-H torsion
[ 10167 10162 10161 10158 ] final  -11.61 input  -65.29 | X-H torsion
[ 10718 10713 10712 10709 ] final  -72.04 input   66.30 | X-H torsion
[ 10763 10752 10751 10750 ] final -156.67 input  -60.55 | X-H torsion
[ 11005 11000 10999 10996 ] final   12.98 input  -57.11 | X-H torsion

> <Gold.Protein.ActiveResidues>
 VAL166  LYS551  ARG553  GLY616  TRP617  ASP618  TYR619  PRO620  LYS621  CYS622 
 ASP623  PHE694  ASN695  SER759  ASP760  ASP761  ALA762  ILE779  LEU786  VAL792 
 PHE793  MET794  SER795  GLU796  ALA797  LYS798  CYS799  TRP800  GLU811  SER814 

> <Gold.Protein.RotatedAtoms>
  151.8430  135.0583  160.0450 H   0  0  0  0  0  0  0  0  0  0  0  0  # atno 6907 bound_to 6896
  152.2794  133.5452  159.5497 H   0  0  0  0  0  0  0  0  0  0  0  0  # atno 6908 bound_to 6896
  150.7183  134.0501  159.3837 H   0  0  0  0  0  0  0  0  0  0  0  0  # atno 6909 bound_to 6896
  145.2044  139.2936  143.4301 H   0  0  0  0  0  0  0  0  0  0  0  0  # atno 7974 bound_to 7965
  156.2438  140.1920  156.6913 H   0  0  0  0  0  0  0  0  0  0  0  0  # atno 8008 bound_to 7997
  154.6249  140.0603  156.9687 H   0  0  0  0  0  0  0  0  0  0  0  0  # atno 8009 bound_to 7997
  155.1802  140.3276  155.4379 H   0  0  0  0  0  0  0  0  0  0  0  0  # atno 8010 bound_to 7997
  140.7142  143.5621  150.9184 H   0  0  0  0  0  0  0  0  0  0  0  0  # atno 10167 bound_to 10162
  156.0337  130.4364  150.2533 H   0  0  0  0  0  0  0  0  0  0  0  0  # atno 10718 bound_to 10713
  154.7695  135.3141  154.8218 H   0  0  0  0  0  0  0  0  0  0  0  0  # atno 10763 bound_to 10752
  153.8958  135.6821  153.4762 H   0  0  0  0  0  0  0  0  0  0  0  0  # atno 10764 bound_to 10752
  153.1306  135.4782  154.9277 H   0  0  0  0  0  0  0  0  0  0  0  0  # atno 10765 bound_to 10752
  140.4859  134.0889  155.7760 H   0  0  0  0  0  0  0  0  0  0  0  0  # atno 11005 bound_to 11000
  146.3411  140.2299  142.8593 LP  0  0  0  0  0  0  0  0  0  0  0  0  # atno 17320 bound_to 7965
  144.9917  140.8552  143.5335 LP  0  0  0  0  0  0  0  0  0  0  0  0  # atno 17321 bound_to 7965
  139.9346  143.6452  152.3068 LP  0  0  0  0  0  0  0  0  0  0  0  0  # atno 17342 bound_to 10162
  139.6916  144.7646  151.1429 LP  0  0  0  0  0  0  0  0  0  0  0  0  # atno 17343 bound_to 10162
  157.0634  131.0096  151.3215 LP  0  0  0  0  0  0  0  0  0  0  0  0  # atno 17370 bound_to 10713
  157.5053  130.7905  149.7648 LP  0  0  0  0  0  0  0  0  0  0  0  0  # atno 17371 bound_to 10713
  141.1508  133.8972  157.2102 LP  0  0  0  0  0  0  0  0  0  0  0  0  # atno 17394 bound_to 11000
  139.9798  135.0102  156.9722 LP  0  0  0  0  0  0  0  0  0  0  0  0  # atno 17395 bound_to 11000

$$$$
