#       Name:                AV-unprocessed.smi:290
#       Creating user name   scv26
#       Creation time:       Thu Mar 26 22:08:28 2020


#       File generated by GOLD software.
#

@<TRIPOS>MOLECULE
AV-unprocessed.smi:290
    69    72     1
SMALL
NO_CHARGES


@<TRIPOS>ATOM
      1 ****        -2.5982  -2.2228   3.4779 C.3            1 S1                 0.0000
      2 ****        -3.4780  -3.1889   2.6679 C.3            1 S1                 0.0000
      3 ****        -4.4485  -3.7984   3.5077 O.3            1 S1                 0.0000
      4 ****        -5.4603  -4.3203   2.6658 C.3            1 S1                 0.0000
      5 ****        -5.6785  -3.1897   1.6686 C.3            1 S1                 0.0000
      6 ****        -4.2831  -2.5860   1.4852 C.3            1 S1                 0.0000
      7 ****        -4.3954  -1.1761   1.5881 O.3            1 S1                 0.0000
      8 ****        -3.6801  -2.9300   0.1003 C.3            1 S1                 0.0000
      9 ****        -2.3372  -2.4056  -0.0957 N.pl3          1 S1                 0.0000
     10 ****        -1.1504  -3.0519   0.1666 C.2            1 S1                 0.0000
     11 ****        -0.0730  -2.3608  -0.0860 N.2            1 S1                 0.0000
     12 ****        -0.5506  -1.1473  -0.5679 C.ar           1 S1                 0.0000
     13 ****         0.0678   0.0513  -1.0276 C.ar           1 S1                 0.0000
     14 ****         1.4159   0.2274  -1.0484 N.3            1 S1                 0.0000
     15 ****         2.1519  -0.1600   0.1532 C.3            1 S1                 0.0000
     16 ****         3.2848   0.8581   0.3197 C.3            1 S1                 0.0000
     17 ****         3.4585   1.4106  -1.0990 C.3            1 S1                 0.0000
     18 ****         4.1669   2.7181  -1.2063 N.4            1 S1                 1.0000
     19 ****         5.6368   2.5643  -1.0959 C.3            1 S1                 0.0000
     20 ****         3.6394   3.8109  -0.3441 C.3            1 S1                 0.0000
     21 ****         3.7773   5.1842  -1.0198 C.3            1 S1                 0.0000
     22 ****         2.9080   5.2651  -2.1298 O.3            1 S1                 0.0000
     23 ****         2.0243   1.4156  -1.6465 C.3            1 S1                 0.0000
     24 ****         1.9701   1.3988  -3.1848 C.3            1 S1                 0.0000
     25 ****        -0.7521   1.0489  -1.4538 N.ar           1 S1                 0.0000
     26 ****        -2.0789   0.8943  -1.4288 C.ar           1 S1                 0.0000
     27 ****        -2.7878  -0.1591  -1.0208 N.ar           1 S1                 0.0000
     28 ****        -1.9741  -1.1664  -0.5934 C.ar           1 S1                 0.0000
     29 ****         4.0203   0.6717  -1.6746 H              1 S1                 0.0000
     30 ****         1.4869   2.2906  -1.2829 H              1 S1                 0.0000
     31 ****        -1.8614  -1.7335   2.8406 H              1 S1                 0.0000
     32 ****        -2.0570  -2.7565   4.2592 H              1 S1                 0.0000
     33 ****        -3.1940  -1.4489   3.9623 H              1 S1                 0.0000
     34 ****        -2.8506  -4.0019   2.3002 H              1 S1                 0.0000
     35 ****        -5.0994  -5.2212   2.1668 H              1 S1                 0.0000
     36 ****        -6.3623  -4.5706   3.2245 H              1 S1                 0.0000
     37 ****        -6.1298  -3.5376   0.7386 H              1 S1                 0.0000
     38 ****        -6.3635  -2.4636   2.1103 H              1 S1                 0.0000
     39 ****        -4.9081  -0.8605   0.8599 H              1 S1                 0.0000
     40 ****        -3.6461  -4.0118  -0.0368 H              1 S1                 0.0000
     41 ****        -4.3170  -2.5439  -0.6967 H              1 S1                 0.0000
     42 ****        -1.1068  -4.0568   0.5606 H              1 S1                 0.0000
     43 ****         1.5183  -0.1866   1.0413 H              1 S1                 0.0000
     44 ****         2.5598  -1.1597   0.0011 H              1 S1                 0.0000
     45 ****         2.9620   1.6304   1.0175 H              1 S1                 0.0000
     46 ****         4.1955   0.4095   0.7172 H              1 S1                 0.0000
     47 ****         5.9198   2.2060  -0.1054 H              1 S1                 0.0000
     48 ****         6.1484   3.5100  -1.2726 H              1 S1                 0.0000
     49 ****         6.0081   1.8526  -1.8337 H              1 S1                 0.0000
     50 ****         2.5899   3.6592  -0.0959 H              1 S1                 0.0000
     51 ****         4.1707   3.8077   0.6088 H              1 S1                 0.0000
     52 ****         3.5103   5.9745  -0.3177 H              1 S1                 0.0000
     53 ****         4.8004   5.3776  -1.3413 H              1 S1                 0.0000
     54 ****         2.0151   5.2290  -1.8203 H              1 S1                 0.0000
     55 ****         2.4639   2.2772  -3.6007 H              1 S1                 0.0000
     56 ****         0.9449   1.3986  -3.5541 H              1 S1                 0.0000
     57 ****         2.4662   0.5161  -3.5896 H              1 S1                 0.0000
     58 ****        -2.6551   1.7356  -1.7851 H              1 S1                 0.0000
     59 ****         3.9961   3.0227  -2.1545 H              1 S1                 0.0000
     60 ****        -4.8373  -3.1198   4.1309 LP             1 S1                 0.0000
     61 ****        -4.0291  -4.5357   4.0373 LP             1 S1                 0.0000
     62 ****        -3.4851  -0.7630   1.5633 LP             1 S1                 0.0000
     63 ****        -4.8472  -0.9360   2.4473 LP             1 S1                 0.0000
     64 ****         0.8790  -2.6402   0.0386 LP             1 S1                 0.0000
     65 ****         1.5352  -0.4655  -1.7595 LP             1 S1                 0.0000
     66 ****         3.0806   4.4987  -2.7486 LP             1 S1                 0.0000
     67 ****         3.0612   6.1261  -2.6148 LP             1 S1                 0.0000
     68 ****        -0.3588   1.9052  -1.7886 LP             1 S1                 0.0000
     69 ****        -3.7868  -0.2044  -1.0274 LP             1 S1                 0.0000
@<TRIPOS>BOND
    1    1    2 1     
    2    1   31 1     
    3    1   32 1     
    4    1   33 1     
    5    2    6 1     
    6    2    3 1     
    7    2   34 1     
    8    3    4 1     
    9    4    5 1     
   10    4   35 1     
   11    4   36 1     
   12    5    6 1     
   13    5   37 1     
   14    5   38 1     
   15    6    7 1     
   16    6    8 1     
   17    7   39 1     
   18    8    9 1     
   19    8   40 1     
   20    8   41 1     
   21    9   28 1     
   22    9   10 1     
   23   10   11 2     
   24   10   42 1     
   25   11   12 1     
   26   12   28 ar    
   27   12   13 ar    
   28   13   14 1     
   29   13   25 ar    
   30   14   23 1     
   31   14   15 1     
   32   15   16 1     
   33   15   43 1     
   34   15   44 1     
   35   16   17 1     
   36   16   45 1     
   37   16   46 1     
   38   17   29 1     
   39   17   18 1     
   40   17   23 1     
   41   18   19 1     
   42   18   20 1     
   43   18   59 1     
   44   19   47 1     
   45   19   48 1     
   46   19   49 1     
   47   20   21 1     
   48   20   50 1     
   49   20   51 1     
   50   21   22 1     
   51   21   52 1     
   52   21   53 1     
   53   22   54 1     
   54   23   30 1     
   55   23   24 1     
   56   24   55 1     
   57   24   56 1     
   58   24   57 1     
   59   25   26 ar    
   60   26   27 ar    
   61   26   58 1     
   62   27   28 ar    
   63    3   60 1     
   64    3   61 1     
   65    7   62 1     
   66    7   63 1     
   67   11   64 1     
   68   14   65 1     
   69   22   66 1     
   70   22   67 1     
   71   25   68 1     
   72   27   69 1     
@<TRIPOS>SUBSTRUCTURE
      1 S1             1
@<TRIPOS>SET
LONE_PAIRS      STATIC     ATOMS    <user>   **** ""
10 60 61 62 63 64 65 66 67 68 69
DONOR_HYDROGENS      STATIC     ATOMS    <user>   **** ""
3 39 59 54
ATOM$BLUE        STATIC     ATOMS    COLORGROUP SYSTEM
10 60 61 62 63 64 65 66 67 68 69
ATOM$RED        STATIC     ATOMS    COLORGROUP SYSTEM
3 39 59 54
