#       Name:                AV-unprocessed.smi:977
#       Creating user name   scv26
#       Creation time:       Fri Mar 27 02:21:29 2020


#       File generated by GOLD software.
#

@<TRIPOS>MOLECULE
AV-unprocessed.smi:977
    44    45     1
SMALL
NO_CHARGES


@<TRIPOS>ATOM
      1 ****        -3.1446  -1.7051   0.0895 C.3            1 S1                 0.0000
      2 ****        -3.5524  -0.3744   0.6584 C.2            1 S1                 0.0000
      3 ****        -4.8175  -0.1823   1.0023 N.2            1 S1                 0.0000
      4 ****        -4.8938   1.1034   1.5598 O.3            1 S1                 0.0000
      5 ****        -3.6573   1.6659   1.5386 C.2            1 S1                 0.0000
      6 ****        -3.5259   3.0375   2.1090 C.3            1 S1                 0.0000
      7 ****        -2.7873   0.7915   0.9574 C.2            1 S1                 0.0000
      8 ****        -1.3999   1.0270   0.7895 N.am           1 S1                 0.0000
      9 ****        -0.6343   0.6240  -0.2354 C.2            1 S1                 0.0000
     10 ****        -1.0463   0.0188  -1.2244 O.2            1 S1                 0.0000
     11 ****         0.6458   0.9806  -0.0571 N.am           1 S1                 0.0000
     12 ****         1.7471   0.7080  -0.9795 C.3            1 S1                 0.0000
     13 ****         2.6177   1.9680  -1.0915 C.3            1 S1                 0.0000
     14 ****         2.5638  -0.5126  -0.5046 C.3            1 S1                 0.0000
     15 ****         1.7744  -1.8179  -0.3845 C.3            1 S1                 0.0000
     16 ****         2.8755  -2.8489  -0.4714 C.3            1 S1                 0.0000
     17 ****         3.8099  -2.2263  -1.5053 C.3            1 S1                 0.0000
     18 ****         3.5987  -0.8176  -1.4362 O.3            1 S1                 0.0000
     19 ****        -2.1335  -1.9728   0.3965 H              1 S1                 0.0000
     20 ****        -3.1733  -1.6906  -1.0000 H              1 S1                 0.0000
     21 ****        -3.8073  -2.5031   0.4257 H              1 S1                 0.0000
     22 ****        -2.4784   3.3110   2.2356 H              1 S1                 0.0000
     23 ****        -4.0100   3.0990   3.0838 H              1 S1                 0.0000
     24 ****        -3.9906   3.7735   1.4529 H              1 S1                 0.0000
     25 ****        -0.9655   1.6273   1.4750 H              1 S1                 0.0000
     26 ****         0.8818   1.4796   0.7881 H              1 S1                 0.0000
     27 ****         1.3506   0.4942  -1.9738 H              1 S1                 0.0000
     28 ****         3.4309   1.8237  -1.8032 H              1 S1                 0.0000
     29 ****         3.0605   2.2326  -0.1306 H              1 S1                 0.0000
     30 ****         2.0316   2.8211  -1.4350 H              1 S1                 0.0000
     31 ****         3.0360  -0.2964   0.4556 H              1 S1                 0.0000
     32 ****         1.1982  -1.8865   0.5387 H              1 S1                 0.0000
     33 ****         1.0898  -1.9329  -1.2262 H              1 S1                 0.0000
     34 ****         3.3821  -2.9346   0.4909 H              1 S1                 0.0000
     35 ****         2.5178  -3.8377  -0.7594 H              1 S1                 0.0000
     36 ****         4.8541  -2.4805  -1.3210 H              1 S1                 0.0000
     37 ****         3.5513  -2.5648  -2.5093 H              1 S1                 0.0000
     38 ****        -5.5720  -0.8285   0.8870 LP             1 S1                 0.0000
     39 ****        -5.2183   1.0413   2.5037 LP             1 S1                 0.0000
     40 ****        -5.5268   1.6638   1.0259 LP             1 S1                 0.0000
     41 ****        -2.0173  -0.2064  -1.3042 LP             1 S1                 0.0000
     42 ****        -0.4101  -0.2480  -1.9483 LP             1 S1                 0.0000
     43 ****         4.4452  -0.3719  -1.1451 LP             1 S1                 0.0000
     44 ****         3.3377  -0.4794  -2.3403 LP             1 S1                 0.0000
@<TRIPOS>BOND
    1    1    2 1     
    2    1   19 1     
    3    1   20 1     
    4    1   21 1     
    5    2    7 1     
    6    2    3 2     
    7    3    4 1     
    8    4    5 1     
    9    5    6 1     
   10    5    7 2     
   11    6   22 1     
   12    6   23 1     
   13    6   24 1     
   14    7    8 1     
   15    8    9 am    
   16    8   25 1     
   17    9   10 2     
   18    9   11 am    
   19   11   12 1     
   20   11   26 1     
   21   12   13 1     
   22   12   14 1     
   23   12   27 1     
   24   13   28 1     
   25   13   29 1     
   26   13   30 1     
   27   14   18 1     
   28   14   15 1     
   29   14   31 1     
   30   15   16 1     
   31   15   32 1     
   32   15   33 1     
   33   16   17 1     
   34   16   34 1     
   35   16   35 1     
   36   17   18 1     
   37   17   36 1     
   38   17   37 1     
   39    3   38 1     
   40    4   39 1     
   41    4   40 1     
   42   10   41 1     
   43   10   42 1     
   44   18   43 1     
   45   18   44 1     
@<TRIPOS>SUBSTRUCTURE
      1 S1             1
@<TRIPOS>SET
LONE_PAIRS      STATIC     ATOMS    <user>   **** ""
7 38 39 40 41 42 43 44
DONOR_HYDROGENS      STATIC     ATOMS    <user>   **** ""
2 25 26
ATOM$BLUE        STATIC     ATOMS    COLORGROUP SYSTEM
7 38 39 40 41 42 43 44
ATOM$RED        STATIC     ATOMS    COLORGROUP SYSTEM
2 25 26
