AV-unprocessed.smi:3340|AV-procd|sdf|12880|dock2
  -GOLD-   2272019283D 1   1.00000     0.00000
 Structure written by MMmdl.
 42 43  0  0  0  0  0  0  0  0  2 V2000
  145.9141  130.7265  150.8727 C   0  0  0  0  0  0  0  0  0  0  0  0
  144.7072  131.6651  150.8089 C   0  0  0  0  0  0  0  0  0  0  0  0
  143.7538  131.3311  150.1051 O   0  0  0  0  0  0  0  0  0  0  0  0
  144.7250  132.8196  151.5178 N   0  0  0  0  0  0  0  0  0  0  0  0
  143.6284  133.7990  151.4704 C   0  0  0  0  0  0  0  0  0  0  0  0
  144.1573  135.1188  150.8736 C   0  0  0  0  0  0  0  0  0  0  0  0
  145.2769  135.6032  151.7037 N   0  0  0  0  0  0  0  0  0  0  0  0
  145.2656  136.6950  152.5090 C   0  0  0  0  0  0  0  0  0  0  0  0
  144.2308  137.1871  152.9596 O   0  0  0  0  0  0  0  0  0  0  0  0
  146.4854  137.1682  152.8255 N   0  0  0  0  0  0  0  0  0  0  0  0
  146.8118  138.3114  153.6836 C   0  0  1  0  0  0  0  0  0  0  0  0
  147.9243  137.9583  154.6851 C   0  0  0  0  0  0  0  0  0  0  0  0
  147.1312  139.5978  152.8873 C   0  0  0  0  0  0  0  0  0  0  0  0
  147.1223  140.8031  153.7221 N   0  0  0  0  0  0  0  0  0  0  0  0
  146.1009  141.2554  154.5174 C   0  0  0  0  0  0  0  0  0  0  0  0
  146.5455  142.4122  155.1039 C   0  0  0  0  0  0  0  0  0  0  0  0
  147.8174  142.6180  154.6402 N   0  3  0  0  0  0  0  0  0  0  0  0
  148.1652  141.6395  153.7978 C   0  0  0  0  0  0  0  0  0  0  0  0
  146.3725  134.6225  151.7332 C   0  0  0  0  0  0  0  0  0  0  0  0
  145.8499  133.3027  152.3346 C   0  0  0  0  0  0  0  0  0  0  0  0
  146.8120  131.2256  150.5077 H   0  0  0  0  0  0  0  0  0  0  0  0
  145.7485  129.8454  150.2518 H   0  0  0  0  0  0  0  0  0  0  0  0
  146.0859  130.3852  151.8938 H   0  0  0  0  0  0  0  0  0  0  0  0
  142.7763  133.4519  150.8844 H   0  0  0  0  0  0  0  0  0  0  0  0
  143.2501  133.9644  152.4804 H   0  0  0  0  0  0  0  0  0  0  0  0
  144.5146  134.9522  149.8562 H   0  0  0  0  0  0  0  0  0  0  0  0
  143.3331  135.8255  150.7811 H   0  0  0  0  0  0  0  0  0  0  0  0
  147.2741  136.6879  152.4168 H   0  0  0  0  0  0  0  0  0  0  0  0
  145.9102  138.5011  154.2670 H   0  0  0  0  0  0  0  0  0  0  0  0
  148.0762  138.7681  155.3989 H   0  0  0  0  0  0  0  0  0  0  0  0
  148.8772  137.7792  154.1865 H   0  0  0  0  0  0  0  0  0  0  0  0
  147.6720  137.0629  155.2542 H   0  0  0  0  0  0  0  0  0  0  0  0
  148.1199  139.5219  152.4322 H   0  0  0  0  0  0  0  0  0  0  0  0
  146.4285  139.7485  152.0675 H   0  0  0  0  0  0  0  0  0  0  0  0
  145.1595  140.7318  154.6059 H   0  0  0  0  0  0  0  0  0  0  0  0
  146.0648  143.0866  155.7976 H   0  0  0  0  0  0  0  0  0  0  0  0
  149.1044  141.5426  153.2827 H   0  0  0  0  0  0  0  0  0  0  0  0
  146.7344  134.4565  150.7175 H   0  0  0  0  0  0  0  0  0  0  0  0
  147.2359  134.9706  152.3015 H   0  0  0  0  0  0  0  0  0  0  0  0
  145.5039  133.4660  153.3564 H   0  0  0  0  0  0  0  0  0  0  0  0
  146.6713  132.5924  152.4131 H   0  0  0  0  0  0  0  0  0  0  0  0
  148.4106  143.3980  154.8948 H   0  0  0  0  0  0  0  0  0  0  0  0
  1  2  1  0  0  0  0
  1 21  1  0  0  0  0
  1 22  1  0  0  0  0
  1 23  1  0  0  0  0
  2  3  2  0  0  0  0
  2  4  1  0  0  0  0
  4 20  1  0  0  0  0
  4  5  1  0  0  0  0
  5  6  1  0  0  0  0
  5 24  1  0  0  0  0
  5 25  1  0  0  0  0
  6  7  1  0  0  0  0
  6 26  1  0  0  0  0
  6 27  1  0  0  0  0
  7  8  1  0  0  0  0
  7 19  1  0  0  0  0
  8  9  2  0  0  0  0
  8 10  1  0  0  0  0
 10 11  1  0  0  0  0
 10 28  1  0  0  0  0
 11 12  1  0  0  0  0
 11 13  1  0  0  0  0
 11 29  1  0  0  0  0
 12 30  1  0  0  0  0
 12 31  1  0  0  0  0
 12 32  1  0  0  0  0
 13 14  1  0  0  0  0
 13 33  1  0  0  0  0
 13 34  1  0  0  0  0
 14 18  1  0  0  0  0
 14 15  1  0  0  0  0
 15 16  2  0  0  0  0
 15 35  1  0  0  0  0
 16 17  1  0  0  0  0
 16 36  1  0  0  0  0
 17 18  2  0  0  0  0
 17 42  1  0  0  0  0
 18 37  1  0  0  0  0
 19 20  1  0  0  0  0
 19 38  1  0  0  0  0
 19 39  1  0  0  0  0
 20 40  1  0  0  0  0
 20 41  1  0  0  0  0
M  CHG  1  17   1
M  END
> <s_m_source_file>
AV-unprocessed.smi

> <i_m_source_file_index>
3340

> <i_lp_mmshare_version>
43012

> <i_f3d_flags>
0

> <s_epik_input>
W0NIM11DKD1PKU4xW0NIMl1bQ0gyXU4oW0NIMl1bQ0gyXTEpQyg9TylbTkhdW0NASF0oW0NIM10pW0NIMl1uMltjSF1bY0hdbltjSF0y

> <s_epik_cmdline>
J2VwaWtfcHl0aG9uJywgJy1waCcsICc3LjAnLCAnLXRuJywgJzgnLCAnLW1hJywgJzIwMCcsICctbWV0YWxfYmluZGluZycsICctaW1hZScsICc8aW5maWxlLm1hZT4nLCAnLW9tYWUnLCAnPG91dGZpbGUubWFlPic=

> <r_lp_tautomer_probability>
1

> <r_epik_Ionization_Penalty>
0.254791

> <r_epik_Ionization_Penalty_Charging>
0

> <r_epik_Ionization_Penalty_Neutral>
0.254791

> <r_epik_State_Penalty>
0.246235

> <r_epik_Charging_Adjusted_Penalty>
0.246235

> <i_epik_Tot_Q>
1

> <i_epik_Tot_abs_Q>
1

> <r_epik_Metal_State_Penalty>
0.536161

> <b_epik_Metal_Only>
0

> <s_lp_Force_Field>
OPLS_2005

> <r_lp_Energy>
52.654

> <b_lp_Chiralities_Consistent>
1

> <s_lp_Variant>
AV-unprocessed.smi:3340-2

> <Gold.Version>
5.8.1

> <Gold.Id.Protein>
6NUR|6NUR_protein|mol2

> <Gold.PLP.Fitness>
46.9477

> <Gold.PLP.PLP>
-31.2743

> <Gold.PLP.part.hbond>
-2.9592

> <Gold.PLP.part.metal>
0.0000

> <Gold.PLP.part.buried>
-0.4918

> <Gold.PLP.part.nonpolar>
-29.6169

> <Gold.PLP.part.repulsive>
1.5776

> <Gold.PLP.ligand.clash>
0.0000

> <Gold.PLP.ligand.torsion>
0.6196

> <Gold.PLP.Chemscore.Hbond>
3.9440

> <Gold.PLP.Chemscore.CHOScore>
1.6678

> <Gold.PLP.Chemscore.Metal>
0.0000

> <Gold.Chemscore.Hbonds>
donor molecule, donor type, donor heavy atom, donor atom, acceptor molecule, acceptor atom, score
      L1  H    10    28       P1  7948  1.00
      L1  H    17    42       P1  8028  2.00
      P1  H 10785 10796       L1     3  0.77
      L1  C    15    35       P1 10175  0.65
      L1  C    18    37       P1  7957  0.69

> <Gold.PLP.Chemscore.Internal.Correction>
0.0773

> <Gold.Rescore>
     Score         DG    S(hbond)    S(metal)    S(lipo)     H(rot)  DE(clash)    DE(int)     intcor
     15.72     -17.26       2.85        0.00      56.47       1.70       1.06       0.48       ----

> <Gold.Chemscore.Fitness>
15.7181

> <Gold.Chemscore.DG>
-17.2589

> <Gold.Chemscore.ZeroCoef>
-5.4800

> <Gold.Chemscore.Hbond>
2.8496

> <Gold.Chemscore.Metal>
0.0000

> <Gold.Chemscore.Lipo>
56.4681

> <Gold.Chemscore.Internal_Hbond>
0.0000

> <Gold.Chemscore.DEClash>
1.0563

> <Gold.Chemscore.DEInternal>
0.4844

> <Gold.Chemscore.Rot>
1.6975

> <Gold.Chemscore.Internal.Correction>
   9.000000E+99

> <Gold.Chemscore.Hbonds>
donor molecule, donor type, donor heavy atom, donor atom, acceptor molecule, acceptor atom, score
      L1  H    10    28       P1  7948  1.00
      L1  H    17    42       P1  8028  0.95
      P1  H 10785 10796       L1     3  0.76

> <Gold.Chemscore.Hbond.Weighted>
-9.5177

> <Gold.Chemscore.Metal.Weighted>
-0.0000

> <Gold.Chemscore.Lipo.Weighted>
-6.6068

> <Gold.Chemscore.Internal_Hbond.Weighted>
0.0000

> <Gold.Chemscore.DEClash.Weighted>
1.0563

> <Gold.Chemscore.DEInternal.Weighted>
0.4844

> <Gold.Chemscore.Rot.Weighted>
4.3455

> <Gold.Chemscore.Internal.Correction.Weighted>
   9.000000E+99

> <Gold.Protein.RotatedTorsions>
[ 6907 6896 6895 6894 ] final -105.52 input  -60.11 | X-H torsion
[ 7974 7965 7964 7962 ] final  168.47 input  175.53 | X-H torsion
[ 8008 7997 7996 7995 ] final  -25.72 input   59.86 | X-H torsion
[ 10167 10162 10161 10158 ] final  129.18 input  -65.29 | X-H torsion
[ 10718 10713 10712 10709 ] final  147.64 input   66.30 | X-H torsion
[ 10763 10752 10751 10750 ] final -143.34 input  -60.55 | X-H torsion
[ 11005 11000 10999 10996 ] final -102.73 input  -57.11 | X-H torsion

> <Gold.Protein.ActiveResidues>
 VAL166  LYS551  ARG553  GLY616  TRP617  ASP618  TYR619  PRO620  LYS621  CYS622 
 ASP623  PHE694  ASN695  SER759  ASP760  ASP761  ALA762  ILE779  LEU786  VAL792 
 PHE793  MET794  SER795  GLU796  ALA797  LYS798  CYS799  TRP800  GLU811  SER814 

> <Gold.Protein.RotatedAtoms>
  150.7341  134.0114  159.3670 H   0  0  0  0  0  0  0  0  0  0  0  0  # atno 6907 bound_to 6896
  151.8074  135.0689  160.0418 H   0  0  0  0  0  0  0  0  0  0  0  0  # atno 6908 bound_to 6896
  152.3097  133.5704  159.5709 H   0  0  0  0  0  0  0  0  0  0  0  0  # atno 6909 bound_to 6896
  144.7388  139.8912  143.6403 H   0  0  0  0  0  0  0  0  0  0  0  0  # atno 7974 bound_to 7965
  154.4461  140.1919  156.0664 H   0  0  0  0  0  0  0  0  0  0  0  0  # atno 8008 bound_to 7997
  156.0544  140.3304  155.7361 H   0  0  0  0  0  0  0  0  0  0  0  0  # atno 8009 bound_to 7997
  155.5508  140.0595  157.2841 H   0  0  0  0  0  0  0  0  0  0  0  0  # atno 8010 bound_to 7997
  139.5490  144.6798  151.4381 H   0  0  0  0  0  0  0  0  0  0  0  0  # atno 10167 bound_to 10162
  157.3184  131.0900  151.1260 H   0  0  0  0  0  0  0  0  0  0  0  0  # atno 10718 bound_to 10713
  154.8473  135.3470  154.6172 H   0  0  0  0  0  0  0  0  0  0  0  0  # atno 10763 bound_to 10752
  153.6781  135.6981  153.5131 H   0  0  0  0  0  0  0  0  0  0  0  0  # atno 10764 bound_to 10752
  153.2690  135.4299  155.0925 H   0  0  0  0  0  0  0  0  0  0  0  0  # atno 10765 bound_to 10752
  141.1176  133.8582  157.1397 H   0  0  0  0  0  0  0  0  0  0  0  0  # atno 11005 bound_to 11000
  146.1141  139.4149  143.0269 LP  0  0  0  0  0  0  0  0  0  0  0  0  # atno 17320 bound_to 7965
  145.7401  141.0011  143.1306 LP  0  0  0  0  0  0  0  0  0  0  0  0  # atno 17321 bound_to 7965
  140.6748  143.8215  150.7044 LP  0  0  0  0  0  0  0  0  0  0  0  0  # atno 17342 bound_to 10162
  140.1650  143.4243  152.2041 LP  0  0  0  0  0  0  0  0  0  0  0  0  # atno 17343 bound_to 10162
  157.2555  130.6634  149.5950 LP  0  0  0  0  0  0  0  0  0  0  0  0  # atno 17370 bound_to 10713
  155.9683  130.4525  150.5776 LP  0  0  0  0  0  0  0  0  0  0  0  0  # atno 17371 bound_to 10713
  140.0110  134.9988  157.0394 LP  0  0  0  0  0  0  0  0  0  0  0  0  # atno 17394 bound_to 11000
  140.4600  134.1494  155.7190 LP  0  0  0  0  0  0  0  0  0  0  0  0  # atno 17395 bound_to 11000

$$$$
