AV-unprocessed.smi:1244|AV-procd|sdf|5223|dock5
  -GOLD-   22720 4323D 1   1.00000     0.00000
 Structure written by MMmdl.
 54 56  0  0  0  0  0  0  0  0  1 V2000
  150.3932  141.6589  156.1973 C   0  0  0  0  0  0  0  0  0  0  0  0
  150.7489  140.1848  155.9774 C   0  0  1  0  0  0  0  0  0  0  0  0
  149.5369  139.2597  156.1859 C   0  0  0  0  0  0  0  0  0  0  0  0
  149.8593  137.8673  155.9020 N   0  0  0  0  0  0  0  0  0  0  0  0
  148.7089  137.0022  156.1532 C   0  0  0  0  0  0  0  0  0  0  0  0
  148.6465  135.7375  155.2759 C   0  0  0  0  0  0  0  0  0  0  0  0
  147.3590  135.6209  154.6020 N   0  0  0  0  0  0  0  0  0  0  0  0
  146.9953  134.6031  153.8090 C   0  0  0  0  0  0  0  0  0  0  0  0
  147.7251  133.6450  153.5544 O   0  0  0  0  0  0  0  0  0  0  0  0
  145.7538  134.7825  153.3276 N   0  0  0  0  0  0  0  0  0  0  0  0
  145.0105  133.9336  152.4585 C   0  0  0  0  0  0  0  0  0  0  0  0
  145.6220  132.8579  151.7684 C   0  0  0  0  0  0  0  0  0  0  0  0
  144.8488  132.0606  150.9072 C   0  0  0  0  0  0  0  0  0  0  0  0
  143.4849  132.3647  150.7672 C   0  0  0  0  0  0  0  0  0  0  0  0
  142.8830  133.3709  151.4322 N   0  0  0  0  0  0  0  0  0  0  0  0
  143.6118  134.1395  152.2788 C   0  0  0  0  0  0  0  0  0  0  0  0
  142.9183  135.1654  152.9619 N   0  0  0  0  0  0  0  0  0  0  0  0
  143.1849  136.5680  152.6598 C   0  0  0  0  0  0  0  0  0  0  0  0
  142.0239  137.3344  153.2866 C   0  0  0  0  0  0  0  0  0  0  0  0
  140.8536  136.3774  153.0808 C   0  0  0  0  0  0  0  0  0  0  0  0
  141.4913  134.9904  153.2145 C   0  0  0  0  0  0  0  0  0  0  0  0
  150.3510  137.7646  154.5297 C   0  0  0  0  0  0  0  0  0  0  0  0
  151.5460  138.6997  154.2536 C   0  0  2  0  0  0  0  0  0  0  0  0
  152.8581  138.2133  154.8922 C   0  0  0  0  0  0  0  0  0  0  0  0
  151.2312  140.0379  154.6431 O   0  0  0  0  0  0  0  0  0  0  0  0
  150.0293  141.8272  157.2112 H   0  0  0  0  0  0  0  0  0  0  0  0
  149.6175  141.9858  155.5041 H   0  0  0  0  0  0  0  0  0  0  0  0
  151.2645  142.2966  156.0470 H   0  0  0  0  0  0  0  0  0  0  0  0
  151.5381  139.9148  156.6798 H   0  0  0  0  0  0  0  0  0  0  0  0
  149.1889  139.3542  157.2153 H   0  0  0  0  0  0  0  0  0  0  0  0
  148.7135  139.5852  155.5479 H   0  0  0  0  0  0  0  0  0  0  0  0
  148.7366  136.6841  157.1962 H   0  0  0  0  0  0  0  0  0  0  0  0
  147.7860  137.5732  156.0404 H   0  0  0  0  0  0  0  0  0  0  0  0
  149.4145  135.7630  154.5038 H   0  0  0  0  0  0  0  0  0  0  0  0
  148.8356  134.8460  155.8764 H   0  0  0  0  0  0  0  0  0  0  0  0
  146.6979  136.3691  154.7509 H   0  0  0  0  0  0  0  0  0  0  0  0
  145.3205  135.6697  153.5371 H   0  0  0  0  0  0  0  0  0  0  0  0
  146.6689  132.6259  151.8905 H   0  0  0  0  0  0  0  0  0  0  0  0
  145.2921  131.2378  150.3664 H   0  0  0  0  0  0  0  0  0  0  0  0
  142.8576  131.7796  150.1111 H   0  0  0  0  0  0  0  0  0  0  0  0
  144.1466  136.8861  153.0635 H   0  0  0  0  0  0  0  0  0  0  0  0
  143.1912  136.7377  151.5822 H   0  0  0  0  0  0  0  0  0  0  0  0
  142.2036  137.4801  154.3527 H   0  0  0  0  0  0  0  0  0  0  0  0
  141.8641  138.3118  152.8307 H   0  0  0  0  0  0  0  0  0  0  0  0
  140.0404  136.5393  153.7890 H   0  0  0  0  0  0  0  0  0  0  0  0
  140.4522  136.5018  152.0740 H   0  0  0  0  0  0  0  0  0  0  0  0
  141.0360  134.2743  152.5288 H   0  0  0  0  0  0  0  0  0  0  0  0
  141.3585  134.6198  154.2309 H   0  0  0  0  0  0  0  0  0  0  0  0
  150.6462  136.7407  154.3033 H   0  0  0  0  0  0  0  0  0  0  0  0
  149.5440  138.0121  153.8382 H   0  0  0  0  0  0  0  0  0  0  0  0
  151.7087  138.7257  153.1758 H   0  0  0  0  0  0  0  0  0  0  0  0
  153.1440  137.2392  154.4949 H   0  0  0  0  0  0  0  0  0  0  0  0
  152.7740  138.1107  155.9739 H   0  0  0  0  0  0  0  0  0  0  0  0
  153.6727  138.9070  154.6841 H   0  0  0  0  0  0  0  0  0  0  0  0
  1  2  1  0  0  0  0
  1 26  1  0  0  0  0
  1 27  1  0  0  0  0
  1 28  1  0  0  0  0
  2 25  1  0  0  0  0
  2  3  1  0  0  0  0
  2 29  1  0  0  0  0
  3  4  1  0  0  0  0
  3 30  1  0  0  0  0
  3 31  1  0  0  0  0
  4  5  1  0  0  0  0
  4 22  1  0  0  0  0
  5  6  1  0  0  0  0
  5 32  1  0  0  0  0
  5 33  1  0  0  0  0
  6  7  1  0  0  0  0
  6 34  1  0  0  0  0
  6 35  1  0  0  0  0
  7  8  1  0  0  0  0
  7 36  1  0  0  0  0
  8  9  2  0  0  0  0
  8 10  1  0  0  0  0
 10 11  1  0  0  0  0
 10 37  1  0  0  0  0
 11 16  1  0  0  0  0
 11 12  2  0  0  0  0
 12 13  1  0  0  0  0
 12 38  1  0  0  0  0
 13 14  2  0  0  0  0
 13 39  1  0  0  0  0
 14 15  1  0  0  0  0
 14 40  1  0  0  0  0
 15 16  2  0  0  0  0
 16 17  1  0  0  0  0
 17 21  1  0  0  0  0
 17 18  1  0  0  0  0
 18 19  1  0  0  0  0
 18 41  1  0  0  0  0
 18 42  1  0  0  0  0
 19 20  1  0  0  0  0
 19 43  1  0  0  0  0
 19 44  1  0  0  0  0
 20 21  1  0  0  0  0
 20 45  1  0  0  0  0
 20 46  1  0  0  0  0
 21 47  1  0  0  0  0
 21 48  1  0  0  0  0
 22 23  1  0  0  0  0
 22 49  1  0  0  0  0
 22 50  1  0  0  0  0
 23 24  1  0  0  0  0
 23 25  1  0  0  0  0
 23 51  1  0  0  0  0
 24 52  1  0  0  0  0
 24 53  1  0  0  0  0
 24 54  1  0  0  0  0
M  END
> <s_m_source_file>
AV-unprocessed.smi

> <i_m_source_file_index>
1244

> <i_lp_mmshare_version>
43012

> <i_f3d_flags>
0

> <s_epik_input>
W0NIM11bQ0BASF0xW0NIMl1OKFtDSDJdW0NASF0oTzEpW0NIM10pW0NIMl1bQ0gyXVtOSF1DKD1PKVtOSF1jMltjSF1bY0hdW2NIXW5jMk4zW0NIMl1bQ0gyXVtDSDJdW0NIMl0z

> <s_epik_cmdline>
J2VwaWtfcHl0aG9uJywgJy1waCcsICc3LjAnLCAnLXRuJywgJzgnLCAnLW1hJywgJzIwMCcsICctbWV0YWxfYmluZGluZycsICctaW1hZScsICc8aW5maWxlLm1hZT4nLCAnLW9tYWUnLCAnPG91dGZpbGUubWFlPic=

> <r_lp_tautomer_probability>
1

> <r_epik_Ionization_Penalty>
0.363951

> <r_epik_Ionization_Penalty_Charging>
0

> <r_epik_Ionization_Penalty_Neutral>
0.363951

> <r_epik_State_Penalty>
0.349372

> <r_epik_Charging_Adjusted_Penalty>
0.349372

> <i_epik_Tot_Q>
0

> <i_epik_Tot_abs_Q>
0

> <r_epik_Metal_State_Penalty>
0.333054

> <b_epik_Metal_Only>
0

> <s_lp_Force_Field>
OPLS_2005

> <r_lp_Energy>
51.4551

> <b_lp_Chiralities_Consistent>
1

> <s_lp_Variant>
AV-unprocessed.smi:1244-3

> <Gold.Version>
5.8.1

> <Gold.Id.Protein>
6NUR|6NUR_protein|mol2

> <Gold.PLP.Fitness>
39.3485

> <Gold.PLP.PLP>
-35.6395

> <Gold.PLP.part.hbond>
-1.4828

> <Gold.PLP.part.metal>
0.0000

> <Gold.PLP.part.buried>
-6.3202

> <Gold.PLP.part.nonpolar>
-30.3132

> <Gold.PLP.part.repulsive>
1.7664

> <Gold.PLP.ligand.clash>
0.0000

> <Gold.PLP.ligand.torsion>
1.2173

> <Gold.PLP.Chemscore.Hbond>
1.0000

> <Gold.PLP.Chemscore.CHOScore>
0.9101

> <Gold.PLP.Chemscore.Metal>
0.0000

> <Gold.Chemscore.Hbonds>
donor molecule, donor type, donor heavy atom, donor atom, acceptor molecule, acceptor atom, score
      P1  H  7989  7998       L1    25  0.84
      L1  C    14    40       P1 10952  0.96

> <Gold.PLP.Chemscore.Internal.Correction>
0.4133

> <Gold.Rescore>
     Score         DG    S(hbond)    S(metal)    S(lipo)     H(rot)  DE(clash)    DE(int)     intcor
     12.34     -15.14       0.88        0.00      91.37       1.55       0.19       2.60       ----

> <Gold.Chemscore.Fitness>
12.3441

> <Gold.Chemscore.DG>
-15.1385

> <Gold.Chemscore.ZeroCoef>
-5.4800

> <Gold.Chemscore.Hbond>
0.8777

> <Gold.Chemscore.Metal>
0.0000

> <Gold.Chemscore.Lipo>
91.3667

> <Gold.Chemscore.Internal_Hbond>
0.0000

> <Gold.Chemscore.DEClash>
0.1944

> <Gold.Chemscore.DEInternal>
2.6000

> <Gold.Chemscore.Rot>
1.5479

> <Gold.Chemscore.Internal.Correction>
   9.000000E+99

> <Gold.Chemscore.Hbonds>
donor molecule, donor type, donor heavy atom, donor atom, acceptor molecule, acceptor atom, score
      P1  H  7989  7998       L1    25  0.41

> <Gold.Chemscore.Hbond.Weighted>
-2.9314

> <Gold.Chemscore.Metal.Weighted>
-0.0000

> <Gold.Chemscore.Lipo.Weighted>
-10.6899

> <Gold.Chemscore.Internal_Hbond.Weighted>
0.0000

> <Gold.Chemscore.DEClash.Weighted>
0.1944

> <Gold.Chemscore.DEInternal.Weighted>
2.6000

> <Gold.Chemscore.Rot.Weighted>
3.9627

> <Gold.Chemscore.Internal.Correction.Weighted>
   9.000000E+99

> <Gold.Protein.RotatedTorsions>
[ 6907 6896 6895 6894 ] final  -43.38 input  -60.11 | X-H torsion
[ 7974 7965 7964 7962 ] final   10.63 input  175.53 | X-H torsion
[ 8008 7997 7996 7995 ] final  175.64 input   59.86 | X-H torsion
[ 10167 10162 10161 10158 ] final -105.50 input  -65.29 | X-H torsion
[ 10718 10713 10712 10709 ] final  142.54 input   66.30 | X-H torsion
[ 10763 10752 10751 10750 ] final  -87.13 input  -60.55 | X-H torsion
[ 11005 11000 10999 10996 ] final  125.08 input  -57.11 | X-H torsion

> <Gold.Protein.ActiveResidues>
 VAL166  LYS551  ARG553  GLY616  TRP617  ASP618  TYR619  PRO620  LYS621  CYS622 
 ASP623  PHE694  ASN695  SER759  ASP760  ASP761  ALA762  ILE779  LEU786  VAL792 
 PHE793  MET794  SER795  GLU796  ALA797  LYS798  CYS799  TRP800  GLU811  SER814 

> <Gold.Protein.RotatedAtoms>
  150.9446  134.8852  159.7633 H   0  0  0  0  0  0  0  0  0  0  0  0  # atno 6907 bound_to 6896
  152.5094  134.3893  159.9388 H   0  0  0  0  0  0  0  0  0  0  0  0  # atno 6908 bound_to 6896
  151.3912  133.3748  159.2756 H   0  0  0  0  0  0  0  0  0  0  0  0  # atno 6909 bound_to 6896
  146.2385  139.9606  142.8459 H   0  0  0  0  0  0  0  0  0  0  0  0  # atno 7974 bound_to 7965
  156.0849  140.1404  156.9666 H   0  0  0  0  0  0  0  0  0  0  0  0  # atno 8008 bound_to 7997
  154.4607  140.0944  156.6932 H   0  0  0  0  0  0  0  0  0  0  0  0  # atno 8009 bound_to 7997
  155.5015  140.3451  155.4374 H   0  0  0  0  0  0  0  0  0  0  0  0  # atno 8010 bound_to 7997
  140.1979  143.3841  152.1153 H   0  0  0  0  0  0  0  0  0  0  0  0  # atno 10167 bound_to 10162
  157.3793  131.0990  151.0753 H   0  0  0  0  0  0  0  0  0  0  0  0  # atno 10718 bound_to 10713
  154.6302  135.5424  153.7672 H   0  0  0  0  0  0  0  0  0  0  0  0  # atno 10763 bound_to 10752
  153.0280  135.6434  154.1312 H   0  0  0  0  0  0  0  0  0  0  0  0  # atno 10764 bound_to 10752
  154.1243  135.2918  155.3181 H   0  0  0  0  0  0  0  0  0  0  0  0  # atno 10765 bound_to 10752
  139.9389  134.9637  156.8505 H   0  0  0  0  0  0  0  0  0  0  0  0  # atno 11005 bound_to 11000
  145.1775  140.9751  143.4286 LP  0  0  0  0  0  0  0  0  0  0  0  0  # atno 17320 bound_to 7965
  144.9972  139.3632  143.6185 LP  0  0  0  0  0  0  0  0  0  0  0  0  # atno 17321 bound_to 7965
  139.5229  144.7065  151.5339 LP  0  0  0  0  0  0  0  0  0  0  0  0  # atno 17342 bound_to 10162
  140.6411  143.8888  150.6692 LP  0  0  0  0  0  0  0  0  0  0  0  0  # atno 17343 bound_to 10162
  157.1828  130.6317  149.5677 LP  0  0  0  0  0  0  0  0  0  0  0  0  # atno 17370 bound_to 10713
  155.9772  130.4748  150.6579 LP  0  0  0  0  0  0  0  0  0  0  0  0  # atno 17371 bound_to 10713
  140.6003  134.0178  155.7534 LP  0  0  0  0  0  0  0  0  0  0  0  0  # atno 17394 bound_to 11000
  141.1015  133.9760  157.3070 LP  0  0  0  0  0  0  0  0  0  0  0  0  # atno 17395 bound_to 11000

$$$$
