#       Name:                AV-unprocessed.smi:3285
#       Creating user name   scv26
#       Creation time:       Fri Mar 27 18:50:37 2020


#       File generated by GOLD software.
#

@<TRIPOS>MOLECULE
AV-unprocessed.smi:3285
    48    49     1
SMALL
NO_CHARGES


@<TRIPOS>ATOM
      1 ****        -3.5629   2.6397  -2.3854 C.3            1 S1                 0.0000
      2 ****        -3.7073   2.9585  -0.9252 C.2            1 S1                 0.0000
      3 ****        -4.1903   4.1368  -0.5708 N.2            1 S1                 0.0000
      4 ****        -4.2002   4.1432   0.8269 O.3            1 S1                 0.0000
      5 ****        -3.7162   2.9540   1.2655 C.2            1 S1                 0.0000
      6 ****        -3.6432   2.7743   2.7443 C.3            1 S1                 0.0000
      7 ****        -3.3852   2.1533   0.2061 C.2            1 S1                 0.0000
      8 ****        -2.8117   0.7616   0.2263 C.3            1 S1                 0.0000
      9 ****        -1.2783   0.7877   0.1937 C.3            1 S1                 0.0000
     10 ****        -0.7232  -0.5792   0.2425 N.4            1 S1                 1.0000
     11 ****         0.7537  -0.6495   0.2268 C.3            1 S1                 0.0000
     12 ****         1.2616  -1.3866   1.4743 C.3            1 S1                 0.0000
     13 ****         2.7919  -1.4963   1.4595 C.3            1 S1                 0.0000
     14 ****         3.3090  -2.2030   0.1898 C.3            1 S1                 0.0000
     15 ****         4.8449  -2.2943   0.2352 C.3            1 S1                 0.0000
     16 ****         2.7810  -1.4951  -1.0873 C.3            1 S1                 0.0000
     17 ****         3.2069  -2.2072  -2.3840 C.3            1 S1                 0.0000
     18 ****         1.2433  -1.3618  -1.0454 C.3            1 S1                 0.0000
     19 ****        -3.1125   1.6596  -2.5404 H              1 S1                 0.0000
     20 ****        -2.9311   3.3742  -2.8856 H              1 S1                 0.0000
     21 ****        -4.5326   2.6403  -2.8838 H              1 S1                 0.0000
     22 ****        -3.2357   1.7974   3.0038 H              1 S1                 0.0000
     23 ****        -4.6335   2.8564   3.1923 H              1 S1                 0.0000
     24 ****        -3.0052   3.5354   3.1938 H              1 S1                 0.0000
     25 ****        -3.1441   0.2236   1.1149 H              1 S1                 0.0000
     26 ****        -3.1821   0.1810  -0.6191 H              1 S1                 0.0000
     27 ****        -0.9306   1.2849  -0.7130 H              1 S1                 0.0000
     28 ****        -0.8981   1.3564   1.0439 H              1 S1                 0.0000
     29 ****        -1.0497  -1.0200   1.0904 H              1 S1                 0.0000
     30 ****         1.1657   0.3614   0.2367 H              1 S1                 0.0000
     31 ****         0.9408  -0.8630   2.3758 H              1 S1                 0.0000
     32 ****         0.8252  -2.3854   1.5233 H              1 S1                 0.0000
     33 ****         3.2270  -0.4982   1.5288 H              1 S1                 0.0000
     34 ****         3.1228  -2.0364   2.3474 H              1 S1                 0.0000
     35 ****         2.9204  -3.2225   0.1977 H              1 S1                 0.0000
     36 ****         5.3038  -1.3075   0.1665 H              1 S1                 0.0000
     37 ****         5.2400  -2.9060  -0.5752 H              1 S1                 0.0000
     38 ****         5.1811  -2.7508   1.1666 H              1 S1                 0.0000
     39 ****         3.1994  -0.4876  -1.1141 H              1 S1                 0.0000
     40 ****         2.8823  -3.2482  -2.3909 H              1 S1                 0.0000
     41 ****         4.2879  -2.1924  -2.5185 H              1 S1                 0.0000
     42 ****         2.7742  -1.7204  -3.2583 H              1 S1                 0.0000
     43 ****         0.7913  -2.3532  -1.1066 H              1 S1                 0.0000
     44 ****         0.8987  -0.8131  -1.9234 H              1 S1                 0.0000
     45 ****        -1.0773  -1.1015  -0.5462 H              1 S1                 0.0000
     46 ****        -4.4879   4.8731  -1.1785 LP             1 S1                 0.0000
     47 ****        -5.1357   4.2693   1.1572 LP             1 S1                 0.0000
     48 ****        -3.6242   4.8874   1.1651 LP             1 S1                 0.0000
@<TRIPOS>BOND
    1    1    2 1     
    2    1   19 1     
    3    1   20 1     
    4    1   21 1     
    5    2    7 1     
    6    2    3 2     
    7    3    4 1     
    8    4    5 1     
    9    5    6 1     
   10    5    7 2     
   11    6   22 1     
   12    6   23 1     
   13    6   24 1     
   14    7    8 1     
   15    8    9 1     
   16    8   25 1     
   17    8   26 1     
   18    9   10 1     
   19    9   27 1     
   20    9   28 1     
   21   10   11 1     
   22   10   29 1     
   23   10   45 1     
   24   11   18 1     
   25   11   12 1     
   26   11   30 1     
   27   12   13 1     
   28   12   31 1     
   29   12   32 1     
   30   13   14 1     
   31   13   33 1     
   32   13   34 1     
   33   14   15 1     
   34   14   16 1     
   35   14   35 1     
   36   15   36 1     
   37   15   37 1     
   38   15   38 1     
   39   16   17 1     
   40   16   18 1     
   41   16   39 1     
   42   17   40 1     
   43   17   41 1     
   44   17   42 1     
   45   18   43 1     
   46   18   44 1     
   47    3   46 1     
   48    4   47 1     
   49    4   48 1     
@<TRIPOS>SUBSTRUCTURE
      1 S1             1
@<TRIPOS>SET
LONE_PAIRS      STATIC     ATOMS    <user>   **** ""
3 46 47 48
DONOR_HYDROGENS      STATIC     ATOMS    <user>   **** ""
2 29 45
ATOM$BLUE        STATIC     ATOMS    COLORGROUP SYSTEM
3 46 47 48
ATOM$RED        STATIC     ATOMS    COLORGROUP SYSTEM
2 29 45
