#       Name:                AV-unprocessed.smi:1184
#       Creating user name   scv26
#       Creation time:       Fri Mar 27 03:56:18 2020


#       File generated by GOLD software.
#

@<TRIPOS>MOLECULE
AV-unprocessed.smi:1184
    48    49     1
SMALL
NO_CHARGES


@<TRIPOS>ATOM
      1 ****        -0.8083   2.5263  -2.2050 C.3            1 S1                 0.0000
      2 ****        -2.1533   1.8767  -1.8486 C.3            1 S1                 0.0000
      3 ****        -2.1299   1.2446  -0.5088 N.4            1 S1                 1.0000
      4 ****        -3.4550   0.8105  -0.0052 C.3            1 S1                 0.0000
      5 ****        -3.2550  -0.5616   0.6568 C.3            1 S1                 0.0000
      6 ****        -1.7418  -0.6910   0.8228 C.3            1 S1                 0.0000
      7 ****        -1.2265  -2.1421   0.9237 C.3            1 S1                 0.0000
      8 ****         0.2292  -2.1941   0.8620 N.am           1 S1                 0.0000
      9 ****         1.0607  -1.7741   1.8277 C.2            1 S1                 0.0000
     10 ****         0.6880  -1.4571   2.9568 O.2            1 S1                 0.0000
     11 ****         2.5293  -1.6270   1.4322 C.3            1 S1                 0.0000
     12 ****         2.6554  -0.4740   0.4666 C.2            1 S1                 0.0000
     13 ****         2.6345   0.9208   0.7583 C.2            1 S1                 0.0000
     14 ****         2.4998   1.5943   2.0936 C.3            1 S1                 0.0000
     15 ****         2.7210   1.6563  -0.3373 N.2            1 S1                 0.0000
     16 ****         2.8156   0.7518  -1.3992 O.3            1 S1                 0.0000
     17 ****         2.7752  -0.5080  -0.8956 C.2            1 S1                 0.0000
     18 ****         2.8416  -1.6259  -1.8800 C.3            1 S1                 0.0000
     19 ****        -1.2145   0.0945  -0.3783 C.3            1 S1                 0.0000
     20 ****        -0.8704   3.0384  -3.1654 H              1 S1                 0.0000
     21 ****        -0.0099   1.7875  -2.2810 H              1 S1                 0.0000
     22 ****        -0.5140   3.2621  -1.4559 H              1 S1                 0.0000
     23 ****        -2.9274   2.6451  -1.8568 H              1 S1                 0.0000
     24 ****        -2.4317   1.1405  -2.6039 H              1 S1                 0.0000
     25 ****        -3.8155   1.5466   0.7141 H              1 S1                 0.0000
     26 ****        -4.1929   0.7419  -0.8062 H              1 S1                 0.0000
     27 ****        -3.7883  -0.6522   1.6036 H              1 S1                 0.0000
     28 ****        -3.6275  -1.3420  -0.0084 H              1 S1                 0.0000
     29 ****        -1.4577  -0.1499   1.7272 H              1 S1                 0.0000
     30 ****        -1.5817  -2.6137   1.8413 H              1 S1                 0.0000
     31 ****        -1.6139  -2.7370   0.0961 H              1 S1                 0.0000
     32 ****         0.6360  -2.4547  -0.0248 H              1 S1                 0.0000
     33 ****         3.1318  -1.4654   2.3269 H              1 S1                 0.0000
     34 ****         2.8764  -2.5632   0.9936 H              1 S1                 0.0000
     35 ****         1.4555   1.6341   2.4039 H              1 S1                 0.0000
     36 ****         2.8804   2.6160   2.0698 H              1 S1                 0.0000
     37 ****         3.0534   1.0553   2.8626 H              1 S1                 0.0000
     38 ****         3.5707  -2.3737  -1.5674 H              1 S1                 0.0000
     39 ****         3.1322  -1.2648  -2.8670 H              1 S1                 0.0000
     40 ****         1.8718  -2.1156  -1.9706 H              1 S1                 0.0000
     41 ****        -1.2581  -0.5214  -1.2784 H              1 S1                 0.0000
     42 ****        -0.1842   0.4226  -0.2412 H              1 S1                 0.0000
     43 ****        -1.8030   1.9418   0.1450 H              1 S1                 0.0000
     44 ****        -0.2819  -1.5055   3.1952 LP             1 S1                 0.0000
     45 ****         1.3551  -1.1510   3.6360 LP             1 S1                 0.0000
     46 ****         2.7192   2.6547  -0.3945 LP             1 S1                 0.0000
     47 ****         3.6772   0.8928  -1.8869 LP             1 S1                 0.0000
     48 ****         2.0503   0.8885  -2.0282 LP             1 S1                 0.0000
@<TRIPOS>BOND
    1    1    2 1     
    2    1   20 1     
    3    1   21 1     
    4    1   22 1     
    5    2    3 1     
    6    2   23 1     
    7    2   24 1     
    8    3   19 1     
    9    3    4 1     
   10    3   43 1     
   11    4    5 1     
   12    4   25 1     
   13    4   26 1     
   14    5    6 1     
   15    5   27 1     
   16    5   28 1     
   17    6    7 1     
   18    6   19 1     
   19    6   29 1     
   20    7    8 1     
   21    7   30 1     
   22    7   31 1     
   23    8    9 am    
   24    8   32 1     
   25    9   10 2     
   26    9   11 1     
   27   11   12 1     
   28   11   33 1     
   29   11   34 1     
   30   12   17 2     
   31   12   13 1     
   32   13   14 1     
   33   13   15 2     
   34   14   35 1     
   35   14   36 1     
   36   14   37 1     
   37   15   16 1     
   38   16   17 1     
   39   17   18 1     
   40   18   38 1     
   41   18   39 1     
   42   18   40 1     
   43   19   41 1     
   44   19   42 1     
   45   10   44 1     
   46   10   45 1     
   47   15   46 1     
   48   16   47 1     
   49   16   48 1     
@<TRIPOS>SUBSTRUCTURE
      1 S1             1
@<TRIPOS>SET
LONE_PAIRS      STATIC     ATOMS    <user>   **** ""
5 44 45 46 47 48
DONOR_HYDROGENS      STATIC     ATOMS    <user>   **** ""
2 43 32
ATOM$BLUE        STATIC     ATOMS    COLORGROUP SYSTEM
5 44 45 46 47 48
ATOM$RED        STATIC     ATOMS    COLORGROUP SYSTEM
2 43 32
