AV-unprocessed.smi:2715|AV-procd|sdf|10482|dock8
  -GOLD-   2272014523D 1   1.00000     0.00000
 Structure written by MMmdl.
 38 39  0  0  0  0  0  0  0  0  1 V2000
  146.2150  142.8771  158.2756 C   0  0  0  0  0  0  0  0  0  0  0  0
  146.3499  142.4622  156.8507 C   0  0  0  0  0  0  0  0  0  0  0  0
  147.4812  141.9861  156.3243 N   0  0  0  0  0  0  0  0  0  0  0  0
  147.3540  141.6717  154.9667 C   0  0  0  0  0  0  0  0  0  0  0  0
  148.5304  141.1271  154.2088 C   0  0  0  0  0  0  0  0  0  0  0  0
  149.8018  141.2208  155.0538 C   0  0  0  0  0  0  0  0  0  0  0  0
  150.6475  140.3290  154.9903 O   0  0  0  0  0  0  0  0  0  0  0  0
  149.9153  142.2984  155.8471 N   0  0  0  0  0  0  0  0  0  0  0  0
  151.0255  142.5822  156.7520 C   0  0  0  0  0  0  0  0  0  0  0  0
  151.0203  141.6437  157.9726 C   0  0  0  0  0  0  0  0  0  0  0  0
  151.7051  142.2328  159.1961 C   0  0  0  0  0  0  0  0  0  0  0  0
  151.4660  143.4926  159.6101 C   0  0  0  0  0  0  0  0  0  0  0  0
  152.0892  144.1158  160.8465 C   0  0  0  0  0  0  0  0  0  0  0  0
  152.7356  143.0654  161.7650 C   0  0  0  0  0  0  0  0  0  0  0  0
  153.5496  142.0496  160.9541 C   0  0  0  0  0  0  0  0  0  0  0  0
  152.6649  141.3075  159.9364 C   0  0  0  0  0  0  0  0  0  0  0  0
  146.0949  141.9108  154.4731 C   0  0  0  0  0  0  0  0  0  0  0  0
  145.0276  142.5479  155.6935 S   0  0  0  0  0  0  0  0  0  0  0  0
  147.1958  142.9688  158.7435 H   0  0  0  0  0  0  0  0  0  0  0  0
  145.6323  142.1373  158.8246 H   0  0  0  0  0  0  0  0  0  0  0  0
  145.7078  143.8400  158.3380 H   0  0  0  0  0  0  0  0  0  0  0  0
  148.3664  140.0868  153.9245 H   0  0  0  0  0  0  0  0  0  0  0  0
  148.6740  141.6801  153.2796 H   0  0  0  0  0  0  0  0  0  0  0  0
  149.1666  142.9757  155.8244 H   0  0  0  0  0  0  0  0  0  0  0  0
  151.9845  142.5388  156.2333 H   0  0  0  0  0  0  0  0  0  0  0  0
  150.9159  143.6121  157.0915 H   0  0  0  0  0  0  0  0  0  0  0  0
  149.9932  141.3933  158.2397 H   0  0  0  0  0  0  0  0  0  0  0  0
  151.4995  140.7011  157.7043 H   0  0  0  0  0  0  0  0  0  0  0  0
  150.7903  144.1231  159.0505 H   0  0  0  0  0  0  0  0  0  0  0  0
  152.8326  144.8440  160.5210 H   0  0  0  0  0  0  0  0  0  0  0  0
  151.3241  144.6655  161.3951 H   0  0  0  0  0  0  0  0  0  0  0  0
  153.3671  143.5553  162.5066 H   0  0  0  0  0  0  0  0  0  0  0  0
  151.9577  142.5382  162.3193 H   0  0  0  0  0  0  0  0  0  0  0  0
  154.3503  142.5713  160.4281 H   0  0  0  0  0  0  0  0  0  0  0  0
  154.0333  141.3326  161.6179 H   0  0  0  0  0  0  0  0  0  0  0  0
  152.0798  140.5439  160.4485 H   0  0  0  0  0  0  0  0  0  0  0  0
  153.2980  140.7870  159.2174 H   0  0  0  0  0  0  0  0  0  0  0  0
  145.7339  141.7543  153.4673 H   0  0  0  0  0  0  0  0  0  0  0  0
  1  2  1  0  0  0  0
  1 19  1  0  0  0  0
  1 20  1  0  0  0  0
  1 21  1  0  0  0  0
  2 18  1  0  0  0  0
  2  3  2  0  0  0  0
  3  4  1  0  0  0  0
  4  5  1  0  0  0  0
  4 17  2  0  0  0  0
  5  6  1  0  0  0  0
  5 22  1  0  0  0  0
  5 23  1  0  0  0  0
  6  7  2  0  0  0  0
  6  8  1  0  0  0  0
  8  9  1  0  0  0  0
  8 24  1  0  0  0  0
  9 10  1  0  0  0  0
  9 25  1  0  0  0  0
  9 26  1  0  0  0  0
 10 11  1  0  0  0  0
 10 27  1  0  0  0  0
 10 28  1  0  0  0  0
 11 16  1  0  0  0  0
 11 12  2  0  0  0  0
 12 13  1  0  0  0  0
 12 29  1  0  0  0  0
 13 14  1  0  0  0  0
 13 30  1  0  0  0  0
 13 31  1  0  0  0  0
 14 15  1  0  0  0  0
 14 32  1  0  0  0  0
 14 33  1  0  0  0  0
 15 16  1  0  0  0  0
 15 34  1  0  0  0  0
 15 35  1  0  0  0  0
 16 36  1  0  0  0  0
 16 37  1  0  0  0  0
 17 18  1  0  0  0  0
 17 38  1  0  0  0  0
M  END
> <s_m_source_file>
AV-unprocessed.smi

> <i_m_source_file_index>
2715

> <i_lp_mmshare_version>
43012

> <i_f3d_flags>
0

> <s_epik_input>
W0NIM11jMW5jKFtjSF1zMSlbQ0gyXUMoPU8pW05IXVtDSDJdW0NIMl1DMj1bQ0hdW0NIMl1bQ0gyXVtDSDJdW0NIMl0y

> <s_epik_cmdline>
J2VwaWtfcHl0aG9uJywgJy1waCcsICc3LjAnLCAnLXRuJywgJzgnLCAnLW1hJywgJzIwMCcsICctbWV0YWxfYmluZGluZycsICctaW1hZScsICc8aW5maWxlLm1hZT4nLCAnLW9tYWUnLCAnPG91dGZpbGUubWFlPic=

> <r_lp_tautomer_probability>
1

> <r_epik_Ionization_Penalty>
5.73492e-05

> <r_epik_Ionization_Penalty_Charging>
0

> <r_epik_Ionization_Penalty_Neutral>
5.73492e-05

> <r_epik_State_Penalty>
-0

> <r_epik_Charging_Adjusted_Penalty>
0

> <i_epik_Tot_Q>
0

> <i_epik_Tot_abs_Q>
0

> <r_epik_Metal_State_Penalty>
-0

> <b_epik_Metal_Only>
0

> <s_lp_Force_Field>
OPLS_2005

> <r_lp_Energy>
6.36926

> <b_lp_Chiralities_Consistent>
1

> <s_lp_Variant>
AV-unprocessed.smi:2715-1

> <Gold.Version>
5.8.1

> <Gold.Id.Protein>
6NUR|6NUR_protein|mol2

> <Gold.PLP.Fitness>
46.1655

> <Gold.PLP.PLP>
-40.6899

> <Gold.PLP.part.hbond>
-2.0000

> <Gold.PLP.part.metal>
0.0000

> <Gold.PLP.part.buried>
-5.8895

> <Gold.PLP.part.nonpolar>
-33.4711

> <Gold.PLP.part.repulsive>
0.5622

> <Gold.PLP.ligand.clash>
0.0000

> <Gold.PLP.ligand.torsion>
0.7919

> <Gold.PLP.Chemscore.Hbond>
1.8640

> <Gold.PLP.Chemscore.CHOScore>
0.4825

> <Gold.PLP.Chemscore.Metal>
0.0000

> <Gold.Chemscore.Hbonds>
donor molecule, donor type, donor heavy atom, donor atom, acceptor molecule, acceptor atom, score
      L1  H     8    24       P1  8028  0.83
      P1  H  7989  7998       L1     7  1.00
      L1  C    17    38       P1 10175  0.54

> <Gold.PLP.Chemscore.Internal.Correction>
0.0200

> <Gold.Rescore>
     Score         DG    S(hbond)    S(metal)    S(lipo)     H(rot)  DE(clash)    DE(int)     intcor
     18.02     -18.84       1.61        0.00     100.99       1.50       0.09       0.74       ----

> <Gold.Chemscore.Fitness>
18.0165

> <Gold.Chemscore.DG>
-18.8450

> <Gold.Chemscore.ZeroCoef>
-5.4800

> <Gold.Chemscore.Hbond>
1.6110

> <Gold.Chemscore.Metal>
0.0000

> <Gold.Chemscore.Lipo>
100.9866

> <Gold.Chemscore.Internal_Hbond>
0.0000

> <Gold.Chemscore.DEClash>
0.0868

> <Gold.Chemscore.DEInternal>
0.7417

> <Gold.Chemscore.Rot>
1.4965

> <Gold.Chemscore.Internal.Correction>
   9.000000E+99

> <Gold.Chemscore.Hbonds>
donor molecule, donor type, donor heavy atom, donor atom, acceptor molecule, acceptor atom, score
      L1  H     8    24       P1  8028  0.83
      P1  H  7989  7998       L1     7  0.30

> <Gold.Chemscore.Hbond.Weighted>
-5.3806

> <Gold.Chemscore.Metal.Weighted>
-0.0000

> <Gold.Chemscore.Lipo.Weighted>
-11.8154

> <Gold.Chemscore.Internal_Hbond.Weighted>
0.0000

> <Gold.Chemscore.DEClash.Weighted>
0.0868

> <Gold.Chemscore.DEInternal.Weighted>
0.7417

> <Gold.Chemscore.Rot.Weighted>
3.8311

> <Gold.Chemscore.Internal.Correction.Weighted>
   9.000000E+99

> <Gold.Protein.RotatedTorsions>
[ 6907 6896 6895 6894 ] final -167.21 input  -60.11 | X-H torsion
[ 7974 7965 7964 7962 ] final  -48.96 input  175.53 | X-H torsion
[ 8008 7997 7996 7995 ] final -105.47 input   59.86 | X-H torsion
[ 10167 10162 10161 10158 ] final  -32.32 input  -65.29 | X-H torsion
[ 10718 10713 10712 10709 ] final   36.78 input   66.30 | X-H torsion
[ 10763 10752 10751 10750 ] final   74.42 input  -60.55 | X-H torsion
[ 11005 11000 10999 10996 ] final  123.33 input  -57.11 | X-H torsion

> <Gold.Protein.ActiveResidues>
 VAL166  LYS551  ARG553  GLY616  TRP617  ASP618  TYR619  PRO620  LYS621  CYS622 
 ASP623  PHE694  ASN695  SER759  ASP760  ASP761  ALA762  ILE779  LEU786  VAL792 
 PHE793  MET794  SER795  GLU796  ALA797  LYS798  CYS799  TRP800  GLU811  SER814 

> <Gold.Protein.RotatedAtoms>
  151.4560  133.3605  159.2801 H   0  0  0  0  0  0  0  0  0  0  0  0  # atno 6907 bound_to 6896
  150.9058  134.8475  159.7402 H   0  0  0  0  0  0  0  0  0  0  0  0  # atno 6908 bound_to 6896
  152.4905  134.4485  159.9618 H   0  0  0  0  0  0  0  0  0  0  0  0  # atno 6909 bound_to 6896
  145.9456  140.7621  142.9530 H   0  0  0  0  0  0  0  0  0  0  0  0  # atno 7974 bound_to 7965
  154.9004  140.0413  157.1890 H   0  0  0  0  0  0  0  0  0  0  0  0  # atno 8008 bound_to 7997
  154.8450  140.2920  155.5614 H   0  0  0  0  0  0  0  0  0  0  0  0  # atno 8009 bound_to 7997
  156.2994  140.2475  156.3399 H   0  0  0  0  0  0  0  0  0  0  0  0  # atno 8010 bound_to 7997
  140.7223  143.3704  151.1790 H   0  0  0  0  0  0  0  0  0  0  0  0  # atno 10167 bound_to 10162
  157.3390  130.7538  149.6899 H   0  0  0  0  0  0  0  0  0  0  0  0  # atno 10718 bound_to 10713
  153.0586  135.5026  154.8040 H   0  0  0  0  0  0  0  0  0  0  0  0  # atno 10763 bound_to 10752
  154.6846  135.2974  154.9567 H   0  0  0  0  0  0  0  0  0  0  0  0  # atno 10764 bound_to 10752
  154.0342  135.6725  153.4836 H   0  0  0  0  0  0  0  0  0  0  0  0  # atno 10765 bound_to 10752
  139.9308  134.9641  156.8244 H   0  0  0  0  0  0  0  0  0  0  0  0  # atno 11005 bound_to 11000
  144.6786  140.2351  143.7350 LP  0  0  0  0  0  0  0  0  0  0  0  0  # atno 17320 bound_to 7965
  145.8241  139.2056  143.1921 LP  0  0  0  0  0  0  0  0  0  0  0  0  # atno 17321 bound_to 7965
  139.7273  143.9127  152.3007 LP  0  0  0  0  0  0  0  0  0  0  0  0  # atno 17342 bound_to 10162
  139.8905  144.6968  150.8776 LP  0  0  0  0  0  0  0  0  0  0  0  0  # atno 17343 bound_to 10162
  155.9705  130.4173  150.4273 LP  0  0  0  0  0  0  0  0  0  0  0  0  # atno 17370 bound_to 10713
  157.2317  131.0505  151.2488 LP  0  0  0  0  0  0  0  0  0  0  0  0  # atno 17371 bound_to 10713
  140.6208  133.9996  155.7617 LP  0  0  0  0  0  0  0  0  0  0  0  0  # atno 17394 bound_to 11000
  141.0895  133.9938  157.3260 LP  0  0  0  0  0  0  0  0  0  0  0  0  # atno 17395 bound_to 11000

$$$$
