AV-unprocessed.smi:1059|AV-procd|sdf|4654|dock7
  -GOLD-   22720 3163D 1   1.00000     0.00000
 Structure written by MMmdl.
 55 56  0  0  0  0  0  0  0  0  2 V2000
  152.7188  142.0664  159.9071 C   0  0  0  0  0  0  0  0  0  0  0  0
  152.2474  142.4495  158.4956 C   0  0  0  0  0  0  0  0  0  0  0  0
  151.6500  143.8693  158.5040 C   0  0  0  0  0  0  0  0  0  0  0  0
  151.2607  141.3895  157.9470 C   0  0  0  0  0  0  0  0  0  0  0  0
  151.8938  140.2521  157.1204 C   0  0  0  0  0  0  0  0  0  0  0  0
  152.7256  139.5148  157.6515 O   0  0  0  0  0  0  0  0  0  0  0  0
  151.5128  140.0897  155.8292 N   0  0  0  0  0  0  0  0  0  0  0  0
  152.0523  139.0261  154.9724 C   0  0  0  0  0  0  0  0  0  0  0  0
  150.9581  137.9696  154.7366 C   0  0  0  0  0  0  0  0  0  0  0  0
  149.6876  138.6051  154.1331 C   0  0  0  0  0  0  0  0  0  0  0  0
  148.6191  137.6118  154.0816 N   0  0  0  0  0  0  0  0  0  0  0  0
  147.8369  137.2644  155.1135 C   0  0  0  0  0  0  0  0  0  0  0  0
  147.9419  137.7504  156.2394 O   0  0  0  0  0  0  0  0  0  0  0  0
  146.9286  136.3434  154.7475 N   0  0  0  0  0  0  0  0  0  0  0  0
  145.9409  135.7119  155.5506 C   0  0  0  0  0  0  0  0  0  0  0  0
  145.8459  136.0991  156.9048 C   0  0  0  0  0  0  0  0  0  0  0  0
  144.8733  135.5064  157.7360 C   0  0  0  0  0  0  0  0  0  0  0  0
  144.0005  134.5379  157.1977 C   0  0  0  0  0  0  0  0  0  0  0  0
  143.0207  133.9205  157.9872 N   0  0  0  0  0  0  0  0  0  0  0  0
  143.2715  132.5015  158.1888 C   0  0  0  0  0  0  0  0  0  0  0  0
  142.6907  134.6843  159.1814 C   0  0  0  0  0  0  0  0  0  0  0  0
  144.1099  134.2037  155.8901 N   0  3  0  0  0  0  0  0  0  0  0  0
  145.0274  134.7462  155.0607 C   0  0  0  0  0  0  0  0  0  0  0  0
  149.2469  139.8499  154.9376 C   0  0  0  0  0  0  0  0  0  0  0  0
  150.4248  140.8155  155.1598 C   0  0  0  0  0  0  0  0  0  0  0  0
  151.8841  142.0299  160.6078 H   0  0  0  0  0  0  0  0  0  0  0  0
  153.4425  142.7866  160.2896 H   0  0  0  0  0  0  0  0  0  0  0  0
  153.1997  141.0877  159.9111 H   0  0  0  0  0  0  0  0  0  0  0  0
  153.1343  142.4617  157.8600 H   0  0  0  0  0  0  0  0  0  0  0  0
  150.7585  143.9184  159.1297 H   0  0  0  0  0  0  0  0  0  0  0  0
  151.3702  144.2028  157.5054 H   0  0  0  0  0  0  0  0  0  0  0  0
  152.3666  144.5925  158.8938 H   0  0  0  0  0  0  0  0  0  0  0  0
  150.7352  140.9255  158.7828 H   0  0  0  0  0  0  0  0  0  0  0  0
  150.5090  141.8979  157.3423 H   0  0  0  0  0  0  0  0  0  0  0  0
  152.3701  139.4553  154.0210 H   0  0  0  0  0  0  0  0  0  0  0  0
  152.9408  138.5527  155.3923 H   0  0  0  0  0  0  0  0  0  0  0  0
  151.3344  137.1857  154.0784 H   0  0  0  0  0  0  0  0  0  0  0  0
  150.7181  137.4878  155.6859 H   0  0  0  0  0  0  0  0  0  0  0  0
  149.9268  138.9195  153.1152 H   0  0  0  0  0  0  0  0  0  0  0  0
  148.4598  137.1643  153.1908 H   0  0  0  0  0  0  0  0  0  0  0  0
  146.9113  136.1029  153.7670 H   0  0  0  0  0  0  0  0  0  0  0  0
  146.5181  136.8416  157.3100 H   0  0  0  0  0  0  0  0  0  0  0  0
  144.8009  135.7934  158.7750 H   0  0  0  0  0  0  0  0  0  0  0  0
  143.4908  132.0064  157.2420 H   0  0  0  0  0  0  0  0  0  0  0  0
  142.3942  132.0219  158.6236 H   0  0  0  0  0  0  0  0  0  0  0  0
  144.1145  132.3456  158.8631 H   0  0  0  0  0  0  0  0  0  0  0  0
  142.4958  135.7282  158.9329 H   0  0  0  0  0  0  0  0  0  0  0  0
  143.5042  134.6482  159.9070 H   0  0  0  0  0  0  0  0  0  0  0  0
  141.7954  134.2784  159.6529 H   0  0  0  0  0  0  0  0  0  0  0  0
  144.9820  134.3919  154.0420 H   0  0  0  0  0  0  0  0  0  0  0  0
  148.4393  140.3686  154.4197 H   0  0  0  0  0  0  0  0  0  0  0  0
  148.8465  139.5438  155.9055 H   0  0  0  0  0  0  0  0  0  0  0  0
  150.0776  141.6930  155.7018 H   0  0  0  0  0  0  0  0  0  0  0  0
  150.7827  141.1910  154.2000 H   0  0  0  0  0  0  0  0  0  0  0  0
  143.4666  133.5090  155.5101 H   0  0  0  0  0  0  0  0  0  0  0  0
  1  2  1  0  0  0  0
  1 26  1  0  0  0  0
  1 27  1  0  0  0  0
  1 28  1  0  0  0  0
  2  3  1  0  0  0  0
  2  4  1  0  0  0  0
  2 29  1  0  0  0  0
  3 30  1  0  0  0  0
  3 31  1  0  0  0  0
  3 32  1  0  0  0  0
  4  5  1  0  0  0  0
  4 33  1  0  0  0  0
  4 34  1  0  0  0  0
  5  6  2  0  0  0  0
  5  7  1  0  0  0  0
  7 25  1  0  0  0  0
  7  8  1  0  0  0  0
  8  9  1  0  0  0  0
  8 35  1  0  0  0  0
  8 36  1  0  0  0  0
  9 10  1  0  0  0  0
  9 37  1  0  0  0  0
  9 38  1  0  0  0  0
 10 11  1  0  0  0  0
 10 24  1  0  0  0  0
 10 39  1  0  0  0  0
 11 12  1  0  0  0  0
 11 40  1  0  0  0  0
 12 13  2  0  0  0  0
 12 14  1  0  0  0  0
 14 15  1  0  0  0  0
 14 41  1  0  0  0  0
 15 23  1  0  0  0  0
 15 16  2  0  0  0  0
 16 17  1  0  0  0  0
 16 42  1  0  0  0  0
 17 18  2  0  0  0  0
 17 43  1  0  0  0  0
 18 19  1  0  0  0  0
 18 22  1  0  0  0  0
 19 20  1  0  0  0  0
 19 21  1  0  0  0  0
 20 44  1  0  0  0  0
 20 45  1  0  0  0  0
 20 46  1  0  0  0  0
 21 47  1  0  0  0  0
 21 48  1  0  0  0  0
 21 49  1  0  0  0  0
 22 23  2  0  0  0  0
 22 55  1  0  0  0  0
 23 50  1  0  0  0  0
 24 25  1  0  0  0  0
 24 51  1  0  0  0  0
 24 52  1  0  0  0  0
 25 53  1  0  0  0  0
 25 54  1  0  0  0  0
M  CHG  1  22   1
M  END
> <s_m_source_file>
AV-unprocessed.smi

> <i_m_source_file_index>
1059

> <i_lp_mmshare_version>
43012

> <i_f3d_flags>
0

> <s_epik_input>
W0NIM11bQ0hdKFtDSDNdKVtDSDJdQyg9TylOMVtDSDJdW0NIMl1bQ0hdKFtDSDJdW0NIMl0xKVtOSF1DKD1PKVtOSF1jMltjSF1bY0hdYyhOKFtDSDNdKVtDSDNdKW5bY0hdMg==

> <s_epik_cmdline>
J2VwaWtfcHl0aG9uJywgJy1waCcsICc3LjAnLCAnLXRuJywgJzgnLCAnLW1hJywgJzIwMCcsICctbWV0YWxfYmluZGluZycsICctaW1hZScsICc8aW5maWxlLm1hZT4nLCAnLW9tYWUnLCAnPG91dGZpbGUubWFlPic=

> <r_lp_tautomer_probability>
0.999994

> <r_epik_Ionization_Penalty>
0.255783

> <r_epik_Ionization_Penalty_Charging>
0.255763

> <r_epik_Ionization_Penalty_Neutral>
1.99447e-05

> <r_epik_State_Penalty>
0.247288

> <r_epik_Charging_Adjusted_Penalty>
0.503051

> <i_epik_Tot_Q>
1

> <i_epik_Tot_abs_Q>
1

> <r_epik_Metal_State_Penalty>
0.537004

> <b_epik_Metal_Only>
0

> <s_lp_Force_Field>
OPLS_2005

> <r_lp_Energy>
38.2328

> <b_lp_Chiralities_Consistent>
1

> <s_lp_Variant>
AV-unprocessed.smi:1059-1

> <Gold.Version>
5.8.1

> <Gold.Id.Protein>
6NUR|6NUR_protein|mol2

> <Gold.PLP.Fitness>
47.9004

> <Gold.PLP.PLP>
-35.2642

> <Gold.PLP.part.hbond>
-4.0000

> <Gold.PLP.part.metal>
0.0000

> <Gold.PLP.part.buried>
-3.4659

> <Gold.PLP.part.nonpolar>
-29.2246

> <Gold.PLP.part.repulsive>
0.0709

> <Gold.PLP.ligand.clash>
0.2214

> <Gold.PLP.ligand.torsion>
1.0718

> <Gold.PLP.Chemscore.Hbond>
4.9245

> <Gold.PLP.Chemscore.CHOScore>
0.0000

> <Gold.PLP.Chemscore.Metal>
0.0000

> <Gold.Chemscore.Hbonds>
donor molecule, donor type, donor heavy atom, donor atom, acceptor molecule, acceptor atom, score
      L1  H    11    40       P1  7948  1.00
      L1  H    22    55       P1 10957  1.95
      P1  H  7997  8008       L1     6  1.00
      P1  H 11000 11005       L1    19  0.90

> <Gold.PLP.Chemscore.Internal.Correction>
0.2276

> <Gold.Rescore>
     Score         DG    S(hbond)    S(metal)    S(lipo)     H(rot)  DE(clash)    DE(int)     intcor
     15.69     -19.89       2.72        0.00      79.36       1.55       0.07       4.12       ----

> <Gold.Chemscore.Fitness>
15.6919

> <Gold.Chemscore.DG>
-19.8869

> <Gold.Chemscore.ZeroCoef>
-5.4800

> <Gold.Chemscore.Hbond>
2.7226

> <Gold.Chemscore.Metal>
0.0000

> <Gold.Chemscore.Lipo>
79.3593

> <Gold.Chemscore.Internal_Hbond>
0.0000

> <Gold.Chemscore.DEClash>
0.0712

> <Gold.Chemscore.DEInternal>
4.1237

> <Gold.Chemscore.Rot>
1.5514

> <Gold.Chemscore.Internal.Correction>
   9.000000E+99

> <Gold.Chemscore.Hbonds>
donor molecule, donor type, donor heavy atom, donor atom, acceptor molecule, acceptor atom, score
      L1  H    11    40       P1  7948  0.96
      L1  H    22    55       P1 10957  0.91
      P1  H  7997  8008       L1     6  0.44
      P1  H 11000 11005       L1    19  0.05

> <Gold.Chemscore.Hbond.Weighted>
-9.0934

> <Gold.Chemscore.Metal.Weighted>
-0.0000

> <Gold.Chemscore.Lipo.Weighted>
-9.2850

> <Gold.Chemscore.Internal_Hbond.Weighted>
0.0000

> <Gold.Chemscore.DEClash.Weighted>
0.0712

> <Gold.Chemscore.DEInternal.Weighted>
4.1237

> <Gold.Chemscore.Rot.Weighted>
3.9716

> <Gold.Chemscore.Internal.Correction.Weighted>
   9.000000E+99

> <Gold.Protein.RotatedTorsions>
[ 6907 6896 6895 6894 ] final   26.69 input  -60.11 | X-H torsion
[ 7974 7965 7964 7962 ] final  116.24 input  175.53 | X-H torsion
[ 8008 7997 7996 7995 ] final  -72.02 input   59.86 | X-H torsion
[ 10167 10162 10161 10158 ] final -143.77 input  -65.29 | X-H torsion
[ 10718 10713 10712 10709 ] final  137.25 input   66.30 | X-H torsion
[ 10763 10752 10751 10750 ] final  179.31 input  -60.55 | X-H torsion
[ 11005 11000 10999 10996 ] final -102.99 input  -57.11 | X-H torsion

> <Gold.Protein.ActiveResidues>
 VAL166  LYS551  ARG553  GLY616  TRP617  ASP618  TYR619  PRO620  LYS621  CYS622 
 ASP623  PHE694  ASN695  SER759  ASP760  ASP761  ALA762  ILE779  LEU786  VAL792 
 PHE793  MET794  SER795  GLU796  ALA797  LYS798  CYS799  TRP800  GLU811  SER814 

> <Gold.Protein.RotatedAtoms>
  151.9913  134.9978  160.0561 H   0  0  0  0  0  0  0  0  0  0  0  0  # atno 6907 bound_to 6896
  152.1606  133.4574  159.4867 H   0  0  0  0  0  0  0  0  0  0  0  0  # atno 6908 bound_to 6896
  150.6887  134.1994  159.4359 H   0  0  0  0  0  0  0  0  0  0  0  0  # atno 6909 bound_to 6896
  145.1821  139.3044  143.4412 H   0  0  0  0  0  0  0  0  0  0  0  0  # atno 7974 bound_to 7965
  154.5133  140.0805  156.8033 H   0  0  0  0  0  0  0  0  0  0  0  0  # atno 8008 bound_to 7997
  155.3735  140.3424  155.4226 H   0  0  0  0  0  0  0  0  0  0  0  0  # atno 8009 bound_to 7997
  156.1599  140.1585  156.8617 H   0  0  0  0  0  0  0  0  0  0  0  0  # atno 8010 bound_to 7997
  139.7962  143.7897  152.2654 H   0  0  0  0  0  0  0  0  0  0  0  0  # atno 10167 bound_to 10162
  157.4381  131.1055  151.0175 H   0  0  0  0  0  0  0  0  0  0  0  0  # atno 10718 bound_to 10713
  154.5190  135.2793  155.1279 H   0  0  0  0  0  0  0  0  0  0  0  0  # atno 10763 bound_to 10752
  154.2844  135.6279  153.5363 H   0  0  0  0  0  0  0  0  0  0  0  0  # atno 10764 bound_to 10752
  152.9933  135.5659  154.5674 H   0  0  0  0  0  0  0  0  0  0  0  0  # atno 10765 bound_to 10752
  141.1165  133.8603  157.1429 H   0  0  0  0  0  0  0  0  0  0  0  0  # atno 11005 bound_to 11000
  146.3451  140.2004  142.8589 LP  0  0  0  0  0  0  0  0  0  0  0  0  # atno 17320 bound_to 7965
  145.0126  140.8727  143.5215 LP  0  0  0  0  0  0  0  0  0  0  0  0  # atno 17321 bound_to 7965
  139.8003  144.7376  150.9834 LP  0  0  0  0  0  0  0  0  0  0  0  0  # atno 17342 bound_to 10162
  140.7820  143.4352  151.0634 LP  0  0  0  0  0  0  0  0  0  0  0  0  # atno 17343 bound_to 10162
  157.1047  130.5996  149.5468 LP  0  0  0  0  0  0  0  0  0  0  0  0  # atno 17370 bound_to 10713
  155.9938  130.5000  150.7395 LP  0  0  0  0  0  0  0  0  0  0  0  0  # atno 17371 bound_to 10713
  140.0091  134.9995  157.0357 LP  0  0  0  0  0  0  0  0  0  0  0  0  # atno 17394 bound_to 11000
  140.4630  134.1465  155.7193 LP  0  0  0  0  0  0  0  0  0  0  0  0  # atno 17395 bound_to 11000

$$$$
