#       Name:                AV-unprocessed.smi:3141
#       Creating user name   scv26
#       Creation time:       Fri Mar 27 17:36:26 2020


#       File generated by GOLD software.
#

@<TRIPOS>MOLECULE
AV-unprocessed.smi:3141
    38    40     1
SMALL
NO_CHARGES


@<TRIPOS>ATOM
      1 ****        -0.9289   1.4050  -0.5450 O.2            1 S1                 0.0000
      2 ****        -1.3023   0.2326  -0.5993 C.2            1 S1                 0.0000
      3 ****        -2.5832  -0.1546  -0.5458 N.am           1 S1                 0.0000
      4 ****        -3.7050   0.7187  -0.4231 C.3            1 S1                 0.0000
      5 ****        -4.8880   0.2348   0.3871 C.3            1 S1                 0.0000
      6 ****        -4.9896   0.3111  -1.1116 C.3            1 S1                 0.0000
      7 ****        -0.4706  -0.8122  -0.7152 N.am           1 S1                 0.0000
      8 ****         0.9836  -0.7108  -0.8003 C.3            1 S1                 0.0000
      9 ****         1.5911  -2.0231  -1.3330 C.3            1 S1                 0.0000
     10 ****         2.3958  -2.6268  -0.1789 C.3            1 S1                 0.0000
     11 ****         2.8357  -1.4233   0.6487 C.3            1 S1                 0.0000
     12 ****         1.6244  -0.4863   0.5909 C.3            1 S1                 0.0000
     13 ****         1.9472   0.9191   0.8809 N.pl3          1 S1                 0.0000
     14 ****         1.4578   1.6768   1.9145 C.2            1 S1                 0.0000
     15 ****         2.0152   2.9228   1.7873 C.2            1 S1                 0.0000
     16 ****         2.8233   2.8747   0.6837 N.pl3          1 S1                 1.0000
     17 ****         2.7824   1.6566   0.1350 C.2            1 S1                 0.0000
     18 ****        -2.7833  -1.1427  -0.5995 H              1 S1                 0.0000
     19 ****        -3.5037   1.7885  -0.3823 H              1 S1                 0.0000
     20 ****        -4.8275  -0.7547   0.8365 H              1 S1                 0.0000
     21 ****        -5.4356   0.9759   0.9659 H              1 S1                 0.0000
     22 ****        -5.6035   1.1038  -1.5344 H              1 S1                 0.0000
     23 ****        -4.9975  -0.6279  -1.6624 H              1 S1                 0.0000
     24 ****        -0.8683  -1.7397  -0.7514 H              1 S1                 0.0000
     25 ****         1.2438   0.0888  -1.4964 H              1 S1                 0.0000
     26 ****         0.8457  -2.7223  -1.7152 H              1 S1                 0.0000
     27 ****         2.2650  -1.7956  -2.1600 H              1 S1                 0.0000
     28 ****         1.7505  -3.2686   0.4223 H              1 S1                 0.0000
     29 ****         3.2361  -3.2297  -0.5242 H              1 S1                 0.0000
     30 ****         3.1074  -1.6942   1.6694 H              1 S1                 0.0000
     31 ****         3.7087  -0.9654   0.1820 H              1 S1                 0.0000
     32 ****         0.9260  -0.8179   1.3623 H              1 S1                 0.0000
     33 ****         0.7618   1.2854   2.6422 H              1 S1                 0.0000
     34 ****         1.8989   3.8168   2.3826 H              1 S1                 0.0000
     35 ****         3.3144   1.3348  -0.7426 H              1 S1                 0.0000
     36 ****         3.3706   3.6491   0.3294 H              1 S1                 0.0000
     37 ****        -1.6008   2.1401  -0.4550 LP             1 S1                 0.0000
     38 ****         0.0463   1.6218  -0.5909 LP             1 S1                 0.0000
@<TRIPOS>BOND
    1    1    2 2     
    2    2    3 am    
    3    2    7 am    
    4    3    4 1     
    5    3   18 1     
    6    4    6 1     
    7    4    5 1     
    8    4   19 1     
    9    5    6 1     
   10    5   20 1     
   11    5   21 1     
   12    6   22 1     
   13    6   23 1     
   14    7    8 1     
   15    7   24 1     
   16    8   12 1     
   17    8    9 1     
   18    8   25 1     
   19    9   10 1     
   20    9   26 1     
   21    9   27 1     
   22   10   11 1     
   23   10   28 1     
   24   10   29 1     
   25   11   12 1     
   26   11   30 1     
   27   11   31 1     
   28   12   13 1     
   29   12   32 1     
   30   13   17 1     
   31   13   14 1     
   32   14   15 2     
   33   14   33 1     
   34   15   16 1     
   35   15   34 1     
   36   16   17 2     
   37   16   36 1     
   38   17   35 1     
   39    1   37 1     
   40    1   38 1     
@<TRIPOS>SUBSTRUCTURE
      1 S1             1
@<TRIPOS>SET
LONE_PAIRS      STATIC     ATOMS    <user>   **** ""
2 37 38
DONOR_HYDROGENS      STATIC     ATOMS    <user>   **** ""
3 18 24 36
ATOM$BLUE        STATIC     ATOMS    COLORGROUP SYSTEM
2 37 38
ATOM$RED        STATIC     ATOMS    COLORGROUP SYSTEM
3 18 24 36
