#       Name:                AV-unprocessed.smi:561
#       Creating user name   scv26
#       Creation time:       Thu Mar 26 23:43:28 2020


#       File generated by GOLD software.
#

@<TRIPOS>MOLECULE
AV-unprocessed.smi:561
    42    43     1
SMALL
NO_CHARGES


@<TRIPOS>ATOM
      1 ****        -2.8963  -1.4483  -1.7000 C.3            1 S1                 0.0000
      2 ****        -2.3574  -0.3999  -0.7176 C.3            1 S1                 0.0000
      3 ****        -2.8798  -0.6529   0.7126 C.3            1 S1                 0.0000
      4 ****        -2.5666   0.4426   1.6360 N.pl3          1 S1                 0.0000
      5 ****        -3.1649   1.6750   1.6934 C.2            1 S1                 0.0000
      6 ****        -2.5391   2.3669   2.6979 C.2            1 S1                 0.0000
      7 ****        -1.5896   1.5265   3.2145 N.pl3          1 S1                 1.0000
      8 ****        -1.6110   0.3551   2.5705 C.2            1 S1                 0.0000
      9 ****        -0.8960  -0.4260  -0.7555 N.am           1 S1                 0.0000
     10 ****        -0.0827   0.6431  -0.6657 C.2            1 S1                 0.0000
     11 ****        -0.4992   1.7936  -0.5277 O.2            1 S1                 0.0000
     12 ****         1.3753   0.3574  -0.7273 C.2            1 S1                 0.0000
     13 ****         1.7953  -0.8688  -0.7336 N.2            1 S1                 0.0000
     14 ****         3.1384  -1.1825  -0.7734 N.am           1 S1                 0.0000
     15 ****         3.4493  -2.5846  -0.5025 C.3            1 S1                 0.0000
     16 ****         4.1275  -0.3027  -1.0687 C.2            1 S1                 0.0000
     17 ****         5.3224  -0.5974  -1.0865 O.2            1 S1                 0.0000
     18 ****         3.6902   1.1212  -1.4247 C.3            1 S1                 0.0000
     19 ****         2.3603   1.5094  -0.7482 C.3            1 S1                 0.0000
     20 ****        -3.9864  -1.4392  -1.7246 H              1 S1                 0.0000
     21 ****        -2.5785  -2.4540  -1.4231 H              1 S1                 0.0000
     22 ****        -2.5444  -1.2543  -2.7138 H              1 S1                 0.0000
     23 ****        -2.7169   0.5730  -1.0580 H              1 S1                 0.0000
     24 ****        -3.9653  -0.7597   0.7046 H              1 S1                 0.0000
     25 ****        -2.4752  -1.5817   1.1183 H              1 S1                 0.0000
     26 ****        -3.9656   1.9625   1.0275 H              1 S1                 0.0000
     27 ****        -2.6937   3.3680   3.0732 H              1 S1                 0.0000
     28 ****        -0.9736  -0.4900   2.7607 H              1 S1                 0.0000
     29 ****        -0.4628  -1.3316  -0.8695 H              1 S1                 0.0000
     30 ****         4.1177  -2.6714   0.3553 H              1 S1                 0.0000
     31 ****         3.9377  -3.0431  -1.3637 H              1 S1                 0.0000
     32 ****         2.5539  -3.1681  -0.2820 H              1 S1                 0.0000
     33 ****         4.4733   1.8320  -1.1590 H              1 S1                 0.0000
     34 ****         3.5779   1.1677  -2.5086 H              1 S1                 0.0000
     35 ****         1.9407   2.3653  -1.2783 H              1 S1                 0.0000
     36 ****         2.5462   1.8418   0.2737 H              1 S1                 0.0000
     37 ****        -0.9601   1.7566   3.9730 H              1 S1                 0.0000
     38 ****        -1.4829   1.9666  -0.4774 LP             1 S1                 0.0000
     39 ****         0.1462   2.5549  -0.4658 LP             1 S1                 0.0000
     40 ****         1.1251  -1.6106  -0.7088 LP             1 S1                 0.0000
     41 ****         5.6102  -1.5315  -0.8753 LP             1 S1                 0.0000
     42 ****         6.0054   0.0972  -1.3122 LP             1 S1                 0.0000
@<TRIPOS>BOND
    1    1    2 1     
    2    1   20 1     
    3    1   21 1     
    4    1   22 1     
    5    2    3 1     
    6    2    9 1     
    7    2   23 1     
    8    3    4 1     
    9    3   24 1     
   10    3   25 1     
   11    4    8 1     
   12    4    5 1     
   13    5    6 2     
   14    5   26 1     
   15    6    7 1     
   16    6   27 1     
   17    7    8 2     
   18    7   37 1     
   19    8   28 1     
   20    9   10 am    
   21    9   29 1     
   22   10   11 2     
   23   10   12 1     
   24   12   19 1     
   25   12   13 2     
   26   13   14 1     
   27   14   15 1     
   28   14   16 am    
   29   15   30 1     
   30   15   31 1     
   31   15   32 1     
   32   16   17 2     
   33   16   18 1     
   34   18   19 1     
   35   18   33 1     
   36   18   34 1     
   37   19   35 1     
   38   19   36 1     
   39   11   38 1     
   40   11   39 1     
   41   13   40 1     
   42   17   41 1     
   43   17   42 1     
@<TRIPOS>SUBSTRUCTURE
      1 S1             1
@<TRIPOS>SET
LONE_PAIRS      STATIC     ATOMS    <user>   **** ""
5 38 39 40 41 42
DONOR_HYDROGENS      STATIC     ATOMS    <user>   **** ""
2 37 29
ATOM$BLUE        STATIC     ATOMS    COLORGROUP SYSTEM
5 38 39 40 41 42
ATOM$RED        STATIC     ATOMS    COLORGROUP SYSTEM
2 37 29
