AV-unprocessed.smi:797|AV-procd|sdf|3768|dock6
  -GOLD-   22720 1203D 1   1.00000     0.00000
 Structure written by MMmdl.
 34 35  0  0  0  0  0  0  0  0  2 V2000
  150.4423  136.1316  154.5766 C   0  0  0  0  0  0  0  0  0  0  0  0
  150.8331  137.5401  154.9137 C   0  0  0  0  0  0  0  0  0  0  0  0
  151.2893  138.0566  156.1568 C   0  0  0  0  0  0  0  0  0  0  0  0
  151.4898  139.3836  155.9016 C   0  0  0  0  0  0  0  0  0  0  0  0
  151.9557  140.5235  156.7464 C   0  0  0  0  0  0  0  0  0  0  0  0
  152.5568  139.9084  158.3791 S   0  0  0  0  0  0  0  0  0  0  0  0
  151.3601  139.4346  159.0930 O   0  0  0  0  0  0  0  0  0  0  0  0
  153.6035  138.9142  158.0896 O   0  0  0  0  0  0  0  0  0  0  0  0
  153.1461  141.2787  159.0194 N   0  5  0  0  0  0  0  0  0  0  0  0
  152.2438  142.3699  159.3551 C   0  0  0  0  0  0  0  0  0  0  0  0
  152.4399  143.5392  158.3589 C   0  0  0  0  0  0  0  0  0  0  0  0
  151.6129  144.7989  158.7222 C   0  0  0  0  0  0  0  0  0  0  0  0
  151.8952  145.3018  160.1535 C   0  0  0  0  0  0  0  0  0  0  0  0
  151.6954  144.1463  161.1564 C   0  0  0  0  0  0  0  0  0  0  0  0
  152.5208  142.8870  160.7898 C   0  0  0  0  0  0  0  0  0  0  0  0
  151.1920  139.6603  154.6056 O   0  0  0  0  0  0  0  0  0  0  0  0
  150.7756  138.4782  153.9834 N   0  0  0  0  0  0  0  0  0  0  0  0
  150.1825  135.5713  155.4750 H   0  0  0  0  0  0  0  0  0  0  0  0
  151.2603  135.6074  154.0825 H   0  0  0  0  0  0  0  0  0  0  0  0
  149.5788  136.1069  153.9112 H   0  0  0  0  0  0  0  0  0  0  0  0
  151.4371  137.5403  157.0936 H   0  0  0  0  0  0  0  0  0  0  0  0
  152.7549  141.0828  156.2607 H   0  0  0  0  0  0  0  0  0  0  0  0
  151.1322  141.2123  156.9329 H   0  0  0  0  0  0  0  0  0  0  0  0
  151.2003  142.0578  159.2973 H   0  0  0  0  0  0  0  0  0  0  0  0
  153.4951  143.8149  158.3227 H   0  0  0  0  0  0  0  0  0  0  0  0
  152.1771  143.2133  157.3519 H   0  0  0  0  0  0  0  0  0  0  0  0
  151.8333  145.5945  158.0099 H   0  0  0  0  0  0  0  0  0  0  0  0
  150.5462  144.5916  158.6141 H   0  0  0  0  0  0  0  0  0  0  0  0
  152.9195  145.6709  160.2177 H   0  0  0  0  0  0  0  0  0  0  0  0
  151.2417  146.1389  160.4007 H   0  0  0  0  0  0  0  0  0  0  0  0
  151.9739  144.4825  162.1555 H   0  0  0  0  0  0  0  0  0  0  0  0
  150.6345  143.8945  161.2136 H   0  0  0  0  0  0  0  0  0  0  0  0
  152.3121  142.1026  161.5175 H   0  0  0  0  0  0  0  0  0  0  0  0
  153.5815  143.1212  160.8941 H   0  0  0  0  0  0  0  0  0  0  0  0
  1  2  1  0  0  0  0
  1 18  1  0  0  0  0
  1 19  1  0  0  0  0
  1 20  1  0  0  0  0
  2 17  2  0  0  0  0
  2  3  1  0  0  0  0
  3  4  2  0  0  0  0
  3 21  1  0  0  0  0
  4  5  1  0  0  0  0
  4 16  1  0  0  0  0
  5  6  1  0  0  0  0
  5 22  1  0  0  0  0
  5 23  1  0  0  0  0
  6  7  2  0  0  0  0
  6  8  2  0  0  0  0
  6  9  1  0  0  0  0
  9 10  1  0  0  0  0
 10 15  1  0  0  0  0
 10 11  1  0  0  0  0
 10 24  1  0  0  0  0
 11 12  1  0  0  0  0
 11 25  1  0  0  0  0
 11 26  1  0  0  0  0
 12 13  1  0  0  0  0
 12 27  1  0  0  0  0
 12 28  1  0  0  0  0
 13 14  1  0  0  0  0
 13 29  1  0  0  0  0
 13 30  1  0  0  0  0
 14 15  1  0  0  0  0
 14 31  1  0  0  0  0
 14 32  1  0  0  0  0
 15 33  1  0  0  0  0
 15 34  1  0  0  0  0
 16 17  1  0  0  0  0
M  CHG  1   9  -1
M  END
> <s_m_source_file>
AV-unprocessed.smi

> <i_m_source_file_index>
797

> <i_lp_mmshare_version>
43012

> <i_f3d_flags>
0

> <s_epik_input>
W0NIM11jMVtjSF1jKG9uMSlbQ0gyXVMoPU8pKD1PKVtOSF1bQ0hdMltDSDJdW0NIMl1bQ0gyXVtDSDJdW0NIMl0y

> <s_epik_cmdline>
J2VwaWtfcHl0aG9uJywgJy1waCcsICc3LjAnLCAnLXRuJywgJzgnLCAnLW1hJywgJzIwMCcsICctbWV0YWxfYmluZGluZycsICctaW1hZScsICc8aW5maWxlLm1hZT4nLCAnLW9tYWUnLCAnPG91dGZpbGUubWFlPic=

> <r_lp_tautomer_probability>
1

> <r_epik_Ionization_Penalty>
5.48284

> <r_epik_Ionization_Penalty_Charging>
5.48284

> <r_epik_Ionization_Penalty_Neutral>
9.17401e-10

> <r_epik_State_Penalty>
5.48278

> <r_epik_Charging_Adjusted_Penalty>
10.9656

> <i_epik_Tot_Q>
-1

> <i_epik_Tot_abs_Q>
1

> <r_epik_Metal_State_Penalty>
1.49378

> <b_epik_Metal_Only>
1

> <s_lp_Force_Field>
OPLS_2005

> <r_lp_Energy>
6.0802

> <b_lp_Chiralities_Consistent>
1

> <s_lp_Variant>
AV-unprocessed.smi:797-2

> <Gold.Version>
5.8.1

> <Gold.Id.Protein>
6NUR|6NUR_protein|mol2

> <Gold.PLP.Fitness>
41.0022

> <Gold.PLP.PLP>
-35.5383

> <Gold.PLP.part.hbond>
-2.0000

> <Gold.PLP.part.metal>
0.0000

> <Gold.PLP.part.buried>
-2.3256

> <Gold.PLP.part.nonpolar>
-29.4028

> <Gold.PLP.part.repulsive>
0.2852

> <Gold.PLP.ligand.clash>
0.0000

> <Gold.PLP.ligand.torsion>
0.7642

> <Gold.PLP.Chemscore.Hbond>
2.0000

> <Gold.PLP.Chemscore.CHOScore>
0.0000

> <Gold.PLP.Chemscore.Metal>
0.0000

> <Gold.Chemscore.Hbonds>
donor molecule, donor type, donor heavy atom, donor atom, acceptor molecule, acceptor atom, score
      P1  H  7989  7998       L1    16  1.00
      P1  H  7997  8008       L1     8  1.00

> <Gold.PLP.Chemscore.Internal.Correction>
0.9922

> <Gold.Rescore>
     Score         DG    S(hbond)    S(metal)    S(lipo)     H(rot)  DE(clash)    DE(int)     intcor
     18.05     -18.86       1.73        0.00      94.66       1.35       0.04       0.76       ----

> <Gold.Chemscore.Fitness>
18.0537

> <Gold.Chemscore.DG>
-18.8591

> <Gold.Chemscore.ZeroCoef>
-5.4800

> <Gold.Chemscore.Hbond>
1.7281

> <Gold.Chemscore.Metal>
0.0000

> <Gold.Chemscore.Lipo>
94.6587

> <Gold.Chemscore.Internal_Hbond>
0.0000

> <Gold.Chemscore.DEClash>
0.0442

> <Gold.Chemscore.DEInternal>
0.7611

> <Gold.Chemscore.Rot>
1.3546

> <Gold.Chemscore.Internal.Correction>
   9.000000E+99

> <Gold.Chemscore.Hbonds>
donor molecule, donor type, donor heavy atom, donor atom, acceptor molecule, acceptor atom, score
      P1  H  7989  7998       L1    16  0.85
      P1  H  7997  8008       L1     8  0.28

> <Gold.Chemscore.Hbond.Weighted>
-5.7719

> <Gold.Chemscore.Metal.Weighted>
-0.0000

> <Gold.Chemscore.Lipo.Weighted>
-11.0751

> <Gold.Chemscore.Internal_Hbond.Weighted>
0.0000

> <Gold.Chemscore.DEClash.Weighted>
0.0442

> <Gold.Chemscore.DEInternal.Weighted>
0.7611

> <Gold.Chemscore.Rot.Weighted>
3.4679

> <Gold.Chemscore.Internal.Correction.Weighted>
   9.000000E+99

> <Gold.Protein.RotatedTorsions>
[ 6907 6896 6895 6894 ] final -116.58 input  -60.11 | X-H torsion
[ 7974 7965 7964 7962 ] final   13.83 input  175.53 | X-H torsion
[ 8008 7997 7996 7995 ] final -110.68 input   59.86 | X-H torsion
[ 10167 10162 10161 10158 ] final   53.32 input  -65.29 | X-H torsion
[ 10718 10713 10712 10709 ] final  -98.96 input   66.30 | X-H torsion
[ 10763 10752 10751 10750 ] final  107.45 input  -60.55 | X-H torsion
[ 11005 11000 10999 10996 ] final   16.66 input  -57.11 | X-H torsion

> <Gold.Protein.ActiveResidues>
 VAL166  LYS551  ARG553  GLY616  TRP617  ASP618  TYR619  PRO620  LYS621  CYS622 
 ASP623  PHE694  ASN695  SER759  ASP760  ASP761  ALA762  ILE779  LEU786  VAL792 
 PHE793  MET794  SER795  GLU796  ALA797  LYS798  CYS799  TRP800  GLU811  SER814 

> <Gold.Protein.RotatedAtoms>
  150.8067  133.8497  159.3201 H   0  0  0  0  0  0  0  0  0  0  0  0  # atno 6907 bound_to 6896
  151.6294  135.1022  160.0128 H   0  0  0  0  0  0  0  0  0  0  0  0  # atno 6908 bound_to 6896
  152.4158  133.6996  159.6473 H   0  0  0  0  0  0  0  0  0  0  0  0  # atno 6909 bound_to 6896
  146.2320  139.9130  142.8521 H   0  0  0  0  0  0  0  0  0  0  0  0  # atno 7974 bound_to 7965
  154.9782  140.0396  157.2265 H   0  0  0  0  0  0  0  0  0  0  0  0  # atno 8008 bound_to 7997
  154.7738  140.2806  155.6094 H   0  0  0  0  0  0  0  0  0  0  0  0  # atno 8009 bound_to 7997
  156.2925  140.2605  156.2548 H   0  0  0  0  0  0  0  0  0  0  0  0  # atno 8010 bound_to 7997
  140.2420  144.3573  150.6377 H   0  0  0  0  0  0  0  0  0  0  0  0  # atno 10167 bound_to 10162
  156.0121  130.5261  150.6600 H   0  0  0  0  0  0  0  0  0  0  0  0  # atno 10718 bound_to 10713
  153.4069  135.3844  155.2024 H   0  0  0  0  0  0  0  0  0  0  0  0  # atno 10763 bound_to 10752
  154.8734  135.3785  154.4549 H   0  0  0  0  0  0  0  0  0  0  0  0  # atno 10764 bound_to 10752
  153.5053  135.7088  153.5872 H   0  0  0  0  0  0  0  0  0  0  0  0  # atno 10765 bound_to 10752
  140.4446  134.1286  155.7694 H   0  0  0  0  0  0  0  0  0  0  0  0  # atno 11005 bound_to 11000
  145.2211  140.9935  143.4045 LP  0  0  0  0  0  0  0  0  0  0  0  0  # atno 17320 bound_to 7965
  144.9610  139.3980  143.6356 LP  0  0  0  0  0  0  0  0  0  0  0  0  # atno 17321 bound_to 7965
  140.6106  143.2169  151.6893 LP  0  0  0  0  0  0  0  0  0  0  0  0  # atno 17342 bound_to 10162
  139.5074  144.3647  152.0528 LP  0  0  0  0  0  0  0  0  0  0  0  0  # atno 17343 bound_to 10162
  157.4344  131.0853  151.1006 LP  0  0  0  0  0  0  0  0  0  0  0  0  # atno 17370 bound_to 10713
  157.1569  130.6208  149.5599 LP  0  0  0  0  0  0  0  0  0  0  0  0  # atno 17371 bound_to 10713
  141.1691  133.8645  157.1626 LP  0  0  0  0  0  0  0  0  0  0  0  0  # atno 17394 bound_to 11000
  140.0047  135.0013  157.0266 LP  0  0  0  0  0  0  0  0  0  0  0  0  # atno 17395 bound_to 11000

$$$$
