AV-unprocessed.smi:475|AV-procd|sdf|2668|dock10
  -GOLD-   2262023 83D 1   1.00000     0.00000
 Structure written by MMmdl.
 40 42  0  0  0  0  0  0  0  0  2 V2000
  153.2986  138.3245  154.7277 C   0  0  0  0  0  0  0  0  0  0  0  0
  153.0636  138.7724  156.0506 O   0  0  0  0  0  0  0  0  0  0  0  0
  151.7015  139.0918  156.2833 C   0  0  0  0  0  0  0  0  0  0  0  0
  151.5448  139.7396  157.6665 C   0  0  0  0  0  0  0  0  0  0  0  0
  151.2594  141.1794  157.5784 N   0  0  0  0  0  0  0  0  0  0  0  0
  150.4954  141.8702  156.6873 C   0  0  0  0  0  0  0  0  0  0  0  0
  149.6027  141.1844  155.3301 S   0  0  0  0  0  0  0  0  0  0  0  0
  147.8502  141.5145  155.6844 C   0  0  0  0  0  0  0  0  0  0  0  0
  146.9560  141.3866  154.4467 C   0  0  0  0  0  0  0  0  0  0  0  0
  146.3058  142.3469  154.0318 O   0  0  0  0  0  0  0  0  0  0  0  0
  146.9084  140.0822  153.7939 C   0  0  0  0  0  0  0  0  0  0  0  0
  147.3479  138.8418  154.1720 C   0  0  0  0  0  0  0  0  0  0  0  0
  147.0277  137.9281  153.1232 C   0  0  0  0  0  0  0  0  0  0  0  0
  146.4010  138.6293  152.1297 C   0  0  0  0  0  0  0  0  0  0  0  0
  146.3333  139.9412  152.5473 N   0  0  0  0  0  0  0  0  0  0  0  0
  150.5441  143.1865  157.0329 N   0  3  0  0  0  0  0  0  0  0  0  0
  151.3476  143.3414  158.1639 C   0  0  0  0  0  0  0  0  0  0  0  0
  151.6956  144.4803  158.8835 C   0  0  0  0  0  0  0  0  0  0  0  0
  152.5364  144.2910  160.0000 C   0  0  0  0  0  0  0  0  0  0  0  0
  152.9958  143.0087  160.3644 C   0  0  0  0  0  0  0  0  0  0  0  0
  152.6375  141.8614  159.6265 C   0  0  0  0  0  0  0  0  0  0  0  0
  151.8085  142.0564  158.5218 C   0  0  0  0  0  0  0  0  0  0  0  0
  145.9208  140.6962  152.0174 H   0  0  0  0  0  0  0  0  0  0  0  0
  154.3566  138.0950  154.6016 H   0  0  0  0  0  0  0  0  0  0  0  0
  153.0309  139.0902  153.9984 H   0  0  0  0  0  0  0  0  0  0  0  0
  152.7297  137.4195  154.5107 H   0  0  0  0  0  0  0  0  0  0  0  0
  151.3421  139.7764  155.5137 H   0  0  0  0  0  0  0  0  0  0  0  0
  151.0923  138.1883  156.2263 H   0  0  0  0  0  0  0  0  0  0  0  0
  150.7592  139.2503  158.2422 H   0  0  0  0  0  0  0  0  0  0  0  0
  152.4638  139.6186  158.2408 H   0  0  0  0  0  0  0  0  0  0  0  0
  147.5047  140.8199  156.4503 H   0  0  0  0  0  0  0  0  0  0  0  0
  147.7534  142.5228  156.0871 H   0  0  0  0  0  0  0  0  0  0  0  0
  147.8469  138.6100  155.1013 H   0  0  0  0  0  0  0  0  0  0  0  0
  147.2350  136.8684  153.0998 H   0  0  0  0  0  0  0  0  0  0  0  0
  146.0006  138.3223  151.1747 H   0  0  0  0  0  0  0  0  0  0  0  0
  151.3430  145.4634  158.6082 H   0  0  0  0  0  0  0  0  0  0  0  0
  152.8331  145.1461  160.5902 H   0  0  0  0  0  0  0  0  0  0  0  0
  153.6357  142.9018  161.2285 H   0  0  0  0  0  0  0  0  0  0  0  0
  152.9911  140.8837  159.9184 H   0  0  0  0  0  0  0  0  0  0  0  0
  150.0620  143.9218  156.5327 H   0  0  0  0  0  0  0  0  0  0  0  0
  1  2  1  0  0  0  0
  1 24  1  0  0  0  0
  1 25  1  0  0  0  0
  1 26  1  0  0  0  0
  2  3  1  0  0  0  0
  3  4  1  0  0  0  0
  3 27  1  0  0  0  0
  3 28  1  0  0  0  0
  4  5  1  0  0  0  0
  4 29  1  0  0  0  0
  4 30  1  0  0  0  0
  5 22  1  0  0  0  0
  5  6  1  0  0  0  0
  6  7  1  0  0  0  0
  6 16  2  0  0  0  0
  7  8  1  0  0  0  0
  8  9  1  0  0  0  0
  8 31  1  0  0  0  0
  8 32  1  0  0  0  0
  9 10  2  0  0  0  0
  9 11  1  0  0  0  0
 11 15  1  0  0  0  0
 11 12  2  0  0  0  0
 12 13  1  0  0  0  0
 12 33  1  0  0  0  0
 13 14  2  0  0  0  0
 13 34  1  0  0  0  0
 14 15  1  0  0  0  0
 14 35  1  0  0  0  0
 15 23  1  0  0  0  0
 16 17  1  0  0  0  0
 16 40  1  0  0  0  0
 17 22  2  0  0  0  0
 17 18  1  0  0  0  0
 18 19  2  0  0  0  0
 18 36  1  0  0  0  0
 19 20  1  0  0  0  0
 19 37  1  0  0  0  0
 20 21  2  0  0  0  0
 20 38  1  0  0  0  0
 21 22  1  0  0  0  0
 21 39  1  0  0  0  0
M  CHG  1  16   1
M  END
> <s_m_source_file>
AV-unprocessed.smi

> <i_m_source_file_index>
475

> <i_lp_mmshare_version>
43012

> <i_f3d_flags>
0

> <s_epik_input>
W2NIXTFbY0hdW2NIXVtjSF1jKGMxMiluKFtDSDJdW0NIMl1PW0NIM10pYyhuMilTW0NIMl1DKD1PKWMzW2NIXVtjSF1bY0hdW25IXTM=

> <s_epik_cmdline>
J2VwaWtfcHl0aG9uJywgJy1waCcsICc3LjAnLCAnLXRuJywgJzgnLCAnLW1hJywgJzIwMCcsICctbWV0YWxfYmluZGluZycsICctaW1hZScsICc8aW5maWxlLm1hZT4nLCAnLW9tYWUnLCAnPG91dGZpbGUubWFlPic=

> <r_lp_tautomer_probability>
0.9999

> <r_epik_Ionization_Penalty>
2.12955

> <r_epik_Ionization_Penalty_Charging>
2.12955

> <r_epik_Ionization_Penalty_Neutral>
1.90655e-06

> <r_epik_State_Penalty>
2.26782

> <r_epik_Charging_Adjusted_Penalty>
4.39737

> <i_epik_Tot_Q>
1

> <i_epik_Tot_abs_Q>
1

> <r_epik_Metal_State_Penalty>
2.28582

> <b_epik_Metal_Only>
0

> <s_lp_Force_Field>
OPLS_2005

> <r_lp_Energy>
16.0961

> <b_lp_Chiralities_Consistent>
1

> <s_lp_Variant>
AV-unprocessed.smi:475-2

> <Gold.Version>
5.8.1

> <Gold.Id.Protein>
6NUR|6NUR_protein|mol2

> <Gold.PLP.Fitness>
59.7094

> <Gold.PLP.PLP>
-49.2727

> <Gold.PLP.part.hbond>
-3.3821

> <Gold.PLP.part.metal>
0.0000

> <Gold.PLP.part.buried>
-1.2931

> <Gold.PLP.part.nonpolar>
-45.5635

> <Gold.PLP.part.repulsive>
0.2497

> <Gold.PLP.ligand.clash>
0.0000

> <Gold.PLP.ligand.torsion>
0.8332

> <Gold.PLP.Chemscore.Hbond>
3.0000

> <Gold.PLP.Chemscore.CHOScore>
0.9927

> <Gold.PLP.Chemscore.Metal>
0.0000

> <Gold.Chemscore.Hbonds>
donor molecule, donor type, donor heavy atom, donor atom, acceptor molecule, acceptor atom, score
      L1  H    15    23       P1 10175  0.02
      L1  H    16    40       P1  8028  2.00
      P1  H  7997  8008       L1     2  1.00
      L1  C    14    35       P1 10171  1.00

> <Gold.PLP.Chemscore.Internal.Correction>
0.1249

> <Gold.Rescore>
     Score         DG    S(hbond)    S(metal)    S(lipo)     H(rot)  DE(clash)    DE(int)     intcor
     20.28     -21.56       1.85        0.00     130.61       2.10       0.30       0.98       ----

> <Gold.Chemscore.Fitness>
20.2760

> <Gold.Chemscore.DG>
-21.5568

> <Gold.Chemscore.ZeroCoef>
-5.4800

> <Gold.Chemscore.Hbond>
1.8513

> <Gold.Chemscore.Metal>
0.0000

> <Gold.Chemscore.Lipo>
130.6105

> <Gold.Chemscore.Internal_Hbond>
0.0000

> <Gold.Chemscore.DEClash>
0.2989

> <Gold.Chemscore.DEInternal>
0.9819

> <Gold.Chemscore.Rot>
2.1046

> <Gold.Chemscore.Internal.Correction>
   9.000000E+99

> <Gold.Chemscore.Hbonds>
donor molecule, donor type, donor heavy atom, donor atom, acceptor molecule, acceptor atom, score
      L1  H    16    40       P1  8028  1.00
      P1  H  7997  8008       L1     2  0.28

> <Gold.Chemscore.Hbond.Weighted>
-6.1832

> <Gold.Chemscore.Metal.Weighted>
-0.0000

> <Gold.Chemscore.Lipo.Weighted>
-15.2814

> <Gold.Chemscore.Internal_Hbond.Weighted>
0.0000

> <Gold.Chemscore.DEClash.Weighted>
0.2989

> <Gold.Chemscore.DEInternal.Weighted>
0.9819

> <Gold.Chemscore.Rot.Weighted>
5.3878

> <Gold.Chemscore.Internal.Correction.Weighted>
   9.000000E+99

> <Gold.Protein.RotatedTorsions>
[ 6907 6896 6895 6894 ] final -117.04 input  -60.11 | X-H torsion
[ 7974 7965 7964 7962 ] final   19.95 input  175.53 | X-H torsion
[ 8008 7997 7996 7995 ] final  -34.28 input   59.86 | X-H torsion
[ 10167 10162 10161 10158 ] final  -71.93 input  -65.29 | X-H torsion
[ 10718 10713 10712 10709 ] final  113.63 input   66.30 | X-H torsion
[ 10763 10752 10751 10750 ] final -137.22 input  -60.55 | X-H torsion
[ 11005 11000 10999 10996 ] final -145.04 input  -57.11 | X-H torsion

> <Gold.Protein.ActiveResidues>
 VAL166  LYS551  ARG553  GLY616  TRP617  ASP618  TYR619  PRO620  LYS621  CYS622 
 ASP623  PHE694  ASN695  SER759  ASP760  ASP761  ALA762  ILE779  LEU786  VAL792 
 PHE793  MET794  SER795  GLU796  ALA797  LYS798  CYS799  TRP800  GLU811  SER814 

> <Gold.Protein.RotatedAtoms>
  150.8104  133.8432  159.3184 H   0  0  0  0  0  0  0  0  0  0  0  0  # atno 6907 bound_to 6896
  151.6219  135.1029  160.0113 H   0  0  0  0  0  0  0  0  0  0  0  0  # atno 6908 bound_to 6896
  152.4196  133.7054  159.6505 H   0  0  0  0  0  0  0  0  0  0  0  0  # atno 6909 bound_to 6896
  146.2130  139.8239  142.8674 H   0  0  0  0  0  0  0  0  0  0  0  0  # atno 7974 bound_to 7965
  154.4125  140.1688  156.2024 H   0  0  0  0  0  0  0  0  0  0  0  0  # atno 8008 bound_to 7997
  155.9513  140.3400  155.6387 H   0  0  0  0  0  0  0  0  0  0  0  0  # atno 8009 bound_to 7997
  155.6866  140.0729  157.2455 H   0  0  0  0  0  0  0  0  0  0  0  0  # atno 8010 bound_to 7997
  140.5233  143.2329  151.7391 H   0  0  0  0  0  0  0  0  0  0  0  0  # atno 10167 bound_to 10162
  157.6327  131.0986  150.7069 H   0  0  0  0  0  0  0  0  0  0  0  0  # atno 10718 bound_to 10713
  154.8666  135.3648  154.5188 H   0  0  0  0  0  0  0  0  0  0  0  0  # atno 10763 bound_to 10752
  153.5820  135.7018  153.5464 H   0  0  0  0  0  0  0  0  0  0  0  0  # atno 10764 bound_to 10752
  153.3449  135.4088  155.1563 H   0  0  0  0  0  0  0  0  0  0  0  0  # atno 10765 bound_to 10752
  140.7962  134.2910  157.4995 H   0  0  0  0  0  0  0  0  0  0  0  0  # atno 11005 bound_to 11000
  145.3067  141.0209  143.3578 LP  0  0  0  0  0  0  0  0  0  0  0  0  # atno 17320 bound_to 7965
  144.8966  139.4704  143.6652 LP  0  0  0  0  0  0  0  0  0  0  0  0  # atno 17321 bound_to 7965
  139.4930  144.4222  151.9965 LP  0  0  0  0  0  0  0  0  0  0  0  0  # atno 17342 bound_to 10162
  140.3320  144.3305  150.5985 LP  0  0  0  0  0  0  0  0  0  0  0  0  # atno 17343 bound_to 10162
  156.7406  130.4738  149.5478 LP  0  0  0  0  0  0  0  0  0  0  0  0  # atno 17370 bound_to 10713
  156.1542  130.6331  151.0636 LP  0  0  0  0  0  0  0  0  0  0  0  0  # atno 17371 bound_to 10713
  139.8726  134.9403  156.3767 LP  0  0  0  0  0  0  0  0  0  0  0  0  # atno 17394 bound_to 11000
  140.9340  133.7560  156.0061 LP  0  0  0  0  0  0  0  0  0  0  0  0  # atno 17395 bound_to 11000

$$$$
