#       Name:                AV-unprocessed.smi:218
#       Creating user name   scv26
#       Creation time:       Thu Mar 26 20:08:03 2020


#       File generated by GOLD software.
#

@<TRIPOS>MOLECULE
AV-unprocessed.smi:218
    68    71     1
SMALL
NO_CHARGES


@<TRIPOS>ATOM
      1 ****        -4.5684   5.3801  -4.4939 C.3            1 S1                 0.0000
      2 ****        -4.2965   5.3586  -2.9850 C.3            1 S1                 0.0000
      3 ****        -3.3556   6.5038  -2.5725 C.3            1 S1                 0.0000
      4 ****        -3.7015   4.0934  -2.6885 O.3            1 S1                 0.0000
      5 ****        -3.7309   3.5974  -1.3992 C.ar           1 S1                 0.0000
      6 ****        -3.1050   2.3598  -1.1445 C.ar           1 S1                 0.0000
      7 ****        -3.1337   1.8384   0.1650 C.ar           1 S1                 0.0000
      8 ****        -2.4709   0.5146   0.4818 C.3            1 S1                 0.0000
      9 ****        -1.0184   0.5763   0.4009 N.pl3          1 S1                 0.0000
     10 ****        -0.2803  -0.5240   0.6595 C.ar           1 S1                 0.0000
     11 ****        -0.8726  -1.7115   0.9535 N.ar           1 S1                 0.0000
     12 ****        -0.1214  -2.7881   1.2045 C.ar           1 S1                 0.0000
     13 ****         1.2090  -2.8928   1.2131 N.ar           1 S1                 0.0000
     14 ****         1.8078  -1.7023   0.9210 C.ar           1 S1                 0.0000
     15 ****         1.1378  -0.4813   0.6326 C.ar           1 S1                 0.0000
     16 ****         2.0692   0.5174   0.3795 N.2            1 S1                 0.0000
     17 ****         3.2214  -0.0839   0.5116 C.2            1 S1                 0.0000
     18 ****         3.1560  -1.4222   0.8311 N.pl3          1 S1                 0.0000
     19 ****         4.2941  -2.3700   1.0558 C.3            1 S1                 0.0000
     20 ****         4.0678  -3.0166   2.2693 O.3            1 S1                 0.0000
     21 ****         4.4505  -4.3758   2.1424 C.3            1 S1                 0.0000
     22 ****         3.8164  -5.2366   3.2504 C.3            1 S1                 0.0000
     23 ****         2.4385  -5.4603   3.0344 O.3            1 S1                 0.0000
     24 ****         4.1191  -4.7450   0.6927 C.3            1 S1                 0.0000
     25 ****         4.9608  -5.7887   0.2451 O.3            1 S1                 0.0000
     26 ****         4.4252  -3.4483  -0.0503 C.3            1 S1                 0.0000
     27 ****         3.5511  -3.2753  -1.1513 O.3            1 S1                 0.0000
     28 ****        -3.7854   2.5771   1.1725 C.ar           1 S1                 0.0000
     29 ****        -4.3829   3.8031   0.8221 C.ar           1 S1                 0.0000
     30 ****        -4.3618   4.3065  -0.4301 N.ar           1 S1                 0.0000
     31 ****         5.1760  -1.7318   1.1251 H              1 S1                 0.0000
     32 ****         5.5343  -4.3905   2.2757 H              1 S1                 0.0000
     33 ****         3.0697  -5.0188   0.5783 H              1 S1                 0.0000
     34 ****         5.4583  -3.4327  -0.4012 H              1 S1                 0.0000
     35 ****        -5.0326   6.3191  -4.7967 H              1 S1                 0.0000
     36 ****        -5.2413   4.5712  -4.7795 H              1 S1                 0.0000
     37 ****        -3.6464   5.2629  -5.0640 H              1 S1                 0.0000
     38 ****        -5.2593   5.4675  -2.4835 H              1 S1                 0.0000
     39 ****        -3.7847   7.4724  -2.8300 H              1 S1                 0.0000
     40 ****        -2.3924   6.4222  -3.0766 H              1 S1                 0.0000
     41 ****        -3.1671   6.5068  -1.4993 H              1 S1                 0.0000
     42 ****        -2.6134   1.8208  -1.9412 H              1 S1                 0.0000
     43 ****        -2.7652   0.1932   1.4818 H              1 S1                 0.0000
     44 ****        -2.8425  -0.2339  -0.2193 H              1 S1                 0.0000
     45 ****        -0.6206   1.4771   0.1765 H              1 S1                 0.0000
     46 ****        -0.6617  -3.6955   1.4309 H              1 S1                 0.0000
     47 ****         4.1582   0.4368   0.3766 H              1 S1                 0.0000
     48 ****         4.3083  -6.2088   3.2834 H              1 S1                 0.0000
     49 ****         3.9625  -4.7730   4.2263 H              1 S1                 0.0000
     50 ****         2.1066  -5.9935   3.7405 H              1 S1                 0.0000
     51 ****         4.7660  -5.9576  -0.6643 H              1 S1                 0.0000
     52 ****         2.6660  -3.2304  -0.8215 H              1 S1                 0.0000
     53 ****        -3.8277   2.2172   2.1900 H              1 S1                 0.0000
     54 ****        -4.8914   4.3960   1.5677 H              1 S1                 0.0000
     55 ****        -2.7385   4.1598  -2.9496 LP             1 S1                 0.0000
     56 ****        -4.1580   3.4178  -3.2674 LP             1 S1                 0.0000
     57 ****        -1.8699  -1.7796   0.9820 LP             1 S1                 0.0000
     58 ****         1.7052  -3.7386   1.4092 LP             1 S1                 0.0000
     59 ****         1.8975   1.4753   0.1494 LP             1 S1                 0.0000
     60 ****         3.0972  -2.9614   2.5034 LP             1 S1                 0.0000
     61 ****         4.6094  -2.5809   2.9882 LP             1 S1                 0.0000
     62 ****         2.3062  -5.9336   2.1635 LP             1 S1                 0.0000
     63 ****         1.9538  -4.5858   3.0156 LP             1 S1                 0.0000
     64 ****         4.7937  -6.6133   0.7856 LP             1 S1                 0.0000
     65 ****         5.9181  -5.5158   0.3409 LP             1 S1                 0.0000
     66 ****         3.6398  -4.0489  -1.7787 LP             1 S1                 0.0000
     67 ****         3.7764  -2.4282  -1.6326 LP             1 S1                 0.0000
     68 ****        -4.8005   5.1807  -0.6383 LP             1 S1                 0.0000
@<TRIPOS>BOND
    1    1    2 1     
    2    1   35 1     
    3    1   36 1     
    4    1   37 1     
    5    2    3 1     
    6    2    4 1     
    7    2   38 1     
    8    3   39 1     
    9    3   40 1     
   10    3   41 1     
   11    4    5 1     
   12    5   30 ar    
   13    5    6 ar    
   14    6    7 ar    
   15    6   42 1     
   16    7    8 1     
   17    7   28 ar    
   18    8    9 1     
   19    8   43 1     
   20    8   44 1     
   21    9   10 1     
   22    9   45 1     
   23   10   15 ar    
   24   10   11 ar    
   25   11   12 ar    
   26   12   13 ar    
   27   12   46 1     
   28   13   14 ar    
   29   14   18 1     
   30   14   15 ar    
   31   15   16 1     
   32   16   17 2     
   33   17   18 1     
   34   17   47 1     
   35   18   19 1     
   36   19   31 1     
   37   19   26 1     
   38   19   20 1     
   39   20   21 1     
   40   21   32 1     
   41   21   22 1     
   42   21   24 1     
   43   22   23 1     
   44   22   48 1     
   45   22   49 1     
   46   23   50 1     
   47   24   33 1     
   48   24   25 1     
   49   24   26 1     
   50   25   51 1     
   51   26   34 1     
   52   26   27 1     
   53   27   52 1     
   54   28   29 ar    
   55   28   53 1     
   56   29   30 ar    
   57   29   54 1     
   58    4   55 1     
   59    4   56 1     
   60   11   57 1     
   61   13   58 1     
   62   16   59 1     
   63   20   60 1     
   64   20   61 1     
   65   23   62 1     
   66   23   63 1     
   67   25   64 1     
   68   25   65 1     
   69   27   66 1     
   70   27   67 1     
   71   30   68 1     
@<TRIPOS>SUBSTRUCTURE
      1 S1             1
@<TRIPOS>SET
LONE_PAIRS      STATIC     ATOMS    <user>   **** ""
14 55 56 57 58 59 60 61 62 63 64 65 66 67 68
DONOR_HYDROGENS      STATIC     ATOMS    <user>   **** ""
4 45 50 51 52
ATOM$BLUE        STATIC     ATOMS    COLORGROUP SYSTEM
14 55 56 57 58 59 60 61 62 63 64 65 66 67 68
ATOM$RED        STATIC     ATOMS    COLORGROUP SYSTEM
4 45 50 51 52
