AV-unprocessed.smi:3063|AV-procd|sdf|11685|dock4
  -GOLD-   2272017 93D 1   1.00000     0.00000
 Structure written by MMmdl.
 44 45  0  0  0  0  0  0  0  0  1 V2000
  153.4970  141.4664  160.2486 C   0  0  0  0  0  0  0  0  0  0  0  0
  152.6496  142.5427  160.9306 C   0  0  0  0  0  0  0  0  0  0  0  0
  152.1419  142.2772  162.0204 O   0  0  0  0  0  0  0  0  0  0  0  0
  152.4695  143.7350  160.3123 N   0  0  0  0  0  0  0  0  0  0  0  0
  151.5674  144.7590  160.8602 C   0  0  0  0  0  0  0  0  0  0  0  0
  150.1286  144.5778  160.3326 C   0  0  0  0  0  0  0  0  0  0  0  0
  150.0279  144.6482  158.7937 C   0  0  0  0  0  0  0  0  0  0  0  0
  150.7783  143.5513  158.1515 N   0  0  0  0  0  0  0  0  0  0  0  0
  150.2892  142.3055  157.9158 C   0  0  0  0  0  0  0  0  0  0  0  0
  149.2991  141.8473  158.4873 O   0  0  0  0  0  0  0  0  0  0  0  0
  150.9825  141.5936  157.0101 N   0  0  0  0  0  0  0  0  0  0  0  0
  150.7320  140.2033  156.6341 C   0  0  2  0  0  0  0  0  0  0  0  0
  151.9275  139.3431  157.0731 C   0  0  0  0  0  0  0  0  0  0  0  0
  150.3950  140.0672  155.1301 C   0  0  0  0  0  0  0  0  0  0  0  0
  149.1523  140.7157  154.7475 N   0  0  0  0  0  0  0  0  0  0  0  0
  147.9056  140.5624  155.3129 C   0  0  0  0  0  0  0  0  0  0  0  0
  147.0429  141.3673  154.6268 C   0  0  0  0  0  0  0  0  0  0  0  0
  147.8662  141.9774  153.6398 C   0  0  0  0  0  0  0  0  0  0  0  0
  149.1273  141.5820  153.7112 N   0  0  0  0  0  0  0  0  0  0  0  0
  152.1634  143.9168  157.8019 C   0  0  0  0  0  0  0  0  0  0  0  0
  153.0922  144.1073  159.0301 C   0  0  0  0  0  0  0  0  0  0  0  0
  153.1711  141.3038  159.2211 H   0  0  0  0  0  0  0  0  0  0  0  0
  153.4077  140.5167  160.7772 H   0  0  0  0  0  0  0  0  0  0  0  0
  154.5496  141.7505  160.2458 H   0  0  0  0  0  0  0  0  0  0  0  0
  151.5660  144.7360  161.9510 H   0  0  0  0  0  0  0  0  0  0  0  0
  151.9234  145.7571  160.6023 H   0  0  0  0  0  0  0  0  0  0  0  0
  149.7205  143.6315  160.6891 H   0  0  0  0  0  0  0  0  0  0  0  0
  149.4970  145.3551  160.7635 H   0  0  0  0  0  0  0  0  0  0  0  0
  148.9817  144.6491  158.4852 H   0  0  0  0  0  0  0  0  0  0  0  0
  150.4123  145.6115  158.4560 H   0  0  0  0  0  0  0  0  0  0  0  0
  151.7761  142.0411  156.5747 H   0  0  0  0  0  0  0  0  0  0  0  0
  149.8646  139.8552  157.1977 H   0  0  0  0  0  0  0  0  0  0  0  0
  151.7845  138.3002  156.7892 H   0  0  0  0  0  0  0  0  0  0  0  0
  152.0538  139.3741  158.1556 H   0  0  0  0  0  0  0  0  0  0  0  0
  152.8602  139.6865  156.6245 H   0  0  0  0  0  0  0  0  0  0  0  0
  151.2029  140.4919  154.5325 H   0  0  0  0  0  0  0  0  0  0  0  0
  150.3335  139.0162  154.8454 H   0  0  0  0  0  0  0  0  0  0  0  0
  147.7444  139.9005  156.1488 H   0  0  0  0  0  0  0  0  0  0  0  0
  145.9854  141.4975  154.8022 H   0  0  0  0  0  0  0  0  0  0  0  0
  147.5864  142.6894  152.8778 H   0  0  0  0  0  0  0  0  0  0  0  0
  152.6162  143.1819  157.1349 H   0  0  0  0  0  0  0  0  0  0  0  0
  152.1495  144.8349  157.2131 H   0  0  0  0  0  0  0  0  0  0  0  0
  153.3925  145.1547  159.0785 H   0  0  0  0  0  0  0  0  0  0  0  0
  154.0326  143.5817  158.8653 H   0  0  0  0  0  0  0  0  0  0  0  0
  1  2  1  0  0  0  0
  1 22  1  0  0  0  0
  1 23  1  0  0  0  0
  1 24  1  0  0  0  0
  2  3  2  0  0  0  0
  2  4  1  0  0  0  0
  4 21  1  0  0  0  0
  4  5  1  0  0  0  0
  5  6  1  0  0  0  0
  5 25  1  0  0  0  0
  5 26  1  0  0  0  0
  6  7  1  0  0  0  0
  6 27  1  0  0  0  0
  6 28  1  0  0  0  0
  7  8  1  0  0  0  0
  7 29  1  0  0  0  0
  7 30  1  0  0  0  0
  8  9  1  0  0  0  0
  8 20  1  0  0  0  0
  9 10  2  0  0  0  0
  9 11  1  0  0  0  0
 11 12  1  0  0  0  0
 11 31  1  0  0  0  0
 12 13  1  0  0  0  0
 12 14  1  0  0  0  0
 12 32  1  0  0  0  0
 13 33  1  0  0  0  0
 13 34  1  0  0  0  0
 13 35  1  0  0  0  0
 14 15  1  0  0  0  0
 14 36  1  0  0  0  0
 14 37  1  0  0  0  0
 15 19  1  0  0  0  0
 15 16  1  0  0  0  0
 16 17  2  0  0  0  0
 16 38  1  0  0  0  0
 17 18  1  0  0  0  0
 17 39  1  0  0  0  0
 18 19  2  0  0  0  0
 18 40  1  0  0  0  0
 20 21  1  0  0  0  0
 20 41  1  0  0  0  0
 20 42  1  0  0  0  0
 21 43  1  0  0  0  0
 21 44  1  0  0  0  0
M  END
> <s_m_source_file>
AV-unprocessed.smi

> <i_m_source_file_index>
3063

> <i_lp_mmshare_version>
43012

> <i_f3d_flags>
0

> <s_epik_input>
W0NIM11DKD1PKU4xW0NIMl1bQ0gyXVtDSDJdTihbQ0gyXVtDSDJdMSlDKD1PKVtOSF1bQ0BIXShbQ0gzXSlbQ0gyXW4yW2NIXVtjSF1bY0hdbjI=

> <s_epik_cmdline>
J2VwaWtfcHl0aG9uJywgJy1waCcsICc3LjAnLCAnLXRuJywgJzgnLCAnLW1hJywgJzIwMCcsICctbWV0YWxfYmluZGluZycsICctaW1hZScsICc8aW5maWxlLm1hZT4nLCAnLW9tYWUnLCAnPG91dGZpbGUubWFlPic=

> <r_lp_tautomer_probability>
1

> <r_epik_Ionization_Penalty>
6.19559e-05

> <r_epik_Ionization_Penalty_Charging>
0

> <r_epik_Ionization_Penalty_Neutral>
6.19559e-05

> <r_epik_State_Penalty>
-0

> <r_epik_Charging_Adjusted_Penalty>
0

> <i_epik_Tot_Q>
0

> <i_epik_Tot_abs_Q>
0

> <r_epik_Metal_State_Penalty>
-0

> <b_epik_Metal_Only>
0

> <s_lp_Force_Field>
OPLS_2005

> <r_lp_Energy>
38.8795

> <b_lp_Chiralities_Consistent>
1

> <s_lp_Variant>
AV-unprocessed.smi:3063-1

> <Gold.Version>
5.8.1

> <Gold.Id.Protein>
6NUR|6NUR_protein|mol2

> <Gold.PLP.Fitness>
43.5122

> <Gold.PLP.PLP>
-41.3791

> <Gold.PLP.part.hbond>
-2.6786

> <Gold.PLP.part.metal>
0.0000

> <Gold.PLP.part.buried>
-4.2661

> <Gold.PLP.part.nonpolar>
-35.9978

> <Gold.PLP.part.repulsive>
0.4228

> <Gold.PLP.ligand.clash>
0.9509

> <Gold.PLP.ligand.torsion>
0.2659

> <Gold.PLP.Chemscore.Hbond>
1.1872

> <Gold.PLP.Chemscore.CHOScore>
0.0000

> <Gold.PLP.Chemscore.Metal>
0.0000

> <Gold.Chemscore.Hbonds>
donor molecule, donor type, donor heavy atom, donor atom, acceptor molecule, acceptor atom, score
      P1  H  6933  6945       L1     3  0.63
      P1  H  8011  8017       L1    19  0.72

> <Gold.PLP.Chemscore.Internal.Correction>
0.0543

> <Gold.Rescore>
     Score         DG    S(hbond)    S(metal)    S(lipo)     H(rot)  DE(clash)    DE(int)     intcor
     16.12     -16.98       1.23        0.00      94.73       1.44       0.66       0.20       ----

> <Gold.Chemscore.Fitness>
16.1187

> <Gold.Chemscore.DG>
-16.9799

> <Gold.Chemscore.ZeroCoef>
-5.4800

> <Gold.Chemscore.Hbond>
1.2259

> <Gold.Chemscore.Metal>
0.0000

> <Gold.Chemscore.Lipo>
94.7318

> <Gold.Chemscore.Internal_Hbond>
0.0000

> <Gold.Chemscore.DEClash>
0.6563

> <Gold.Chemscore.DEInternal>
0.2049

> <Gold.Chemscore.Rot>
1.4368

> <Gold.Chemscore.Internal.Correction>
   9.000000E+99

> <Gold.Chemscore.Hbonds>
donor molecule, donor type, donor heavy atom, donor atom, acceptor molecule, acceptor atom, score
      P1  H  6933  6945       L1     3  0.60
      P1  H  8011  8017       L1    19  0.18

> <Gold.Chemscore.Hbond.Weighted>
-4.0945

> <Gold.Chemscore.Metal.Weighted>
-0.0000

> <Gold.Chemscore.Lipo.Weighted>
-11.0836

> <Gold.Chemscore.Internal_Hbond.Weighted>
0.0000

> <Gold.Chemscore.DEClash.Weighted>
0.6563

> <Gold.Chemscore.DEInternal.Weighted>
0.2049

> <Gold.Chemscore.Rot.Weighted>
3.6782

> <Gold.Chemscore.Internal.Correction.Weighted>
   9.000000E+99

> <Gold.Protein.RotatedTorsions>
[ 6907 6896 6895 6894 ] final -123.07 input  -60.11 | X-H torsion
[ 7974 7965 7964 7962 ] final   92.42 input  175.53 | X-H torsion
[ 8008 7997 7996 7995 ] final -126.43 input   59.86 | X-H torsion
[ 10167 10162 10161 10158 ] final -162.47 input  -65.29 | X-H torsion
[ 10718 10713 10712 10709 ] final -174.66 input   66.30 | X-H torsion
[ 10763 10752 10751 10750 ] final -158.07 input  -60.55 | X-H torsion
[ 11005 11000 10999 10996 ] final  131.76 input  -57.11 | X-H torsion

> <Gold.Protein.ActiveResidues>
 VAL166  LYS551  ARG553  GLY616  TRP617  ASP618  TYR619  PRO620  LYS621  CYS622 
 ASP623  PHE694  ASN695  SER759  ASP760  ASP761  ALA762  ILE779  LEU786  VAL792 
 PHE793  MET794  SER795  GLU796  ALA797  LYS798  CYS799  TRP800  GLU811  SER814 

> <Gold.Protein.RotatedAtoms>
  150.8636  133.7607  159.2983 H   0  0  0  0  0  0  0  0  0  0  0  0  # atno 6907 bound_to 6896
  151.5242  135.1066  159.9896 H   0  0  0  0  0  0  0  0  0  0  0  0  # atno 6908 bound_to 6896
  152.4644  133.7847  159.6926 H   0  0  0  0  0  0  0  0  0  0  0  0  # atno 6909 bound_to 6896
  145.4926  139.2276  143.2822 H   0  0  0  0  0  0  0  0  0  0  0  0  # atno 7974 bound_to 7965
  155.2296  140.0425  157.2960 H   0  0  0  0  0  0  0  0  0  0  0  0  # atno 8008 bound_to 7997
  154.5897  140.2423  155.7908 H   0  0  0  0  0  0  0  0  0  0  0  0  # atno 8009 bound_to 7997
  156.2251  140.2957  156.0055 H   0  0  0  0  0  0  0  0  0  0  0  0  # atno 8010 bound_to 7997
  139.6390  144.0295  152.2077 H   0  0  0  0  0  0  0  0  0  0  0  0  # atno 10167 bound_to 10162
  156.7884  130.9509  151.3120 H   0  0  0  0  0  0  0  0  0  0  0  0  # atno 10718 bound_to 10713
  154.7586  135.3111  154.8423 H   0  0  0  0  0  0  0  0  0  0  0  0  # atno 10763 bound_to 10752
  153.9190  135.6797  153.4752 H   0  0  0  0  0  0  0  0  0  0  0  0  # atno 10764 bound_to 10752
  153.1185  135.4833  154.9086 H   0  0  0  0  0  0  0  0  0  0  0  0  # atno 10765 bound_to 10752
  139.9749  134.9566  156.9484 H   0  0  0  0  0  0  0  0  0  0  0  0  # atno 11005 bound_to 11000
  146.2275  140.5721  142.8990 LP  0  0  0  0  0  0  0  0  0  0  0  0  # atno 17320 bound_to 7965
  144.7825  140.5870  143.6596 LP  0  0  0  0  0  0  0  0  0  0  0  0  # atno 17321 bound_to 7965
  139.9980  144.6314  150.7755 LP  0  0  0  0  0  0  0  0  0  0  0  0  # atno 17342 bound_to 10162
  140.7481  143.2916  151.3315 LP  0  0  0  0  0  0  0  0  0  0  0  0  # atno 17343 bound_to 10162
  157.6613  130.8968  149.9835 LP  0  0  0  0  0  0  0  0  0  0  0  0  # atno 17370 bound_to 10713
  156.1174  130.3647  149.9944 LP  0  0  0  0  0  0  0  0  0  0  0  0  # atno 17371 bound_to 10713
  140.5215  134.0902  155.7293 LP  0  0  0  0  0  0  0  0  0  0  0  0  # atno 17394 bound_to 11000
  141.1427  133.9110  157.2289 LP  0  0  0  0  0  0  0  0  0  0  0  0  # atno 17395 bound_to 11000

$$$$
