AV-unprocessed.smi:3019|AV-procd|sdf|11487|dock10
  -GOLD-   2272016423D 1   1.00000     0.00000
 Structure written by MMmdl.
 31 32  0  0  0  0  0  0  0  0  2 V2000
  153.7018  141.8514  160.6722 C   0  0  0  0  0  0  0  0  0  0  0  0
  153.0124  143.1926  160.3814 C   0  0  0  0  0  0  0  0  0  0  0  0
  152.1890  143.7128  161.5691 C   0  0  0  0  0  0  0  0  0  0  0  0
  152.1981  143.1362  159.1253 C   0  0  0  0  0  0  0  0  0  0  0  0
  151.5084  144.1943  158.7008 N   0  0  0  0  0  0  0  0  0  0  0  0
  150.9377  143.7256  157.5714 N   0  0  0  0  0  0  0  0  0  0  0  0
  151.3055  142.4562  157.3836 C   0  0  0  0  0  0  0  0  0  0  0  0
  150.8278  141.6494  156.2178 C   0  0  2  0  0  0  0  0  0  0  0  0
  149.3068  141.4051  156.2547 C   0  0  0  0  0  0  0  0  0  0  0  0
  148.9105  140.5202  155.1418 N   0  3  0  0  0  0  0  0  0  0  0  0
  149.6819  139.2614  155.1511 C   0  0  0  0  0  0  0  0  0  0  0  0
  151.1908  139.5642  155.1564 C   0  0  0  0  0  0  0  0  0  0  0  0
  151.5100  140.3985  156.2650 O   0  0  0  0  0  0  0  0  0  0  0  0
  152.1107  142.0155  158.3451 N   0  0  0  0  0  0  0  0  0  0  0  0
  150.3334  144.2857  156.9873 H   0  0  0  0  0  0  0  0  0  0  0  0
  154.3334  141.5456  159.8375 H   0  0  0  0  0  0  0  0  0  0  0  0
  152.9725  141.0596  160.8465 H   0  0  0  0  0  0  0  0  0  0  0  0
  154.3350  141.9201  161.5571 H   0  0  0  0  0  0  0  0  0  0  0  0
  153.8102  143.9194  160.2187 H   0  0  0  0  0  0  0  0  0  0  0  0
  151.7743  144.6990  161.3578 H   0  0  0  0  0  0  0  0  0  0  0  0
  152.8043  143.7989  162.4648 H   0  0  0  0  0  0  0  0  0  0  0  0
  151.3590  143.0445  161.7999 H   0  0  0  0  0  0  0  0  0  0  0  0
  151.1006  142.1728  155.2992 H   0  0  0  0  0  0  0  0  0  0  0  0
  149.0167  140.9393  157.1977 H   0  0  0  0  0  0  0  0  0  0  0  0
  148.7624  142.3469  156.1799 H   0  0  0  0  0  0  0  0  0  0  0  0
  147.9246  140.3106  155.2132 H   0  0  0  0  0  0  0  0  0  0  0  0
  149.4112  138.6815  156.0346 H   0  0  0  0  0  0  0  0  0  0  0  0
  149.4127  138.6643  154.2797 H   0  0  0  0  0  0  0  0  0  0  0  0
  151.7605  138.6380  155.2351 H   0  0  0  0  0  0  0  0  0  0  0  0
  151.4946  140.0468  154.2259 H   0  0  0  0  0  0  0  0  0  0  0  0
  149.0829  140.9991  154.2695 H   0  0  0  0  0  0  0  0  0  0  0  0
  1  2  1  0  0  0  0
  1 16  1  0  0  0  0
  1 17  1  0  0  0  0
  1 18  1  0  0  0  0
  2  3  1  0  0  0  0
  2  4  1  0  0  0  0
  2 19  1  0  0  0  0
  3 20  1  0  0  0  0
  3 21  1  0  0  0  0
  3 22  1  0  0  0  0
  4 14  1  0  0  0  0
  4  5  2  0  0  0  0
  5  6  1  0  0  0  0
  6 15  1  0  0  0  0
  6  7  1  0  0  0  0
  7  8  1  0  0  0  0
  7 14  2  0  0  0  0
  8 13  1  0  0  0  0
  8  9  1  0  0  0  0
  8 23  1  0  0  0  0
  9 10  1  0  0  0  0
  9 24  1  0  0  0  0
  9 25  1  0  0  0  0
 10 11  1  0  0  0  0
 10 26  1  0  0  0  0
 10 31  1  0  0  0  0
 11 12  1  0  0  0  0
 11 27  1  0  0  0  0
 11 28  1  0  0  0  0
 12 13  1  0  0  0  0
 12 29  1  0  0  0  0
 12 30  1  0  0  0  0
M  CHG  1  10   1
M  END
> <s_m_source_file>
AV-unprocessed.smi

> <i_m_source_file_index>
3019

> <i_lp_mmshare_version>
43012

> <i_f3d_flags>
0

> <s_epik_input>
W0NIM11bQ0hdKFtDSDNdKWMxbltuSF1jKG4xKVtDQEBIXTJbQ0gyXVtOSF1bQ0gyXVtDSDJdTzI=

> <s_epik_cmdline>
J2VwaWtfcHl0aG9uJywgJy1waCcsICc3LjAnLCAnLXRuJywgJzgnLCAnLW1hJywgJzIwMCcsICctbWV0YWxfYmluZGluZycsICctaW1hZScsICc8aW5maWxlLm1hZT4nLCAnLW9tYWUnLCAnPG91dGZpbGUubWFlPic=

> <r_epik_Ionization_Penalty>
0.162344

> <r_epik_Ionization_Penalty_Charging>
0.125708

> <r_epik_Ionization_Penalty_Neutral>
0.0366363

> <r_epik_State_Penalty>
1.18286

> <r_epik_Charging_Adjusted_Penalty>
1.30856

> <i_epik_Tot_Q>
1

> <i_epik_Tot_abs_Q>
1

> <r_epik_Metal_State_Penalty>
1.49333

> <b_epik_Metal_Only>
0

> <s_lp_Force_Field>
OPLS_2005

> <r_lp_Energy>
8.53585

> <b_lp_Chiralities_Consistent>
1

> <s_lp_Variant>
AV-unprocessed.smi:3019-3

> <Gold.Version>
5.8.1

> <Gold.Id.Protein>
6NUR|6NUR_protein|mol2

> <Gold.PLP.Fitness>
32.5566

> <Gold.PLP.PLP>
-29.7621

> <Gold.PLP.part.hbond>
-1.0000

> <Gold.PLP.part.metal>
0.0000

> <Gold.PLP.part.buried>
-4.4729

> <Gold.PLP.part.nonpolar>
-24.2900

> <Gold.PLP.part.repulsive>
0.1806

> <Gold.PLP.ligand.clash>
0.0000

> <Gold.PLP.ligand.torsion>
0.1325

> <Gold.PLP.Chemscore.Hbond>
1.0000

> <Gold.PLP.Chemscore.CHOScore>
0.0000

> <Gold.PLP.Chemscore.Metal>
0.0000

> <Gold.Chemscore.Hbonds>
donor molecule, donor type, donor heavy atom, donor atom, acceptor molecule, acceptor atom, score
      L1  H     6    15       P1  8028  1.00

> <Gold.PLP.Chemscore.Internal.Correction>
0.0595

> <Gold.Rescore>
     Score         DG    S(hbond)    S(metal)    S(lipo)     H(rot)  DE(clash)    DE(int)     intcor
     12.71     -12.84       1.00        0.00      62.46       1.28       0.07       0.06       ----

> <Gold.Chemscore.Fitness>
12.7132

> <Gold.Chemscore.DG>
-12.8418

> <Gold.Chemscore.ZeroCoef>
-5.4800

> <Gold.Chemscore.Hbond>
0.9968

> <Gold.Chemscore.Metal>
0.0000

> <Gold.Chemscore.Lipo>
62.4612

> <Gold.Chemscore.Internal_Hbond>
0.0000

> <Gold.Chemscore.DEClash>
0.0650

> <Gold.Chemscore.DEInternal>
0.0635

> <Gold.Chemscore.Rot>
1.2795

> <Gold.Chemscore.Internal.Correction>
   9.000000E+99

> <Gold.Chemscore.Hbonds>
donor molecule, donor type, donor heavy atom, donor atom, acceptor molecule, acceptor atom, score
      L1  H     6    15       P1  8028  0.88

> <Gold.Chemscore.Hbond.Weighted>
-3.3292

> <Gold.Chemscore.Metal.Weighted>
-0.0000

> <Gold.Chemscore.Lipo.Weighted>
-7.3080

> <Gold.Chemscore.Internal_Hbond.Weighted>
0.0000

> <Gold.Chemscore.DEClash.Weighted>
0.0650

> <Gold.Chemscore.DEInternal.Weighted>
0.0635

> <Gold.Chemscore.Rot.Weighted>
3.2754

> <Gold.Chemscore.Internal.Correction.Weighted>
   9.000000E+99

> <Gold.Protein.RotatedTorsions>
[ 6907 6896 6895 6894 ] final  -82.54 input  -60.11 | X-H torsion
[ 7974 7965 7964 7962 ] final -174.87 input  175.53 | X-H torsion
[ 8008 7997 7996 7995 ] final  -27.34 input   59.86 | X-H torsion
[ 10167 10162 10161 10158 ] final -156.22 input  -65.29 | X-H torsion
[ 10718 10713 10712 10709 ] final   52.56 input   66.30 | X-H torsion
[ 10763 10752 10751 10750 ] final -124.60 input  -60.55 | X-H torsion
[ 11005 11000 10999 10996 ] final  128.56 input  -57.11 | X-H torsion

> <Gold.Protein.ActiveResidues>
 VAL166  LYS551  ARG553  GLY616  TRP617  ASP618  TYR619  PRO620  LYS621  CYS622 
 ASP623  PHE694  ASN695  SER759  ASP760  ASP761  ALA762  ILE779  LEU786  VAL792 
 PHE793  MET794  SER795  GLU796  ALA797  LYS798  CYS799  TRP800  GLU811  SER814 

> <Gold.Protein.RotatedAtoms>
  150.6896  134.3650  159.4966 H   0  0  0  0  0  0  0  0  0  0  0  0  # atno 6907 bound_to 6896
  152.1473  134.9013  160.0559 H   0  0  0  0  0  0  0  0  0  0  0  0  # atno 6908 bound_to 6896
  152.0124  133.3831  159.4262 H   0  0  0  0  0  0  0  0  0  0  0  0  # atno 6909 bound_to 6896
  144.7130  140.1407  143.6392 H   0  0  0  0  0  0  0  0  0  0  0  0  # atno 7974 bound_to 7965
  154.4382  140.1875  156.0917 H   0  0  0  0  0  0  0  0  0  0  0  0  # atno 8008 bound_to 7997
  156.0360  140.3325  155.7165 H   0  0  0  0  0  0  0  0  0  0  0  0  # atno 8009 bound_to 7997
  155.5769  140.0618  157.2783 H   0  0  0  0  0  0  0  0  0  0  0  0  # atno 8010 bound_to 7997
  139.6867  143.9488  152.2365 H   0  0  0  0  0  0  0  0  0  0  0  0  # atno 10167 bound_to 10162
  157.5086  130.8485  149.8406 H   0  0  0  0  0  0  0  0  0  0  0  0  # atno 10718 bound_to 10713
  154.8725  135.4058  154.3133 H   0  0  0  0  0  0  0  0  0  0  0  0  # atno 10763 bound_to 10752
  153.3973  135.7017  153.6457 H   0  0  0  0  0  0  0  0  0  0  0  0  # atno 10764 bound_to 10752
  153.5214  135.3686  155.2605 H   0  0  0  0  0  0  0  0  0  0  0  0  # atno 10765 bound_to 10752
  139.9567  134.9611  156.9020 H   0  0  0  0  0  0  0  0  0  0  0  0  # atno 11005 bound_to 11000
  145.9205  139.2542  143.1384 LP  0  0  0  0  0  0  0  0  0  0  0  0  # atno 17320 bound_to 7965
  145.9625  140.8824  143.0203 LP  0  0  0  0  0  0  0  0  0  0  0  0  # atno 17321 bound_to 7965
  139.9293  144.6751  150.8379 LP  0  0  0  0  0  0  0  0  0  0  0  0  # atno 17342 bound_to 10162
  140.7670  143.3319  151.2391 LP  0  0  0  0  0  0  0  0  0  0  0  0  # atno 17343 bound_to 10162
  156.0274  130.3775  150.1784 LP  0  0  0  0  0  0  0  0  0  0  0  0  # atno 17370 bound_to 10713
  156.9973  130.9912  151.3400 LP  0  0  0  0  0  0  0  0  0  0  0  0  # atno 17371 bound_to 10713
  140.5592  134.0551  155.7393 LP  0  0  0  0  0  0  0  0  0  0  0  0  # atno 17394 bound_to 11000
  141.1240  133.9414  157.2673 LP  0  0  0  0  0  0  0  0  0  0  0  0  # atno 17395 bound_to 11000

$$$$
