AV-unprocessed.smi:3078|AV-procd|sdf|11735|dock2
  -GOLD-   2272017133D 1   1.00000     0.00000
 Structure written by MMmdl.
 24 24  0  0  0  0  0  0  0  0  3 V2000
  146.9764  132.3219  152.3346 C   0  0  0  0  0  0  0  0  0  0  0  0
  145.8749  132.6102  151.4410 N   0  0  0  0  0  0  0  0  0  0  0  0
  145.7834  132.3828  150.0851 C   0  0  0  0  0  0  0  0  0  0  0  0
  144.5541  132.8229  149.6749 C   0  0  0  0  0  0  0  0  0  0  0  0
  143.9426  132.8111  148.2964 C   0  0  2  0  0  0  0  0  0  0  0  0
  143.5665  134.1842  147.9139 N   0  3  0  0  0  0  0  0  0  0  0  0
  142.7320  131.8623  148.1929 C   0  0  0  0  0  0  0  0  0  0  0  0
  141.4886  132.5873  147.8699 N   0  3  0  0  0  0  0  0  0  0  0  0
  143.9621  133.3049  150.8780 C   0  0  0  0  0  0  0  0  0  0  0  0
  144.7547  133.1801  151.9285 N   0  0  0  0  0  0  0  0  0  0  0  0
  147.7313  131.7268  151.8196 H   0  0  0  0  0  0  0  0  0  0  0  0
  146.6163  131.7635  153.1995 H   0  0  0  0  0  0  0  0  0  0  0  0
  147.4292  133.2541  152.6734 H   0  0  0  0  0  0  0  0  0  0  0  0
  146.5935  131.9308  149.5316 H   0  0  0  0  0  0  0  0  0  0  0  0
  144.6863  132.4894  147.5657 H   0  0  0  0  0  0  0  0  0  0  0  0
  142.9214  134.5581  148.5959 H   0  0  0  0  0  0  0  0  0  0  0  0
  143.1223  134.1767  147.0067 H   0  0  0  0  0  0  0  0  0  0  0  0
  142.9017  131.0961  147.4355 H   0  0  0  0  0  0  0  0  0  0  0  0
  142.5807  131.3427  149.1398 H   0  0  0  0  0  0  0  0  0  0  0  0
  141.4944  133.4891  148.3254 H   0  0  0  0  0  0  0  0  0  0  0  0
  140.6923  132.0555  148.1928 H   0  0  0  0  0  0  0  0  0  0  0  0
  142.9845  133.7429  151.0171 H   0  0  0  0  0  0  0  0  0  0  0  0
  141.4192  132.7191  146.8707 H   0  0  0  0  0  0  0  0  0  0  0  0
  144.3905  134.7675  147.8802 H   0  0  0  0  0  0  0  0  0  0  0  0
  1  2  1  0  0  0  0
  1 11  1  0  0  0  0
  1 12  1  0  0  0  0
  1 13  1  0  0  0  0
  2 10  1  0  0  0  0
  2  3  1  0  0  0  0
  3  4  2  0  0  0  0
  3 14  1  0  0  0  0
  4  5  1  0  0  0  0
  4  9  1  0  0  0  0
  5  6  1  0  0  0  0
  5  7  1  0  0  0  0
  5 15  1  0  0  0  0
  6 16  1  0  0  0  0
  6 17  1  0  0  0  0
  6 24  1  0  0  0  0
  7  8  1  0  0  0  0
  7 18  1  0  0  0  0
  7 19  1  0  0  0  0
  8 20  1  0  0  0  0
  8 21  1  0  0  0  0
  8 23  1  0  0  0  0
  9 10  2  0  0  0  0
  9 22  1  0  0  0  0
M  CHG  1   6   1
M  CHG  1   8   1
M  END
> <s_m_source_file>
AV-unprocessed.smi

> <i_m_source_file_index>
3078

> <i_lp_mmshare_version>
43012

> <i_f3d_flags>
0

> <s_epik_input>
W0NIM11uMVtjSF1jKFtjSF1uMSlbQ0BIXShbTkgyXSlbQ0gyXVtOSDJd

> <s_epik_cmdline>
J2VwaWtfcHl0aG9uJywgJy1waCcsICc3LjAnLCAnLXRuJywgJzgnLCAnLW1hJywgJzIwMCcsICctbWV0YWxfYmluZGluZycsICctaW1hZScsICc8aW5maWxlLm1hZT4nLCAnLW9tYWUnLCAnPG91dGZpbGUubWFlPic=

> <r_lp_tautomer_probability>
1

> <r_epik_Ionization_Penalty>
2.39325

> <r_epik_Ionization_Penalty_Charging>
2.39325

> <r_epik_Ionization_Penalty_Neutral>
1.68997e-07

> <r_epik_State_Penalty>
1.77229

> <r_epik_Charging_Adjusted_Penalty>
4.16555

> <i_epik_Tot_Q>
2

> <i_epik_Tot_abs_Q>
2

> <r_epik_Metal_State_Penalty>
1.77233

> <b_epik_Metal_Only>
0

> <s_lp_Force_Field>
OPLS_2005

> <r_lp_Energy>
8.51806

> <b_lp_Chiralities_Consistent>
1

> <s_lp_Variant>
AV-unprocessed.smi:3078-5

> <Gold.Version>
5.8.1

> <Gold.Id.Protein>
6NUR|6NUR_protein|mol2

> <Gold.PLP.Fitness>
43.7716

> <Gold.PLP.PLP>
-18.4421

> <Gold.PLP.part.hbond>
-6.0000

> <Gold.PLP.part.metal>
0.0000

> <Gold.PLP.part.buried>
6.0254

> <Gold.PLP.part.nonpolar>
-20.4282

> <Gold.PLP.part.repulsive>
1.5547

> <Gold.PLP.ligand.clash>
0.0000

> <Gold.PLP.ligand.torsion>
0.7877

> <Gold.PLP.Chemscore.Hbond>
7.4790

> <Gold.PLP.Chemscore.CHOScore>
1.4836

> <Gold.PLP.Chemscore.Metal>
0.0000

> <Gold.Chemscore.Hbonds>
donor molecule, donor type, donor heavy atom, donor atom, acceptor molecule, acceptor atom, score
      L1  H     6    16       P1 10186  1.50
      L1  H     6    17       P1 10195  0.59
      L1  H     6    24       P1  7921  0.91
      L1  H     8    20       P1 10186  1.95
      L1  H     8    21       P1 10952  0.39
      L1  H     8    23       P1 10195  0.76
      L1  C     3    14       P1 10747  0.58
      L1  C     9    22       P1 10186  0.96

> <Gold.PLP.Chemscore.Internal.Correction>
0.0171

> <Gold.Rescore>
     Score         DG    S(hbond)    S(metal)    S(lipo)     H(rot)  DE(clash)    DE(int)     intcor
     23.03     -27.21       5.25        0.00      67.18       1.43       3.40       0.78       ----

> <Gold.Chemscore.Fitness>
23.0287

> <Gold.Chemscore.DG>
-27.2087

> <Gold.Chemscore.ZeroCoef>
-5.4800

> <Gold.Chemscore.Hbond>
5.2486

> <Gold.Chemscore.Metal>
0.0000

> <Gold.Chemscore.Lipo>
67.1818

> <Gold.Chemscore.Internal_Hbond>
0.0000

> <Gold.Chemscore.DEClash>
3.3995

> <Gold.Chemscore.DEInternal>
0.7805

> <Gold.Chemscore.Rot>
1.4304

> <Gold.Chemscore.Internal.Correction>
   9.000000E+99

> <Gold.Chemscore.Hbonds>
donor molecule, donor type, donor heavy atom, donor atom, acceptor molecule, acceptor atom, score
      L1  H     6    16       P1 10186  0.71
      L1  H     6    17       P1 10195  0.50
      L1  H     6    24       P1  7921  0.90
      L1  H     8    20       P1 10186  0.90
      L1  H     8    21       P1 10952  0.38
      L1  H     8    23       P1 10195  0.37

> <Gold.Chemscore.Hbond.Weighted>
-17.5303

> <Gold.Chemscore.Metal.Weighted>
-0.0000

> <Gold.Chemscore.Lipo.Weighted>
-7.8603

> <Gold.Chemscore.Internal_Hbond.Weighted>
0.0000

> <Gold.Chemscore.DEClash.Weighted>
3.3995

> <Gold.Chemscore.DEInternal.Weighted>
0.7805

> <Gold.Chemscore.Rot.Weighted>
3.6618

> <Gold.Chemscore.Internal.Correction.Weighted>
   9.000000E+99

> <Gold.Protein.RotatedTorsions>
[ 6907 6896 6895 6894 ] final   64.43 input  -60.11 | X-H torsion
[ 7974 7965 7964 7962 ] final  105.79 input  175.53 | X-H torsion
[ 8008 7997 7996 7995 ] final  104.24 input   59.86 | X-H torsion
[ 10167 10162 10161 10158 ] final -147.59 input  -65.29 | X-H torsion
[ 10718 10713 10712 10709 ] final  149.76 input   66.30 | X-H torsion
[ 10763 10752 10751 10750 ] final    8.53 input  -60.55 | X-H torsion
[ 11005 11000 10999 10996 ] final  -50.25 input  -57.11 | X-H torsion

> <Gold.Protein.ActiveResidues>
 VAL166  LYS551  ARG553  GLY616  TRP617  ASP618  TYR619  PRO620  LYS621  CYS622 
 ASP623  PHE694  ASN695  SER759  ASP760  ASP761  ALA762  ILE779  LEU786  VAL792 
 PHE793  MET794  SER795  GLU796  ALA797  LYS798  CYS799  TRP800  GLU811  SER814 

> <Gold.Protein.RotatedAtoms>
  152.4330  134.5740  159.9928 H   0  0  0  0  0  0  0  0  0  0  0  0  # atno 6907 bound_to 6896
  151.5858  133.3366  159.3025 H   0  0  0  0  0  0  0  0  0  0  0  0  # atno 6908 bound_to 6896
  150.8225  134.7476  159.6849 H   0  0  0  0  0  0  0  0  0  0  0  0  # atno 6909 bound_to 6896
  145.3151  139.2529  143.3742 H   0  0  0  0  0  0  0  0  0  0  0  0  # atno 7974 bound_to 7965
  156.1556  140.3151  155.8720 H   0  0  0  0  0  0  0  0  0  0  0  0  # atno 8008 bound_to 7997
  155.3886  140.0492  157.3058 H   0  0  0  0  0  0  0  0  0  0  0  0  # atno 8009 bound_to 7997
  154.5098  140.2160  155.9190 H   0  0  0  0  0  0  0  0  0  0  0  0  # atno 8010 bound_to 7997
  139.7608  143.8380  152.2606 H   0  0  0  0  0  0  0  0  0  0  0  0  # atno 10167 bound_to 10162
  157.2920  131.0855  151.1454 H   0  0  0  0  0  0  0  0  0  0  0  0  # atno 10718 bound_to 10713
  153.2240  135.6884  153.7967 H   0  0  0  0  0  0  0  0  0  0  0  0  # atno 10763 bound_to 10752
  153.7155  135.3275  155.3256 H   0  0  0  0  0  0  0  0  0  0  0  0  # atno 10764 bound_to 10752
  154.8283  135.4600  154.1099 H   0  0  0  0  0  0  0  0  0  0  0  0  # atno 10765 bound_to 10752
  141.0805  133.6654  156.3704 H   0  0  0  0  0  0  0  0  0  0  0  0  # atno 11005 bound_to 11000
  146.3103  140.3696  142.8673 LP  0  0  0  0  0  0  0  0  0  0  0  0  # atno 17320 bound_to 7965
  144.8984  140.7612  143.5882 LP  0  0  0  0  0  0  0  0  0  0  0  0  # atno 17321 bound_to 7965
  139.8385  144.7221  150.9360 LP  0  0  0  0  0  0  0  0  0  0  0  0  # atno 17342 bound_to 10162
  140.7807  143.4005  151.1158 LP  0  0  0  0  0  0  0  0  0  0  0  0  # atno 17343 bound_to 10162
  157.2847  130.6767  149.6084 LP  0  0  0  0  0  0  0  0  0  0  0  0  # atno 17370 bound_to 10713
  155.9667  130.4439  150.5440 LP  0  0  0  0  0  0  0  0  0  0  0  0  # atno 17371 bound_to 10713
  140.5478  134.6057  157.5399 LP  0  0  0  0  0  0  0  0  0  0  0  0  # atno 17394 bound_to 11000
  139.9619  134.7438  156.0219 LP  0  0  0  0  0  0  0  0  0  0  0  0  # atno 17395 bound_to 11000

$$$$
