AV-unprocessed.smi:686|AV-procd|sdf|3338|dock6
  -GOLD-   22720 0313D 1   1.00000     0.00000
 Structure written by MMmdl.
 41 42  0  0  0  0  0  0  0  0  2 V2000
  151.0103  132.9997  155.3102 C   0  0  0  0  0  0  0  0  0  0  0  0
  150.1975  134.1267  154.6509 C   0  0  1  0  0  0  0  0  0  0  0  0
  148.8835  133.6866  154.0103 C   0  0  0  0  0  0  0  0  0  0  0  0
  148.1246  134.9370  153.7823 N   0  3  1  0  0  0  0  0  0  0  0  0
  146.6459  134.7813  153.6774 C   0  0  0  0  0  0  0  0  0  0  0  0
  146.0434  134.1574  154.9513 C   0  0  0  0  0  0  0  0  0  0  0  0
  146.2640  133.9205  152.4576 C   0  0  0  0  0  0  0  0  0  0  0  0
  148.5854  135.9187  154.7991 C   0  0  0  0  0  0  0  0  0  0  0  0
  149.7617  135.2805  155.5613 C   0  0  1  0  0  0  0  0  0  0  0  0
  149.3156  134.7810  156.8674 N   0  0  0  0  0  0  0  0  0  0  0  0
  148.6595  135.8866  158.0181 S   0  0  0  0  0  0  0  0  0  0  0  0
  149.7464  136.7967  158.4093 O   0  0  0  0  0  0  0  0  0  0  0  0
  147.4124  136.4262  157.4545 O   0  0  0  0  0  0  0  0  0  0  0  0
  148.2687  134.7810  159.4419 C   0  0  0  0  0  0  0  0  0  0  0  0
  147.9207  135.6051  160.6497 C   0  0  0  0  0  0  0  0  0  0  0  0
  147.6179  135.1606  161.9663 C   0  0  0  0  0  0  0  0  0  0  0  0
  147.3878  136.3200  162.6494 C   0  0  0  0  0  0  0  0  0  0  0  0
  147.5342  137.3914  161.8296 O   0  0  0  0  0  0  0  0  0  0  0  0
  147.8714  136.9252  160.5541 N   0  0  0  0  0  0  0  0  0  0  0  0
  150.4322  132.4683  156.0667 H   0  0  0  0  0  0  0  0  0  0  0  0
  151.9065  133.3941  155.7897 H   0  0  0  0  0  0  0  0  0  0  0  0
  151.3273  132.2667  154.5680 H   0  0  0  0  0  0  0  0  0  0  0  0
  150.8174  134.5563  153.8618 H   0  0  0  0  0  0  0  0  0  0  0  0
  149.0425  133.1371  153.0819 H   0  0  0  0  0  0  0  0  0  0  0  0
  148.3343  133.0412  154.6985 H   0  0  0  0  0  0  0  0  0  0  0  0
  146.2094  135.7734  153.5500 H   0  0  0  0  0  0  0  0  0  0  0  0
  144.9700  134.0029  154.8385 H   0  0  0  0  0  0  0  0  0  0  0  0
  146.1773  134.7954  155.8249 H   0  0  0  0  0  0  0  0  0  0  0  0
  146.4943  133.1889  155.1703 H   0  0  0  0  0  0  0  0  0  0  0  0
  145.1831  133.7928  152.3934 H   0  0  0  0  0  0  0  0  0  0  0  0
  146.7090  132.9268  152.5203 H   0  0  0  0  0  0  0  0  0  0  0  0
  146.5844  134.3681  151.5173 H   0  0  0  0  0  0  0  0  0  0  0  0
  148.9099  136.8206  154.2795 H   0  0  0  0  0  0  0  0  0  0  0  0
  147.7825  136.2103  155.4765 H   0  0  0  0  0  0  0  0  0  0  0  0
  150.5777  135.9885  155.7122 H   0  0  0  0  0  0  0  0  0  0  0  0
  148.7381  133.9443  156.7835 H   0  0  0  0  0  0  0  0  0  0  0  0
  147.4581  134.1100  159.1566 H   0  0  0  0  0  0  0  0  0  0  0  0
  149.1487  134.1691  159.6401 H   0  0  0  0  0  0  0  0  0  0  0  0
  147.5777  134.1518  162.3499 H   0  0  0  0  0  0  0  0  0  0  0  0
  147.1238  136.5384  163.6737 H   0  0  0  0  0  0  0  0  0  0  0  0
  148.4450  135.2918  152.8924 H   0  0  0  0  0  0  0  0  0  0  0  0
  1  2  1  0  0  0  0
  1 20  1  0  0  0  0
  1 21  1  0  0  0  0
  1 22  1  0  0  0  0
  2  9  1  0  0  0  0
  2  3  1  0  0  0  0
  2 23  1  0  0  0  0
  3  4  1  0  0  0  0
  3 24  1  0  0  0  0
  3 25  1  0  0  0  0
  4  5  1  0  0  0  0
  4  8  1  0  0  0  0
  4 41  1  0  0  0  0
  5  6  1  0  0  0  0
  5  7  1  0  0  0  0
  5 26  1  0  0  0  0
  6 27  1  0  0  0  0
  6 28  1  0  0  0  0
  6 29  1  0  0  0  0
  7 30  1  0  0  0  0
  7 31  1  0  0  0  0
  7 32  1  0  0  0  0
  8  9  1  0  0  0  0
  8 33  1  0  0  0  0
  8 34  1  0  0  0  0
  9 10  1  0  0  0  0
  9 35  1  0  0  0  0
 10 11  1  0  0  0  0
 10 36  1  0  0  0  0
 11 12  2  0  0  0  0
 11 13  2  0  0  0  0
 11 14  1  0  0  0  0
 14 15  1  0  0  0  0
 14 37  1  0  0  0  0
 14 38  1  0  0  0  0
 15 19  2  0  0  0  0
 15 16  1  0  0  0  0
 16 17  2  0  0  0  0
 16 39  1  0  0  0  0
 17 18  1  0  0  0  0
 17 40  1  0  0  0  0
 18 19  1  0  0  0  0
M  CHG  1   4   1
M  END
> <s_m_source_file>
AV-unprocessed.smi

> <i_m_source_file_index>
686

> <i_lp_mmshare_version>
43012

> <i_f3d_flags>
0

> <s_epik_input>
W0NIM11bQ0BASF0xW0NIMl1OKFtDSF0oW0NIM10pW0NIM10pW0NIMl1bQ0BIXTFbTkhdUyg9TykoPU8pW0NIMl1jMltjSF1bY0hdb24y

> <s_epik_cmdline>
J2VwaWtfcHl0aG9uJywgJy1waCcsICc3LjAnLCAnLXRuJywgJzgnLCAnLW1hJywgJzIwMCcsICctbWV0YWxfYmluZGluZycsICctaW1hZScsICc8aW5maWxlLm1hZT4nLCAnLW9tYWUnLCAnPG91dGZpbGUubWFlPic=

> <r_epik_Ionization_Penalty>
0.00200818

> <r_epik_Ionization_Penalty_Charging>
0.000701289

> <r_epik_Ionization_Penalty_Neutral>
0.00130689

> <r_epik_State_Penalty>
0.00131314

> <r_epik_Charging_Adjusted_Penalty>
0.00201443

> <i_epik_Tot_Q>
1

> <i_epik_Tot_abs_Q>
1

> <r_epik_Metal_State_Penalty>
0.310831

> <b_epik_Metal_Only>
0

> <s_lp_Force_Field>
OPLS_2005

> <r_lp_Energy>
21.3818

> <b_lp_Chiralities_Consistent>
1

> <s_lp_Variant>
AV-unprocessed.smi:686-2

> <Gold.Version>
5.8.1

> <Gold.Id.Protein>
6NUR|6NUR_protein|mol2

> <Gold.PLP.Fitness>
41.0759

> <Gold.PLP.PLP>
-30.0412

> <Gold.PLP.part.hbond>
-4.6421

> <Gold.PLP.part.metal>
0.0000

> <Gold.PLP.part.buried>
-3.2971

> <Gold.PLP.part.nonpolar>
-21.5275

> <Gold.PLP.part.repulsive>
0.0000

> <Gold.PLP.ligand.clash>
0.0000

> <Gold.PLP.ligand.torsion>
0.2469

> <Gold.PLP.Chemscore.Hbond>
3.7847

> <Gold.PLP.Chemscore.CHOScore>
0.0000

> <Gold.PLP.Chemscore.Metal>
0.0000

> <Gold.Chemscore.Hbonds>
donor molecule, donor type, donor heavy atom, donor atom, acceptor molecule, acceptor atom, score
      L1  H     4    41       P1  7948  1.62
      P1  H  6931  6943       L1    18  0.47
      P1  H  6934  6947       L1    18  0.17

> <Gold.PLP.Chemscore.Internal.Correction>
0.1744

> <Gold.Rescore>
     Score         DG    S(hbond)    S(metal)    S(lipo)     H(rot)  DE(clash)    DE(int)     intcor
     11.25     -13.80       1.87        0.00      59.56       1.91       0.00       2.55       ----

> <Gold.Chemscore.Fitness>
11.2495

> <Gold.Chemscore.DG>
-13.8035

> <Gold.Chemscore.ZeroCoef>
-5.4800

> <Gold.Chemscore.Hbond>
1.8707

> <Gold.Chemscore.Metal>
0.0000

> <Gold.Chemscore.Lipo>
59.5636

> <Gold.Chemscore.Internal_Hbond>
0.0000

> <Gold.Chemscore.DEClash>
0.0038

> <Gold.Chemscore.DEInternal>
2.5503

> <Gold.Chemscore.Rot>
1.9115

> <Gold.Chemscore.Internal.Correction>
   9.000000E+99

> <Gold.Chemscore.Hbonds>
donor molecule, donor type, donor heavy atom, donor atom, acceptor molecule, acceptor atom, score
      L1  H     4    41       P1  7948  0.73
      P1  H  6931  6943       L1    18  0.03

> <Gold.Chemscore.Hbond.Weighted>
-6.2481

> <Gold.Chemscore.Metal.Weighted>
-0.0000

> <Gold.Chemscore.Lipo.Weighted>
-6.9689

> <Gold.Chemscore.Internal_Hbond.Weighted>
0.0000

> <Gold.Chemscore.DEClash.Weighted>
0.0038

> <Gold.Chemscore.DEInternal.Weighted>
2.5503

> <Gold.Chemscore.Rot.Weighted>
4.8935

> <Gold.Chemscore.Internal.Correction.Weighted>
   9.000000E+99

> <Gold.Protein.RotatedTorsions>
[ 6907 6896 6895 6894 ] final  -32.93 input  -60.11 | X-H torsion
[ 7974 7965 7964 7962 ] final    7.37 input  175.53 | X-H torsion
[ 8008 7997 7996 7995 ] final   86.17 input   59.86 | X-H torsion
[ 10167 10162 10161 10158 ] final  138.39 input  -65.29 | X-H torsion
[ 10718 10713 10712 10709 ] final    1.00 input   66.30 | X-H torsion
[ 10763 10752 10751 10750 ] final  149.76 input  -60.55 | X-H torsion
[ 11005 11000 10999 10996 ] final   35.51 input  -57.11 | X-H torsion

> <Gold.Protein.ActiveResidues>
 VAL166  LYS551  ARG553  GLY616  TRP617  ASP618  TYR619  PRO620  LYS621  CYS622 
 ASP623  PHE694  ASN695  SER759  ASP760  ASP761  ALA762  ILE779  LEU786  VAL792 
 PHE793  MET794  SER795  GLU796  ALA797  LYS798  CYS799  TRP800  GLU811  SER814 

> <Gold.Protein.RotatedAtoms>
  151.0723  134.9806  159.8314 H   0  0  0  0  0  0  0  0  0  0  0  0  # atno 6907 bound_to 6896
  152.5410  134.2284  159.8825 H   0  0  0  0  0  0  0  0  0  0  0  0  # atno 6908 bound_to 6896
  151.2309  133.4407  159.2637 H   0  0  0  0  0  0  0  0  0  0  0  0  # atno 6909 bound_to 6896
  146.2427  140.0093  142.8408 H   0  0  0  0  0  0  0  0  0  0  0  0  # atno 7974 bound_to 7965
  155.9593  140.3394  155.6476 H   0  0  0  0  0  0  0  0  0  0  0  0  # atno 8008 bound_to 7997
  155.6819  140.0739  157.2500 H   0  0  0  0  0  0  0  0  0  0  0  0  # atno 8009 bound_to 7997
  154.4139  140.1673  156.1979 H   0  0  0  0  0  0  0  0  0  0  0  0  # atno 8010 bound_to 7997
  139.5112  144.6356  151.5705 H   0  0  0  0  0  0  0  0  0  0  0  0  # atno 10167 bound_to 10162
  156.8418  130.5523  149.5677 H   0  0  0  0  0  0  0  0  0  0  0  0  # atno 10718 bound_to 10713
  154.0765  135.2862  155.3298 H   0  0  0  0  0  0  0  0  0  0  0  0  # atno 10763 bound_to 10752
  154.6712  135.5298  153.8144 H   0  0  0  0  0  0  0  0  0  0  0  0  # atno 10764 bound_to 10752
  153.0465  135.6558  154.0943 H   0  0  0  0  0  0  0  0  0  0  0  0  # atno 10765 bound_to 10752
  140.2420  134.3404  155.7922 H   0  0  0  0  0  0  0  0  0  0  0  0  # atno 11005 bound_to 11000
  145.1343  140.9535  143.4526 LP  0  0  0  0  0  0  0  0  0  0  0  0  # atno 17320 bound_to 7965
  145.0357  139.3302  143.6002 LP  0  0  0  0  0  0  0  0  0  0  0  0  # atno 17321 bound_to 7965
  140.6104  143.9447  150.6449 LP  0  0  0  0  0  0  0  0  0  0  0  0  # atno 17342 bound_to 10162
  140.2688  143.3471  152.1257 LP  0  0  0  0  0  0  0  0  0  0  0  0  # atno 17343 bound_to 10162
  156.0876  130.5871  150.9677 LP  0  0  0  0  0  0  0  0  0  0  0  0  # atno 17370 bound_to 10713
  157.6351  131.0917  150.8363 LP  0  0  0  0  0  0  0  0  0  0  0  0  # atno 17371 bound_to 10713
  141.2209  133.7304  156.8900 LP  0  0  0  0  0  0  0  0  0  0  0  0  # atno 17394 bound_to 11000
  140.1644  134.9143  157.2755 LP  0  0  0  0  0  0  0  0  0  0  0  0  # atno 17395 bound_to 11000

$$$$
