#       Name:                AV-unprocessed.smi:2481
#       Creating user name   scv26
#       Creation time:       Fri Mar 27 13:41:30 2020


#       File generated by GOLD software.
#

@<TRIPOS>MOLECULE
AV-unprocessed.smi:2481
    43    44     1
SMALL
NO_CHARGES


@<TRIPOS>ATOM
      1 ****        -4.5710   0.2545  -0.4106 C.3            1 S1                 0.0000
      2 ****        -4.0956   1.4576   0.2448 N.pl3          1 S1                 0.0000
      3 ****        -4.9592   2.4202   0.6453 N.2            1 S1                 0.0000
      4 ****        -4.1516   3.3308   1.1895 C.2            1 S1                 0.0000
      5 ****        -2.8185   3.0342   1.1747 N.2            1 S1                 0.0000
      6 ****        -2.8608   1.8510   0.5704 C.2            1 S1                 0.0000
      7 ****        -1.7450   1.0263   0.2651 N.am           1 S1                 0.0000
      8 ****        -0.4504   1.2586   0.5402 C.2            1 S1                 0.0000
      9 ****        -0.0159   2.2503   1.1266 O.2            1 S1                 0.0000
     10 ****         0.3256   0.2598   0.0958 N.am           1 S1                 0.0000
     11 ****         1.7818   0.1890   0.2298 C.3            1 S1                 0.0000
     12 ****         2.1766  -0.3940   1.6038 C.3            1 S1                 0.0000
     13 ****         1.8350  -1.8889   1.7192 C.3            1 S1                 0.0000
     14 ****         2.4693  -2.6914   0.5742 C.3            1 S1                 0.0000
     15 ****         2.0635  -2.1275  -0.7969 C.3            1 S1                 0.0000
     16 ****         2.4158  -0.6299  -0.9265 C.3            1 S1                 0.0000
     17 ****         2.0615  -0.0952  -2.3305 C.3            1 S1                 0.0000
     18 ****         2.5592   1.2141  -2.5106 O.3            1 S1                 0.0000
     19 ****        -4.3448  -0.6132   0.2097 H              1 S1                 0.0000
     20 ****        -4.0766   0.1425  -1.3760 H              1 S1                 0.0000
     21 ****        -5.6491   0.3043  -0.5696 H              1 S1                 0.0000
     22 ****        -4.5386   4.2454   1.6140 H              1 S1                 0.0000
     23 ****        -1.9580   0.1647  -0.2153 H              1 S1                 0.0000
     24 ****        -0.1208  -0.5154  -0.3714 H              1 S1                 0.0000
     25 ****         2.1781   1.2045   0.1746 H              1 S1                 0.0000
     26 ****         3.2493  -0.2625   1.7508 H              1 S1                 0.0000
     27 ****         1.6937   0.1627   2.4080 H              1 S1                 0.0000
     28 ****         2.1808  -2.2748   2.6785 H              1 S1                 0.0000
     29 ****         0.7527  -2.0235   1.7064 H              1 S1                 0.0000
     30 ****         3.5556  -2.6684   0.6707 H              1 S1                 0.0000
     31 ****         2.1752  -3.7387   0.6474 H              1 S1                 0.0000
     32 ****         2.5640  -2.6963  -1.5813 H              1 S1                 0.0000
     33 ****         0.9935  -2.2741  -0.9495 H              1 S1                 0.0000
     34 ****         3.4995  -0.5523  -0.8212 H              1 S1                 0.0000
     35 ****         2.5053  -0.7303  -3.0979 H              1 S1                 0.0000
     36 ****         0.9848  -0.0998  -2.5014 H              1 S1                 0.0000
     37 ****         2.3338   1.5056  -3.3808 H              1 S1                 0.0000
     38 ****        -5.9549   2.4427   0.5554 LP             1 S1                 0.0000
     39 ****        -2.0375   3.5556   1.5186 LP             1 S1                 0.0000
     40 ****        -0.6450   2.9621   1.4388 LP             1 S1                 0.0000
     41 ****         0.9661   2.3439   1.2906 LP             1 S1                 0.0000
     42 ****         3.5533   1.2144  -2.4022 LP             1 S1                 0.0000
     43 ****         2.1500   1.8261  -1.8338 LP             1 S1                 0.0000
@<TRIPOS>BOND
    1    1    2 1     
    2    1   19 1     
    3    1   20 1     
    4    1   21 1     
    5    2    6 1     
    6    2    3 1     
    7    3    4 2     
    8    4    5 1     
    9    4   22 1     
   10    5    6 2     
   11    6    7 1     
   12    7    8 am    
   13    7   23 1     
   14    8    9 2     
   15    8   10 am    
   16   10   11 1     
   17   10   24 1     
   18   11   16 1     
   19   11   12 1     
   20   11   25 1     
   21   12   13 1     
   22   12   26 1     
   23   12   27 1     
   24   13   14 1     
   25   13   28 1     
   26   13   29 1     
   27   14   15 1     
   28   14   30 1     
   29   14   31 1     
   30   15   16 1     
   31   15   32 1     
   32   15   33 1     
   33   16   17 1     
   34   16   34 1     
   35   17   18 1     
   36   17   35 1     
   37   17   36 1     
   38   18   37 1     
   39    3   38 1     
   40    5   39 1     
   41    9   40 1     
   42    9   41 1     
   43   18   42 1     
   44   18   43 1     
@<TRIPOS>SUBSTRUCTURE
      1 S1             1
@<TRIPOS>SET
LONE_PAIRS      STATIC     ATOMS    <user>   **** ""
6 38 39 40 41 42 43
DONOR_HYDROGENS      STATIC     ATOMS    <user>   **** ""
3 23 24 37
ATOM$BLUE        STATIC     ATOMS    COLORGROUP SYSTEM
6 38 39 40 41 42 43
ATOM$RED        STATIC     ATOMS    COLORGROUP SYSTEM
3 23 24 37
