#       Name:                AV-unprocessed.smi:1741
#       Creating user name   scv26
#       Creation time:       Fri Mar 27 08:23:42 2020


#       File generated by GOLD software.
#

@<TRIPOS>MOLECULE
AV-unprocessed.smi:1741
    43    44     1
SMALL
NO_CHARGES


@<TRIPOS>ATOM
      1 ****        -6.3328   0.2189  -0.6181 C.3            1 S1                 0.0000
      2 ****        -5.6854   0.1427   0.7700 C.3            1 S1                 0.0000
      3 ****        -4.3847   0.7833   0.7938 N.pl3          1 S1                 0.0000
      4 ****        -3.1392   0.1881   0.7556 C.2            1 S1                 0.0000
      5 ****        -2.2381   1.2142   0.8010 C.2            1 S1                 0.0000
      6 ****        -0.8209   1.1690   0.7922 N.am           1 S1                 0.0000
      7 ****        -0.0389   0.0780   0.7477 C.2            1 S1                 0.0000
      8 ****        -0.4476  -1.0812   0.6771 O.2            1 S1                 0.0000
      9 ****         1.2589   0.4123   0.7924 N.am           1 S1                 0.0000
     10 ****         2.3855  -0.5185   0.7704 C.3            1 S1                 0.0000
     11 ****         3.2382  -0.2873   2.0275 C.3            1 S1                 0.0000
     12 ****         3.1903  -0.3196  -0.5289 C.3            1 S1                 0.0000
     13 ****         4.3642  -1.2835  -0.7085 C.3            1 S1                 0.0000
     14 ****         4.5566  -1.3407  -2.2158 C.3            1 S1                 0.0000
     15 ****         3.2667  -0.7393  -2.7801 C.3            1 S1                 0.0000
     16 ****         2.3943  -0.6190  -1.6655 O.3            1 S1                 0.0000
     17 ****        -3.0091   2.4036   0.8665 C.2            1 S1                 0.0000
     18 ****        -4.3059   2.1355   0.8619 N.2            1 S1                 0.0000
     19 ****        -7.3044  -0.2750  -0.6195 H              1 S1                 0.0000
     20 ****        -5.7106  -0.2676  -1.3699 H              1 S1                 0.0000
     21 ****        -6.4862   1.2532  -0.9273 H              1 S1                 0.0000
     22 ****        -6.3255   0.6185   1.5142 H              1 S1                 0.0000
     23 ****        -5.5671  -0.8982   1.0727 H              1 S1                 0.0000
     24 ****        -3.0169  -0.8836   0.7010 H              1 S1                 0.0000
     25 ****        -0.3527   2.0621   0.8396 H              1 S1                 0.0000
     26 ****         1.4893   1.3937   0.8434 H              1 S1                 0.0000
     27 ****         2.0254  -1.5484   0.7982 H              1 S1                 0.0000
     28 ****         4.0651  -0.9954   2.0826 H              1 S1                 0.0000
     29 ****         2.6434  -0.4133   2.9328 H              1 S1                 0.0000
     30 ****         3.6598   0.7184   2.0426 H              1 S1                 0.0000
     31 ****         3.5420   0.7113  -0.6071 H              1 S1                 0.0000
     32 ****         5.2610  -0.9577  -0.1809 H              1 S1                 0.0000
     33 ****         4.0980  -2.2744  -0.3382 H              1 S1                 0.0000
     34 ****         5.4219  -0.7565  -2.5311 H              1 S1                 0.0000
     35 ****         4.7041  -2.3681  -2.5505 H              1 S1                 0.0000
     36 ****         3.4566   0.2511  -3.1962 H              1 S1                 0.0000
     37 ****         2.8222  -1.3571  -3.5608 H              1 S1                 0.0000
     38 ****        -2.6787   3.4306   0.9170 H              1 S1                 0.0000
     39 ****        -1.4303  -1.2640   0.6486 LP             1 S1                 0.0000
     40 ****         0.2032  -1.8399   0.6481 LP             1 S1                 0.0000
     41 ****         1.7366   0.1172  -1.8249 LP             1 S1                 0.0000
     42 ****         1.9040  -1.4787  -1.5218 LP             1 S1                 0.0000
     43 ****        -5.0626   2.7881   0.9002 LP             1 S1                 0.0000
@<TRIPOS>BOND
    1    1    2 1     
    2    1   19 1     
    3    1   20 1     
    4    1   21 1     
    5    2    3 1     
    6    2   22 1     
    7    2   23 1     
    8    3   18 1     
    9    3    4 1     
   10    4    5 2     
   11    4   24 1     
   12    5    6 1     
   13    5   17 1     
   14    6    7 am    
   15    6   25 1     
   16    7    8 2     
   17    7    9 am    
   18    9   10 1     
   19    9   26 1     
   20   10   11 1     
   21   10   12 1     
   22   10   27 1     
   23   11   28 1     
   24   11   29 1     
   25   11   30 1     
   26   12   16 1     
   27   12   13 1     
   28   12   31 1     
   29   13   14 1     
   30   13   32 1     
   31   13   33 1     
   32   14   15 1     
   33   14   34 1     
   34   14   35 1     
   35   15   16 1     
   36   15   36 1     
   37   15   37 1     
   38   17   18 2     
   39   17   38 1     
   40    8   39 1     
   41    8   40 1     
   42   16   41 1     
   43   16   42 1     
   44   18   43 1     
@<TRIPOS>SUBSTRUCTURE
      1 S1             1
@<TRIPOS>SET
LONE_PAIRS      STATIC     ATOMS    <user>   **** ""
5 39 40 41 42 43
DONOR_HYDROGENS      STATIC     ATOMS    <user>   **** ""
2 25 26
ATOM$BLUE        STATIC     ATOMS    COLORGROUP SYSTEM
5 39 40 41 42 43
ATOM$RED        STATIC     ATOMS    COLORGROUP SYSTEM
2 25 26
