AV-unprocessed.smi:2547|AV-procd|sdf|10001|dock2
  -GOLD-   2272014 53D 1   1.00000     0.00000
 Structure written by MMmdl.
 44 45  0  0  0  0  0  0  0  0  2 V2000
  146.8132  138.5362  151.8036 C   0  0  0  0  0  0  0  0  0  0  0  0
  147.5319  139.5301  152.6295 N   0  3  2  0  0  0  0  0  0  0  0  0
  148.1573  138.9210  153.8296 C   0  0  0  0  0  0  0  0  0  0  0  0
  149.0012  139.9525  154.5968 C   0  0  0  0  0  0  0  0  0  0  0  0
  148.1590  141.1831  154.9833 C   0  0  1  0  0  0  0  0  0  0  0  0
  148.9855  142.2004  155.6269 N   0  0  0  0  0  0  0  0  0  0  0  0
  149.6502  142.0354  156.7801 C   0  0  0  0  0  0  0  0  0  0  0  0
  149.6373  140.9854  157.4236 O   0  0  0  0  0  0  0  0  0  0  0  0
  150.3203  143.1507  157.1206 N   0  0  0  0  0  0  0  0  0  0  0  0
  151.1178  143.3752  158.2744 C   0  0  0  0  0  0  0  0  0  0  0  0
  151.2752  144.7276  158.6427 C   0  0  0  0  0  0  0  0  0  0  0  0
  152.0465  145.0449  159.7750 C   0  0  0  0  0  0  0  0  0  0  0  0
  152.6398  144.0033  160.5102 C   0  0  0  0  0  0  0  0  0  0  0  0
  152.4414  142.6670  160.0870 C   0  0  0  0  0  0  0  0  0  0  0  0
  153.0087  141.5776  160.7863 N   0  0  0  0  0  0  0  0  0  0  0  0
  153.3981  141.7369  162.1840 C   0  0  0  0  0  0  0  0  0  0  0  0
  153.1261  140.2747  160.1432 C   0  0  0  0  0  0  0  0  0  0  0  0
  151.6946  142.3814  158.9927 N   0  0  0  0  0  0  0  0  0  0  0  0
  147.4934  141.7677  153.7264 C   0  0  0  0  0  0  0  0  0  0  0  0
  146.6825  140.6965  152.9774 C   0  0  0  0  0  0  0  0  0  0  0  0
  145.9732  138.1059  152.3507 H   0  0  0  0  0  0  0  0  0  0  0  0
  147.4804  137.7258  151.5080 H   0  0  0  0  0  0  0  0  0  0  0  0
  146.4290  138.9980  150.8935 H   0  0  0  0  0  0  0  0  0  0  0  0
  147.3819  138.5122  154.4797 H   0  0  0  0  0  0  0  0  0  0  0  0
  148.7906  138.0860  153.5278 H   0  0  0  0  0  0  0  0  0  0  0  0
  149.4236  139.4871  155.4882 H   0  0  0  0  0  0  0  0  0  0  0  0
  149.8467  140.2601  153.9795 H   0  0  0  0  0  0  0  0  0  0  0  0
  147.3720  140.8741  155.6743 H   0  0  0  0  0  0  0  0  0  0  0  0
  149.0497  143.0961  155.1654 H   0  0  0  0  0  0  0  0  0  0  0  0
  150.2489  143.9312  156.4850 H   0  0  0  0  0  0  0  0  0  0  0  0
  150.8124  145.5168  158.0680 H   0  0  0  0  0  0  0  0  0  0  0  0
  152.1799  146.0734  160.0761 H   0  0  0  0  0  0  0  0  0  0  0  0
  153.2287  144.2485  161.3813 H   0  0  0  0  0  0  0  0  0  0  0  0
  154.0940  142.5689  162.2982 H   0  0  0  0  0  0  0  0  0  0  0  0
  153.8894  140.8411  162.5644 H   0  0  0  0  0  0  0  0  0  0  0  0
  152.5226  141.9299  162.8048 H   0  0  0  0  0  0  0  0  0  0  0  0
  153.8071  140.3267  159.2932 H   0  0  0  0  0  0  0  0  0  0  0  0
  152.1524  139.9302  159.7926 H   0  0  0  0  0  0  0  0  0  0  0  0
  153.5127  139.5257  160.8343 H   0  0  0  0  0  0  0  0  0  0  0  0
  146.8411  142.5981  154.0000 H   0  0  0  0  0  0  0  0  0  0  0  0
  148.2532  142.1781  153.0592 H   0  0  0  0  0  0  0  0  0  0  0  0
  146.2633  141.1281  152.0675 H   0  0  0  0  0  0  0  0  0  0  0  0
  145.8412  140.3665  153.5892 H   0  0  0  0  0  0  0  0  0  0  0  0
  148.2875  139.8831  152.0593 H   0  0  0  0  0  0  0  0  0  0  0  0
  1  2  1  0  0  0  0
  1 21  1  0  0  0  0
  1 22  1  0  0  0  0
  1 23  1  0  0  0  0
  2 20  1  0  0  0  0
  2  3  1  0  0  0  0
  2 44  1  0  0  0  0
  3  4  1  0  0  0  0
  3 24  1  0  0  0  0
  3 25  1  0  0  0  0
  4  5  1  0  0  0  0
  4 26  1  0  0  0  0
  4 27  1  0  0  0  0
  5  6  1  0  0  0  0
  5 19  1  0  0  0  0
  5 28  1  0  0  0  0
  6  7  1  0  0  0  0
  6 29  1  0  0  0  0
  7  8  2  0  0  0  0
  7  9  1  0  0  0  0
  9 10  1  0  0  0  0
  9 30  1  0  0  0  0
 10 18  1  0  0  0  0
 10 11  2  0  0  0  0
 11 12  1  0  0  0  0
 11 31  1  0  0  0  0
 12 13  2  0  0  0  0
 12 32  1  0  0  0  0
 13 14  1  0  0  0  0
 13 33  1  0  0  0  0
 14 15  1  0  0  0  0
 14 18  2  0  0  0  0
 15 16  1  0  0  0  0
 15 17  1  0  0  0  0
 16 34  1  0  0  0  0
 16 35  1  0  0  0  0
 16 36  1  0  0  0  0
 17 37  1  0  0  0  0
 17 38  1  0  0  0  0
 17 39  1  0  0  0  0
 19 20  1  0  0  0  0
 19 40  1  0  0  0  0
 19 41  1  0  0  0  0
 20 42  1  0  0  0  0
 20 43  1  0  0  0  0
M  CHG  1   2   1
M  END
> <s_m_source_file>
AV-unprocessed.smi

> <i_m_source_file_index>
2547

> <i_lp_mmshare_version>
43012

> <i_f3d_flags>
0

> <s_epik_input>
W0NIM11OMVtDSDJdW0NIMl1bQ0hdKFtDSDJdW0NIMl0xKVtOSF1DKD1PKVtOSF1jMltjSF1bY0hdW2NIXWMobjIpTihbQ0gzXSlbQ0gzXQ==

> <s_epik_cmdline>
J2VwaWtfcHl0aG9uJywgJy1waCcsICc3LjAnLCAnLXRuJywgJzgnLCAnLW1hJywgJzIwMCcsICctbWV0YWxfYmluZGluZycsICctaW1hZScsICc8aW5maWxlLm1hZT4nLCAnLW9tYWUnLCAnPG91dGZpbGUubWFlPic=

> <r_lp_tautomer_probability>
1

> <r_epik_Ionization_Penalty>
0.0212039

> <r_epik_Ionization_Penalty_Charging>
0.00366825

> <r_epik_Ionization_Penalty_Neutral>
0.0175357

> <r_epik_State_Penalty>
0.0137702

> <r_epik_Charging_Adjusted_Penalty>
0.0174385

> <i_epik_Tot_Q>
1

> <i_epik_Tot_abs_Q>
1

> <r_epik_Metal_State_Penalty>
0.0148742

> <b_epik_Metal_Only>
0

> <s_lp_Force_Field>
OPLS_2005

> <r_lp_Energy>
17.9869

> <b_lp_Chiralities_Consistent>
1

> <s_lp_Variant>
AV-unprocessed.smi:2547-1

> <Gold.Version>
5.8.1

> <Gold.Id.Protein>
6NUR|6NUR_protein|mol2

> <Gold.PLP.Fitness>
51.7168

> <Gold.PLP.PLP>
-43.9042

> <Gold.PLP.part.hbond>
-2.8738

> <Gold.PLP.part.metal>
0.0000

> <Gold.PLP.part.buried>
-1.0852

> <Gold.PLP.part.nonpolar>
-40.2663

> <Gold.PLP.part.repulsive>
0.2361

> <Gold.PLP.ligand.clash>
0.0000

> <Gold.PLP.ligand.torsion>
0.2983

> <Gold.PLP.Chemscore.Hbond>
2.8000

> <Gold.PLP.Chemscore.CHOScore>
0.0000

> <Gold.PLP.Chemscore.Metal>
0.0000

> <Gold.Chemscore.Hbonds>
donor molecule, donor type, donor heavy atom, donor atom, acceptor molecule, acceptor atom, score
      L1  H     2    44       P1  7957  1.00
      L1  H     6    29       P1  8028  0.72
      L1  H     9    30       P1  8028  0.69

> <Gold.PLP.Chemscore.Internal.Correction>
0.0092

> <Gold.Rescore>
     Score         DG    S(hbond)    S(metal)    S(lipo)     H(rot)  DE(clash)    DE(int)     intcor
     20.47     -23.21       2.81        0.00      93.18       1.00       0.41       2.32       ----

> <Gold.Chemscore.Fitness>
20.4683

> <Gold.Chemscore.DG>
-23.2071

> <Gold.Chemscore.ZeroCoef>
-5.4800

> <Gold.Chemscore.Hbond>
2.8097

> <Gold.Chemscore.Metal>
0.0000

> <Gold.Chemscore.Lipo>
93.1847

> <Gold.Chemscore.Internal_Hbond>
0.0000

> <Gold.Chemscore.DEClash>
0.4139

> <Gold.Chemscore.DEInternal>
2.3249

> <Gold.Chemscore.Rot>
1.0000

> <Gold.Chemscore.Internal.Correction>
   9.000000E+99

> <Gold.Chemscore.Hbonds>
donor molecule, donor type, donor heavy atom, donor atom, acceptor molecule, acceptor atom, score
      L1  H     2    44       P1  7957  0.98
      L1  H     6    29       P1  8028  0.72
      L1  H     9    30       P1  8028  0.70

> <Gold.Chemscore.Hbond.Weighted>
-9.3845

> <Gold.Chemscore.Metal.Weighted>
-0.0000

> <Gold.Chemscore.Lipo.Weighted>
-10.9026

> <Gold.Chemscore.Internal_Hbond.Weighted>
0.0000

> <Gold.Chemscore.DEClash.Weighted>
0.4139

> <Gold.Chemscore.DEInternal.Weighted>
2.3249

> <Gold.Chemscore.Rot.Weighted>
2.5600

> <Gold.Chemscore.Internal.Correction.Weighted>
   9.000000E+99

> <Gold.Protein.RotatedTorsions>
[ 6907 6896 6895 6894 ] final -125.41 input  -60.11 | X-H torsion
[ 7974 7965 7964 7962 ] final  179.45 input  175.53 | X-H torsion
[ 8008 7997 7996 7995 ] final -163.03 input   59.86 | X-H torsion
[ 10167 10162 10161 10158 ] final  160.41 input  -65.29 | X-H torsion
[ 10718 10713 10712 10709 ] final -111.19 input   66.30 | X-H torsion
[ 10763 10752 10751 10750 ] final -112.80 input  -60.55 | X-H torsion
[ 11005 11000 10999 10996 ] final -121.54 input  -57.11 | X-H torsion

> <Gold.Protein.ActiveResidues>
 VAL166  LYS551  ARG553  GLY616  TRP617  ASP618  TYR619  PRO620  LYS621  CYS622 
 ASP623  PHE694  ASN695  SER759  ASP760  ASP761  ALA762  ILE779  LEU786  VAL792 
 PHE793  MET794  SER795  GLU796  ALA797  LYS798  CYS799  TRP800  GLU811  SER814 

> <Gold.Protein.RotatedAtoms>
  150.8865  133.7301  159.2916 H   0  0  0  0  0  0  0  0  0  0  0  0  # atno 6907 bound_to 6896
  151.4865  135.1054  159.9801 H   0  0  0  0  0  0  0  0  0  0  0  0  # atno 6908 bound_to 6896
  152.4793  133.8168  159.7088 H   0  0  0  0  0  0  0  0  0  0  0  0  # atno 6909 bound_to 6896
  144.7145  140.0551  143.6434 H   0  0  0  0  0  0  0  0  0  0  0  0  # atno 7974 bound_to 7965
  155.8154  140.0912  157.1879 H   0  0  0  0  0  0  0  0  0  0  0  0  # atno 8008 bound_to 7997
  154.3979  140.1446  156.3497 H   0  0  0  0  0  0  0  0  0  0  0  0  # atno 8009 bound_to 7997
  155.8321  140.3442  155.5581 H   0  0  0  0  0  0  0  0  0  0  0  0  # atno 8010 bound_to 7997
  139.4840  144.4637  151.8670 H   0  0  0  0  0  0  0  0  0  0  0  0  # atno 10167 bound_to 10162
  156.0633  130.5854  150.8339 H   0  0  0  0  0  0  0  0  0  0  0  0  # atno 10718 bound_to 10713
  154.8366  135.4477  154.1249 H   0  0  0  0  0  0  0  0  0  0  0  0  # atno 10763 bound_to 10752
  153.2475  135.6923  153.7721 H   0  0  0  0  0  0  0  0  0  0  0  0  # atno 10764 bound_to 10752
  153.7046  135.3366  155.3208 H   0  0  0  0  0  0  0  0  0  0  0  0  # atno 10765 bound_to 10752
  141.0062  134.0330  157.3473 H   0  0  0  0  0  0  0  0  0  0  0  0  # atno 11005 bound_to 11000
  145.9912  139.3016  143.0984 LP  0  0  0  0  0  0  0  0  0  0  0  0  # atno 17320 bound_to 7965
  145.8901  140.9309  143.0556 LP  0  0  0  0  0  0  0  0  0  0  0  0  # atno 17321 bound_to 7965
  140.4101  144.2380  150.5889 LP  0  0  0  0  0  0  0  0  0  0  0  0  # atno 17342 bound_to 10162
  140.4975  143.2328  151.8728 LP  0  0  0  0  0  0  0  0  0  0  0  0  # atno 17343 bound_to 10162
  157.5657  131.0946  150.9493 LP  0  0  0  0  0  0  0  0  0  0  0  0  # atno 17370 bound_to 10713
  156.9721  130.5495  149.5291 LP  0  0  0  0  0  0  0  0  0  0  0  0  # atno 17371 bound_to 10713
  139.9065  135.0180  156.7507 LP  0  0  0  0  0  0  0  0  0  0  0  0  # atno 17394 bound_to 11000
  140.6808  133.9476  155.7909 LP  0  0  0  0  0  0  0  0  0  0  0  0  # atno 17395 bound_to 11000

$$$$
