AV-unprocessed.smi:3267|AV-procd|sdf|12505|dock9
  -GOLD-   2272018413D 1   1.00000     0.00000
 Structure written by MMmdl.
 38 39  0  0  0  0  0  0  0  0  1 V2000
  145.3686  136.2061  150.4039 C   0  0  0  0  0  0  0  0  0  0  0  0
  145.1346  135.8248  151.8748 C   0  0  1  0  0  0  0  0  0  0  0  0
  144.2365  134.5765  152.0496 C   0  0  0  0  0  0  0  0  0  0  0  0
  144.6578  133.4342  151.2548 N   0  0  0  0  0  0  0  0  0  0  0  0
  143.9493  132.7562  150.2847 C   0  0  0  0  0  0  0  0  0  0  0  0
  144.7526  131.7556  149.8182 C   0  0  0  0  0  0  0  0  0  0  0  0
  145.9473  131.9000  150.5774 C   0  0  0  0  0  0  0  0  0  0  0  0
  145.8870  132.9037  151.4372 N   0  0  0  0  0  0  0  0  0  0  0  0
  146.4250  135.6473  152.5373 N   0  0  0  0  0  0  0  0  0  0  0  0
  146.6040  135.1625  153.7738 C   0  0  0  0  0  0  0  0  0  0  0  0
  145.6873  134.8142  154.5183 O   0  0  0  0  0  0  0  0  0  0  0  0
  147.9027  135.1025  154.0979 N   0  0  0  0  0  0  0  0  0  0  0  0
  148.4264  134.6454  155.3795 C   0  0  0  0  0  0  0  0  0  0  0  0
  149.3718  133.4459  155.2030 C   0  0  2  0  0  0  0  0  0  0  0  0
  148.7073  132.2231  154.5708 C   0  0  0  0  0  0  0  0  0  0  0  0
  149.5117  131.0492  155.1112 C   0  0  0  0  0  0  0  0  0  0  0  0
  150.3734  131.6620  156.2182 C   0  0  0  0  0  0  0  0  0  0  0  0
  149.8025  132.9395  156.4565 O   0  0  0  0  0  0  0  0  0  0  0  0
  144.4223  136.3380  149.8790 H   0  0  0  0  0  0  0  0  0  0  0  0
  145.9410  135.4442  149.8739 H   0  0  0  0  0  0  0  0  0  0  0  0
  145.9203  137.1436  150.3272 H   0  0  0  0  0  0  0  0  0  0  0  0
  144.6263  136.6668  152.3483 H   0  0  0  0  0  0  0  0  0  0  0  0
  144.1861  134.2767  153.0975 H   0  0  0  0  0  0  0  0  0  0  0  0
  143.2145  134.8243  151.7601 H   0  0  0  0  0  0  0  0  0  0  0  0
  142.9449  133.0416  150.0084 H   0  0  0  0  0  0  0  0  0  0  0  0
  144.5219  131.0296  149.0528 H   0  0  0  0  0  0  0  0  0  0  0  0
  146.8501  131.3091  150.5302 H   0  0  0  0  0  0  0  0  0  0  0  0
  147.2450  135.8992  152.0053 H   0  0  0  0  0  0  0  0  0  0  0  0
  148.5786  135.4079  153.4131 H   0  0  0  0  0  0  0  0  0  0  0  0
  148.9247  135.4580  155.9113 H   0  0  0  0  0  0  0  0  0  0  0  0
  147.5757  134.3507  155.9945 H   0  0  0  0  0  0  0  0  0  0  0  0
  150.2463  133.7332  154.6159 H   0  0  0  0  0  0  0  0  0  0  0  0
  147.6725  132.1385  154.9057 H   0  0  0  0  0  0  0  0  0  0  0  0
  148.7036  132.2691  153.4813 H   0  0  0  0  0  0  0  0  0  0  0  0
  148.8471  130.2797  155.5056 H   0  0  0  0  0  0  0  0  0  0  0  0
  150.1342  130.5926  154.3411 H   0  0  0  0  0  0  0  0  0  0  0  0
  150.3843  131.0574  157.1254 H   0  0  0  0  0  0  0  0  0  0  0  0
  151.4027  131.7876  155.8793 H   0  0  0  0  0  0  0  0  0  0  0  0
  1  2  1  0  0  0  0
  1 19  1  0  0  0  0
  1 20  1  0  0  0  0
  1 21  1  0  0  0  0
  2  3  1  0  0  0  0
  2  9  1  0  0  0  0
  2 22  1  0  0  0  0
  3  4  1  0  0  0  0
  3 23  1  0  0  0  0
  3 24  1  0  0  0  0
  4  8  1  0  0  0  0
  4  5  1  0  0  0  0
  5  6  2  0  0  0  0
  5 25  1  0  0  0  0
  6  7  1  0  0  0  0
  6 26  1  0  0  0  0
  7  8  2  0  0  0  0
  7 27  1  0  0  0  0
  9 10  1  0  0  0  0
  9 28  1  0  0  0  0
 10 11  2  0  0  0  0
 10 12  1  0  0  0  0
 12 13  1  0  0  0  0
 12 29  1  0  0  0  0
 13 14  1  0  0  0  0
 13 30  1  0  0  0  0
 13 31  1  0  0  0  0
 14 18  1  0  0  0  0
 14 15  1  0  0  0  0
 14 32  1  0  0  0  0
 15 16  1  0  0  0  0
 15 33  1  0  0  0  0
 15 34  1  0  0  0  0
 16 17  1  0  0  0  0
 16 35  1  0  0  0  0
 16 36  1  0  0  0  0
 17 18  1  0  0  0  0
 17 37  1  0  0  0  0
 17 38  1  0  0  0  0
M  END
> <s_m_source_file>
AV-unprocessed.smi

> <i_m_source_file_index>
3267

> <i_lp_mmshare_version>
43012

> <i_f3d_flags>
0

> <s_epik_input>
bjFbY0hdW2NIXVtjSF1uMVtDSDJdW0NAQEhdKFtDSDNdKVtOSF1DKD1PKVtOSF1bQ0gyXVtDQEBIXTJbQ0gyXVtDSDJdW0NIMl1PMg==

> <s_epik_cmdline>
J2VwaWtfcHl0aG9uJywgJy1waCcsICc3LjAnLCAnLXRuJywgJzgnLCAnLW1hJywgJzIwMCcsICctbWV0YWxfYmluZGluZycsICctaW1hZScsICc8aW5maWxlLm1hZT4nLCAnLW9tYWUnLCAnPG91dGZpbGUubWFlPic=

> <r_lp_tautomer_probability>
1

> <r_epik_Ionization_Penalty>
6.24796e-05

> <r_epik_Ionization_Penalty_Charging>
0

> <r_epik_Ionization_Penalty_Neutral>
6.24796e-05

> <r_epik_State_Penalty>
-0

> <r_epik_Charging_Adjusted_Penalty>
0

> <i_epik_Tot_Q>
0

> <i_epik_Tot_abs_Q>
0

> <r_epik_Metal_State_Penalty>
-0

> <b_epik_Metal_Only>
0

> <s_lp_Force_Field>
OPLS_2005

> <r_lp_Energy>
14.7816

> <b_lp_Chiralities_Consistent>
1

> <s_lp_Variant>
AV-unprocessed.smi:3267-2

> <Gold.Version>
5.8.1

> <Gold.Id.Protein>
6NUR|6NUR_protein|mol2

> <Gold.PLP.Fitness>
41.8582

> <Gold.PLP.PLP>
-30.2598

> <Gold.PLP.part.hbond>
-2.0000

> <Gold.PLP.part.metal>
0.0000

> <Gold.PLP.part.buried>
0.0465

> <Gold.PLP.part.nonpolar>
-28.4414

> <Gold.PLP.part.repulsive>
0.2555

> <Gold.PLP.ligand.clash>
0.0000

> <Gold.PLP.ligand.torsion>
0.1907

> <Gold.PLP.Chemscore.Hbond>
1.9760

> <Gold.PLP.Chemscore.CHOScore>
2.0000

> <Gold.PLP.Chemscore.Metal>
0.0000

> <Gold.Chemscore.Hbonds>
donor molecule, donor type, donor heavy atom, donor atom, acceptor molecule, acceptor atom, score
      L1  H     9    28       P1  7948  1.00
      L1  H    12    29       P1  7948  1.00
      L1  C     5    25       P1 10186  1.00
      L1  C     7    27       P1 10747  1.00

> <Gold.PLP.Chemscore.Internal.Correction>
0.0518

> <Gold.Rescore>
     Score         DG    S(hbond)    S(metal)    S(lipo)     H(rot)  DE(clash)    DE(int)     intcor
     13.06     -15.82       1.87        0.00      76.03       1.87       0.87       1.88       ----

> <Gold.Chemscore.Fitness>
13.0642

> <Gold.Chemscore.DG>
-15.8174

> <Gold.Chemscore.ZeroCoef>
-5.4800

> <Gold.Chemscore.Hbond>
1.8669

> <Gold.Chemscore.Metal>
0.0000

> <Gold.Chemscore.Lipo>
76.0285

> <Gold.Chemscore.Internal_Hbond>
0.0000

> <Gold.Chemscore.DEClash>
0.8688

> <Gold.Chemscore.DEInternal>
1.8845

> <Gold.Chemscore.Rot>
1.8724

> <Gold.Chemscore.Internal.Correction>
   9.000000E+99

> <Gold.Chemscore.Hbonds>
donor molecule, donor type, donor heavy atom, donor atom, acceptor molecule, acceptor atom, score
      L1  H     9    28       P1  7948  0.98
      L1  H    12    29       P1  7948  0.91

> <Gold.Chemscore.Hbond.Weighted>
-6.2354

> <Gold.Chemscore.Metal.Weighted>
-0.0000

> <Gold.Chemscore.Lipo.Weighted>
-8.8953

> <Gold.Chemscore.Internal_Hbond.Weighted>
0.0000

> <Gold.Chemscore.DEClash.Weighted>
0.8688

> <Gold.Chemscore.DEInternal.Weighted>
1.8845

> <Gold.Chemscore.Rot.Weighted>
4.7933

> <Gold.Chemscore.Internal.Correction.Weighted>
   9.000000E+99

> <Gold.Protein.RotatedTorsions>
[ 6907 6896 6895 6894 ] final  105.78 input  -60.11 | X-H torsion
[ 7974 7965 7964 7962 ] final   99.77 input  175.53 | X-H torsion
[ 8008 7997 7996 7995 ] final  177.81 input   59.86 | X-H torsion
[ 10167 10162 10161 10158 ] final  116.17 input  -65.29 | X-H torsion
[ 10718 10713 10712 10709 ] final  117.56 input   66.30 | X-H torsion
[ 10763 10752 10751 10750 ] final   94.07 input  -60.55 | X-H torsion
[ 11005 11000 10999 10996 ] final -120.62 input  -57.11 | X-H torsion

> <Gold.Protein.ActiveResidues>
 VAL166  LYS551  ARG553  GLY616  TRP617  ASP618  TYR619  PRO620  LYS621  CYS622 
 ASP623  PHE694  ASN695  SER759  ASP760  ASP761  ALA762  ILE779  LEU786  VAL792 
 PHE793  MET794  SER795  GLU796  ALA797  LYS798  CYS799  TRP800  GLU811  SER814 

> <Gold.Protein.RotatedAtoms>
  152.5218  133.9478  159.7656 H   0  0  0  0  0  0  0  0  0  0  0  0  # atno 6907 bound_to 6896
  150.9794  133.6253  159.2732 H   0  0  0  0  0  0  0  0  0  0  0  0  # atno 6908 bound_to 6896
  151.3435  135.0875  159.9432 H   0  0  0  0  0  0  0  0  0  0  0  0  # atno 6909 bound_to 6896
  145.3945  139.2357  143.3334 H   0  0  0  0  0  0  0  0  0  0  0  0  # atno 7974 bound_to 7965
  156.0615  140.1349  156.9935 H   0  0  0  0  0  0  0  0  0  0  0  0  # atno 8008 bound_to 7997
  154.4484  140.0990  156.6596 H   0  0  0  0  0  0  0  0  0  0  0  0  # atno 8009 bound_to 7997
  155.5369  140.3460  155.4440 H   0  0  0  0  0  0  0  0  0  0  0  0  # atno 8010 bound_to 7997
  139.6266  144.7109  151.2520 H   0  0  0  0  0  0  0  0  0  0  0  0  # atno 10167 bound_to 10162
  157.6088  131.1038  150.7633 H   0  0  0  0  0  0  0  0  0  0  0  0  # atno 10718 bound_to 10713
  153.2374  135.4303  155.0661 H   0  0  0  0  0  0  0  0  0  0  0  0  # atno 10763 bound_to 10752
  154.8325  135.3394  154.6699 H   0  0  0  0  0  0  0  0  0  0  0  0  # atno 10764 bound_to 10752
  153.7124  135.7022  153.5090 H   0  0  0  0  0  0  0  0  0  0  0  0  # atno 10765 bound_to 10752
  141.0130  134.0236  157.3388 H   0  0  0  0  0  0  0  0  0  0  0  0  # atno 11005 bound_to 11000
  146.2782  140.4633  142.8787 LP  0  0  0  0  0  0  0  0  0  0  0  0  # atno 17320 bound_to 7965
  144.8417  140.6867  143.6225 LP  0  0  0  0  0  0  0  0  0  0  0  0  # atno 17321 bound_to 7965
  140.7414  143.6557  150.8209 LP  0  0  0  0  0  0  0  0  0  0  0  0  # atno 17342 bound_to 10162
  140.0175  143.5577  152.2814 LP  0  0  0  0  0  0  0  0  0  0  0  0  # atno 17343 bound_to 10162
  156.8015  130.4922  149.5369 LP  0  0  0  0  0  0  0  0  0  0  0  0  # atno 17370 bound_to 10713
  156.1183  130.6091  151.0155 LP  0  0  0  0  0  0  0  0  0  0  0  0  # atno 17371 bound_to 10713
  139.9101  135.0188  156.7654 LP  0  0  0  0  0  0  0  0  0  0  0  0  # atno 17394 bound_to 11000
  140.6702  133.9567  155.7852 LP  0  0  0  0  0  0  0  0  0  0  0  0  # atno 17395 bound_to 11000

$$$$
