AV-unprocessed.smi:1553|AV-procd|sdf|6239|dock5
  -GOLD-   22720 6423D 1   1.00000     0.00000
 Structure written by MMmdl.
 37 38  0  0  0  0  0  0  0  0  1 V2000
  146.8792  138.4755  152.6156 C   0  0  0  0  0  0  0  0  0  0  0  0
  147.4511  139.6468  153.3380 C   0  0  0  0  0  0  0  0  0  0  0  0
  148.5338  139.5776  154.1167 N   0  0  0  0  0  0  0  0  0  0  0  0
  148.8710  140.8115  154.6817 C   0  0  0  0  0  0  0  0  0  0  0  0
  150.0588  140.9186  155.5889 C   0  0  0  0  0  0  0  0  0  0  0  0
  149.6888  141.5017  156.9627 C   0  0  0  0  0  0  0  0  0  0  0  0
  150.8683  141.9640  157.6848 N   0  0  0  0  0  0  0  0  0  0  0  0
  150.8503  142.7174  158.7977 C   0  0  0  0  0  0  0  0  0  0  0  0
  149.8030  143.1355  159.2914 O   0  0  0  0  0  0  0  0  0  0  0  0
  152.0875  143.0615  159.2348 N   0  0  0  0  0  0  0  0  0  0  0  0
  153.1772  142.0752  159.2929 C   0  0  0  0  0  0  0  0  0  0  0  0
  153.2347  141.4984  160.7211 C   0  0  0  0  0  0  0  0  0  0  0  0
  153.4326  142.5513  161.6619 O   0  0  0  0  0  0  0  0  0  0  0  0
  152.4260  143.5600  161.6031 C   0  0  0  0  0  0  0  0  0  0  0  0
  152.3842  144.1554  160.1814 C   0  0  2  0  0  0  0  0  0  0  0  0
  151.4683  145.3936  160.0823 C   0  0  0  0  0  0  0  0  0  0  0  0
  148.0175  141.8236  154.3193 C   0  0  0  0  0  0  0  0  0  0  0  0
  146.7605  141.2625  153.2513 S   0  0  0  0  0  0  0  0  0  0  0  0
  147.5810  137.6407  152.6219 H   0  0  0  0  0  0  0  0  0  0  0  0
  146.6654  138.7429  151.5807 H   0  0  0  0  0  0  0  0  0  0  0  0
  145.9533  138.1583  153.0951 H   0  0  0  0  0  0  0  0  0  0  0  0
  150.5124  139.9347  155.7167 H   0  0  0  0  0  0  0  0  0  0  0  0
  150.8248  141.5412  155.1247 H   0  0  0  0  0  0  0  0  0  0  0  0
  149.0178  142.3516  156.8352 H   0  0  0  0  0  0  0  0  0  0  0  0
  149.1471  140.7660  157.5602 H   0  0  0  0  0  0  0  0  0  0  0  0
  151.7668  141.6951  157.3111 H   0  0  0  0  0  0  0  0  0  0  0  0
  153.0619  141.2594  158.5784 H   0  0  0  0  0  0  0  0  0  0  0  0
  154.1238  142.5551  159.0407 H   0  0  0  0  0  0  0  0  0  0  0  0
  152.3179  140.9567  160.9590 H   0  0  0  0  0  0  0  0  0  0  0  0
  154.0570  140.7882  160.8088 H   0  0  0  0  0  0  0  0  0  0  0  0
  151.4581  143.1430  161.8861 H   0  0  0  0  0  0  0  0  0  0  0  0
  152.6682  144.3326  162.3332 H   0  0  0  0  0  0  0  0  0  0  0  0
  153.3851  144.5197  159.9436 H   0  0  0  0  0  0  0  0  0  0  0  0
  151.8838  146.2201  160.6592 H   0  0  0  0  0  0  0  0  0  0  0  0
  150.4704  145.2079  160.4783 H   0  0  0  0  0  0  0  0  0  0  0  0
  151.3706  145.7344  159.0511 H   0  0  0  0  0  0  0  0  0  0  0  0
  148.0507  142.8614  154.6161 H   0  0  0  0  0  0  0  0  0  0  0  0
  1  2  1  0  0  0  0
  1 19  1  0  0  0  0
  1 20  1  0  0  0  0
  1 21  1  0  0  0  0
  2 18  1  0  0  0  0
  2  3  2  0  0  0  0
  3  4  1  0  0  0  0
  4  5  1  0  0  0  0
  4 17  2  0  0  0  0
  5  6  1  0  0  0  0
  5 22  1  0  0  0  0
  5 23  1  0  0  0  0
  6  7  1  0  0  0  0
  6 24  1  0  0  0  0
  6 25  1  0  0  0  0
  7  8  1  0  0  0  0
  7 26  1  0  0  0  0
  8  9  2  0  0  0  0
  8 10  1  0  0  0  0
 10 15  1  0  0  0  0
 10 11  1  0  0  0  0
 11 12  1  0  0  0  0
 11 27  1  0  0  0  0
 11 28  1  0  0  0  0
 12 13  1  0  0  0  0
 12 29  1  0  0  0  0
 12 30  1  0  0  0  0
 13 14  1  0  0  0  0
 14 15  1  0  0  0  0
 14 31  1  0  0  0  0
 14 32  1  0  0  0  0
 15 16  1  0  0  0  0
 15 33  1  0  0  0  0
 16 34  1  0  0  0  0
 16 35  1  0  0  0  0
 16 36  1  0  0  0  0
 17 18  1  0  0  0  0
 17 37  1  0  0  0  0
M  END
> <s_m_source_file>
AV-unprocessed.smi

> <i_m_source_file_index>
1553

> <i_lp_mmshare_version>
43012

> <i_f3d_flags>
0

> <s_epik_input>
W0NIM11jMW5jKFtjSF1zMSlbQ0gyXVtDSDJdW05IXUMoPU8pTjJbQ0gyXVtDSDJdT1tDSDJdW0NASF0yW0NIM10=

> <s_epik_cmdline>
J2VwaWtfcHl0aG9uJywgJy1waCcsICc3LjAnLCAnLXRuJywgJzgnLCAnLW1hJywgJzIwMCcsICctbWV0YWxfYmluZGluZycsICctaW1hZScsICc8aW5maWxlLm1hZT4nLCAnLW9tYWUnLCAnPG91dGZpbGUubWFlPic=

> <r_epik_Ionization_Penalty>
0.0020768

> <r_epik_Ionization_Penalty_Charging>
0

> <r_epik_Ionization_Penalty_Neutral>
0.0020768

> <r_epik_State_Penalty>
0.00139904

> <r_epik_Charging_Adjusted_Penalty>
0.00139904

> <i_epik_Tot_Q>
0

> <i_epik_Tot_abs_Q>
0

> <r_epik_Metal_State_Penalty>
-0

> <b_epik_Metal_Only>
0

> <s_lp_Force_Field>
OPLS_2005

> <r_lp_Energy>
26.8806

> <b_lp_Chiralities_Consistent>
1

> <s_lp_Variant>
AV-unprocessed.smi:1553-2

> <Gold.Version>
5.8.1

> <Gold.Id.Protein>
6NUR|6NUR_protein|mol2

> <Gold.PLP.Fitness>
44.3463

> <Gold.PLP.PLP>
-41.9881

> <Gold.PLP.part.hbond>
-0.9828

> <Gold.PLP.part.metal>
0.0000

> <Gold.PLP.part.buried>
-3.5822

> <Gold.PLP.part.nonpolar>
-37.6560

> <Gold.PLP.part.repulsive>
0.3849

> <Gold.PLP.ligand.clash>
0.0000

> <Gold.PLP.ligand.torsion>
0.5320

> <Gold.PLP.Chemscore.Hbond>
0.0000

> <Gold.PLP.Chemscore.CHOScore>
1.0000

> <Gold.PLP.Chemscore.Metal>
0.0000

> <Gold.Chemscore.Hbonds>
donor molecule, donor type, donor heavy atom, donor atom, acceptor molecule, acceptor atom, score
      L1  C    17    37       P1  8028  1.00

> <Gold.PLP.Chemscore.Internal.Correction>
0.4221

> <Gold.Rescore>
     Score         DG    S(hbond)    S(metal)    S(lipo)     H(rot)  DE(clash)    DE(int)     intcor
     12.59     -14.40       0.00        0.00     105.37       1.33       0.14       1.67       ----

> <Gold.Chemscore.Fitness>
12.5864

> <Gold.Chemscore.DG>
-14.3970

> <Gold.Chemscore.ZeroCoef>
-5.4800

> <Gold.Chemscore.Hbond>
0.0000

> <Gold.Chemscore.Metal>
0.0000

> <Gold.Chemscore.Lipo>
105.3685

> <Gold.Chemscore.Internal_Hbond>
0.0000

> <Gold.Chemscore.DEClash>
0.1366

> <Gold.Chemscore.DEInternal>
1.6740

> <Gold.Chemscore.Rot>
1.3325

> <Gold.Chemscore.Internal.Correction>
   9.000000E+99

> <Gold.Chemscore.Hbond.Weighted>
-0.0000

> <Gold.Chemscore.Metal.Weighted>
-0.0000

> <Gold.Chemscore.Lipo.Weighted>
-12.3281

> <Gold.Chemscore.Internal_Hbond.Weighted>
0.0000

> <Gold.Chemscore.DEClash.Weighted>
0.1366

> <Gold.Chemscore.DEInternal.Weighted>
1.6740

> <Gold.Chemscore.Rot.Weighted>
3.4111

> <Gold.Chemscore.Internal.Correction.Weighted>
   9.000000E+99

> <Gold.Protein.RotatedTorsions>
[ 6907 6896 6895 6894 ] final    2.07 input  -60.11 | X-H torsion
[ 7974 7965 7964 7962 ] final   84.44 input  175.53 | X-H torsion
[ 8008 7997 7996 7995 ] final   83.41 input   59.86 | X-H torsion
[ 10167 10162 10161 10158 ] final   75.14 input  -65.29 | X-H torsion
[ 10718 10713 10712 10709 ] final -113.88 input   66.30 | X-H torsion
[ 10763 10752 10751 10750 ] final   58.75 input  -60.55 | X-H torsion
[ 11005 11000 10999 10996 ] final -104.89 input  -57.11 | X-H torsion

> <Gold.Protein.ActiveResidues>
 VAL166  LYS551  ARG553  GLY616  TRP617  ASP618  TYR619  PRO620  LYS621  CYS622 
 ASP623  PHE694  ASN695  SER759  ASP760  ASP761  ALA762  ILE779  LEU786  VAL792 
 PHE793  MET794  SER795  GLU796  ALA797  LYS798  CYS799  TRP800  GLU811  SER814 

> <Gold.Protein.RotatedAtoms>
  151.6029  135.1046  160.0063 H   0  0  0  0  0  0  0  0  0  0  0  0  # atno 6907 bound_to 6896
  152.4249  133.7173  159.6524 H   0  0  0  0  0  0  0  0  0  0  0  0  # atno 6908 bound_to 6896
  150.8137  133.8303  159.3192 H   0  0  0  0  0  0  0  0  0  0  0  0  # atno 6909 bound_to 6896
  145.5987  139.2349  143.2258 H   0  0  0  0  0  0  0  0  0  0  0  0  # atno 7974 bound_to 7965
  155.9236  140.3419  155.6192 H   0  0  0  0  0  0  0  0  0  0  0  0  # atno 8008 bound_to 7997
  155.7243  140.0787  157.2335 H   0  0  0  0  0  0  0  0  0  0  0  0  # atno 8009 bound_to 7997
  154.4073  140.1599  156.2425 H   0  0  0  0  0  0  0  0  0  0  0  0  # atno 8010 bound_to 7997
  140.0062  144.5649  150.7696 H   0  0  0  0  0  0  0  0  0  0  0  0  # atno 10167 bound_to 10162
  156.0794  130.5997  150.8701 H   0  0  0  0  0  0  0  0  0  0  0  0  # atno 10718 bound_to 10713
  152.9878  135.5596  154.5603 H   0  0  0  0  0  0  0  0  0  0  0  0  # atno 10763 bound_to 10752
  154.5023  135.2798  155.1413 H   0  0  0  0  0  0  0  0  0  0  0  0  # atno 10764 bound_to 10752
  154.2838  135.6339  153.5410 H   0  0  0  0  0  0  0  0  0  0  0  0  # atno 10765 bound_to 10752
  141.1079  133.8761  157.1667 H   0  0  0  0  0  0  0  0  0  0  0  0  # atno 11005 bound_to 11000
  146.1592  140.6812  142.9285 LP  0  0  0  0  0  0  0  0  0  0  0  0  # atno 17320 bound_to 7965
  144.7319  140.4697  143.6931 LP  0  0  0  0  0  0  0  0  0  0  0  0  # atno 17321 bound_to 7965
  140.7399  143.2798  151.3633 LP  0  0  0  0  0  0  0  0  0  0  0  0  # atno 17342 bound_to 10162
  139.6237  144.0856  152.2415 LP  0  0  0  0  0  0  0  0  0  0  0  0  # atno 17343 bound_to 10162
  157.5905  131.0944  150.9127 LP  0  0  0  0  0  0  0  0  0  0  0  0  # atno 17370 bound_to 10713
  156.9304  130.5347  149.5279 LP  0  0  0  0  0  0  0  0  0  0  0  0  # atno 17371 bound_to 10713
  139.9958  135.0047  157.0079 LP  0  0  0  0  0  0  0  0  0  0  0  0  # atno 17394 bound_to 11000
  140.4853  134.1248  155.7223 LP  0  0  0  0  0  0  0  0  0  0  0  0  # atno 17395 bound_to 11000

$$$$
