AV-unprocessed.smi:172|AV-procd|sdf|1422|dock3
  -GOLD-   2262019193D 1   1.00000     0.00000
 Structure written by MMmdl.
 56 60  0  0  0  0  0  0  0  0  1 V2000
  143.0556  133.7853  148.2067 O   0  0  0  0  0  0  0  0  0  0  0  0
  144.1581  133.1160  148.7873 C   0  0  0  0  0  0  0  0  0  0  0  0
  144.4640  133.6032  150.2181 C   0  0  0  0  0  0  0  0  0  0  0  0
  144.3302  135.1384  150.3162 C   0  0  0  0  0  0  0  0  0  0  0  0
  144.8391  135.7192  151.5484 N   0  0  0  0  0  0  0  0  0  0  0  0
  144.6092  135.2605  152.8271 C   0  0  0  0  0  0  0  0  0  0  0  0
  145.1648  135.9584  153.7795 N   0  0  0  0  0  0  0  0  0  0  0  0
  145.8381  136.9666  153.1034 C   0  0  0  0  0  0  0  0  0  0  0  0
  146.6338  138.0667  153.5163 C   0  0  0  0  0  0  0  0  0  0  0  0
  146.8661  138.3310  154.8248 N   0  0  0  0  0  0  0  0  0  0  0  0
  146.2759  139.6148  155.2277 C   0  0  0  0  0  0  0  0  0  0  0  0
  147.1353  140.8316  154.9077 C   0  0  0  0  0  0  0  0  0  0  0  0
  146.4979  142.1921  154.7512 C   0  0  0  0  0  0  0  0  0  0  0  0
  147.0737  141.4857  153.5479 C   0  0  0  0  0  0  0  0  0  0  0  0
  148.2496  138.0374  155.2474 C   0  0  0  0  0  0  0  0  0  0  0  0
  149.3015  138.7816  154.3762 C   0  0  0  0  0  0  0  0  0  0  0  0
  150.7445  138.4658  154.7976 C   0  0  0  0  0  0  0  0  0  0  0  0
  151.0174  136.9583  154.7565 C   0  0  0  0  0  0  0  0  0  0  0  0
  150.0088  136.2068  155.6326 C   0  0  0  0  0  0  0  0  0  0  0  0
  148.5611  136.5187  155.2200 C   0  0  0  0  0  0  0  0  0  0  0  0
  147.1548  138.8755  152.5561 N   0  0  0  0  0  0  0  0  0  0  0  0
  146.9106  138.6185  151.2675 C   0  0  0  0  0  0  0  0  0  0  0  0
  146.1836  137.6331  150.7351 N   0  0  0  0  0  0  0  0  0  0  0  0
  145.6563  136.8258  151.7000 C   0  0  0  0  0  0  0  0  0  0  0  0
  143.7023  132.8364  151.3098 C   0  0  0  0  0  0  0  0  0  0  0  0
  144.8564  132.0331  151.6315 O   0  0  0  0  0  0  0  0  0  0  0  0
  145.6842  132.9587  150.8969 C   0  0  0  0  0  0  0  0  0  0  0  0
  142.3393  133.7774  148.8232 H   0  0  0  0  0  0  0  0  0  0  0  0
  143.9675  132.0425  148.7706 H   0  0  0  0  0  0  0  0  0  0  0  0
  145.0140  133.2844  148.1329 H   0  0  0  0  0  0  0  0  0  0  0  0
  144.8473  135.6129  149.4813 H   0  0  0  0  0  0  0  0  0  0  0  0
  143.2855  135.4371  150.2193 H   0  0  0  0  0  0  0  0  0  0  0  0
  143.9993  134.3929  153.0332 H   0  0  0  0  0  0  0  0  0  0  0  0
  145.3227  139.7582  154.7227 H   0  0  0  0  0  0  0  0  0  0  0  0
  146.0656  139.6013  156.2981 H   0  0  0  0  0  0  0  0  0  0  0  0
  148.1045  140.8416  155.4036 H   0  0  0  0  0  0  0  0  0  0  0  0
  145.4140  142.2578  154.8228 H   0  0  0  0  0  0  0  0  0  0  0  0
  147.0438  143.0497  155.1392 H   0  0  0  0  0  0  0  0  0  0  0  0
  148.0066  141.8643  153.1355 H   0  0  0  0  0  0  0  0  0  0  0  0
  146.3752  141.0747  152.8216 H   0  0  0  0  0  0  0  0  0  0  0  0
  148.3583  138.3792  156.2781 H   0  0  0  0  0  0  0  0  0  0  0  0
  149.1635  138.5129  153.3280 H   0  0  0  0  0  0  0  0  0  0  0  0
  149.1698  139.8622  154.4346 H   0  0  0  0  0  0  0  0  0  0  0  0
  151.4441  138.9868  154.1436 H   0  0  0  0  0  0  0  0  0  0  0  0
  150.9223  138.8440  155.8051 H   0  0  0  0  0  0  0  0  0  0  0  0
  150.9529  136.5995  153.7284 H   0  0  0  0  0  0  0  0  0  0  0  0
  152.0332  136.7528  155.0954 H   0  0  0  0  0  0  0  0  0  0  0  0
  150.1894  135.1334  155.5677 H   0  0  0  0  0  0  0  0  0  0  0  0
  150.1565  136.4815  156.6777 H   0  0  0  0  0  0  0  0  0  0  0  0
  147.9095  135.9750  155.9025 H   0  0  0  0  0  0  0  0  0  0  0  0
  148.3721  136.1211  154.2218 H   0  0  0  0  0  0  0  0  0  0  0  0
  147.3587  139.3021  150.5619 H   0  0  0  0  0  0  0  0  0  0  0  0
  143.3945  133.4548  152.1548 H   0  0  0  0  0  0  0  0  0  0  0  0
  142.8651  132.2426  150.9414 H   0  0  0  0  0  0  0  0  0  0  0  0
  146.3705  132.4565  150.2144 H   0  0  0  0  0  0  0  0  0  0  0  0
  146.2251  133.6262  151.5686 H   0  0  0  0  0  0  0  0  0  0  0  0
  1  2  1  0  0  0  0
  1 28  1  0  0  0  0
  2  3  1  0  0  0  0
  2 29  1  0  0  0  0
  2 30  1  0  0  0  0
  3 27  1  0  0  0  0
  3  4  1  0  0  0  0
  3 25  1  0  0  0  0
  4  5  1  0  0  0  0
  4 31  1  0  0  0  0
  4 32  1  0  0  0  0
  5 24  1  0  0  0  0
  5  6  1  0  0  0  0
  6  7  2  0  0  0  0
  6 33  1  0  0  0  0
  7  8  1  0  0  0  0
  8 24  2  0  0  0  0
  8  9  1  0  0  0  0
  9 10  1  0  0  0  0
  9 21  2  0  0  0  0
 10 11  1  0  0  0  0
 10 15  1  0  0  0  0
 11 12  1  0  0  0  0
 11 34  1  0  0  0  0
 11 35  1  0  0  0  0
 12 14  1  0  0  0  0
 12 13  1  0  0  0  0
 12 36  1  0  0  0  0
 13 14  1  0  0  0  0
 13 37  1  0  0  0  0
 13 38  1  0  0  0  0
 14 39  1  0  0  0  0
 14 40  1  0  0  0  0
 15 20  1  0  0  0  0
 15 16  1  0  0  0  0
 15 41  1  0  0  0  0
 16 17  1  0  0  0  0
 16 42  1  0  0  0  0
 16 43  1  0  0  0  0
 17 18  1  0  0  0  0
 17 44  1  0  0  0  0
 17 45  1  0  0  0  0
 18 19  1  0  0  0  0
 18 46  1  0  0  0  0
 18 47  1  0  0  0  0
 19 20  1  0  0  0  0
 19 48  1  0  0  0  0
 19 49  1  0  0  0  0
 20 50  1  0  0  0  0
 20 51  1  0  0  0  0
 21 22  1  0  0  0  0
 22 23  2  0  0  0  0
 22 52  1  0  0  0  0
 23 24  1  0  0  0  0
 25 26  1  0  0  0  0
 25 53  1  0  0  0  0
 25 54  1  0  0  0  0
 26 27  1  0  0  0  0
 27 55  1  0  0  0  0
 27 56  1  0  0  0  0
M  END
> <s_m_source_file>
AV-unprocessed.smi

> <i_m_source_file_index>
172

> <i_lp_mmshare_version>
43012

> <i_f3d_flags>
0

> <s_epik_input>
W0NIMl0xT1tDSDJdQzEoW0NIMl1bT0hdKVtDSDJdbihbY0hdbjIpYyhjMjMpbltjSF1uYzNOKFtDSDJdW0NIXTRbQ0gyXVtDSDJdNClbQ0hdNVtDSDJdW0NIMl1bQ0gyXVtDSDJdW0NIMl01

> <s_epik_cmdline>
J2VwaWtfcHl0aG9uJywgJy1waCcsICc3LjAnLCAnLXRuJywgJzgnLCAnLW1hJywgJzIwMCcsICctbWV0YWxfYmluZGluZycsICctaW1hZScsICc8aW5maWxlLm1hZT4nLCAnLW9tYWUnLCAnPG91dGZpbGUubWFlPic=

> <r_lp_tautomer_probability>
1

> <r_epik_Ionization_Penalty>
0.0023612

> <r_epik_Ionization_Penalty_Charging>
0

> <r_epik_Ionization_Penalty_Neutral>
0.0023612

> <r_epik_State_Penalty>
0.00145434

> <r_epik_Charging_Adjusted_Penalty>
0.00145434

> <i_epik_Tot_Q>
0

> <i_epik_Tot_abs_Q>
0

> <r_epik_Metal_State_Penalty>
-0

> <b_epik_Metal_Only>
0

> <s_lp_Force_Field>
OPLS_2005

> <r_lp_Energy>
48.1575

> <b_lp_Chiralities_Consistent>
1

> <s_lp_Variant>
AV-unprocessed.smi:172-1

> <Gold.Version>
5.8.1

> <Gold.Id.Protein>
6NUR|6NUR_protein|mol2

> <Gold.PLP.Fitness>
44.0957

> <Gold.PLP.PLP>
-38.7616

> <Gold.PLP.part.hbond>
-3.1455

> <Gold.PLP.part.metal>
0.0000

> <Gold.PLP.part.buried>
-3.9758

> <Gold.PLP.part.nonpolar>
-37.7224

> <Gold.PLP.part.repulsive>
4.4605

> <Gold.PLP.ligand.clash>
0.0000

> <Gold.PLP.ligand.torsion>
1.3788

> <Gold.PLP.Chemscore.Hbond>
1.4900

> <Gold.PLP.Chemscore.CHOScore>
0.6851

> <Gold.PLP.Chemscore.Metal>
0.0000

> <Gold.Chemscore.Hbonds>
donor molecule, donor type, donor heavy atom, donor atom, acceptor molecule, acceptor atom, score
      L1  H     1    28       P1 10186  1.00
      P1  H 10192 10197       L1     1  0.35
      L1  C    22    52       P1  7957  0.72

> <Gold.PLP.Chemscore.Internal.Correction>
1.5663

> <Gold.Rescore>
     Score         DG    S(hbond)    S(metal)    S(lipo)     H(rot)  DE(clash)    DE(int)     intcor
      4.19     -11.74       0.99        0.00      88.27       2.87       1.83       5.72       ----

> <Gold.Chemscore.Fitness>
4.1897

> <Gold.Chemscore.DG>
-11.7392

> <Gold.Chemscore.ZeroCoef>
-5.4800

> <Gold.Chemscore.Hbond>
0.9851

> <Gold.Chemscore.Metal>
0.0000

> <Gold.Chemscore.Lipo>
88.2691

> <Gold.Chemscore.Internal_Hbond>
0.0000

> <Gold.Chemscore.DEClash>
1.8321

> <Gold.Chemscore.DEInternal>
5.7175

> <Gold.Chemscore.Rot>
2.8744

> <Gold.Chemscore.Internal.Correction>
   9.000000E+99

> <Gold.Chemscore.Hbonds>
donor molecule, donor type, donor heavy atom, donor atom, acceptor molecule, acceptor atom, score
      L1  H     1    28       P1 10186  0.96
      P1  H 10192 10197       L1     1  0.01

> <Gold.Chemscore.Hbond.Weighted>
-3.2902

> <Gold.Chemscore.Metal.Weighted>
-0.0000

> <Gold.Chemscore.Lipo.Weighted>
-10.3275

> <Gold.Chemscore.Internal_Hbond.Weighted>
0.0000

> <Gold.Chemscore.DEClash.Weighted>
1.8321

> <Gold.Chemscore.DEInternal.Weighted>
5.7175

> <Gold.Chemscore.Rot.Weighted>
7.3584

> <Gold.Chemscore.Internal.Correction.Weighted>
   9.000000E+99

> <Gold.Protein.RotatedTorsions>
[ 6907 6896 6895 6894 ] final  103.65 input  -60.11 | X-H torsion
[ 7974 7965 7964 7962 ] final   60.28 input  175.53 | X-H torsion
[ 8008 7997 7996 7995 ] final  -19.71 input   59.86 | X-H torsion
[ 10167 10162 10161 10158 ] final  126.09 input  -65.29 | X-H torsion
[ 10718 10713 10712 10709 ] final -163.49 input   66.30 | X-H torsion
[ 10763 10752 10751 10750 ] final  -40.53 input  -60.55 | X-H torsion
[ 11005 11000 10999 10996 ] final  -79.98 input  -57.11 | X-H torsion

> <Gold.Protein.ActiveResidues>
 VAL166  LYS551  ARG553  GLY616  TRP617  ASP618  TYR619  PRO620  LYS621  CYS622 
 ASP623  PHE694  ASN695  SER759  ASP760  ASP761  ALA762  ILE779  LEU786  VAL792 
 PHE793  MET794  SER795  GLU796  ALA797  LYS798  CYS799  TRP800  GLU811  SER814 

> <Gold.Protein.RotatedAtoms>
  152.5289  133.9794  159.7798 H   0  0  0  0  0  0  0  0  0  0  0  0  # atno 6907 bound_to 6896
  151.0050  133.6011  159.2697 H   0  0  0  0  0  0  0  0  0  0  0  0  # atno 6908 bound_to 6896
  151.3106  135.0799  159.9324 H   0  0  0  0  0  0  0  0  0  0  0  0  # atno 6909 bound_to 6896
  145.8977  139.3558  143.0611 H   0  0  0  0  0  0  0  0  0  0  0  0  # atno 7974 bound_to 7965
  154.4818  140.2081  155.9746 H   0  0  0  0  0  0  0  0  0  0  0  0  # atno 8008 bound_to 7997
  156.1176  140.3218  155.8131 H   0  0  0  0  0  0  0  0  0  0  0  0  # atno 8009 bound_to 7997
  155.4525  140.0518  157.2990 H   0  0  0  0  0  0  0  0  0  0  0  0  # atno 8010 bound_to 7997
  139.5650  144.6905  151.3936 H   0  0  0  0  0  0  0  0  0  0  0  0  # atno 10167 bound_to 10162
  156.6255  130.8908  151.2966 H   0  0  0  0  0  0  0  0  0  0  0  0  # atno 10718 bound_to 10713
  153.9474  135.6754  153.4744 H   0  0  0  0  0  0  0  0  0  0  0  0  # atno 10763 bound_to 10752
  153.0901  135.4879  154.8670 H   0  0  0  0  0  0  0  0  0  0  0  0  # atno 10764 bound_to 10752
  154.7344  135.3145  154.8795 H   0  0  0  0  0  0  0  0  0  0  0  0  # atno 10765 bound_to 10752
  141.1668  133.7130  156.8205 H   0  0  0  0  0  0  0  0  0  0  0  0  # atno 11005 bound_to 11000
  145.8829  140.9351  143.0592 LP  0  0  0  0  0  0  0  0  0  0  0  0  # atno 17320 bound_to 7965
  144.6734  140.0804  143.7469 LP  0  0  0  0  0  0  0  0  0  0  0  0  # atno 17321 bound_to 7965
  140.6933  143.7810  150.7288 LP  0  0  0  0  0  0  0  0  0  0  0  0  # atno 17342 bound_to 10162
  140.1299  143.4535  152.2261 LP  0  0  0  0  0  0  0  0  0  0  0  0  # atno 17343 bound_to 10162
  157.7215  130.9565  150.1459 LP  0  0  0  0  0  0  0  0  0  0  0  0  # atno 17370 bound_to 10713
  156.2277  130.3679  149.8481 LP  0  0  0  0  0  0  0  0  0  0  0  0  # atno 17371 bound_to 10713
  140.2123  134.8818  157.3287 LP  0  0  0  0  0  0  0  0  0  0  0  0  # atno 17394 bound_to 11000
  140.2074  134.4180  155.7630 LP  0  0  0  0  0  0  0  0  0  0  0  0  # atno 17395 bound_to 11000

$$$$
