AV-unprocessed.smi:49|AV-procd|sdf|467|dock4
  -GOLD-   2262016333D 1   1.00000     0.00000
 Structure written by MMmdl.
 28 29  0  0  0  0  0  0  0  0  2 V2000
  152.9148  142.6233  161.0544 C   0  0  0  0  0  0  0  0  0  0  0  0
  153.1742  143.4765  159.8076 C   0  0  0  0  0  0  0  0  0  0  0  0
  152.1803  143.2125  158.7255 C   0  0  0  0  0  0  0  0  0  0  0  0
  152.0683  141.9998  158.1040 N   0  0  0  0  0  0  0  0  0  0  0  0
  151.1126  142.2736  157.2181 C   0  0  0  0  0  0  0  0  0  0  0  0
  150.5240  141.3110  156.2306 C   0  0  2  0  0  0  0  0  0  0  0  0
  151.4460  140.9269  155.0726 C   0  0  0  0  0  0  0  0  0  0  0  0
  150.4698  140.6726  153.9251 C   0  0  1  0  0  0  0  0  0  0  0  0
  149.9984  139.3405  153.9751 O   0  0  0  0  0  0  0  0  0  0  0  0
  149.3103  141.6459  154.1933 C   0  0  0  0  0  0  0  0  0  0  0  0
  149.3834  142.0216  155.6205 N   0  3  0  0  0  0  0  0  0  0  0  0
  150.6948  143.5390  157.3002 N   0  0  0  0  0  0  0  0  0  0  0  0
  151.3850  144.1779  158.2680 N   0  0  0  0  0  0  0  0  0  0  0  0
  150.1519  140.4193  156.7377 H   0  0  0  0  0  0  0  0  0  0  0  0
  150.9285  140.8430  152.9504 H   0  0  0  0  0  0  0  0  0  0  0  0
  149.9837  143.9910  156.7428 H   0  0  0  0  0  0  0  0  0  0  0  0
  153.6521  142.8342  161.8294 H   0  0  0  0  0  0  0  0  0  0  0  0
  152.9711  141.5594  160.8218 H   0  0  0  0  0  0  0  0  0  0  0  0
  151.9271  142.8244  161.4707 H   0  0  0  0  0  0  0  0  0  0  0  0
  153.1419  144.5346  160.0700 H   0  0  0  0  0  0  0  0  0  0  0  0
  154.1784  143.2825  159.4287 H   0  0  0  0  0  0  0  0  0  0  0  0
  152.0800  141.7744  154.8062 H   0  0  0  0  0  0  0  0  0  0  0  0
  152.1007  140.0848  155.3010 H   0  0  0  0  0  0  0  0  0  0  0  0
  150.7388  138.7600  154.0707 H   0  0  0  0  0  0  0  0  0  0  0  0
  149.4366  142.5540  153.6029 H   0  0  0  0  0  0  0  0  0  0  0  0
  148.3360  141.2239  153.9425 H   0  0  0  0  0  0  0  0  0  0  0  0
  148.5265  141.7933  156.1033 H   0  0  0  0  0  0  0  0  0  0  0  0
  149.5553  143.0155  155.6825 H   0  0  0  0  0  0  0  0  0  0  0  0
  1  2  1  0  0  0  0
  1 17  1  0  0  0  0
  1 18  1  0  0  0  0
  1 19  1  0  0  0  0
  2 20  1  0  0  0  0
  2 21  1  0  0  0  0
  2  3  1  0  0  0  0
  3  4  1  0  0  0  0
  3 13  2  0  0  0  0
  4  5  2  0  0  0  0
  5  6  1  0  0  0  0
  5 12  1  0  0  0  0
  6 14  1  0  0  0  0
  6 11  1  0  0  0  0
  6  7  1  0  0  0  0
  7  8  1  0  0  0  0
  7 22  1  0  0  0  0
  7 23  1  0  0  0  0
  8 15  1  0  0  0  0
  8  9  1  0  0  0  0
  8 10  1  0  0  0  0
  9 24  1  0  0  0  0
 10 11  1  0  0  0  0
 10 25  1  0  0  0  0
 10 26  1  0  0  0  0
 11 27  1  0  0  0  0
 11 28  1  0  0  0  0
 12 13  1  0  0  0  0
 12 16  1  0  0  0  0
M  CHG  1  11   1
M  END
> <s_m_source_file>
AV-unprocessed.smi

> <i_m_source_file_index>
49

> <i_lp_mmshare_version>
43012

> <i_f3d_flags>
0

> <s_epik_input>
W0NIM11bQ0gyXWMxbmMobltuSF0xKVtDQEBIXTJbQ0gyXVtDQEBIXShbT0hdKVtDSDJdW05IXTI=

> <s_epik_cmdline>
J2VwaWtfcHl0aG9uJywgJy1waCcsICc3LjAnLCAnLXRuJywgJzgnLCAnLW1hJywgJzIwMCcsICctbWV0YWxfYmluZGluZycsICctaW1hZScsICc8aW5maWxlLm1hZT4nLCAnLW9tYWUnLCAnPG91dGZpbGUubWFlPic=

> <r_epik_Ionization_Penalty>
0.372103

> <r_epik_Ionization_Penalty_Charging>
0.0688988

> <r_epik_Ionization_Penalty_Neutral>
0.303204

> <r_epik_State_Penalty>
0.737493

> <r_epik_Charging_Adjusted_Penalty>
0.806392

> <i_epik_Tot_Q>
1

> <i_epik_Tot_abs_Q>
1

> <r_epik_Metal_State_Penalty>
1.01235

> <b_epik_Metal_Only>
0

> <s_lp_Force_Field>
OPLS_2005

> <r_lp_Energy>
18.9462

> <b_lp_Chiralities_Consistent>
1

> <s_lp_Variant>
AV-unprocessed.smi:49-5

> <Gold.Version>
5.8.1

> <Gold.Id.Protein>
6NUR|6NUR_protein|mol2

> <Gold.PLP.Fitness>
35.6401

> <Gold.PLP.PLP>
-27.0291

> <Gold.PLP.part.hbond>
-2.0000

> <Gold.PLP.part.metal>
0.0000

> <Gold.PLP.part.buried>
-3.5087

> <Gold.PLP.part.nonpolar>
-21.8504

> <Gold.PLP.part.repulsive>
0.2102

> <Gold.PLP.ligand.clash>
0.0000

> <Gold.PLP.ligand.torsion>
0.1803

> <Gold.PLP.Chemscore.Hbond>
2.9840

> <Gold.PLP.Chemscore.CHOScore>
0.0000

> <Gold.PLP.Chemscore.Metal>
0.0000

> <Gold.Chemscore.Hbonds>
donor molecule, donor type, donor heavy atom, donor atom, acceptor molecule, acceptor atom, score
      L1  H    11    28       P1  8028  1.95
      L1  H    12    16       P1  8028  1.00

> <Gold.PLP.Chemscore.Internal.Correction>
0.0196

> <Gold.Rescore>
     Score         DG    S(hbond)    S(metal)    S(lipo)     H(rot)  DE(clash)    DE(int)     intcor
     12.97     -13.14       1.94        0.00      51.40       1.89       0.00       0.16       ----

> <Gold.Chemscore.Fitness>
12.9720

> <Gold.Chemscore.DG>
-13.1364

> <Gold.Chemscore.ZeroCoef>
-5.4800

> <Gold.Chemscore.Hbond>
1.9392

> <Gold.Chemscore.Metal>
0.0000

> <Gold.Chemscore.Lipo>
51.3958

> <Gold.Chemscore.Internal_Hbond>
0.0000

> <Gold.Chemscore.DEClash>
0.0025

> <Gold.Chemscore.DEInternal>
0.1618

> <Gold.Chemscore.Rot>
1.8883

> <Gold.Chemscore.Internal.Correction>
   9.000000E+99

> <Gold.Chemscore.Hbonds>
donor molecule, donor type, donor heavy atom, donor atom, acceptor molecule, acceptor atom, score
      L1  H    11    28       P1  8028  0.92
      L1  H    12    16       P1  8028  0.99

> <Gold.Chemscore.Hbond.Weighted>
-6.4770

> <Gold.Chemscore.Metal.Weighted>
-0.0000

> <Gold.Chemscore.Lipo.Weighted>
-6.0133

> <Gold.Chemscore.Internal_Hbond.Weighted>
0.0000

> <Gold.Chemscore.DEClash.Weighted>
0.0025

> <Gold.Chemscore.DEInternal.Weighted>
0.1618

> <Gold.Chemscore.Rot.Weighted>
4.8340

> <Gold.Chemscore.Internal.Correction.Weighted>
   9.000000E+99

> <Gold.Protein.RotatedTorsions>
[ 6907 6896 6895 6894 ] final -160.82 input  -60.11 | X-H torsion
[ 7974 7965 7964 7962 ] final  179.56 input  175.53 | X-H torsion
[ 8008 7997 7996 7995 ] final  -54.01 input   59.86 | X-H torsion
[ 10167 10162 10161 10158 ] final  154.00 input  -65.29 | X-H torsion
[ 10718 10713 10712 10709 ] final  171.65 input   66.30 | X-H torsion
[ 10763 10752 10751 10750 ] final   20.68 input  -60.55 | X-H torsion
[ 11005 11000 10999 10996 ] final  -61.70 input  -57.11 | X-H torsion

> <Gold.Protein.ActiveResidues>
 VAL166  LYS551  ARG553  GLY616  TRP617  ASP618  TYR619  PRO620  LYS621  CYS622 
 ASP623  PHE694  ASN695  SER759  ASP760  ASP761  ALA762  ILE779  LEU786  VAL792 
 PHE793  MET794  SER795  GLU796  ALA797  LYS798  CYS799  TRP800  GLU811  SER814 

> <Gold.Protein.RotatedAtoms>
  151.3551  133.3910  159.2683 H   0  0  0  0  0  0  0  0  0  0  0  0  # atno 6907 bound_to 6896
  150.9770  134.9133  159.7832 H   0  0  0  0  0  0  0  0  0  0  0  0  # atno 6908 bound_to 6896
  152.5204  134.3514  159.9304 H   0  0  0  0  0  0  0  0  0  0  0  0  # atno 6909 bound_to 6896
  144.7144  140.0566  143.6434 H   0  0  0  0  0  0  0  0  0  0  0  0  # atno 7974 bound_to 7965
  154.4150  140.1186  156.5246 H   0  0  0  0  0  0  0  0  0  0  0  0  # atno 8008 bound_to 7997
  155.6668  140.3496  155.4784 H   0  0  0  0  0  0  0  0  0  0  0  0  # atno 8009 bound_to 7997
  155.9667  140.1133  157.0838 H   0  0  0  0  0  0  0  0  0  0  0  0  # atno 8010 bound_to 7997
  139.4825  144.5225  151.7853 H   0  0  0  0  0  0  0  0  0  0  0  0  # atno 10167 bound_to 10162
  156.9905  131.0146  151.2858 H   0  0  0  0  0  0  0  0  0  0  0  0  # atno 10718 bound_to 10713
  153.1057  135.6684  153.9590 H   0  0  0  0  0  0  0  0  0  0  0  0  # atno 10763 bound_to 10752
  153.9148  135.3021  155.3449 H   0  0  0  0  0  0  0  0  0  0  0  0  # atno 10764 bound_to 10752
  154.7478  135.5049  153.9312 H   0  0  0  0  0  0  0  0  0  0  0  0  # atno 10765 bound_to 10752
  141.1334  133.6632  156.5415 H   0  0  0  0  0  0  0  0  0  0  0  0  # atno 11005 bound_to 11000
  145.9899  139.3007  143.0991 LP  0  0  0  0  0  0  0  0  0  0  0  0  # atno 17320 bound_to 7965
  145.8914  140.9301  143.0550 LP  0  0  0  0  0  0  0  0  0  0  0  0  # atno 17321 bound_to 7965
  140.4741  144.1545  150.5922 LP  0  0  0  0  0  0  0  0  0  0  0  0  # atno 17342 bound_to 10162
  140.4350  143.2551  151.9546 LP  0  0  0  0  0  0  0  0  0  0  0  0  # atno 17343 bound_to 10162
  157.5462  130.8152  149.8089 LP  0  0  0  0  0  0  0  0  0  0  0  0  # atno 17370 bound_to 10713
  156.0209  130.3796  150.1965 LP  0  0  0  0  0  0  0  0  0  0  0  0  # atno 17371 bound_to 10713
  140.4136  134.7250  157.4850 LP  0  0  0  0  0  0  0  0  0  0  0  0  # atno 17394 bound_to 11000
  140.0410  134.6268  155.8981 LP  0  0  0  0  0  0  0  0  0  0  0  0  # atno 17395 bound_to 11000

$$$$
