AV-unprocessed.smi:2976|AV-procd|sdf|11366|dock4
  -GOLD-   2272016283D 1   1.00000     0.00000
 Structure written by MMmdl.
 40 41  0  0  0  0  0  0  0  0  1 V2000
  151.2936  141.2549  157.0473 C   0  0  0  0  0  0  0  0  0  0  0  0
  150.3396  140.2475  156.3811 C   0  0  1  0  0  0  0  0  0  0  0  0
  149.0796  140.9809  155.8755 C   0  0  0  0  0  0  0  0  0  0  0  0
  148.0820  140.0262  155.2070 C   0  0  0  0  0  0  0  0  0  0  0  0
  148.7475  139.2547  154.0584 C   0  0  0  0  0  0  0  0  0  0  0  0
  150.0021  138.4960  154.5334 C   0  0  2  0  0  0  0  0  0  0  0  0
  149.6325  137.3996  155.4251 N   0  0  0  0  0  0  0  0  0  0  0  0
  150.3524  136.2946  155.6791 C   0  0  0  0  0  0  0  0  0  0  0  0
  151.4457  136.0740  155.1603 O   0  0  0  0  0  0  0  0  0  0  0  0
  149.7639  135.2686  156.6642 C   0  0  0  0  0  0  0  0  0  0  0  0
  149.5542  133.9260  156.0950 N   0  0  0  0  0  0  0  0  0  0  0  0
  148.8074  133.9191  154.9295 N   0  0  0  0  0  0  0  0  0  0  0  0
  148.5183  132.7962  154.3679 C   0  0  0  0  0  0  0  0  0  0  0  0
  148.9525  131.5287  154.9122 C   0  0  0  0  0  0  0  0  0  0  0  0
  148.5317  130.0538  154.1158 Cl  0  0  0  0  0  0  0  0  0  0  0  0
  149.6900  131.5467  156.0507 C   0  0  0  0  0  0  0  0  0  0  0  0
  150.2428  130.0704  156.7638 Cl  0  0  0  0  0  0  0  0  0  0  0  0
  150.0371  132.8079  156.7199 C   0  0  0  0  0  0  0  0  0  0  0  0
  150.6905  132.8652  157.7622 O   0  0  0  0  0  0  0  0  0  0  0  0
  151.0111  139.4468  155.2290 C   0  0  2  0  0  0  0  0  0  0  0  0
  152.2729  138.6836  155.6830 C   0  0  0  0  0  0  0  0  0  0  0  0
  151.7006  141.9568  156.3190 H   0  0  0  0  0  0  0  0  0  0  0  0
  152.1289  140.7579  157.5397 H   0  0  0  0  0  0  0  0  0  0  0  0
  150.7765  141.8350  157.8122 H   0  0  0  0  0  0  0  0  0  0  0  0
  150.0255  139.5421  157.1520 H   0  0  0  0  0  0  0  0  0  0  0  0
  148.5878  141.4916  156.7042 H   0  0  0  0  0  0  0  0  0  0  0  0
  149.3666  141.7575  155.1650 H   0  0  0  0  0  0  0  0  0  0  0  0
  147.6877  139.3281  155.9466 H   0  0  0  0  0  0  0  0  0  0  0  0
  147.2275  140.5878  154.8291 H   0  0  0  0  0  0  0  0  0  0  0  0
  148.0325  138.5659  153.6073 H   0  0  0  0  0  0  0  0  0  0  0  0
  149.0287  139.9553  153.2712 H   0  0  0  0  0  0  0  0  0  0  0  0
  150.4933  138.0710  153.6559 H   0  0  0  0  0  0  0  0  0  0  0  0
  148.7447  137.4911  155.8970 H   0  0  0  0  0  0  0  0  0  0  0  0
  150.4366  135.2045  157.5213 H   0  0  0  0  0  0  0  0  0  0  0  0
  148.8281  135.6634  157.0638 H   0  0  0  0  0  0  0  0  0  0  0  0
  147.9302  132.7416  153.4518 H   0  0  0  0  0  0  0  0  0  0  0  0
  151.3343  140.1675  154.4761 H   0  0  0  0  0  0  0  0  0  0  0  0
  152.0674  138.0315  156.5329 H   0  0  0  0  0  0  0  0  0  0  0  0
  153.0722  139.3648  155.9733 H   0  0  0  0  0  0  0  0  0  0  0  0
  152.6652  138.0630  154.8769 H   0  0  0  0  0  0  0  0  0  0  0  0
  1  2  1  0  0  0  0
  1 22  1  0  0  0  0
  1 23  1  0  0  0  0
  1 24  1  0  0  0  0
  2 20  1  0  0  0  0
  2  3  1  0  0  0  0
  2 25  1  0  0  0  0
  3  4  1  0  0  0  0
  3 26  1  0  0  0  0
  3 27  1  0  0  0  0
  4  5  1  0  0  0  0
  4 28  1  0  0  0  0
  4 29  1  0  0  0  0
  5  6  1  0  0  0  0
  5 30  1  0  0  0  0
  5 31  1  0  0  0  0
  6  7  1  0  0  0  0
  6 20  1  0  0  0  0
  6 32  1  0  0  0  0
  7  8  1  0  0  0  0
  7 33  1  0  0  0  0
  8  9  2  0  0  0  0
  8 10  1  0  0  0  0
 10 11  1  0  0  0  0
 10 34  1  0  0  0  0
 10 35  1  0  0  0  0
 11 18  1  0  0  0  0
 11 12  1  0  0  0  0
 12 13  2  0  0  0  0
 13 14  1  0  0  0  0
 13 36  1  0  0  0  0
 14 15  1  0  0  0  0
 14 16  2  0  0  0  0
 16 17  1  0  0  0  0
 16 18  1  0  0  0  0
 18 19  2  0  0  0  0
 20 21  1  0  0  0  0
 20 37  1  0  0  0  0
 21 38  1  0  0  0  0
 21 39  1  0  0  0  0
 21 40  1  0  0  0  0
M  END
> <s_m_source_file>
AV-unprocessed.smi

> <i_m_source_file_index>
2976

> <i_lp_mmshare_version>
43012

> <i_f3d_flags>
0

> <s_epik_input>
W0NIM11bQ0BASF0xW0NIMl1bQ0gyXVtDSDJdW0NASF0oW0NASF0xW0NIM10pW05IXUMoPU8pW0NIMl1uMm5bY0hdYyhDbCljKENsKWMyPU8=

> <s_epik_cmdline>
J2VwaWtfcHl0aG9uJywgJy1waCcsICc3LjAnLCAnLXRuJywgJzgnLCAnLW1hJywgJzIwMCcsICctbWV0YWxfYmluZGluZycsICctaW1hZScsICc8aW5maWxlLm1hZT4nLCAnLW9tYWUnLCAnPG91dGZpbGUubWFlPic=

> <r_lp_tautomer_probability>
1

> <r_epik_Ionization_Penalty>
1.90777e-08

> <r_epik_Ionization_Penalty_Charging>
3.07942e-11

> <r_epik_Ionization_Penalty_Neutral>
1.90469e-08

> <r_epik_State_Penalty>
-0

> <r_epik_Charging_Adjusted_Penalty>
3.07942e-11

> <i_epik_Tot_Q>
0

> <i_epik_Tot_abs_Q>
0

> <r_epik_Metal_State_Penalty>
-0

> <b_epik_Metal_Only>
0

> <s_lp_Force_Field>
OPLS_2005

> <r_lp_Energy>
24.1651

> <b_lp_Chiralities_Consistent>
1

> <s_lp_Variant>
AV-unprocessed.smi:2976-8

> <Gold.Version>
5.8.1

> <Gold.Id.Protein>
6NUR|6NUR_protein|mol2

> <Gold.PLP.Fitness>
38.7531

> <Gold.PLP.PLP>
-33.8692

> <Gold.PLP.part.hbond>
-1.9806

> <Gold.PLP.part.metal>
0.0000

> <Gold.PLP.part.buried>
-3.7681

> <Gold.PLP.part.nonpolar>
-29.3255

> <Gold.PLP.part.repulsive>
0.2753

> <Gold.PLP.ligand.clash>
0.0000

> <Gold.PLP.ligand.torsion>
0.3593

> <Gold.PLP.Chemscore.Hbond>
1.8640

> <Gold.PLP.Chemscore.CHOScore>
0.0000

> <Gold.PLP.Chemscore.Metal>
0.0000

> <Gold.Chemscore.Hbonds>
donor molecule, donor type, donor heavy atom, donor atom, acceptor molecule, acceptor atom, score
      P1  H  6896  6908       L1    19  1.00
      P1  H 10752 10764       L1     9  1.00

> <Gold.PLP.Chemscore.Internal.Correction>
0.0105

> <Gold.Rescore>
     Score         DG    S(hbond)    S(metal)    S(lipo)     H(rot)  DE(clash)    DE(int)     intcor
     13.05     -17.11       2.00        0.00      74.96       1.49       0.14       3.93       ----

> <Gold.Chemscore.Fitness>
13.0491

> <Gold.Chemscore.DG>
-17.1119

> <Gold.Chemscore.ZeroCoef>
-5.4800

> <Gold.Chemscore.Hbond>
1.9962

> <Gold.Chemscore.Metal>
0.0000

> <Gold.Chemscore.Lipo>
74.9582

> <Gold.Chemscore.Internal_Hbond>
0.0000

> <Gold.Chemscore.DEClash>
0.1365

> <Gold.Chemscore.DEInternal>
3.9262

> <Gold.Chemscore.Rot>
1.4866

> <Gold.Chemscore.Internal.Correction>
   9.000000E+99

> <Gold.Chemscore.Hbonds>
donor molecule, donor type, donor heavy atom, donor atom, acceptor molecule, acceptor atom, score
      P1  H  6896  6908       L1    19  0.97
      P1  H 10752 10764       L1     9  1.00

> <Gold.Chemscore.Hbond.Weighted>
-6.6674

> <Gold.Chemscore.Metal.Weighted>
-0.0000

> <Gold.Chemscore.Lipo.Weighted>
-8.7701

> <Gold.Chemscore.Internal_Hbond.Weighted>
0.0000

> <Gold.Chemscore.DEClash.Weighted>
0.1365

> <Gold.Chemscore.DEInternal.Weighted>
3.9262

> <Gold.Chemscore.Rot.Weighted>
3.8057

> <Gold.Chemscore.Internal.Correction.Weighted>
   9.000000E+99

> <Gold.Protein.RotatedTorsions>
[ 6907 6896 6895 6894 ] final   80.33 input  -60.11 | X-H torsion
[ 7974 7965 7964 7962 ] final  -65.04 input  175.53 | X-H torsion
[ 8008 7997 7996 7995 ] final  173.73 input   59.86 | X-H torsion
[ 10167 10162 10161 10158 ] final  152.57 input  -65.29 | X-H torsion
[ 10718 10713 10712 10709 ] final   63.18 input   66.30 | X-H torsion
[ 10763 10752 10751 10750 ] final  -54.59 input  -60.55 | X-H torsion
[ 11005 11000 10999 10996 ] final  149.20 input  -57.11 | X-H torsion

> <Gold.Protein.ActiveResidues>
 VAL166  LYS551  ARG553  GLY616  TRP617  ASP618  TYR619  PRO620  LYS621  CYS622 
 ASP623  PHE694  ASN695  SER759  ASP760  ASP761  ALA762  ILE779  LEU786  VAL792 
 PHE793  MET794  SER795  GLU796  ALA797  LYS798  CYS799  TRP800  GLU811  SER814 

> <Gold.Protein.RotatedAtoms>
  152.5231  134.3374  159.9204 H   0  0  0  0  0  0  0  0  0  0  0  0  # atno 6907 bound_to 6896
  151.3324  133.3989  159.2671 H   0  0  0  0  0  0  0  0  0  0  0  0  # atno 6908 bound_to 6896
  150.9870  134.9231  159.7935 H   0  0  0  0  0  0  0  0  0  0  0  0  # atno 6909 bound_to 6896
  145.7592  140.8870  143.0439 H   0  0  0  0  0  0  0  0  0  0  0  0  # atno 7974 bound_to 7965
  156.1046  140.1452  156.9422 H   0  0  0  0  0  0  0  0  0  0  0  0  # atno 8008 bound_to 7997
  154.4725  140.0905  156.7225 H   0  0  0  0  0  0  0  0  0  0  0  0  # atno 8009 bound_to 7997
  155.4702  140.3441  155.4327 H   0  0  0  0  0  0  0  0  0  0  0  0  # atno 8010 bound_to 7997
  139.4832  144.5346  151.7666 H   0  0  0  0  0  0  0  0  0  0  0  0  # atno 10167 bound_to 10162
  157.5953  130.9091  149.9683 H   0  0  0  0  0  0  0  0  0  0  0  0  # atno 10718 bound_to 10713
  154.1773  135.6449  153.5025 H   0  0  0  0  0  0  0  0  0  0  0  0  # atno 10763 bound_to 10752
  153.0068  135.5397  154.6551 H   0  0  0  0  0  0  0  0  0  0  0  0  # atno 10764 bound_to 10752
  154.5906  135.2934  155.0612 H   0  0  0  0  0  0  0  0  0  0  0  0  # atno 10765 bound_to 10752
  140.1025  134.8975  157.1816 H   0  0  0  0  0  0  0  0  0  0  0  0  # atno 11005 bound_to 11000
  144.6834  139.9699  143.7482 LP  0  0  0  0  0  0  0  0  0  0  0  0  # atno 17320 bound_to 7965
  146.0281  139.3310  143.0772 LP  0  0  0  0  0  0  0  0  0  0  0  0  # atno 17321 bound_to 7965
  140.4877  144.1356  150.5944 LP  0  0  0  0  0  0  0  0  0  0  0  0  # atno 17342 bound_to 10162
  140.4206  143.2613  151.9720 LP  0  0  0  0  0  0  0  0  0  0  0  0  # atno 17343 bound_to 10162
  156.1015  130.3655  150.0210 LP  0  0  0  0  0  0  0  0  0  0  0  0  # atno 17370 bound_to 10713
  156.8325  130.9397  151.3636 LP  0  0  0  0  0  0  0  0  0  0  0  0  # atno 17371 bound_to 10713
  140.3201  134.2926  155.7248 LP  0  0  0  0  0  0  0  0  0  0  0  0  # atno 17394 bound_to 11000
  141.2109  133.7704  156.9899 LP  0  0  0  0  0  0  0  0  0  0  0  0  # atno 17395 bound_to 11000

$$$$
