AV-unprocessed.smi:232|AV-procd|sdf|1779|dock1
  -GOLD-   2262020323D 1   1.00000     0.00000
 Structure written by MMmdl.
 52 55  0  0  0  0  0  0  0  0  1 V2000
  151.0042  141.0658  156.3763 C   0  0  0  0  0  0  0  0  0  0  0  0
  150.6219  139.9456  155.3993 C   0  0  0  0  0  0  0  0  0  0  0  0
  149.2863  140.1960  154.6757 C   0  0  2  0  0  0  0  0  0  0  0  0
  149.1346  141.6418  154.1694 C   0  0  0  0  0  0  0  0  0  0  0  0
  147.6554  141.9522  154.3753 C   0  0  0  0  0  0  0  0  0  0  0  0
  147.3671  141.1857  155.6619 C   0  0  1  0  0  0  0  0  0  0  0  0
  145.8716  141.0496  156.0123 C   0  0  0  0  0  0  0  0  0  0  0  0
  148.1293  139.9405  155.5428 N   0  0  0  0  0  0  0  0  0  0  0  0
  147.4414  138.7984  155.3016 C   0  0  0  0  0  0  0  0  0  0  0  0
  147.2641  137.8760  156.2847 N   0  0  0  0  0  0  0  0  0  0  0  0
  146.5879  136.7512  156.0306 C   0  0  0  0  0  0  0  0  0  0  0  0
  146.0224  136.3563  154.8872 N   0  0  0  0  0  0  0  0  0  0  0  0
  146.2104  137.2774  153.8988 C   0  0  0  0  0  0  0  0  0  0  0  0
  146.9055  138.5123  154.0193 C   0  0  0  0  0  0  0  0  0  0  0  0
  146.8982  139.1865  152.8050 N   0  0  0  0  0  0  0  0  0  0  0  0
  146.2295  138.3956  152.0102 C   0  0  0  0  0  0  0  0  0  0  0  0
  145.7760  137.2305  152.5868 N   0  0  0  0  0  0  0  0  0  0  0  0
  145.0004  136.1842  151.9458 C   0  0  0  0  0  0  0  0  0  0  0  0
  145.7610  134.8453  151.8925 C   0  0  1  0  0  0  0  0  0  0  0  0
  145.3975  134.0217  152.9845 O   0  0  0  0  0  0  0  0  0  0  0  0
  145.5596  134.0946  150.5610 C   0  0  1  0  0  0  0  0  0  0  0  0
  146.3295  132.7812  150.3968 C   0  0  0  0  0  0  0  0  0  0  0  0
  145.4879  132.0741  149.3583 C   0  0  0  0  0  0  0  0  0  0  0  0
  144.0758  132.4737  149.7782 C   0  0  0  0  0  0  0  0  0  0  0  0
  144.1875  133.7840  150.3278 O   0  0  0  0  0  0  0  0  0  0  0  0
  151.9217  140.8173  156.9099 H   0  0  0  0  0  0  0  0  0  0  0  0
  150.2211  141.2255  157.1179 H   0  0  0  0  0  0  0  0  0  0  0  0
  151.1716  142.0090  155.8565 H   0  0  0  0  0  0  0  0  0  0  0  0
  151.4213  139.8041  154.6709 H   0  0  0  0  0  0  0  0  0  0  0  0
  150.5506  139.0126  155.9596 H   0  0  0  0  0  0  0  0  0  0  0  0
  149.2573  139.5454  153.8010 H   0  0  0  0  0  0  0  0  0  0  0  0
  149.7316  142.3230  154.7776 H   0  0  0  0  0  0  0  0  0  0  0  0
  149.4502  141.7599  153.1325 H   0  0  0  0  0  0  0  0  0  0  0  0
  147.4534  143.0201  154.4609 H   0  0  0  0  0  0  0  0  0  0  0  0
  147.0646  141.5538  153.5491 H   0  0  0  0  0  0  0  0  0  0  0  0
  147.8330  141.7306  156.4842 H   0  0  0  0  0  0  0  0  0  0  0  0
  145.4188  142.0323  156.1441 H   0  0  0  0  0  0  0  0  0  0  0  0
  145.7320  140.4987  156.9429 H   0  0  0  0  0  0  0  0  0  0  0  0
  145.3124  140.5379  155.2283 H   0  0  0  0  0  0  0  0  0  0  0  0
  146.4843  136.0708  156.8629 H   0  0  0  0  0  0  0  0  0  0  0  0
  146.0410  138.6452  150.9762 H   0  0  0  0  0  0  0  0  0  0  0  0
  144.0578  136.0709  152.4829 H   0  0  0  0  0  0  0  0  0  0  0  0
  144.7481  136.5159  150.9378 H   0  0  0  0  0  0  0  0  0  0  0  0
  146.8269  135.0505  152.0011 H   0  0  0  0  0  0  0  0  0  0  0  0
  144.6929  133.4559  152.7080 H   0  0  0  0  0  0  0  0  0  0  0  0
  145.8574  134.7569  149.7462 H   0  0  0  0  0  0  0  0  0  0  0  0
  147.3627  132.9308  150.0825 H   0  0  0  0  0  0  0  0  0  0  0  0
  146.3351  132.1984  151.3185 H   0  0  0  0  0  0  0  0  0  0  0  0
  145.7108  132.4656  148.3648 H   0  0  0  0  0  0  0  0  0  0  0  0
  145.6397  130.9945  149.3441 H   0  0  0  0  0  0  0  0  0  0  0  0
  143.3698  132.4477  148.9480 H   0  0  0  0  0  0  0  0  0  0  0  0
  143.7088  131.8036  150.5565 H   0  0  0  0  0  0  0  0  0  0  0  0
  1  2  1  0  0  0  0
  1 26  1  0  0  0  0
  1 27  1  0  0  0  0
  1 28  1  0  0  0  0
  2  3  1  0  0  0  0
  2 29  1  0  0  0  0
  2 30  1  0  0  0  0
  3  8  1  0  0  0  0
  3  4  1  0  0  0  0
  3 31  1  0  0  0  0
  4  5  1  0  0  0  0
  4 32  1  0  0  0  0
  4 33  1  0  0  0  0
  5  6  1  0  0  0  0
  5 34  1  0  0  0  0
  5 35  1  0  0  0  0
  6  7  1  0  0  0  0
  6  8  1  0  0  0  0
  6 36  1  0  0  0  0
  7 37  1  0  0  0  0
  7 38  1  0  0  0  0
  7 39  1  0  0  0  0
  8  9  1  0  0  0  0
  9 14  1  0  0  0  0
  9 10  2  0  0  0  0
 10 11  1  0  0  0  0
 11 12  2  0  0  0  0
 11 40  1  0  0  0  0
 12 13  1  0  0  0  0
 13 17  1  0  0  0  0
 13 14  2  0  0  0  0
 14 15  1  0  0  0  0
 15 16  2  0  0  0  0
 16 17  1  0  0  0  0
 16 41  1  0  0  0  0
 17 18  1  0  0  0  0
 18 19  1  0  0  0  0
 18 42  1  0  0  0  0
 18 43  1  0  0  0  0
 19 20  1  0  0  0  0
 19 21  1  0  0  0  0
 19 44  1  0  0  0  0
 20 45  1  0  0  0  0
 21 25  1  0  0  0  0
 21 22  1  0  0  0  0
 21 46  1  0  0  0  0
 22 23  1  0  0  0  0
 22 47  1  0  0  0  0
 22 48  1  0  0  0  0
 23 24  1  0  0  0  0
 23 49  1  0  0  0  0
 23 50  1  0  0  0  0
 24 25  1  0  0  0  0
 24 51  1  0  0  0  0
 24 52  1  0  0  0  0
M  END
> <s_m_source_file>
AV-unprocessed.smi

> <i_m_source_file_index>
232

> <i_lp_mmshare_version>
43012

> <i_f3d_flags>
0

> <s_epik_input>
W0NIM11bQ0gyXVtDQEBIXTFbQ0gyXVtDSDJdW0NAQEhdKFtDSDNdKU4xYyhuW2NIXW4yKWMoYzIzKW5bY0hdbjNbQ0gyXVtDQEhdKFtPSF0pW0NAQEhdNFtDSDJdW0NIMl1bQ0gyXU80

> <s_epik_cmdline>
J2VwaWtfcHl0aG9uJywgJy1waCcsICc3LjAnLCAnLXRuJywgJzgnLCAnLW1hJywgJzIwMCcsICctbWV0YWxfYmluZGluZycsICctaW1hZScsICc8aW5maWxlLm1hZT4nLCAnLW9tYWUnLCAnPG91dGZpbGUubWFlPic=

> <r_lp_tautomer_probability>
1

> <r_epik_Ionization_Penalty>
0.00258048

> <r_epik_Ionization_Penalty_Charging>
0

> <r_epik_Ionization_Penalty_Neutral>
0.00258048

> <r_epik_State_Penalty>
0.00168551

> <r_epik_Charging_Adjusted_Penalty>
0.00168551

> <i_epik_Tot_Q>
0

> <i_epik_Tot_abs_Q>
0

> <r_epik_Metal_State_Penalty>
-0

> <b_epik_Metal_Only>
0

> <s_lp_Force_Field>
OPLS_2005

> <r_lp_Energy>
58.3384

> <b_lp_Chiralities_Consistent>
1

> <s_lp_Variant>
AV-unprocessed.smi:232-13

> <Gold.Version>
5.8.1

> <Gold.Id.Protein>
6NUR|6NUR_protein|mol2

> <Gold.PLP.Fitness>
36.6481

> <Gold.PLP.PLP>
-35.0879

> <Gold.PLP.part.hbond>
0.0000

> <Gold.PLP.part.metal>
0.0000

> <Gold.PLP.part.buried>
0.7055

> <Gold.PLP.part.nonpolar>
-35.6488

> <Gold.PLP.part.repulsive>
0.5292

> <Gold.PLP.ligand.clash>
0.0000

> <Gold.PLP.ligand.torsion>
0.8566

> <Gold.PLP.Chemscore.Hbond>
0.0000

> <Gold.PLP.Chemscore.CHOScore>
0.9860

> <Gold.PLP.Chemscore.Metal>
0.0000

> <Gold.Chemscore.Hbonds>
donor molecule, donor type, donor heavy atom, donor atom, acceptor molecule, acceptor atom, score
      L1  C    16    41       P1 10171  0.96

> <Gold.PLP.Chemscore.Internal.Correction>
0.3152

> <Gold.Rescore>
     Score         DG    S(hbond)    S(metal)    S(lipo)     H(rot)  DE(clash)    DE(int)     intcor
      8.49      -9.68       0.00        0.00      88.97       2.43       0.39       0.79       ----

> <Gold.Chemscore.Fitness>
8.4937

> <Gold.Chemscore.DG>
-9.6791

> <Gold.Chemscore.ZeroCoef>
-5.4800

> <Gold.Chemscore.Hbond>
0.0000

> <Gold.Chemscore.Metal>
0.0000

> <Gold.Chemscore.Lipo>
88.9725

> <Gold.Chemscore.Internal_Hbond>
0.0000

> <Gold.Chemscore.DEClash>
0.3916

> <Gold.Chemscore.DEInternal>
0.7938

> <Gold.Chemscore.Rot>
2.4260

> <Gold.Chemscore.Internal.Correction>
   9.000000E+99

> <Gold.Chemscore.Hbond.Weighted>
-0.0000

> <Gold.Chemscore.Metal.Weighted>
-0.0000

> <Gold.Chemscore.Lipo.Weighted>
-10.4098

> <Gold.Chemscore.Internal_Hbond.Weighted>
0.0000

> <Gold.Chemscore.DEClash.Weighted>
0.3916

> <Gold.Chemscore.DEInternal.Weighted>
0.7938

> <Gold.Chemscore.Rot.Weighted>
6.2107

> <Gold.Chemscore.Internal.Correction.Weighted>
   9.000000E+99

> <Gold.Protein.RotatedTorsions>
[ 6907 6896 6895 6894 ] final   -7.82 input  -60.11 | X-H torsion
[ 7974 7965 7964 7962 ] final -166.90 input  175.53 | X-H torsion
[ 8008 7997 7996 7995 ] final -130.80 input   59.86 | X-H torsion
[ 10167 10162 10161 10158 ] final   74.62 input  -65.29 | X-H torsion
[ 10718 10713 10712 10709 ] final -110.47 input   66.30 | X-H torsion
[ 10763 10752 10751 10750 ] final   69.98 input  -60.55 | X-H torsion
[ 11005 11000 10999 10996 ] final  -57.59 input  -57.11 | X-H torsion

> <Gold.Protein.ActiveResidues>
 VAL166  LYS551  ARG553  GLY616  TRP617  ASP618  TYR619  PRO620  LYS621  CYS622 
 ASP623  PHE694  ASN695  SER759  ASP760  ASP761  ALA762  ILE779  LEU786  VAL792 
 PHE793  MET794  SER795  GLU796  ALA797  LYS798  CYS799  TRP800  GLU811  SER814 

> <Gold.Protein.RotatedAtoms>
  151.4435  135.1023  159.9676 H   0  0  0  0  0  0  0  0  0  0  0  0  # atno 6907 bound_to 6896
  152.4914  133.8506  159.7210 H   0  0  0  0  0  0  0  0  0  0  0  0  # atno 6908 bound_to 6896
  150.9071  133.6985  159.2891 H   0  0  0  0  0  0  0  0  0  0  0  0  # atno 6909 bound_to 6896
  144.7235  140.2599  143.6266 H   0  0  0  0  0  0  0  0  0  0  0  0  # atno 7974 bound_to 7965
  155.3017  140.0453  157.3030 H   0  0  0  0  0  0  0  0  0  0  0  0  # atno 8008 bound_to 7997
  154.5483  140.2309  155.8494 H   0  0  0  0  0  0  0  0  0  0  0  0  # atno 8009 bound_to 7997
  156.1944  140.3042  155.9403 H   0  0  0  0  0  0  0  0  0  0  0  0  # atno 8010 bound_to 7997
  140.0118  144.5608  150.7652 H   0  0  0  0  0  0  0  0  0  0  0  0  # atno 10167 bound_to 10162
  156.0593  130.5817  150.8242 H   0  0  0  0  0  0  0  0  0  0  0  0  # atno 10718 bound_to 10713
  153.0316  135.5190  154.7372 H   0  0  0  0  0  0  0  0  0  0  0  0  # atno 10763 bound_to 10752
  154.6382  135.2909  155.0138 H   0  0  0  0  0  0  0  0  0  0  0  0  # atno 10764 bound_to 10752
  154.1065  135.6628  153.4930 H   0  0  0  0  0  0  0  0  0  0  0  0  # atno 10765 bound_to 10752
  141.1171  133.6610  156.4793 H   0  0  0  0  0  0  0  0  0  0  0  0  # atno 11005 bound_to 11000
  145.8146  139.2018  143.1973 LP  0  0  0  0  0  0  0  0  0  0  0  0  # atno 17320 bound_to 7965
  146.0566  140.8014  142.9755 LP  0  0  0  0  0  0  0  0  0  0  0  0  # atno 17321 bound_to 7965
  140.7378  143.2770  151.3711 LP  0  0  0  0  0  0  0  0  0  0  0  0  # atno 17342 bound_to 10162
  139.6200  144.0926  152.2382 LP  0  0  0  0  0  0  0  0  0  0  0  0  # atno 17343 bound_to 10162
  157.5588  131.0945  150.9589 LP  0  0  0  0  0  0  0  0  0  0  0  0  # atno 17370 bound_to 10713
  156.9831  130.5535  149.5298 LP  0  0  0  0  0  0  0  0  0  0  0  0  # atno 17371 bound_to 10713
  140.4614  134.6838  157.5087 LP  0  0  0  0  0  0  0  0  0  0  0  0  # atno 17394 bound_to 11000
  140.0101  134.6703  155.9393 LP  0  0  0  0  0  0  0  0  0  0  0  0  # atno 17395 bound_to 11000

$$$$
