AV-unprocessed.smi:2313|AV-procd|sdf|9264|dock5
  -GOLD-   2272012483D 1   1.00000     0.00000
 Structure written by MMmdl.
 37 38  0  0  0  0  0  0  0  0  1 V2000
  151.0015  143.9676  158.3477 C   0  0  0  0  0  0  0  0  0  0  0  0
  152.0007  143.0387  159.0120 C   0  0  0  0  0  0  0  0  0  0  0  0
  152.5758  143.3888  160.2942 C   0  0  0  0  0  0  0  0  0  0  0  0
  153.4518  142.5527  160.8712 C   0  0  0  0  0  0  0  0  0  0  0  0
  153.8335  141.3424  160.2663 N   0  0  0  0  0  0  0  0  0  0  0  0
  154.8076  140.5085  160.9902 C   0  0  0  0  0  0  0  0  0  0  0  0
  154.2936  139.0901  161.2735 C   0  0  0  0  0  0  0  0  0  0  0  0
  153.2218  138.7082  160.8032 O   0  0  0  0  0  0  0  0  0  0  0  0
  155.0964  138.3180  162.0255 N   0  0  0  0  0  0  0  0  0  0  0  0
  154.8838  136.9316  162.4626 C   0  0  1  0  0  0  0  0  0  0  0  0
  153.6303  136.9546  163.3527 C   0  0  0  0  0  0  0  0  0  0  0  0
  154.6060  136.0338  161.3238 C   0  0  0  0  0  0  0  0  0  0  0  0
  154.3873  135.3324  160.4295 N   0  0  0  0  0  0  0  0  0  0  0  0
  156.0353  136.3186  163.2628 C   0  0  0  0  0  0  0  0  0  0  0  0
  155.8203  135.2060  164.2641 C   0  0  0  0  0  0  0  0  0  0  0  0
  156.2745  136.5696  164.7355 C   0  0  0  0  0  0  0  0  0  0  0  0
  153.3396  140.9521  159.0530 C   0  0  0  0  0  0  0  0  0  0  0  0
  153.6865  139.8941  158.5239 O   0  0  0  0  0  0  0  0  0  0  0  0
  152.3747  141.8733  158.4316 C   0  0  0  0  0  0  0  0  0  0  0  0
  151.8498  141.4598  157.1699 C   0  0  0  0  0  0  0  0  0  0  0  0
  151.4449  141.1270  156.1377 N   0  0  0  0  0  0  0  0  0  0  0  0
  150.8506  144.8716  158.9382 H   0  0  0  0  0  0  0  0  0  0  0  0
  150.0370  143.4714  158.2360 H   0  0  0  0  0  0  0  0  0  0  0  0
  151.3538  144.2650  157.3596 H   0  0  0  0  0  0  0  0  0  0  0  0
  152.3082  144.3141  160.7833 H   0  0  0  0  0  0  0  0  0  0  0  0
  153.9204  142.7606  161.8223 H   0  0  0  0  0  0  0  0  0  0  0  0
  155.7349  140.4239  160.4224 H   0  0  0  0  0  0  0  0  0  0  0  0
  155.0911  140.9902  161.9280 H   0  0  0  0  0  0  0  0  0  0  0  0
  155.9547  138.7425  162.3449 H   0  0  0  0  0  0  0  0  0  0  0  0
  153.3724  135.9532  163.6998 H   0  0  0  0  0  0  0  0  0  0  0  0
  152.7666  137.3431  162.8112 H   0  0  0  0  0  0  0  0  0  0  0  0
  153.7782  137.5797  164.2341 H   0  0  0  0  0  0  0  0  0  0  0  0
  156.9469  136.2350  162.6732 H   0  0  0  0  0  0  0  0  0  0  0  0
  154.7994  134.9109  164.4975 H   0  0  0  0  0  0  0  0  0  0  0  0
  156.5504  134.3995  164.2790 H   0  0  0  0  0  0  0  0  0  0  0  0
  157.3077  136.6667  165.0625 H   0  0  0  0  0  0  0  0  0  0  0  0
  155.5587  137.1626  165.2974 H   0  0  0  0  0  0  0  0  0  0  0  0
  1  2  1  0  0  0  0
  1 22  1  0  0  0  0
  1 23  1  0  0  0  0
  1 24  1  0  0  0  0
  2 19  2  0  0  0  0
  2  3  1  0  0  0  0
  3  4  2  0  0  0  0
  3 25  1  0  0  0  0
  4  5  1  0  0  0  0
  4 26  1  0  0  0  0
  5  6  1  0  0  0  0
  5 17  1  0  0  0  0
  6  7  1  0  0  0  0
  6 27  1  0  0  0  0
  6 28  1  0  0  0  0
  7  8  2  0  0  0  0
  7  9  1  0  0  0  0
  9 10  1  0  0  0  0
  9 29  1  0  0  0  0
 10 11  1  0  0  0  0
 10 12  1  0  0  0  0
 10 14  1  0  0  0  0
 11 30  1  0  0  0  0
 11 31  1  0  0  0  0
 11 32  1  0  0  0  0
 12 13  3  0  0  0  0
 14 16  1  0  0  0  0
 14 15  1  0  0  0  0
 14 33  1  0  0  0  0
 15 16  1  0  0  0  0
 15 34  1  0  0  0  0
 15 35  1  0  0  0  0
 16 36  1  0  0  0  0
 16 37  1  0  0  0  0
 17 18  2  0  0  0  0
 17 19  1  0  0  0  0
 19 20  1  0  0  0  0
 20 21  3  0  0  0  0
M  END
> <s_m_source_file>
AV-unprocessed.smi

> <i_m_source_file_index>
2313

> <i_lp_mmshare_version>
43012

> <i_f3d_flags>
0

> <s_epik_input>
W0NIM11jMVtjSF1bY0hdbihjKD1PKWMxQyNOKVtDSDJdQyg9TylbTkhdW0NAQF0oW0NIM10pKEMjTilbQ0hdMltDSDJdW0NIMl0y

> <s_epik_cmdline>
J2VwaWtfcHl0aG9uJywgJy1waCcsICc3LjAnLCAnLXRuJywgJzgnLCAnLW1hJywgJzIwMCcsICctbWV0YWxfYmluZGluZycsICctaW1hZScsICc8aW5maWxlLm1hZT4nLCAnLW9tYWUnLCAnPG91dGZpbGUubWFlPic=

> <r_lp_tautomer_probability>
1

> <r_epik_Ionization_Penalty>
4.65501e-07

> <r_epik_Ionization_Penalty_Charging>
2.39086e-10

> <r_epik_Ionization_Penalty_Neutral>
4.65262e-07

> <r_epik_State_Penalty>
-0

> <r_epik_Charging_Adjusted_Penalty>
2.39086e-10

> <i_epik_Tot_Q>
0

> <i_epik_Tot_abs_Q>
0

> <r_epik_Metal_State_Penalty>
-0

> <b_epik_Metal_Only>
0

> <s_lp_Force_Field>
OPLS_2005

> <r_lp_Energy>
24.9024

> <b_lp_Chiralities_Consistent>
1

> <s_lp_Variant>
AV-unprocessed.smi:2313-1

> <Gold.Version>
5.8.1

> <Gold.Id.Protein>
6NUR|6NUR_protein|mol2

> <Gold.PLP.Fitness>
40.5582

> <Gold.PLP.PLP>
-34.6840

> <Gold.PLP.part.hbond>
-2.0000

> <Gold.PLP.part.metal>
0.0000

> <Gold.PLP.part.buried>
-2.4684

> <Gold.PLP.part.nonpolar>
-29.2666

> <Gold.PLP.part.repulsive>
0.0368

> <Gold.PLP.ligand.clash>
0.0000

> <Gold.PLP.ligand.torsion>
0.8111

> <Gold.PLP.Chemscore.Hbond>
2.0000

> <Gold.PLP.Chemscore.CHOScore>
0.0000

> <Gold.PLP.Chemscore.Metal>
0.0000

> <Gold.Chemscore.Hbonds>
donor molecule, donor type, donor heavy atom, donor atom, acceptor molecule, acceptor atom, score
      P1  H  6896  6909       L1    13  0.89
      P1  H  7997  8009       L1    18  1.00

> <Gold.PLP.Chemscore.Internal.Correction>
1.4964

> <Gold.Rescore>
     Score         DG    S(hbond)    S(metal)    S(lipo)     H(rot)  DE(clash)    DE(int)     intcor
     11.26     -18.19       1.90        0.00      93.69       1.80       1.13       5.80       ----

> <Gold.Chemscore.Fitness>
11.2596

> <Gold.Chemscore.DG>
-18.1891

> <Gold.Chemscore.ZeroCoef>
-5.4800

> <Gold.Chemscore.Hbond>
1.8993

> <Gold.Chemscore.Metal>
0.0000

> <Gold.Chemscore.Lipo>
93.6919

> <Gold.Chemscore.Internal_Hbond>
0.0000

> <Gold.Chemscore.DEClash>
1.1327

> <Gold.Chemscore.DEInternal>
5.7968

> <Gold.Chemscore.Rot>
1.7955

> <Gold.Chemscore.Internal.Correction>
   9.000000E+99

> <Gold.Chemscore.Hbonds>
donor molecule, donor type, donor heavy atom, donor atom, acceptor molecule, acceptor atom, score
      P1  H  6896  6909       L1    13  0.85
      P1  H  7997  8009       L1    18  0.91

> <Gold.Chemscore.Hbond.Weighted>
-6.3437

> <Gold.Chemscore.Metal.Weighted>
-0.0000

> <Gold.Chemscore.Lipo.Weighted>
-10.9619

> <Gold.Chemscore.Internal_Hbond.Weighted>
0.0000

> <Gold.Chemscore.DEClash.Weighted>
1.1327

> <Gold.Chemscore.DEInternal.Weighted>
5.7968

> <Gold.Chemscore.Rot.Weighted>
4.5965

> <Gold.Chemscore.Internal.Correction.Weighted>
   9.000000E+99

> <Gold.Protein.RotatedTorsions>
[ 6907 6896 6895 6894 ] final -167.16 input  -60.11 | X-H torsion
[ 7974 7965 7964 7962 ] final  173.14 input  175.53 | X-H torsion
[ 8008 7997 7996 7995 ] final  145.12 input   59.86 | X-H torsion
[ 10167 10162 10161 10158 ] final   17.23 input  -65.29 | X-H torsion
[ 10718 10713 10712 10709 ] final   76.69 input   66.30 | X-H torsion
[ 10763 10752 10751 10750 ] final  160.66 input  -60.55 | X-H torsion
[ 11005 11000 10999 10996 ] final  110.27 input  -57.11 | X-H torsion

> <Gold.Protein.ActiveResidues>
 VAL166  LYS551  ARG553  GLY616  TRP617  ASP618  TYR619  PRO620  LYS621  CYS622 
 ASP623  PHE694  ASN695  SER759  ASP760  ASP761  ALA762  ILE779  LEU786  VAL792 
 PHE793  MET794  SER795  GLU796  ALA797  LYS798  CYS799  TRP800  GLU811  SER814 

> <Gold.Protein.RotatedAtoms>
  151.4550  133.3607  159.2800 H   0  0  0  0  0  0  0  0  0  0  0  0  # atno 6907 bound_to 6896
  150.9064  134.8481  159.7406 H   0  0  0  0  0  0  0  0  0  0  0  0  # atno 6908 bound_to 6896
  152.4908  134.4476  159.9616 H   0  0  0  0  0  0  0  0  0  0  0  0  # atno 6909 bound_to 6896
  144.7251  139.9604  143.6434 H   0  0  0  0  0  0  0  0  0  0  0  0  # atno 7974 bound_to 7965
  156.2891  140.2217  156.5164 H   0  0  0  0  0  0  0  0  0  0  0  0  # atno 8008 bound_to 7997
  154.7566  140.0476  157.0960 H   0  0  0  0  0  0  0  0  0  0  0  0  # atno 8009 bound_to 7997
  155.0044  140.3105  155.4858 H   0  0  0  0  0  0  0  0  0  0  0  0  # atno 8010 bound_to 7997
  140.5741  143.9106  150.6736 H   0  0  0  0  0  0  0  0  0  0  0  0  # atno 10167 bound_to 10162
  157.6683  130.9786  150.1534 H   0  0  0  0  0  0  0  0  0  0  0  0  # atno 10718 bound_to 10713
  154.2509  135.2771  155.2817 H   0  0  0  0  0  0  0  0  0  0  0  0  # atno 10763 bound_to 10752
  154.5466  135.5687  153.6888 H   0  0  0  0  0  0  0  0  0  0  0  0  # atno 10764 bound_to 10752
  152.9980  135.6264  154.2656 H   0  0  0  0  0  0  0  0  0  0  0  0  # atno 10765 bound_to 10752
  139.8878  134.9479  156.6252 H   0  0  0  0  0  0  0  0  0  0  0  0  # atno 11005 bound_to 11000
  146.0642  139.3634  143.0563 LP  0  0  0  0  0  0  0  0  0  0  0  0  # atno 17320 bound_to 7965
  145.8053  140.9752  143.0977 LP  0  0  0  0  0  0  0  0  0  0  0  0  # atno 17321 bound_to 7965
  140.2589  143.3538  152.1340 LP  0  0  0  0  0  0  0  0  0  0  0  0  # atno 17342 bound_to 10162
  139.5133  144.6930  151.5707 LP  0  0  0  0  0  0  0  0  0  0  0  0  # atno 17343 bound_to 10162
  156.2327  130.3683  149.8426 LP  0  0  0  0  0  0  0  0  0  0  0  0  # atno 17370 bound_to 10713
  156.6248  130.8641  151.3483 LP  0  0  0  0  0  0  0  0  0  0  0  0  # atno 17371 bound_to 10713
  140.7708  133.8740  155.8490 LP  0  0  0  0  0  0  0  0  0  0  0  0  # atno 17394 bound_to 11000
  140.9843  134.1363  157.4466 LP  0  0  0  0  0  0  0  0  0  0  0  0  # atno 17395 bound_to 11000

$$$$
