AV-unprocessed.smi:2045|AV-procd|sdf|8310|dock1
  -GOLD-   2272010573D 1   1.00000     0.00000
 Structure written by MMmdl.
 38 39  0  0  0  0  0  0  0  0  3 V2000
  149.0993  141.6661  154.6747 C   0  0  0  0  0  0  0  0  0  0  0  0
  149.6202  140.2713  154.6154 C   0  0  0  0  0  0  0  0  0  0  0  0
  149.0205  139.0621  154.4029 C   0  0  0  0  0  0  0  0  0  0  0  0
  150.1052  138.1479  154.4767 C   0  0  0  0  0  0  0  0  0  0  0  0
  149.8911  136.7550  154.3011 N   0  0  0  0  0  0  0  0  0  0  0  0
  150.5292  135.7235  154.8842 C   0  0  0  0  0  0  0  0  0  0  0  0
  151.4234  135.9303  155.7133 O   0  0  0  0  0  0  0  0  0  0  0  0
  150.0667  134.5198  154.4473 N   0  5  0  0  0  0  0  0  0  0  0  0
  148.8889  133.8389  154.9799 C   0  0  0  0  0  0  0  0  0  0  0  0
  147.6330  134.6847  154.6970 C   0  0  0  0  0  0  0  0  0  0  0  0
  147.1372  134.5016  153.3065 N   0  3  0  0  0  0  0  0  0  0  0  0
  146.9463  133.0698  152.9521 C   0  0  0  0  0  0  0  0  0  0  0  0
  146.5789  132.9054  151.4673 C   0  0  0  0  0  0  0  0  0  0  0  0
  145.3318  133.7253  151.1127 C   0  0  0  0  0  0  0  0  0  0  0  0
  145.5397  135.1912  151.5131 C   0  0  0  0  0  0  0  0  0  0  0  0
  145.9206  135.3063  152.9985 C   0  0  0  0  0  0  0  0  0  0  0  0
  151.2627  138.7471  154.7132 N   0  0  0  0  0  0  0  0  0  0  0  0
  150.9577  140.1103  154.8041 O   0  0  0  0  0  0  0  0  0  0  0  0
  148.0144  141.6821  154.5697 H   0  0  0  0  0  0  0  0  0  0  0  0
  149.5257  142.2715  153.8748 H   0  0  0  0  0  0  0  0  0  0  0  0
  149.3538  142.1329  155.6262 H   0  0  0  0  0  0  0  0  0  0  0  0
  147.9743  138.8648  154.2226 H   0  0  0  0  0  0  0  0  0  0  0  0
  149.1684  136.5056  153.6426 H   0  0  0  0  0  0  0  0  0  0  0  0
  148.7509  132.8502  154.5400 H   0  0  0  0  0  0  0  0  0  0  0  0
  148.9717  133.6769  156.0552 H   0  0  0  0  0  0  0  0  0  0  0  0
  146.8600  134.3846  155.4068 H   0  0  0  0  0  0  0  0  0  0  0  0
  147.8209  135.7424  154.8901 H   0  0  0  0  0  0  0  0  0  0  0  0
  147.8639  132.5155  153.1532 H   0  0  0  0  0  0  0  0  0  0  0  0
  146.1683  132.6387  153.5842 H   0  0  0  0  0  0  0  0  0  0  0  0
  147.4165  133.2248  150.8456 H   0  0  0  0  0  0  0  0  0  0  0  0
  146.4091  131.8527  151.2399 H   0  0  0  0  0  0  0  0  0  0  0  0
  145.1210  133.6510  150.0455 H   0  0  0  0  0  0  0  0  0  0  0  0
  144.4629  133.3197  151.6327 H   0  0  0  0  0  0  0  0  0  0  0  0
  146.3251  135.6329  150.8983 H   0  0  0  0  0  0  0  0  0  0  0  0
  144.6329  135.7637  151.3155 H   0  0  0  0  0  0  0  0  0  0  0  0
  145.0923  134.9691  153.6237 H   0  0  0  0  0  0  0  0  0  0  0  0
  146.0895  136.3557  153.2422 H   0  0  0  0  0  0  0  0  0  0  0  0
  147.8757  134.8414  152.7068 H   0  0  0  0  0  0  0  0  0  0  0  0
  1  2  1  0  0  0  0
  1 19  1  0  0  0  0
  1 20  1  0  0  0  0
  1 21  1  0  0  0  0
  2 18  1  0  0  0  0
  2  3  2  0  0  0  0
  3  4  1  0  0  0  0
  3 22  1  0  0  0  0
  4  5  1  0  0  0  0
  4 17  2  0  0  0  0
  5  6  1  0  0  0  0
  5 23  1  0  0  0  0
  6  7  2  0  0  0  0
  6  8  1  0  0  0  0
  8  9  1  0  0  0  0
  9 10  1  0  0  0  0
  9 24  1  0  0  0  0
  9 25  1  0  0  0  0
 10 11  1  0  0  0  0
 10 26  1  0  0  0  0
 10 27  1  0  0  0  0
 11 16  1  0  0  0  0
 11 12  1  0  0  0  0
 11 38  1  0  0  0  0
 12 13  1  0  0  0  0
 12 28  1  0  0  0  0
 12 29  1  0  0  0  0
 13 14  1  0  0  0  0
 13 30  1  0  0  0  0
 13 31  1  0  0  0  0
 14 15  1  0  0  0  0
 14 32  1  0  0  0  0
 14 33  1  0  0  0  0
 15 16  1  0  0  0  0
 15 34  1  0  0  0  0
 15 35  1  0  0  0  0
 16 36  1  0  0  0  0
 16 37  1  0  0  0  0
 17 18  1  0  0  0  0
M  CHG  1   8  -1
M  CHG  1  11   1
M  END
> <s_m_source_file>
AV-unprocessed.smi

> <i_m_source_file_index>
2045

> <i_lp_mmshare_version>
43012

> <i_f3d_flags>
0

> <s_epik_input>
W0NIM11jMVtjSF1jKG5vMSlbTkhdQyg9TylbTkhdW0NIMl1bQ0gyXU4yW0NIMl1bQ0gyXVtDSDJdW0NIMl1bQ0gyXTI=

> <s_epik_cmdline>
J2VwaWtfcHl0aG9uJywgJy1waCcsICc3LjAnLCAnLXRuJywgJzgnLCAnLW1hJywgJzIwMCcsICctbWV0YWxfYmluZGluZycsICctaW1hZScsICc8aW5maWxlLm1hZT4nLCAnLW9tYWUnLCAnPG91dGZpbGUubWFlPic=

> <r_epik_Ionization_Penalty>
6.7666

> <r_epik_Ionization_Penalty_Charging>
6.7666

> <r_epik_Ionization_Penalty_Neutral>
5.77131e-06

> <r_epik_State_Penalty>
6.79217

> <r_epik_Charging_Adjusted_Penalty>
13.5588

> <i_epik_Tot_Q>
0

> <i_epik_Tot_abs_Q>
2

> <r_epik_Metal_State_Penalty>
2.72569

> <b_epik_Metal_Only>
1

> <s_lp_Force_Field>
OPLS_2005

> <r_lp_Energy>
13.1294

> <b_lp_Chiralities_Consistent>
1

> <s_lp_Variant>
AV-unprocessed.smi:2045-3

> <Gold.Version>
5.8.1

> <Gold.Id.Protein>
6NUR|6NUR_protein|mol2

> <Gold.PLP.Fitness>
41.5647

> <Gold.PLP.PLP>
-29.0794

> <Gold.PLP.part.hbond>
-4.6230

> <Gold.PLP.part.metal>
0.0000

> <Gold.PLP.part.buried>
-1.7269

> <Gold.PLP.part.nonpolar>
-22.9338

> <Gold.PLP.part.repulsive>
0.4488

> <Gold.PLP.ligand.clash>
0.0000

> <Gold.PLP.ligand.torsion>
1.0962

> <Gold.PLP.Chemscore.Hbond>
4.8480

> <Gold.PLP.Chemscore.CHOScore>
0.0000

> <Gold.PLP.Chemscore.Metal>
0.0000

> <Gold.Chemscore.Hbonds>
donor molecule, donor type, donor heavy atom, donor atom, acceptor molecule, acceptor atom, score
      L1  H     5    23       P1  7948  0.77
      L1  H    11    38       P1  7948  2.00
      P1  H  7989  7998       L1    18  1.00
      P1  H 10752 10765       L1     7  1.00

> <Gold.PLP.Chemscore.Internal.Correction>
0.1337

> <Gold.Rescore>
     Score         DG    S(hbond)    S(metal)    S(lipo)     H(rot)  DE(clash)    DE(int)     intcor
     14.20     -17.11       2.77        0.00      54.30       1.55       0.08       2.82       ----

> <Gold.Chemscore.Fitness>
14.2030

> <Gold.Chemscore.DG>
-17.1068

> <Gold.Chemscore.ZeroCoef>
-5.4800

> <Gold.Chemscore.Hbond>
2.7704

> <Gold.Chemscore.Metal>
0.0000

> <Gold.Chemscore.Lipo>
54.3005

> <Gold.Chemscore.Internal_Hbond>
0.0000

> <Gold.Chemscore.DEClash>
0.0822

> <Gold.Chemscore.DEInternal>
2.8216

> <Gold.Chemscore.Rot>
1.5544

> <Gold.Chemscore.Internal.Correction>
   9.000000E+99

> <Gold.Chemscore.Hbonds>
donor molecule, donor type, donor heavy atom, donor atom, acceptor molecule, acceptor atom, score
      L1  H     5    23       P1  7948  0.74
      L1  H    11    38       P1  7948  0.89
      P1  H  7989  7998       L1    18  0.29
      P1  H 10752 10765       L1     7  0.50

> <Gold.Chemscore.Hbond.Weighted>
-9.2530

> <Gold.Chemscore.Metal.Weighted>
-0.0000

> <Gold.Chemscore.Lipo.Weighted>
-6.3532

> <Gold.Chemscore.Internal_Hbond.Weighted>
0.0000

> <Gold.Chemscore.DEClash.Weighted>
0.0822

> <Gold.Chemscore.DEInternal.Weighted>
2.8216

> <Gold.Chemscore.Rot.Weighted>
3.9794

> <Gold.Chemscore.Internal.Correction.Weighted>
   9.000000E+99

> <Gold.Protein.RotatedTorsions>
[ 6907 6896 6895 6894 ] final   38.10 input  -60.11 | X-H torsion
[ 7974 7965 7964 7962 ] final   15.52 input  175.53 | X-H torsion
[ 8008 7997 7996 7995 ] final  -32.57 input   59.86 | X-H torsion
[ 10167 10162 10161 10158 ] final -164.47 input  -65.29 | X-H torsion
[ 10718 10713 10712 10709 ] final  120.86 input   66.30 | X-H torsion
[ 10763 10752 10751 10750 ] final -165.97 input  -60.55 | X-H torsion
[ 11005 11000 10999 10996 ] final   93.96 input  -57.11 | X-H torsion

> <Gold.Protein.ActiveResidues>
 VAL166  LYS551  ARG553  GLY616  TRP617  ASP618  TYR619  PRO620  LYS621  CYS622 
 ASP623  PHE694  ASN695  SER759  ASP760  ASP761  ALA762  ILE779  LEU786  VAL792 
 PHE793  MET794  SER795  GLU796  ALA797  LYS798  CYS799  TRP800  GLU811  SER814 

> <Gold.Protein.RotatedAtoms>
  152.1519  134.8981  160.0547 H   0  0  0  0  0  0  0  0  0  0  0  0  # atno 6907 bound_to 6896
  152.0010  133.3820  159.4190 H   0  0  0  0  0  0  0  0  0  0  0  0  # atno 6908 bound_to 6896
  150.6876  134.3756  159.5055 H   0  0  0  0  0  0  0  0  0  0  0  0  # atno 6909 bound_to 6896
  146.2276  139.8882  142.8559 H   0  0  0  0  0  0  0  0  0  0  0  0  # atno 7974 bound_to 7965
  154.4176  140.1734  156.1749 H   0  0  0  0  0  0  0  0  0  0  0  0  # atno 8008 bound_to 7997
  155.9730  140.3384  155.6569 H   0  0  0  0  0  0  0  0  0  0  0  0  # atno 8009 bound_to 7997
  155.6600  140.0700  157.2548 H   0  0  0  0  0  0  0  0  0  0  0  0  # atno 8010 bound_to 7997
  139.6248  144.0553  152.1965 H   0  0  0  0  0  0  0  0  0  0  0  0  # atno 10167 bound_to 10162
  157.5860  131.1070  150.8093 H   0  0  0  0  0  0  0  0  0  0  0  0  # atno 10718 bound_to 10713
  154.6879  135.2965  154.9521 H   0  0  0  0  0  0  0  0  0  0  0  0  # atno 10763 bound_to 10752
  154.0494  135.6646  153.4802 H   0  0  0  0  0  0  0  0  0  0  0  0  # atno 10764 bound_to 10752
  153.0592  135.5126  154.7956 H   0  0  0  0  0  0  0  0  0  0  0  0  # atno 10765 bound_to 10752
  139.8804  134.8819  156.3795 H   0  0  0  0  0  0  0  0  0  0  0  0  # atno 11005 bound_to 11000
  145.2444  141.0021  143.3917 LP  0  0  0  0  0  0  0  0  0  0  0  0  # atno 17320 bound_to 7965
  144.9426  139.4172  143.6441 LP  0  0  0  0  0  0  0  0  0  0  0  0  # atno 17321 bound_to 7965
  140.0204  144.6157  150.7571 LP  0  0  0  0  0  0  0  0  0  0  0  0  # atno 17342 bound_to 10162
  140.7404  143.2804  151.3615 LP  0  0  0  0  0  0  0  0  0  0  0  0  # atno 17343 bound_to 10162
  156.8527  130.5086  149.5310 LP  0  0  0  0  0  0  0  0  0  0  0  0  # atno 17370 bound_to 10713
  156.0909  130.5895  150.9732 LP  0  0  0  0  0  0  0  0  0  0  0  0  # atno 17371 bound_to 10713
  140.9409  133.7515  156.0145 LP  0  0  0  0  0  0  0  0  0  0  0  0  # atno 17394 bound_to 11000
  140.8221  134.3277  157.5378 LP  0  0  0  0  0  0  0  0  0  0  0  0  # atno 17395 bound_to 11000

$$$$
