AV-unprocessed.smi:1053|AV-procd|sdf|4621|dock1
  -GOLD-   22720 3123D 1   1.00000     0.00000
 Structure written by MMmdl.
 37 38  0  0  0  0  0  0  0  0  1 V2000
  154.0112  141.5273  160.5214 C   0  0  0  0  0  0  0  0  0  0  0  0
  152.8574  142.4119  161.0153 C   0  0  0  0  0  0  0  0  0  0  0  0
  152.1473  143.1413  159.9660 N   0  0  0  0  0  0  0  0  0  0  0  0
  153.0476  143.9082  159.1088 C   0  0  0  0  0  0  0  0  0  0  0  0
  152.2864  144.6400  157.9908 C   0  0  0  0  0  0  0  0  0  0  0  0
  151.5346  143.6985  157.2327 O   0  0  0  0  0  0  0  0  0  0  0  0
  150.5974  142.9692  158.0216 C   0  0  1  0  0  0  0  0  0  0  0  0
  149.8504  141.9896  157.1069 C   0  0  0  0  0  0  0  0  0  0  0  0
  150.6676  141.5764  155.9759 N   0  0  0  0  0  0  0  0  0  0  0  0
  151.3901  140.3993  155.9310 C   0  0  0  0  0  0  0  0  0  0  0  0
  151.7686  139.9335  154.7350 N   0  0  0  0  0  0  0  0  0  0  0  0
  152.4759  138.7835  154.7199 C   0  0  0  0  0  0  0  0  0  0  0  0
  152.8054  138.0990  155.9062 C   0  0  0  0  0  0  0  0  0  0  0  0
  152.3549  138.6829  157.1114 C   0  0  0  0  0  0  0  0  0  0  0  0
  152.6342  138.0543  158.4684 C   0  0  0  0  0  0  0  0  0  0  0  0
  153.3210  136.9173  158.3493 F   0  0  0  0  0  0  0  0  0  0  0  0
  153.3423  138.8983  159.2193 F   0  0  0  0  0  0  0  0  0  0  0  0
  151.4827  137.7903  159.0860 F   0  0  0  0  0  0  0  0  0  0  0  0
  151.6449  139.8354  157.1136 N   0  0  0  0  0  0  0  0  0  0  0  0
  151.3659  142.2306  159.1358 C   0  0  0  0  0  0  0  0  0  0  0  0
  154.5576  141.1048  161.3647 H   0  0  0  0  0  0  0  0  0  0  0  0
  154.7192  142.1023  159.9238 H   0  0  0  0  0  0  0  0  0  0  0  0
  153.6559  140.6933  159.9167 H   0  0  0  0  0  0  0  0  0  0  0  0
  152.1537  141.8064  161.5885 H   0  0  0  0  0  0  0  0  0  0  0  0
  153.2768  143.1309  161.7202 H   0  0  0  0  0  0  0  0  0  0  0  0
  153.5965  144.6433  159.6967 H   0  0  0  0  0  0  0  0  0  0  0  0
  153.7901  143.2445  158.6634 H   0  0  0  0  0  0  0  0  0  0  0  0
  151.6213  145.3980  158.4072 H   0  0  0  0  0  0  0  0  0  0  0  0
  152.9846  145.1540  157.3300 H   0  0  0  0  0  0  0  0  0  0  0  0
  149.8835  143.6610  158.4734 H   0  0  0  0  0  0  0  0  0  0  0  0
  149.5337  141.1109  157.6702 H   0  0  0  0  0  0  0  0  0  0  0  0
  148.9484  142.4662  156.7212 H   0  0  0  0  0  0  0  0  0  0  0  0
  150.7511  142.2042  155.1895 H   0  0  0  0  0  0  0  0  0  0  0  0
  152.7809  138.4066  153.7551 H   0  0  0  0  0  0  0  0  0  0  0  0
  153.3708  137.1793  155.8843 H   0  0  0  0  0  0  0  0  0  0  0  0
  152.0242  141.4840  158.6884 H   0  0  0  0  0  0  0  0  0  0  0  0
  150.6566  141.6844  159.7589 H   0  0  0  0  0  0  0  0  0  0  0  0
  1  2  1  0  0  0  0
  1 21  1  0  0  0  0
  1 22  1  0  0  0  0
  1 23  1  0  0  0  0
  2  3  1  0  0  0  0
  2 24  1  0  0  0  0
  2 25  1  0  0  0  0
  3 20  1  0  0  0  0
  3  4  1  0  0  0  0
  4  5  1  0  0  0  0
  4 26  1  0  0  0  0
  4 27  1  0  0  0  0
  5  6  1  0  0  0  0
  5 28  1  0  0  0  0
  5 29  1  0  0  0  0
  6  7  1  0  0  0  0
  7  8  1  0  0  0  0
  7 20  1  0  0  0  0
  7 30  1  0  0  0  0
  8  9  1  0  0  0  0
  8 31  1  0  0  0  0
  8 32  1  0  0  0  0
  9 10  1  0  0  0  0
  9 33  1  0  0  0  0
 10 19  1  0  0  0  0
 10 11  2  0  0  0  0
 11 12  1  0  0  0  0
 12 13  2  0  0  0  0
 12 34  1  0  0  0  0
 13 14  1  0  0  0  0
 13 35  1  0  0  0  0
 14 15  1  0  0  0  0
 14 19  2  0  0  0  0
 15 16  1  0  0  0  0
 15 17  1  0  0  0  0
 15 18  1  0  0  0  0
 20 36  1  0  0  0  0
 20 37  1  0  0  0  0
M  END
> <s_m_source_file>
AV-unprocessed.smi

> <i_m_source_file_index>
1053

> <i_lp_mmshare_version>
43012

> <i_f3d_flags>
0

> <s_epik_input>
W0NIM11bQ0gyXU4xW0NIMl1bQ0gyXU9bQ0BIXShbQ0gyXTEpW0NIMl1bTkhdYzJuW2NIXVtjSF1jKG4yKUMoRikoRilG

> <s_epik_cmdline>
J2VwaWtfcHl0aG9uJywgJy1waCcsICc3LjAnLCAnLXRuJywgJzgnLCAnLW1hJywgJzIwMCcsICctbWV0YWxfYmluZGluZycsICctaW1hZScsICc8aW5maWxlLm1hZT4nLCAnLW9tYWUnLCAnPG91dGZpbGUubWFlPic=

> <r_lp_tautomer_probability>
1

> <r_epik_Ionization_Penalty>
0.797829

> <r_epik_Ionization_Penalty_Charging>
0

> <r_epik_Ionization_Penalty_Neutral>
0.797829

> <r_epik_State_Penalty>
0.828842

> <r_epik_Charging_Adjusted_Penalty>
0.828842

> <i_epik_Tot_Q>
0

> <i_epik_Tot_abs_Q>
0

> <r_epik_Metal_State_Penalty>
0.828842

> <b_epik_Metal_Only>
0

> <s_lp_Force_Field>
OPLS_2005

> <r_lp_Energy>
17.4925

> <b_lp_Chiralities_Consistent>
1

> <s_lp_Variant>
AV-unprocessed.smi:1053-5

> <Gold.Version>
5.8.1

> <Gold.Id.Protein>
6NUR|6NUR_protein|mol2

> <Gold.PLP.Fitness>
40.5314

> <Gold.PLP.PLP>
-38.8355

> <Gold.PLP.part.hbond>
-0.9260

> <Gold.PLP.part.metal>
0.0000

> <Gold.PLP.part.buried>
-5.9939

> <Gold.PLP.part.nonpolar>
-31.8518

> <Gold.PLP.part.repulsive>
0.3301

> <Gold.PLP.ligand.clash>
0.0000

> <Gold.PLP.ligand.torsion>
0.6812

> <Gold.PLP.Chemscore.Hbond>
1.0000

> <Gold.PLP.Chemscore.CHOScore>
0.0000

> <Gold.PLP.Chemscore.Metal>
0.0000

> <Gold.Chemscore.Hbonds>
donor molecule, donor type, donor heavy atom, donor atom, acceptor molecule, acceptor atom, score
      P1  H  7989  7998       L1    11  1.00

> <Gold.PLP.Chemscore.Internal.Correction>
0.0584

> <Gold.Rescore>
     Score         DG    S(hbond)    S(metal)    S(lipo)     H(rot)  DE(clash)    DE(int)     intcor
     15.35     -16.08       0.93        0.00      97.45       1.52       0.10       0.63       ----

> <Gold.Chemscore.Fitness>
15.3488

> <Gold.Chemscore.DG>
-16.0819

> <Gold.Chemscore.ZeroCoef>
-5.4800

> <Gold.Chemscore.Hbond>
0.9261

> <Gold.Chemscore.Metal>
0.0000

> <Gold.Chemscore.Lipo>
97.4523

> <Gold.Chemscore.Internal_Hbond>
0.0000

> <Gold.Chemscore.DEClash>
0.1025

> <Gold.Chemscore.DEInternal>
0.6305

> <Gold.Chemscore.Rot>
1.5208

> <Gold.Chemscore.Internal.Correction>
   9.000000E+99

> <Gold.Chemscore.Hbonds>
donor molecule, donor type, donor heavy atom, donor atom, acceptor molecule, acceptor atom, score
      P1  H  7989  7998       L1    11  0.86

> <Gold.Chemscore.Hbond.Weighted>
-3.0931

> <Gold.Chemscore.Metal.Weighted>
-0.0000

> <Gold.Chemscore.Lipo.Weighted>
-11.4019

> <Gold.Chemscore.Internal_Hbond.Weighted>
0.0000

> <Gold.Chemscore.DEClash.Weighted>
0.1025

> <Gold.Chemscore.DEInternal.Weighted>
0.6305

> <Gold.Chemscore.Rot.Weighted>
3.8932

> <Gold.Chemscore.Internal.Correction.Weighted>
   9.000000E+99

> <Gold.Protein.RotatedTorsions>
[ 6907 6896 6895 6894 ] final  139.82 input  -60.11 | X-H torsion
[ 7974 7965 7964 7962 ] final   80.03 input  175.53 | X-H torsion
[ 8008 7997 7996 7995 ] final   94.65 input   59.86 | X-H torsion
[ 10167 10162 10161 10158 ] final   95.60 input  -65.29 | X-H torsion
[ 10718 10713 10712 10709 ] final  -88.92 input   66.30 | X-H torsion
[ 10763 10752 10751 10750 ] final   91.62 input  -60.55 | X-H torsion
[ 11005 11000 10999 10996 ] final -123.27 input  -57.11 | X-H torsion

> <Gold.Protein.ActiveResidues>
 VAL166  LYS551  ARG553  GLY616  TRP617  ASP618  TYR619  PRO620  LYS621  CYS622 
 ASP623  PHE694  ASN695  SER759  ASP760  ASP761  ALA762  ILE779  LEU786  VAL792 
 PHE793  MET794  SER795  GLU796  ALA797  LYS798  CYS799  TRP800  GLU811  SER814 

> <Gold.Protein.RotatedAtoms>
  152.2503  133.5210  159.5321 H   0  0  0  0  0  0  0  0  0  0  0  0  # atno 6907 bound_to 6896
  150.7091  134.0968  159.3960 H   0  0  0  0  0  0  0  0  0  0  0  0  # atno 6908 bound_to 6896
  151.8888  135.0424  160.0546 H   0  0  0  0  0  0  0  0  0  0  0  0  # atno 6909 bound_to 6896
  145.6565  139.2460  143.1947 H   0  0  0  0  0  0  0  0  0  0  0  0  # atno 7974 bound_to 7965
  156.0602  140.3297  155.7453 H   0  0  0  0  0  0  0  0  0  0  0  0  # atno 8008 bound_to 7997
  155.5466  140.0606  157.2876 H   0  0  0  0  0  0  0  0  0  0  0  0  # atno 8009 bound_to 7997
  154.4478  140.1901  156.0633 H   0  0  0  0  0  0  0  0  0  0  0  0  # atno 8010 bound_to 7997
  139.7973  144.6828  150.9811 H   0  0  0  0  0  0  0  0  0  0  0  0  # atno 10167 bound_to 10162
  155.9984  130.4853  150.5093 H   0  0  0  0  0  0  0  0  0  0  0  0  # atno 10718 bound_to 10713
  153.2102  135.4391  155.0371 H   0  0  0  0  0  0  0  0  0  0  0  0  # atno 10763 bound_to 10752
  154.8196  135.3331  154.7080 H   0  0  0  0  0  0  0  0  0  0  0  0  # atno 10764 bound_to 10752
  153.7518  135.6997  153.4999 H   0  0  0  0  0  0  0  0  0  0  0  0  # atno 10765 bound_to 10752
  140.9932  134.0509  157.3629 H   0  0  0  0  0  0  0  0  0  0  0  0  # atno 11005 bound_to 11000
  146.1161  140.7368  142.9480 LP  0  0  0  0  0  0  0  0  0  0  0  0  # atno 17320 bound_to 7965
  144.7104  140.4016  143.7085 LP  0  0  0  0  0  0  0  0  0  0  0  0  # atno 17321 bound_to 7965
  140.7820  143.4318  151.0683 LP  0  0  0  0  0  0  0  0  0  0  0  0  # atno 17342 bound_to 10162
  139.7991  143.8109  152.3161 LP  0  0  0  0  0  0  0  0  0  0  0  0  # atno 17343 bound_to 10162
  157.3068  131.0656  151.2029 LP  0  0  0  0  0  0  0  0  0  0  0  0  # atno 17370 bound_to 10713
  157.2989  130.6833  149.6153 LP  0  0  0  0  0  0  0  0  0  0  0  0  # atno 17371 bound_to 10713
  139.9002  135.0161  156.7231 LP  0  0  0  0  0  0  0  0  0  0  0  0  # atno 17394 bound_to 11000
  140.7007  133.9309  155.8022 LP  0  0  0  0  0  0  0  0  0  0  0  0  # atno 17395 bound_to 11000

$$$$
