AV-unprocessed.smi:2844|AV-procd|sdf|10941|dock4
  -GOLD-   2272015393D 1   1.00000     0.00000
 Structure written by MMmdl.
 39 41  0  0  0  0  0  0  0  0  2 V2000
  152.0924  144.7423  160.3406 C   0  0  0  0  0  0  0  0  0  0  0  0
  151.9039  143.6478  159.3041 C   0  0  0  0  0  0  0  0  0  0  0  0
  151.1438  143.9376  158.1483 C   0  0  0  0  0  0  0  0  0  0  0  0
  150.9870  142.9157  157.2195 C   0  0  0  0  0  0  0  0  0  0  0  0
  150.3077  142.8830  155.9994 N   0  3  0  0  0  0  0  0  0  0  0  0
  150.4367  141.6477  155.4406 C   0  0  0  0  0  0  0  0  0  0  0  0
  151.1886  140.8922  156.2863 N   0  0  0  0  0  0  0  0  0  0  0  0
  151.6318  139.4974  156.1640 C   0  0  0  0  0  0  0  0  0  0  0  0
  152.2249  139.1810  154.7778 C   0  0  2  0  0  0  0  0  0  0  0  0
  152.9250  140.3133  154.2961 O   0  0  0  0  0  0  0  0  0  0  0  0
  151.1380  138.7655  153.7685 C   0  0  0  0  0  0  0  0  0  0  0  0
  150.5699  137.4633  154.0701 N   0  0  0  0  0  0  0  0  0  0  0  0
  149.2665  137.1626  154.4153 C   0  0  0  0  0  0  0  0  0  0  0  0
  149.2420  135.8140  154.5991 C   0  0  0  0  0  0  0  0  0  0  0  0
  147.8778  134.8577  155.0448 Cl  0  0  0  0  0  0  0  0  0  0  0  0
  150.5595  135.3516  154.3513 C   0  0  0  0  0  0  0  0  0  0  0  0
  151.3592  136.3590  154.0326 N   0  0  0  0  0  0  0  0  0  0  0  0
  151.5560  141.6415  157.4085 C   0  0  0  0  0  0  0  0  0  0  0  0
  152.3101  141.3393  158.5396 C   0  0  0  0  0  0  0  0  0  0  0  0
  152.4805  142.3653  159.4968 C   0  0  0  0  0  0  0  0  0  0  0  0
  153.2961  142.0648  160.7430 C   0  0  0  0  0  0  0  0  0  0  0  0
  151.5669  145.6546  160.0572 H   0  0  0  0  0  0  0  0  0  0  0  0
  153.1492  144.9868  160.4509 H   0  0  0  0  0  0  0  0  0  0  0  0
  151.7067  144.4243  161.3095 H   0  0  0  0  0  0  0  0  0  0  0  0
  150.7033  144.9120  157.9944 H   0  0  0  0  0  0  0  0  0  0  0  0
  150.0228  141.3265  154.4956 H   0  0  0  0  0  0  0  0  0  0  0  0
  152.3525  139.2913  156.9564 H   0  0  0  0  0  0  0  0  0  0  0  0
  150.7676  138.8614  156.3602 H   0  0  0  0  0  0  0  0  0  0  0  0
  152.9431  138.3658  154.8750 H   0  0  0  0  0  0  0  0  0  0  0  0
  152.2979  140.9246  153.9394 H   0  0  0  0  0  0  0  0  0  0  0  0
  150.3266  139.4945  153.7726 H   0  0  0  0  0  0  0  0  0  0  0  0
  151.5396  138.7535  152.7539 H   0  0  0  0  0  0  0  0  0  0  0  0
  148.4948  137.9136  154.4983 H   0  0  0  0  0  0  0  0  0  0  0  0
  150.9528  134.3465  154.3907 H   0  0  0  0  0  0  0  0  0  0  0  0
  152.7483  140.3630  158.6848 H   0  0  0  0  0  0  0  0  0  0  0  0
  153.6976  141.0511  160.7225 H   0  0  0  0  0  0  0  0  0  0  0  0
  152.6783  142.1607  161.6363 H   0  0  0  0  0  0  0  0  0  0  0  0
  154.1372  142.7529  160.8274 H   0  0  0  0  0  0  0  0  0  0  0  0
  149.7946  143.6455  155.5757 H   0  0  0  0  0  0  0  0  0  0  0  0
  1  2  1  0  0  0  0
  1 22  1  0  0  0  0
  1 23  1  0  0  0  0
  1 24  1  0  0  0  0
  2 20  1  0  0  0  0
  2  3  2  0  0  0  0
  3  4  1  0  0  0  0
  3 25  1  0  0  0  0
  4 18  2  0  0  0  0
  4  5  1  0  0  0  0
  5  6  2  0  0  0  0
  5 39  1  0  0  0  0
  6  7  1  0  0  0  0
  6 26  1  0  0  0  0
  7  8  1  0  0  0  0
  7 18  1  0  0  0  0
  8  9  1  0  0  0  0
  8 27  1  0  0  0  0
  8 28  1  0  0  0  0
  9 10  1  0  0  0  0
  9 11  1  0  0  0  0
  9 29  1  0  0  0  0
 10 30  1  0  0  0  0
 11 12  1  0  0  0  0
 11 31  1  0  0  0  0
 11 32  1  0  0  0  0
 12 17  1  0  0  0  0
 12 13  1  0  0  0  0
 13 14  2  0  0  0  0
 13 33  1  0  0  0  0
 14 15  1  0  0  0  0
 14 16  1  0  0  0  0
 16 17  2  0  0  0  0
 16 34  1  0  0  0  0
 18 19  1  0  0  0  0
 19 20  2  0  0  0  0
 19 35  1  0  0  0  0
 20 21  1  0  0  0  0
 21 36  1  0  0  0  0
 21 37  1  0  0  0  0
 21 38  1  0  0  0  0
M  CHG  1   5   1
M  END
> <s_m_source_file>
AV-unprocessed.smi

> <i_m_source_file_index>
2844

> <i_lp_mmshare_version>
43012

> <i_f3d_flags>
0

> <s_epik_input>
W0NIM11jKFtjSF0xKWMoW0NIM10pW2NIXWMoYzEyKW4oW2NIXW4yKVtDSDJdW0NASF0oW09IXSlbQ0gyXW4zW2NIXWMoQ2wpW2NIXW4z

> <s_epik_cmdline>
J2VwaWtfcHl0aG9uJywgJy1waCcsICc3LjAnLCAnLXRuJywgJzgnLCAnLW1hJywgJzIwMCcsICctbWV0YWxfYmluZGluZycsICctaW1hZScsICc8aW5maWxlLm1hZT4nLCAnLW9tYWUnLCAnPG91dGZpbGUubWFlPic=

> <r_lp_tautomer_probability>
1

> <r_epik_Ionization_Penalty>
1.09214

> <r_epik_Ionization_Penalty_Charging>
1.09214

> <r_epik_Ionization_Penalty_Neutral>
2.93683e-06

> <r_epik_State_Penalty>
1.14852

> <r_epik_Charging_Adjusted_Penalty>
2.24066

> <i_epik_Tot_Q>
1

> <i_epik_Tot_abs_Q>
1

> <r_epik_Metal_State_Penalty>
1.23687

> <b_epik_Metal_Only>
0

> <s_lp_Force_Field>
OPLS_2005

> <r_lp_Energy>
16.171

> <b_lp_Chiralities_Consistent>
1

> <s_lp_Variant>
AV-unprocessed.smi:2844-3

> <Gold.Version>
5.8.1

> <Gold.Id.Protein>
6NUR|6NUR_protein|mol2

> <Gold.PLP.Fitness>
57.3666

> <Gold.PLP.PLP>
-46.3642

> <Gold.PLP.part.hbond>
-4.0000

> <Gold.PLP.part.metal>
0.0000

> <Gold.PLP.part.buried>
-4.1253

> <Gold.PLP.part.nonpolar>
-37.9714

> <Gold.PLP.part.repulsive>
0.2740

> <Gold.PLP.ligand.clash>
0.0000

> <Gold.PLP.ligand.torsion>
0.5052

> <Gold.PLP.Chemscore.Hbond>
4.0000

> <Gold.PLP.Chemscore.CHOScore>
0.0000

> <Gold.PLP.Chemscore.Metal>
0.0000

> <Gold.Chemscore.Hbonds>
donor molecule, donor type, donor heavy atom, donor atom, acceptor molecule, acceptor atom, score
      L1  H     5    39       P1  8028  1.37
      P1  H  7997  8009       L1    10  0.55
      P1  H 10752 10765       L1    17  0.95

> <Gold.PLP.Chemscore.Internal.Correction>
0.0129

> <Gold.Rescore>
     Score         DG    S(hbond)    S(metal)    S(lipo)     H(rot)  DE(clash)    DE(int)     intcor
     22.41     -22.83       2.92        0.00     113.22       2.21       0.05       0.36       ----

> <Gold.Chemscore.Fitness>
22.4108

> <Gold.Chemscore.DG>
-22.8298

> <Gold.Chemscore.ZeroCoef>
-5.4800

> <Gold.Chemscore.Hbond>
2.9244

> <Gold.Chemscore.Metal>
0.0000

> <Gold.Chemscore.Lipo>
113.2236

> <Gold.Chemscore.Internal_Hbond>
0.0000

> <Gold.Chemscore.DEClash>
0.0546

> <Gold.Chemscore.DEInternal>
0.3644

> <Gold.Chemscore.Rot>
2.2129

> <Gold.Chemscore.Internal.Correction>
   9.000000E+99

> <Gold.Chemscore.Hbonds>
donor molecule, donor type, donor heavy atom, donor atom, acceptor molecule, acceptor atom, score
      L1  H     5    39       P1  8028  0.66
      P1  H  7997  8009       L1    10  0.09
      P1  H 10752 10765       L1    17  0.21

> <Gold.Chemscore.Hbond.Weighted>
-9.7675

> <Gold.Chemscore.Metal.Weighted>
-0.0000

> <Gold.Chemscore.Lipo.Weighted>
-13.2472

> <Gold.Chemscore.Internal_Hbond.Weighted>
0.0000

> <Gold.Chemscore.DEClash.Weighted>
0.0546

> <Gold.Chemscore.DEInternal.Weighted>
0.3644

> <Gold.Chemscore.Rot.Weighted>
5.6649

> <Gold.Chemscore.Internal.Correction.Weighted>
   9.000000E+99

> <Gold.Protein.RotatedTorsions>
[ 6907 6896 6895 6894 ] final -105.64 input  -60.11 | X-H torsion
[ 7974 7965 7964 7962 ] final  106.07 input  175.53 | X-H torsion
[ 8008 7997 7996 7995 ] final -126.12 input   59.86 | X-H torsion
[ 10167 10162 10161 10158 ] final  -45.61 input  -65.29 | X-H torsion
[ 10718 10713 10712 10709 ] final   22.98 input   66.30 | X-H torsion
[ 10763 10752 10751 10750 ] final  171.80 input  -60.55 | X-H torsion
[ 11005 11000 10999 10996 ] final  -99.98 input  -57.11 | X-H torsion

> <Gold.Protein.ActiveResidues>
 VAL166  LYS551  ARG553  GLY616  TRP617  ASP618  TYR619  PRO620  LYS621  CYS622 
 ASP623  PHE694  ASN695  SER759  ASP760  ASP761  ALA762  ILE779  LEU786  VAL792 
 PHE793  MET794  SER795  GLU796  ALA797  LYS798  CYS799  TRP800  GLU811  SER814 

> <Gold.Protein.RotatedAtoms>
  150.7347  134.0096  159.3664 H   0  0  0  0  0  0  0  0  0  0  0  0  # atno 6907 bound_to 6896
  151.8055  135.0694  160.0415 H   0  0  0  0  0  0  0  0  0  0  0  0  # atno 6908 bound_to 6896
  152.3110  133.5717  159.5717 H   0  0  0  0  0  0  0  0  0  0  0  0  # atno 6909 bound_to 6896
  145.3115  139.2539  143.3760 H   0  0  0  0  0  0  0  0  0  0  0  0  # atno 7974 bound_to 7965
  155.2244  140.0423  157.2953 H   0  0  0  0  0  0  0  0  0  0  0  0  # atno 8008 bound_to 7997
  154.5929  140.2431  155.7867 H   0  0  0  0  0  0  0  0  0  0  0  0  # atno 8009 bound_to 7997
  156.2271  140.2951  156.0102 H   0  0  0  0  0  0  0  0  0  0  0  0  # atno 8010 bound_to 7997
  140.6851  143.2871  151.3663 H   0  0  0  0  0  0  0  0  0  0  0  0  # atno 10167 bound_to 10162
  157.1599  130.6712  149.6040 H   0  0  0  0  0  0  0  0  0  0  0  0  # atno 10718 bound_to 10713
  154.4171  135.2757  155.2000 H   0  0  0  0  0  0  0  0  0  0  0  0  # atno 10763 bound_to 10752
  154.3961  135.6055  153.5874 H   0  0  0  0  0  0  0  0  0  0  0  0  # atno 10764 bound_to 10752
  152.9832  135.5915  154.4461 H   0  0  0  0  0  0  0  0  0  0  0  0  # atno 10765 bound_to 10752
  141.1288  133.8363  157.1043 H   0  0  0  0  0  0  0  0  0  0  0  0  # atno 11005 bound_to 11000
  146.3116  140.3652  142.8668 LP  0  0  0  0  0  0  0  0  0  0  0  0  # atno 17320 bound_to 7965
  144.9012  140.7645  143.5866 LP  0  0  0  0  0  0  0  0  0  0  0  0  # atno 17321 bound_to 7965
  139.6203  144.0920  152.2385 LP  0  0  0  0  0  0  0  0  0  0  0  0  # atno 17342 bound_to 10162
  140.0362  144.6042  150.7447 LP  0  0  0  0  0  0  0  0  0  0  0  0  # atno 17343 bound_to 10162
  155.9755  130.4715  150.6468 LP  0  0  0  0  0  0  0  0  0  0  0  0  # atno 17370 bound_to 10713
  157.4143  131.0828  151.1192 LP  0  0  0  0  0  0  0  0  0  0  0  0  # atno 17371 bound_to 10713
  140.0314  134.9899  157.0788 LP  0  0  0  0  0  0  0  0  0  0  0  0  # atno 17394 bound_to 11000
  140.4279  134.1811  155.7167 LP  0  0  0  0  0  0  0  0  0  0  0  0  # atno 17395 bound_to 11000

$$$$
