AV-unprocessed.smi:1929|AV-procd|sdf|7806|dock8
  -GOLD-   22720 9543D 1   1.00000     0.00000
 Structure written by MMmdl.
 42 43  0  0  0  0  0  0  0  0  3 V2000
  147.3077  135.6512  161.0546 C   0  0  0  0  0  0  0  0  0  0  0  0
  148.1874  136.7335  160.6286 N   0  5  0  0  0  0  0  0  0  0  0  0
  148.9558  136.6794  159.5076 C   0  0  0  0  0  0  0  0  0  0  0  0
  150.1362  136.9938  159.3228 O   0  0  0  0  0  0  0  0  0  0  0  0
  148.1518  136.1546  158.3125 C   0  0  0  0  0  0  0  0  0  0  0  0
  149.0365  135.4138  157.3783 N   0  3  2  0  0  0  0  0  0  0  0  0
  149.5220  136.2465  156.2443 C   0  0  0  0  0  0  0  0  0  0  0  0
  150.5266  135.4715  155.3742 C   0  0  0  0  0  0  0  0  0  0  0  0
  149.9352  134.1468  154.8541 C   0  0  2  0  0  0  0  0  0  0  0  0
  148.8869  134.3745  153.8594 N   0  0  0  0  0  0  0  0  0  0  0  0
  148.0332  133.4452  153.4050 C   0  0  0  0  0  0  0  0  0  0  0  0
  148.0340  132.2782  153.7954 O   0  0  0  0  0  0  0  0  0  0  0  0
  147.2146  133.9561  152.4690 N   0  0  0  0  0  0  0  0  0  0  0  0
  146.1978  133.3018  151.7213 C   0  0  0  0  0  0  0  0  0  0  0  0
  146.2570  131.8958  151.6275 C   0  0  0  0  0  0  0  0  0  0  0  0
  145.2696  131.2223  150.8810 C   0  0  0  0  0  0  0  0  0  0  0  0
  144.2659  131.8549  150.2378 N   0  0  0  0  0  0  0  0  0  0  0  0
  144.2186  133.2016  150.3168 C   0  0  0  0  0  0  0  0  0  0  0  0
  145.1549  133.9710  151.0364 C   0  0  0  0  0  0  0  0  0  0  0  0
  149.3869  133.3315  156.0378 C   0  0  0  0  0  0  0  0  0  0  0  0
  148.4132  134.1517  156.9042 C   0  0  0  0  0  0  0  0  0  0  0  0
  146.8680  135.8483  162.0323 H   0  0  0  0  0  0  0  0  0  0  0  0
  147.8296  134.6973  161.1389 H   0  0  0  0  0  0  0  0  0  0  0  0
  146.4763  135.4969  160.3660 H   0  0  0  0  0  0  0  0  0  0  0  0
  147.3923  135.4830  158.7149 H   0  0  0  0  0  0  0  0  0  0  0  0
  147.6135  136.9444  157.7834 H   0  0  0  0  0  0  0  0  0  0  0  0
  148.6737  136.5763  155.6428 H   0  0  0  0  0  0  0  0  0  0  0  0
  150.0082  137.1481  156.6172 H   0  0  0  0  0  0  0  0  0  0  0  0
  150.8622  136.0961  154.5459 H   0  0  0  0  0  0  0  0  0  0  0  0
  151.4171  135.2571  155.9667 H   0  0  0  0  0  0  0  0  0  0  0  0
  150.7291  133.5664  154.3805 H   0  0  0  0  0  0  0  0  0  0  0  0
  148.8123  135.3082  153.4833 H   0  0  0  0  0  0  0  0  0  0  0  0
  147.3851  134.9166  152.2103 H   0  0  0  0  0  0  0  0  0  0  0  0
  147.0393  131.3380  152.1209 H   0  0  0  0  0  0  0  0  0  0  0  0
  145.2879  130.1457  150.7975 H   0  0  0  0  0  0  0  0  0  0  0  0
  143.4120  133.6835  149.7844 H   0  0  0  0  0  0  0  0  0  0  0  0
  145.0591  135.0455  151.0363 H   0  0  0  0  0  0  0  0  0  0  0  0
  148.8976  132.4249  155.6791 H   0  0  0  0  0  0  0  0  0  0  0  0
  150.2202  132.9995  156.6589 H   0  0  0  0  0  0  0  0  0  0  0  0
  148.1076  133.5494  157.7607 H   0  0  0  0  0  0  0  0  0  0  0  0
  147.5069  134.3830  156.3425 H   0  0  0  0  0  0  0  0  0  0  0  0
  149.8484  135.1485  157.9176 H   0  0  0  0  0  0  0  0  0  0  0  0
  1  2  1  0  0  0  0
  1 22  1  0  0  0  0
  1 23  1  0  0  0  0
  1 24  1  0  0  0  0
  2  3  1  0  0  0  0
  3  4  2  0  0  0  0
  3  5  1  0  0  0  0
  5  6  1  0  0  0  0
  5 25  1  0  0  0  0
  5 26  1  0  0  0  0
  6 21  1  0  0  0  0
  6  7  1  0  0  0  0
  6 42  1  0  0  0  0
  7  8  1  0  0  0  0
  7 27  1  0  0  0  0
  7 28  1  0  0  0  0
  8  9  1  0  0  0  0
  8 29  1  0  0  0  0
  8 30  1  0  0  0  0
  9 10  1  0  0  0  0
  9 20  1  0  0  0  0
  9 31  1  0  0  0  0
 10 11  1  0  0  0  0
 10 32  1  0  0  0  0
 11 12  2  0  0  0  0
 11 13  1  0  0  0  0
 13 14  1  0  0  0  0
 13 33  1  0  0  0  0
 14 19  1  0  0  0  0
 14 15  2  0  0  0  0
 15 16  1  0  0  0  0
 15 34  1  0  0  0  0
 16 17  2  0  0  0  0
 16 35  1  0  0  0  0
 17 18  1  0  0  0  0
 18 19  2  0  0  0  0
 18 36  1  0  0  0  0
 19 37  1  0  0  0  0
 20 21  1  0  0  0  0
 20 38  1  0  0  0  0
 20 39  1  0  0  0  0
 21 40  1  0  0  0  0
 21 41  1  0  0  0  0
M  CHG  1   2  -1
M  CHG  1   6   1
M  END
> <s_m_source_file>
AV-unprocessed.smi

> <i_m_source_file_index>
1929

> <i_lp_mmshare_version>
43012

> <i_f3d_flags>
0

> <s_epik_input>
W0NIM11bTkhdQyg9TylbQ0gyXU4xW0NIMl1bQ0gyXVtDSF0oW0NIMl1bQ0gyXTEpW05IXUMoPU8pW05IXWMyW2NIXVtjSF1uW2NIXVtjSF0y

> <s_epik_cmdline>
J2VwaWtfcHl0aG9uJywgJy1waCcsICc3LjAnLCAnLXRuJywgJzgnLCAnLW1hJywgJzIwMCcsICctbWV0YWxfYmluZGluZycsICctaW1hZScsICc8aW5maWxlLm1hZT4nLCAnLW9tYWUnLCAnPG91dGZpbGUubWFlPic=

> <r_epik_Ionization_Penalty>
6.23856

> <r_epik_Ionization_Penalty_Charging>
6.13946

> <r_epik_Ionization_Penalty_Neutral>
0.0990993

> <r_epik_State_Penalty>
7.04382

> <r_epik_Charging_Adjusted_Penalty>
13.1833

> <i_epik_Tot_Q>
0

> <i_epik_Tot_abs_Q>
2

> <r_epik_Metal_State_Penalty>
3.07449

> <b_epik_Metal_Only>
1

> <s_lp_Force_Field>
OPLS_2005

> <r_lp_Energy>
14.5033

> <b_lp_Chiralities_Consistent>
1

> <s_lp_Variant>
AV-unprocessed.smi:1929-8

> <Gold.Version>
5.8.1

> <Gold.Id.Protein>
6NUR|6NUR_protein|mol2

> <Gold.PLP.Fitness>
45.9271

> <Gold.PLP.PLP>
-31.5644

> <Gold.PLP.part.hbond>
-4.0000

> <Gold.PLP.part.metal>
0.0000

> <Gold.PLP.part.buried>
-7.2777

> <Gold.PLP.part.nonpolar>
-21.4898

> <Gold.PLP.part.repulsive>
0.3088

> <Gold.PLP.ligand.clash>
0.0000

> <Gold.PLP.ligand.torsion>
1.5466

> <Gold.PLP.Chemscore.Hbond>
4.8080

> <Gold.PLP.Chemscore.CHOScore>
0.9955

> <Gold.PLP.Chemscore.Metal>
0.0000

> <Gold.Chemscore.Hbonds>
donor molecule, donor type, donor heavy atom, donor atom, acceptor molecule, acceptor atom, score
      L1  H    10    32       P1  7948  0.78
      L1  H    13    33       P1  7948  0.78
      P1  H  6896  6909       L1     4  0.28
      P1  H  6931  6943       L1     2  1.36
      L1  C    18    36       P1 10186  1.00

> <Gold.PLP.Chemscore.Internal.Correction>
0.0457

> <Gold.Rescore>
     Score         DG    S(hbond)    S(metal)    S(lipo)     H(rot)  DE(clash)    DE(int)     intcor
     14.61     -18.68       2.97        0.00      63.69       1.63       0.00       4.08       ----

> <Gold.Chemscore.Fitness>
14.6074

> <Gold.Chemscore.DG>
-18.6843

> <Gold.Chemscore.ZeroCoef>
-5.4800

> <Gold.Chemscore.Hbond>
2.9733

> <Gold.Chemscore.Metal>
0.0000

> <Gold.Chemscore.Lipo>
63.6925

> <Gold.Chemscore.Internal_Hbond>
0.0000

> <Gold.Chemscore.DEClash>
0.0000

> <Gold.Chemscore.DEInternal>
4.0769

> <Gold.Chemscore.Rot>
1.6323

> <Gold.Chemscore.Internal.Correction>
   9.000000E+99

> <Gold.Chemscore.Hbonds>
donor molecule, donor type, donor heavy atom, donor atom, acceptor molecule, acceptor atom, score
      L1  H    10    32       P1  7948  0.61
      L1  H    13    33       P1  7948  0.70
      P1  H  6896  6909       L1     4  0.15
      P1  H  6931  6943       L1     2  0.39
      P1  H  6934  6947       L1     2  0.01

> <Gold.Chemscore.Hbond.Weighted>
-9.9309

> <Gold.Chemscore.Metal.Weighted>
-0.0000

> <Gold.Chemscore.Lipo.Weighted>
-7.4520

> <Gold.Chemscore.Internal_Hbond.Weighted>
0.0000

> <Gold.Chemscore.DEClash.Weighted>
0.0000

> <Gold.Chemscore.DEInternal.Weighted>
4.0769

> <Gold.Chemscore.Rot.Weighted>
4.1786

> <Gold.Chemscore.Internal.Correction.Weighted>
   9.000000E+99

> <Gold.Protein.RotatedTorsions>
[ 6907 6896 6895 6894 ] final  111.50 input  -60.11 | X-H torsion
[ 7974 7965 7964 7962 ] final  155.84 input  175.53 | X-H torsion
[ 8008 7997 7996 7995 ] final   16.70 input   59.86 | X-H torsion
[ 10167 10162 10161 10158 ] final  -72.27 input  -65.29 | X-H torsion
[ 10718 10713 10712 10709 ] final  126.76 input   66.30 | X-H torsion
[ 10763 10752 10751 10750 ] final -105.16 input  -60.55 | X-H torsion
[ 11005 11000 10999 10996 ] final -176.35 input  -57.11 | X-H torsion

> <Gold.Protein.ActiveResidues>
 VAL166  LYS551  ARG553  GLY616  TRP617  ASP618  TYR619  PRO620  LYS621  CYS622 
 ASP623  PHE694  ASN695  SER759  ASP760  ASP761  ALA762  ILE779  LEU786  VAL792 
 PHE793  MET794  SER795  GLU796  ALA797  LYS798  CYS799  TRP800  GLU811  SER814 

> <Gold.Protein.RotatedAtoms>
  152.4966  133.8648  159.7268 H   0  0  0  0  0  0  0  0  0  0  0  0  # atno 6907 bound_to 6896
  150.9150  133.6941  159.2852 H   0  0  0  0  0  0  0  0  0  0  0  0  # atno 6908 bound_to 6896
  151.4337  135.1017  159.9702 H   0  0  0  0  0  0  0  0  0  0  0  0  # atno 6909 bound_to 6896
  144.8000  139.7122  143.6186 H   0  0  0  0  0  0  0  0  0  0  0  0  # atno 7974 bound_to 7965
  154.8807  140.2972  155.5427 H   0  0  0  0  0  0  0  0  0  0  0  0  # atno 8008 bound_to 7997
  156.3022  140.2443  156.3743 H   0  0  0  0  0  0  0  0  0  0  0  0  # atno 8009 bound_to 7997
  154.8720  140.0401  157.1719 H   0  0  0  0  0  0  0  0  0  0  0  0  # atno 8010 bound_to 7997
  140.5206  143.2332  151.7436 H   0  0  0  0  0  0  0  0  0  0  0  0  # atno 10167 bound_to 10162
  157.5391  131.1097  150.8887 H   0  0  0  0  0  0  0  0  0  0  0  0  # atno 10718 bound_to 10713
  154.7928  135.4759  154.0091 H   0  0  0  0  0  0  0  0  0  0  0  0  # atno 10763 bound_to 10752
  153.1656  135.6816  153.8686 H   0  0  0  0  0  0  0  0  0  0  0  0  # atno 10764 bound_to 10752
  153.8286  135.3195  155.3394 H   0  0  0  0  0  0  0  0  0  0  0  0  # atno 10765 bound_to 10752
  140.4531  134.6324  157.4810 H   0  0  0  0  0  0  0  0  0  0  0  0  # atno 11005 bound_to 11000
  146.2279  139.5757  142.9575 LP  0  0  0  0  0  0  0  0  0  0  0  0  # atno 17320 bound_to 7965
  145.5577  141.0407  143.2243 LP  0  0  0  0  0  0  0  0  0  0  0  0  # atno 17321 bound_to 7965
  139.4922  144.4260  151.9925 LP  0  0  0  0  0  0  0  0  0  0  0  0  # atno 17342 bound_to 10162
  140.3356  144.3264  150.5978 LP  0  0  0  0  0  0  0  0  0  0  0  0  # atno 17343 bound_to 10162
  156.9445  130.5397  149.5281 LP  0  0  0  0  0  0  0  0  0  0  0  0  # atno 17370 bound_to 10713
  156.0482  130.5556  150.8930 LP  0  0  0  0  0  0  0  0  0  0  0  0  # atno 17371 bound_to 10713
  139.9994  134.6861  155.9556 LP  0  0  0  0  0  0  0  0  0  0  0  0  # atno 17394 bound_to 11000
  141.1655  133.6537  156.4465 LP  0  0  0  0  0  0  0  0  0  0  0  0  # atno 17395 bound_to 11000

$$$$
