AV-unprocessed.smi:1406|AV-procd|sdf|5724|dock9
  -GOLD-   22720 5353D 1   1.00000     0.00000
 Structure written by MMmdl.
 41 43  0  0  0  0  0  0  0  0  2 V2000
  150.0317  132.7013  154.5796 C   0  0  0  0  0  0  0  0  0  0  0  0
  149.1167  133.9343  154.7241 C   0  0  1  0  0  0  0  0  0  0  0  0
  147.7310  133.7141  154.0986 C   0  0  0  0  0  0  0  0  0  0  0  0
  147.0318  132.7600  154.4413 O   0  0  0  0  0  0  0  0  0  0  0  0
  147.3468  134.6095  153.1751 N   0  0  0  0  0  0  0  0  0  0  0  0
  146.0767  134.5874  152.4561 C   0  0  1  0  0  0  0  0  0  0  0  0
  145.5636  135.9795  152.1081 C   0  0  0  0  0  0  0  0  0  0  0  0
  144.5666  135.6842  150.9865 C   0  0  0  0  0  0  0  0  0  0  0  0
  145.1208  134.5292  150.2439 N   0  3  2  0  0  0  0  0  0  0  0  0
  144.1021  133.5963  149.7029 C   0  0  0  0  0  0  0  0  0  0  0  0
  144.7745  132.4424  148.9368 C   0  0  0  0  0  0  0  0  0  0  0  0
  145.8970  131.7551  149.7424 C   0  0  0  0  0  0  0  0  0  0  0  0
  146.0719  132.3630  151.1429 C   0  0  0  0  0  0  0  0  0  0  0  0
  146.1836  133.9037  151.0818 C   0  0  2  0  0  0  0  0  0  0  0  0
  148.9806  134.3650  156.1101 N   0  0  0  0  0  0  0  0  0  0  0  0
  149.5111  133.8527  157.2226 C   0  0  0  0  0  0  0  0  0  0  0  0
  149.2169  134.5312  158.3225 N   0  0  0  0  0  0  0  0  0  0  0  0
  148.4553  135.5265  157.7793 C   0  0  0  0  0  0  0  0  0  0  0  0
  148.2923  135.4813  156.4572 N   0  0  0  0  0  0  0  0  0  0  0  0
  150.1539  132.4245  153.5318 H   0  0  0  0  0  0  0  0  0  0  0  0
  149.6369  131.8313  155.1059 H   0  0  0  0  0  0  0  0  0  0  0  0
  151.0247  132.9065  154.9802 H   0  0  0  0  0  0  0  0  0  0  0  0
  149.5954  134.7519  154.1823 H   0  0  0  0  0  0  0  0  0  0  0  0
  147.9820  135.3635  152.9567 H   0  0  0  0  0  0  0  0  0  0  0  0
  145.3102  134.0927  153.0568 H   0  0  0  0  0  0  0  0  0  0  0  0
  145.1068  136.4898  152.9566 H   0  0  0  0  0  0  0  0  0  0  0  0
  146.3752  136.6045  151.7314 H   0  0  0  0  0  0  0  0  0  0  0  0
  143.6029  135.4175  151.4239 H   0  0  0  0  0  0  0  0  0  0  0  0
  144.4082  136.5408  150.3311 H   0  0  0  0  0  0  0  0  0  0  0  0
  143.4936  133.2017  150.5184 H   0  0  0  0  0  0  0  0  0  0  0  0
  143.4259  134.1394  149.0419 H   0  0  0  0  0  0  0  0  0  0  0  0
  144.0205  131.7087  148.6499 H   0  0  0  0  0  0  0  0  0  0  0  0
  145.1898  132.8247  148.0034 H   0  0  0  0  0  0  0  0  0  0  0  0
  145.6982  130.6862  149.8269 H   0  0  0  0  0  0  0  0  0  0  0  0
  146.8361  131.8444  149.1947 H   0  0  0  0  0  0  0  0  0  0  0  0
  145.2258  132.0738  151.7680 H   0  0  0  0  0  0  0  0  0  0  0  0
  146.9557  131.9395  151.6203 H   0  0  0  0  0  0  0  0  0  0  0  0
  147.1323  134.1735  150.6146 H   0  0  0  0  0  0  0  0  0  0  0  0
  150.1295  132.9671  157.2279 H   0  0  0  0  0  0  0  0  0  0  0  0
  148.0145  136.3126  158.3744 H   0  0  0  0  0  0  0  0  0  0  0  0
  145.6039  134.9109  149.4431 H   0  0  0  0  0  0  0  0  0  0  0  0
  1  2  1  0  0  0  0
  1 20  1  0  0  0  0
  1 21  1  0  0  0  0
  1 22  1  0  0  0  0
  2  3  1  0  0  0  0
  2 15  1  0  0  0  0
  2 23  1  0  0  0  0
  3  4  2  0  0  0  0
  3  5  1  0  0  0  0
  5  6  1  0  0  0  0
  5 24  1  0  0  0  0
  6 14  1  0  0  0  0
  6  7  1  0  0  0  0
  6 25  1  0  0  0  0
  7  8  1  0  0  0  0
  7 26  1  0  0  0  0
  7 27  1  0  0  0  0
  8  9  1  0  0  0  0
  8 28  1  0  0  0  0
  8 29  1  0  0  0  0
  9 14  1  0  0  0  0
  9 10  1  0  0  0  0
  9 41  1  0  0  0  0
 10 11  1  0  0  0  0
 10 30  1  0  0  0  0
 10 31  1  0  0  0  0
 11 12  1  0  0  0  0
 11 32  1  0  0  0  0
 11 33  1  0  0  0  0
 12 13  1  0  0  0  0
 12 34  1  0  0  0  0
 12 35  1  0  0  0  0
 13 14  1  0  0  0  0
 13 36  1  0  0  0  0
 13 37  1  0  0  0  0
 14 38  1  0  0  0  0
 15 19  1  0  0  0  0
 15 16  1  0  0  0  0
 16 17  2  0  0  0  0
 16 39  1  0  0  0  0
 17 18  1  0  0  0  0
 18 19  2  0  0  0  0
 18 40  1  0  0  0  0
M  CHG  1   9   1
M  END
> <s_m_source_file>
AV-unprocessed.smi

> <i_m_source_file_index>
1406

> <i_lp_mmshare_version>
43012

> <i_f3d_flags>
0

> <s_epik_input>
bjFbY0hdbltjSF1uMVtDQEhdKFtDSDNdKUMoPU8pW05IXVtDQEhdKFtDSDJdW0NIMl0yKVtDQEBIXShOMjMpW0NIMl1bQ0gyXVtDSDJdW0NIMl0z

> <s_epik_cmdline>
J2VwaWtfcHl0aG9uJywgJy1waCcsICc3LjAnLCAnLXRuJywgJzgnLCAnLW1hJywgJzIwMCcsICctbWV0YWxfYmluZGluZycsICctaW1hZScsICc8aW5maWxlLm1hZT4nLCAnLW9tYWUnLCAnPG91dGZpbGUubWFlPic=

> <r_lp_tautomer_probability>
1

> <r_epik_Ionization_Penalty>
0.00197066

> <r_epik_Ionization_Penalty_Charging>
0.00196223

> <r_epik_Ionization_Penalty_Neutral>
8.43107e-06

> <r_epik_State_Penalty>
0.00133866

> <r_epik_Charging_Adjusted_Penalty>
0.00330089

> <i_epik_Tot_Q>
1

> <i_epik_Tot_abs_Q>
1

> <r_epik_Metal_State_Penalty>
-0

> <b_epik_Metal_Only>
0

> <s_lp_Force_Field>
OPLS_2005

> <r_lp_Energy>
45.3415

> <b_lp_Chiralities_Consistent>
1

> <s_lp_Variant>
AV-unprocessed.smi:1406-16

> <Gold.Version>
5.8.1

> <Gold.Id.Protein>
6NUR|6NUR_protein|mol2

> <Gold.PLP.Fitness>
36.7069

> <Gold.PLP.PLP>
-28.6300

> <Gold.PLP.part.hbond>
-2.9961

> <Gold.PLP.part.metal>
0.0000

> <Gold.PLP.part.buried>
-0.7898

> <Gold.PLP.part.nonpolar>
-24.3041

> <Gold.PLP.part.repulsive>
0.1255

> <Gold.PLP.ligand.clash>
0.0000

> <Gold.PLP.ligand.torsion>
0.5128

> <Gold.PLP.Chemscore.Hbond>
3.0000

> <Gold.PLP.Chemscore.CHOScore>
0.0000

> <Gold.PLP.Chemscore.Metal>
0.0000

> <Gold.Chemscore.Hbonds>
donor molecule, donor type, donor heavy atom, donor atom, acceptor molecule, acceptor atom, score
      L1  H     5    24       P1  7948  1.00
      L1  H     9    41       P1  7921  1.00
      P1  H  6896  6909       L1    17  1.00

> <Gold.PLP.Chemscore.Internal.Correction>
0.1026

> <Gold.Rescore>
     Score         DG    S(hbond)    S(metal)    S(lipo)     H(rot)  DE(clash)    DE(int)     intcor
     18.47     -18.97       2.87        0.00      74.53       1.89       0.09       0.42       ----

> <Gold.Chemscore.Fitness>
18.4660

> <Gold.Chemscore.DG>
-18.9686

> <Gold.Chemscore.ZeroCoef>
-5.4800

> <Gold.Chemscore.Hbond>
2.8738

> <Gold.Chemscore.Metal>
0.0000

> <Gold.Chemscore.Lipo>
74.5279

> <Gold.Chemscore.Internal_Hbond>
0.0000

> <Gold.Chemscore.DEClash>
0.0857

> <Gold.Chemscore.DEInternal>
0.4168

> <Gold.Chemscore.Rot>
1.8865

> <Gold.Chemscore.Internal.Correction>
   9.000000E+99

> <Gold.Chemscore.Hbonds>
donor molecule, donor type, donor heavy atom, donor atom, acceptor molecule, acceptor atom, score
      L1  H     5    24       P1  7948  0.94
      L1  H     9    41       P1  7921  0.95
      P1  H  6896  6909       L1    17  0.50

> <Gold.Chemscore.Hbond.Weighted>
-9.5983

> <Gold.Chemscore.Metal.Weighted>
-0.0000

> <Gold.Chemscore.Lipo.Weighted>
-8.7198

> <Gold.Chemscore.Internal_Hbond.Weighted>
0.0000

> <Gold.Chemscore.DEClash.Weighted>
0.0857

> <Gold.Chemscore.DEInternal.Weighted>
0.4168

> <Gold.Chemscore.Rot.Weighted>
4.8295

> <Gold.Chemscore.Internal.Correction.Weighted>
   9.000000E+99

> <Gold.Protein.RotatedTorsions>
[ 6907 6896 6895 6894 ] final   30.82 input  -60.11 | X-H torsion
[ 7974 7965 7964 7962 ] final   22.49 input  175.53 | X-H torsion
[ 8008 7997 7996 7995 ] final  175.64 input   59.86 | X-H torsion
[ 10167 10162 10161 10158 ] final -117.80 input  -65.29 | X-H torsion
[ 10718 10713 10712 10709 ] final   54.45 input   66.30 | X-H torsion
[ 10763 10752 10751 10750 ] final  -37.71 input  -60.55 | X-H torsion
[ 11005 11000 10999 10996 ] final -113.32 input  -57.11 | X-H torsion

> <Gold.Protein.ActiveResidues>
 VAL166  LYS551  ARG553  GLY616  TRP617  ASP618  TYR619  PRO620  LYS621  CYS622 
 ASP623  PHE694  ASN695  SER759  ASP760  ASP761  ALA762  ILE779  LEU786  VAL792 
 PHE793  MET794  SER795  GLU796  ALA797  LYS798  CYS799  TRP800  GLU811  SER814 

> <Gold.Protein.RotatedAtoms>
  152.0515  134.9651  160.0574 H   0  0  0  0  0  0  0  0  0  0  0  0  # atno 6907 bound_to 6896
  152.1050  133.4265  159.4612 H   0  0  0  0  0  0  0  0  0  0  0  0  # atno 6908 bound_to 6896
  150.6841  134.2635  159.4602 H   0  0  0  0  0  0  0  0  0  0  0  0  # atno 6909 bound_to 6896
  146.2026  139.7878  142.8750 H   0  0  0  0  0  0  0  0  0  0  0  0  # atno 7974 bound_to 7965
  156.0849  140.1404  156.9665 H   0  0  0  0  0  0  0  0  0  0  0  0  # atno 8008 bound_to 7997
  154.4607  140.0944  156.6933 H   0  0  0  0  0  0  0  0  0  0  0  0  # atno 8009 bound_to 7997
  155.5015  140.3451  155.4374 H   0  0  0  0  0  0  0  0  0  0  0  0  # atno 8010 bound_to 7997
  140.0645  143.4936  152.2014 H   0  0  0  0  0  0  0  0  0  0  0  0  # atno 10167 bound_to 10162
  157.5258  130.8596  149.8620 H   0  0  0  0  0  0  0  0  0  0  0  0  # atno 10718 bound_to 10713
  153.9008  135.6802  153.4755 H   0  0  0  0  0  0  0  0  0  0  0  0  # atno 10763 bound_to 10752
  153.1130  135.4774  154.9065 H   0  0  0  0  0  0  0  0  0  0  0  0  # atno 10764 bound_to 10752
  154.7576  135.3201  154.8395 H   0  0  0  0  0  0  0  0  0  0  0  0  # atno 10765 bound_to 10752
  141.0621  133.9518  157.2647 H   0  0  0  0  0  0  0  0  0  0  0  0  # atno 11005 bound_to 11000
  145.3430  141.0292  143.3382 LP  0  0  0  0  0  0  0  0  0  0  0  0  # atno 17320 bound_to 7965
  144.8719  139.5026  143.6764 LP  0  0  0  0  0  0  0  0  0  0  0  0  # atno 17321 bound_to 7965
  139.5874  144.7536  151.3487 LP  0  0  0  0  0  0  0  0  0  0  0  0  # atno 17342 bound_to 10162
  140.7156  143.7275  150.7648 LP  0  0  0  0  0  0  0  0  0  0  0  0  # atno 17343 bound_to 10162
  156.0386  130.3745  150.1494 LP  0  0  0  0  0  0  0  0  0  0  0  0  # atno 17370 bound_to 10713
  156.9681  130.9826  151.3465 LP  0  0  0  0  0  0  0  0  0  0  0  0  # atno 17371 bound_to 10713
  139.9442  135.0186  156.8803 LP  0  0  0  0  0  0  0  0  0  0  0  0  # atno 17394 bound_to 11000
  140.5847  134.0319  155.7477 LP  0  0  0  0  0  0  0  0  0  0  0  0  # atno 17395 bound_to 11000

$$$$
