AV-unprocessed.smi:221|AV-procd|sdf|1693|dock5
  -GOLD-   2262020143D 1   1.00000     0.00000
 Structure written by MMmdl.
 50 53  0  0  0  0  0  0  0  0  1 V2000
  153.8933  138.0221  159.9487 N   0  0  0  0  0  0  0  0  0  0  0  0
  154.2010  139.2914  159.6732 C   0  0  0  0  0  0  0  0  0  0  0  0
  155.1203  139.5911  158.9128 O   0  0  0  0  0  0  0  0  0  0  0  0
  153.3604  140.3745  160.3682 C   0  0  1  0  0  0  0  0  0  0  0  0
  154.2322  141.2667  161.2671 C   0  0  0  0  0  0  0  0  0  0  0  0
  153.4884  142.5984  161.2908 C   0  0  2  0  0  0  0  0  0  0  0  0
  152.5006  142.5399  162.1855 F   0  0  0  0  0  0  0  0  0  0  0  0
  152.8970  142.6955  159.8846 C   0  0  0  0  0  0  0  0  0  0  0  0
  152.7609  141.3197  159.4207 N   0  0  0  0  0  0  0  0  0  0  0  0
  151.7168  140.9879  158.6150 C   0  0  0  0  0  0  0  0  0  0  0  0
  151.0860  141.9597  157.9028 N   0  0  0  0  0  0  0  0  0  0  0  0
  150.0575  141.6587  157.1056 C   0  0  0  0  0  0  0  0  0  0  0  0
  149.4996  140.4691  156.8775 N   0  0  0  0  0  0  0  0  0  0  0  0
  150.1193  139.4889  157.5947 C   0  0  0  0  0  0  0  0  0  0  0  0
  151.2248  139.6573  158.4772 C   0  0  0  0  0  0  0  0  0  0  0  0
  151.5698  138.4307  159.0348 N   0  0  0  0  0  0  0  0  0  0  0  0
  150.7191  137.5893  158.5145 C   0  0  0  0  0  0  0  0  0  0  0  0
  149.8093  138.1412  157.6431 N   0  0  0  0  0  0  0  0  0  0  0  0
  148.7522  137.4397  156.9368 C   0  0  0  0  0  0  0  0  0  0  0  0
  149.2588  136.5341  155.7823 C   0  0  1  0  0  0  0  0  0  0  0  0
  148.1005  135.9960  154.9027 C   0  0  0  0  0  0  0  0  0  0  0  0
  147.5650  137.0013  154.0665 O   0  0  0  0  0  0  0  0  0  0  0  0
  150.3090  137.2936  154.9293 C   0  0  2  0  0  0  0  0  0  0  0  0
  151.6654  137.4850  155.5895 C   0  0  0  0  0  0  0  0  0  0  0  0
  152.2729  138.6189  154.7713 C   0  0  0  0  0  0  0  0  0  0  0  0
  151.1768  139.4247  154.3564 O   0  0  0  0  0  0  0  0  0  0  0  0
  149.9508  138.7539  154.6266 C   0  0  0  0  0  0  0  0  0  0  0  0
  152.5729  139.9178  160.9712 H   0  0  0  0  0  0  0  0  0  0  0  0
  154.1213  143.4465  161.5528 H   0  0  0  0  0  0  0  0  0  0  0  0
  154.4135  137.2753  159.5116 H   0  0  0  0  0  0  0  0  0  0  0  0
  153.1396  137.8130  160.5869 H   0  0  0  0  0  0  0  0  0  0  0  0
  154.3753  140.8484  162.2641 H   0  0  0  0  0  0  0  0  0  0  0  0
  155.2196  141.4183  160.8270 H   0  0  0  0  0  0  0  0  0  0  0  0
  151.9520  143.2413  159.8893 H   0  0  0  0  0  0  0  0  0  0  0  0
  153.5860  143.2157  159.2182 H   0  0  0  0  0  0  0  0  0  0  0  0
  149.6179  142.4905  156.5754 H   0  0  0  0  0  0  0  0  0  0  0  0
  150.7258  136.5372  158.7596 H   0  0  0  0  0  0  0  0  0  0  0  0
  148.1888  136.8463  157.6579 H   0  0  0  0  0  0  0  0  0  0  0  0
  148.0629  138.1951  156.5593 H   0  0  0  0  0  0  0  0  0  0  0  0
  149.7670  135.6761  156.2256 H   0  0  0  0  0  0  0  0  0  0  0  0
  148.4327  135.1521  154.2972 H   0  0  0  0  0  0  0  0  0  0  0  0
  147.2710  135.6363  155.5086 H   0  0  0  0  0  0  0  0  0  0  0  0
  148.0302  136.9880  153.2439 H   0  0  0  0  0  0  0  0  0  0  0  0
  150.4563  136.7695  153.9833 H   0  0  0  0  0  0  0  0  0  0  0  0
  151.5439  137.7970  156.6279 H   0  0  0  0  0  0  0  0  0  0  0  0
  152.2907  136.5925  155.5714 H   0  0  0  0  0  0  0  0  0  0  0  0
  153.0027  139.1974  155.3381 H   0  0  0  0  0  0  0  0  0  0  0  0
  152.7686  138.2241  153.8837 H   0  0  0  0  0  0  0  0  0  0  0  0
  149.2640  138.8508  153.7856 H   0  0  0  0  0  0  0  0  0  0  0  0
  149.4897  139.2270  155.4946 H   0  0  0  0  0  0  0  0  0  0  0  0
  1  2  1  0  0  0  0
  1 30  1  0  0  0  0
  1 31  1  0  0  0  0
  2  3  2  0  0  0  0
  2  4  1  0  0  0  0
  4 28  1  0  0  0  0
  4  9  1  0  0  0  0
  4  5  1  0  0  0  0
  5  6  1  0  0  0  0
  5 32  1  0  0  0  0
  5 33  1  0  0  0  0
  6 29  1  0  0  0  0
  6  7  1  0  0  0  0
  6  8  1  0  0  0  0
  8  9  1  0  0  0  0
  8 34  1  0  0  0  0
  8 35  1  0  0  0  0
  9 10  1  0  0  0  0
 10 15  1  0  0  0  0
 10 11  2  0  0  0  0
 11 12  1  0  0  0  0
 12 13  2  0  0  0  0
 12 36  1  0  0  0  0
 13 14  1  0  0  0  0
 14 18  1  0  0  0  0
 14 15  2  0  0  0  0
 15 16  1  0  0  0  0
 16 17  2  0  0  0  0
 17 18  1  0  0  0  0
 17 37  1  0  0  0  0
 18 19  1  0  0  0  0
 19 20  1  0  0  0  0
 19 38  1  0  0  0  0
 19 39  1  0  0  0  0
 20 21  1  0  0  0  0
 20 23  1  0  0  0  0
 20 40  1  0  0  0  0
 21 22  1  0  0  0  0
 21 41  1  0  0  0  0
 21 42  1  0  0  0  0
 22 43  1  0  0  0  0
 23 27  1  0  0  0  0
 23 24  1  0  0  0  0
 23 44  1  0  0  0  0
 24 25  1  0  0  0  0
 24 45  1  0  0  0  0
 24 46  1  0  0  0  0
 25 26  1  0  0  0  0
 25 47  1  0  0  0  0
 25 48  1  0  0  0  0
 26 27  1  0  0  0  0
 27 49  1  0  0  0  0
 27 50  1  0  0  0  0
M  END
> <s_m_source_file>
AV-unprocessed.smi

> <i_m_source_file_index>
221

> <i_lp_mmshare_version>
43012

> <i_f3d_flags>
0

> <s_epik_input>
W05IMl1DKD1PKVtDQEBIXTFbQ0gyXVtDQEBIXShGKVtDSDJdTjFjKG5bY0hdbjIpYyhjMjMpbltjSF1uM1tDSDJdW0NASF0oW0NIMl1bT0hdKVtDQEBIXTRbQ0gyXVtDSDJdT1tDSDJdNA==

> <s_epik_cmdline>
J2VwaWtfcHl0aG9uJywgJy1waCcsICc3LjAnLCAnLXRuJywgJzgnLCAnLW1hJywgJzIwMCcsICctbWV0YWxfYmluZGluZycsICctaW1hZScsICc8aW5maWxlLm1hZT4nLCAnLW9tYWUnLCAnPG91dGZpbGUubWFlPic=

> <r_lp_tautomer_probability>
1

> <r_epik_Ionization_Penalty>
0.000818822

> <r_epik_Ionization_Penalty_Charging>
0

> <r_epik_Ionization_Penalty_Neutral>
0.000818822

> <r_epik_State_Penalty>
0.000440551

> <r_epik_Charging_Adjusted_Penalty>
0.000440551

> <i_epik_Tot_Q>
0

> <i_epik_Tot_abs_Q>
0

> <r_epik_Metal_State_Penalty>
-0

> <b_epik_Metal_Only>
0

> <s_lp_Force_Field>
OPLS_2005

> <r_lp_Energy>
48.2465

> <b_lp_Chiralities_Consistent>
1

> <s_lp_Variant>
AV-unprocessed.smi:221-8

> <Gold.Version>
5.8.1

> <Gold.Id.Protein>
6NUR|6NUR_protein|mol2

> <Gold.PLP.Fitness>
52.5620

> <Gold.PLP.PLP>
-41.6542

> <Gold.PLP.part.hbond>
-3.0000

> <Gold.PLP.part.metal>
0.0000

> <Gold.PLP.part.buried>
-6.0117

> <Gold.PLP.part.nonpolar>
-32.4067

> <Gold.PLP.part.repulsive>
0.2487

> <Gold.PLP.ligand.clash>
0.0000

> <Gold.PLP.ligand.torsion>
0.7403

> <Gold.PLP.Chemscore.Hbond>
3.0000

> <Gold.PLP.Chemscore.CHOScore>
1.0000

> <Gold.PLP.Chemscore.Metal>
0.0000

> <Gold.Chemscore.Hbonds>
donor molecule, donor type, donor heavy atom, donor atom, acceptor molecule, acceptor atom, score
      L1  H    22    43       P1  7948  1.00
      P1  H  7989  7998       L1    26  1.00
      P1  H  7997  8009       L1     3  1.00
      L1  C    12    36       P1  8028  1.00

> <Gold.PLP.Chemscore.Internal.Correction>
0.3884

> <Gold.Rescore>
     Score         DG    S(hbond)    S(metal)    S(lipo)     H(rot)  DE(clash)    DE(int)     intcor
      8.03     -15.95       2.96        0.00      77.34       3.31       0.08       7.84       ----

> <Gold.Chemscore.Fitness>
8.0289

> <Gold.Chemscore.DG>
-15.9536

> <Gold.Chemscore.ZeroCoef>
-5.4800

> <Gold.Chemscore.Hbond>
2.9629

> <Gold.Chemscore.Metal>
0.0000

> <Gold.Chemscore.Lipo>
77.3357

> <Gold.Chemscore.Internal_Hbond>
0.0000

> <Gold.Chemscore.DEClash>
0.0846

> <Gold.Chemscore.DEInternal>
7.8402

> <Gold.Chemscore.Rot>
3.3089

> <Gold.Chemscore.Internal.Correction>
   9.000000E+99

> <Gold.Chemscore.Hbonds>
donor molecule, donor type, donor heavy atom, donor atom, acceptor molecule, acceptor atom, score
      L1  H    22    43       P1  7948  0.99
      P1  H  7989  7998       L1    26  0.88
      P1  H  7997  8009       L1     3  0.99

> <Gold.Chemscore.Hbond.Weighted>
-9.8962

> <Gold.Chemscore.Metal.Weighted>
-0.0000

> <Gold.Chemscore.Lipo.Weighted>
-9.0483

> <Gold.Chemscore.Internal_Hbond.Weighted>
0.0000

> <Gold.Chemscore.DEClash.Weighted>
0.0846

> <Gold.Chemscore.DEInternal.Weighted>
7.8402

> <Gold.Chemscore.Rot.Weighted>
8.4709

> <Gold.Chemscore.Internal.Correction.Weighted>
   9.000000E+99

> <Gold.Protein.RotatedTorsions>
[ 6907 6896 6895 6894 ] final -113.44 input  -60.11 | X-H torsion
[ 7974 7965 7964 7962 ] final  -72.28 input  175.53 | X-H torsion
[ 8008 7997 7996 7995 ] final  104.78 input   59.86 | X-H torsion
[ 10167 10162 10161 10158 ] final  116.20 input  -65.29 | X-H torsion
[ 10718 10713 10712 10709 ] final -103.95 input   66.30 | X-H torsion
[ 10763 10752 10751 10750 ] final   63.91 input  -60.55 | X-H torsion
[ 11005 11000 10999 10996 ] final -113.38 input  -57.11 | X-H torsion

> <Gold.Protein.ActiveResidues>
 VAL166  LYS551  ARG553  GLY616  TRP617  ASP618  TYR619  PRO620  LYS621  CYS622 
 ASP623  PHE694  ASN695  SER759  ASP760  ASP761  ALA762  ILE779  LEU786  VAL792 
 PHE793  MET794  SER795  GLU796  ALA797  LYS798  CYS799  TRP800  GLU811  SER814 

> <Gold.Protein.RotatedAtoms>
  150.7829  133.8944  159.3322 H   0  0  0  0  0  0  0  0  0  0  0  0  # atno 6907 bound_to 6896
  151.6802  135.0961  160.0224 H   0  0  0  0  0  0  0  0  0  0  0  0  # atno 6908 bound_to 6896
  152.3886  133.6607  159.6254 H   0  0  0  0  0  0  0  0  0  0  0  0  # atno 6909 bound_to 6896
  145.6672  140.9233  143.0902 H   0  0  0  0  0  0  0  0  0  0  0  0  # atno 7974 bound_to 7965
  156.1602  140.3142  155.8795 H   0  0  0  0  0  0  0  0  0  0  0  0  # atno 8008 bound_to 7997
  155.3796  140.0487  157.3061 H   0  0  0  0  0  0  0  0  0  0  0  0  # atno 8009 bound_to 7997
  154.5140  140.2174  155.9113 H   0  0  0  0  0  0  0  0  0  0  0  0  # atno 8010 bound_to 7997
  139.6264  144.7109  151.2525 H   0  0  0  0  0  0  0  0  0  0  0  0  # atno 10167 bound_to 10162
  156.0285  130.5492  150.7327 H   0  0  0  0  0  0  0  0  0  0  0  0  # atno 10718 bound_to 10713
  153.0035  135.5412  154.6427 H   0  0  0  0  0  0  0  0  0  0  0  0  # atno 10763 bound_to 10752
  154.5678  135.2839  155.0859 H   0  0  0  0  0  0  0  0  0  0  0  0  # atno 10764 bound_to 10752
  154.2036  135.6479  153.5147 H   0  0  0  0  0  0  0  0  0  0  0  0  # atno 10765 bound_to 10752
  141.0618  133.9523  157.2653 H   0  0  0  0  0  0  0  0  0  0  0  0  # atno 11005 bound_to 11000
  144.7069  139.8525  143.7427 LP  0  0  0  0  0  0  0  0  0  0  0  0  # atno 17320 bound_to 7965
  146.1076  139.4077  143.0308 LP  0  0  0  0  0  0  0  0  0  0  0  0  # atno 17321 bound_to 7965
  140.7413  143.6560  150.8206 LP  0  0  0  0  0  0  0  0  0  0  0  0  # atno 17342 bound_to 10162
  140.0179  143.5573  152.2812 LP  0  0  0  0  0  0  0  0  0  0  0  0  # atno 17343 bound_to 10162
  157.4915  131.0911  151.0421 LP  0  0  0  0  0  0  0  0  0  0  0  0  # atno 17370 bound_to 10713
  157.0826  130.5909  149.5423 LP  0  0  0  0  0  0  0  0  0  0  0  0  # atno 17371 bound_to 10713
  139.9439  135.0187  156.8794 LP  0  0  0  0  0  0  0  0  0  0  0  0  # atno 17394 bound_to 11000
  140.5854  134.0313  155.7479 LP  0  0  0  0  0  0  0  0  0  0  0  0  # atno 17395 bound_to 11000

$$$$
