AV-unprocessed.smi:3303|AV-procd|sdf|12661|dock10
  -GOLD-   2272018593D 1   1.00000     0.00000
 Structure written by MMmdl.
 45 46  0  0  0  0  0  0  0  0  3 V2000
  144.2550  135.7829  152.5690 C   0  0  0  0  0  0  0  0  0  0  0  0
  145.0491  134.9588  151.5396 C   0  0  2  0  0  0  0  0  0  0  0  0
  144.0795  134.1452  150.6556 C   0  0  0  0  0  0  0  0  0  0  0  0
  144.8057  133.3301  149.6497 N   0  3  2  0  0  0  0  0  0  0  0  0
  143.9028  132.7022  148.6580 C   0  0  0  0  0  0  0  0  0  0  0  0
  145.7954  132.3937  150.2536 C   0  0  2  0  0  0  0  0  0  0  0  0
  145.1518  131.2113  151.0100 C   0  0  0  0  0  0  0  0  0  0  0  0
  146.7919  133.1769  151.1316 C   0  0  0  0  0  0  0  0  0  0  0  0
  146.0916  134.0330  152.2097 C   0  0  1  0  0  0  0  0  0  0  0  0
  147.0823  134.8306  152.9708 N   0  3  0  0  0  0  0  0  0  0  0  0
  147.8364  134.0844  153.9995 C   0  0  0  0  0  0  0  0  0  0  0  0
  148.9178  133.2045  153.3582 C   0  0  0  0  0  0  0  0  0  0  0  0
  149.7726  132.5048  154.3975 C   0  0  0  0  0  0  0  0  0  0  0  0
  149.9138  131.1008  154.3901 C   0  0  0  0  0  0  0  0  0  0  0  0
  150.7286  130.5044  155.3720 C   0  0  0  0  0  0  0  0  0  0  0  0
  151.3675  131.3307  156.3167 C   0  0  0  0  0  0  0  0  0  0  0  0
  151.1627  132.7226  156.2376 C   0  0  0  0  0  0  0  0  0  0  0  0
  150.3846  133.3047  155.2993 N   0  0  0  0  0  0  0  0  0  0  0  0
  143.7171  135.1378  153.2646 H   0  0  0  0  0  0  0  0  0  0  0  0
  143.5212  136.4218  152.0767 H   0  0  0  0  0  0  0  0  0  0  0  0
  144.9046  136.4342  153.1539 H   0  0  0  0  0  0  0  0  0  0  0  0
  145.5794  135.6593  150.8921 H   0  0  0  0  0  0  0  0  0  0  0  0
  143.4458  133.5032  151.2688 H   0  0  0  0  0  0  0  0  0  0  0  0
  143.4090  134.8301  150.1342 H   0  0  0  0  0  0  0  0  0  0  0  0
  143.1852  132.0335  149.1342 H   0  0  0  0  0  0  0  0  0  0  0  0
  144.4707  132.1328  147.9215 H   0  0  0  0  0  0  0  0  0  0  0  0
  143.3401  133.4666  148.1210 H   0  0  0  0  0  0  0  0  0  0  0  0
  146.3685  131.9663  149.4294 H   0  0  0  0  0  0  0  0  0  0  0  0
  145.9196  130.5663  151.4380 H   0  0  0  0  0  0  0  0  0  0  0  0
  144.5523  130.5863  150.3483 H   0  0  0  0  0  0  0  0  0  0  0  0
  144.5117  131.5370  151.8290 H   0  0  0  0  0  0  0  0  0  0  0  0
  147.4942  132.4787  151.5870 H   0  0  0  0  0  0  0  0  0  0  0  0
  147.3899  133.8274  150.4913 H   0  0  0  0  0  0  0  0  0  0  0  0
  145.5699  133.3803  152.9112 H   0  0  0  0  0  0  0  0  0  0  0  0
  147.7323  135.2560  152.3252 H   0  0  0  0  0  0  0  0  0  0  0  0
  148.2988  134.7901  154.6910 H   0  0  0  0  0  0  0  0  0  0  0  0
  147.1539  133.4635  154.5798 H   0  0  0  0  0  0  0  0  0  0  0  0
  148.4574  132.4518  152.7158 H   0  0  0  0  0  0  0  0  0  0  0  0
  149.5584  133.8084  152.7135 H   0  0  0  0  0  0  0  0  0  0  0  0
  149.4125  130.4920  153.6517 H   0  0  0  0  0  0  0  0  0  0  0  0
  150.8615  129.4330  155.3997 H   0  0  0  0  0  0  0  0  0  0  0  0
  151.9994  130.9082  157.0840 H   0  0  0  0  0  0  0  0  0  0  0  0
  151.6375  133.3860  156.9456 H   0  0  0  0  0  0  0  0  0  0  0  0
  146.5800  135.5660  153.4478 H   0  0  0  0  0  0  0  0  0  0  0  0
  145.3565  133.9895  149.1184 H   0  0  0  0  0  0  0  0  0  0  0  0
  1  2  1  0  0  0  0
  1 19  1  0  0  0  0
  1 20  1  0  0  0  0
  1 21  1  0  0  0  0
  2  9  1  0  0  0  0
  2  3  1  0  0  0  0
  2 22  1  0  0  0  0
  3  4  1  0  0  0  0
  3 23  1  0  0  0  0
  3 24  1  0  0  0  0
  4  5  1  0  0  0  0
  4  6  1  0  0  0  0
  4 45  1  0  0  0  0
  5 25  1  0  0  0  0
  5 26  1  0  0  0  0
  5 27  1  0  0  0  0
  6  7  1  0  0  0  0
  6  8  1  0  0  0  0
  6 28  1  0  0  0  0
  7 29  1  0  0  0  0
  7 30  1  0  0  0  0
  7 31  1  0  0  0  0
  8  9  1  0  0  0  0
  8 32  1  0  0  0  0
  8 33  1  0  0  0  0
  9 10  1  0  0  0  0
  9 34  1  0  0  0  0
 10 11  1  0  0  0  0
 10 35  1  0  0  0  0
 10 44  1  0  0  0  0
 11 12  1  0  0  0  0
 11 36  1  0  0  0  0
 11 37  1  0  0  0  0
 12 13  1  0  0  0  0
 12 38  1  0  0  0  0
 12 39  1  0  0  0  0
 13 18  1  0  0  0  0
 13 14  2  0  0  0  0
 14 15  1  0  0  0  0
 14 40  1  0  0  0  0
 15 16  2  0  0  0  0
 15 41  1  0  0  0  0
 16 17  1  0  0  0  0
 16 42  1  0  0  0  0
 17 18  2  0  0  0  0
 17 43  1  0  0  0  0
M  CHG  1   4   1
M  CHG  1  10   1
M  END
> <s_m_source_file>
AV-unprocessed.smi

> <i_m_source_file_index>
3303

> <i_lp_mmshare_version>
43012

> <i_f3d_flags>
0

> <s_epik_input>
W0NIM11bQ0BASF0xW0NIMl1OKFtDSDNdKVtDQEBIXShbQ0gzXSlbQ0gyXVtDQEhdMVtOSF1bQ0gyXVtDSDJdYzJbY0hdW2NIXVtjSF1bY0hdbjI=

> <s_epik_cmdline>
J2VwaWtfcHl0aG9uJywgJy1waCcsICc3LjAnLCAnLXRuJywgJzgnLCAnLW1hJywgJzIwMCcsICctbWV0YWxfYmluZGluZycsICctaW1hZScsICc8aW5maWxlLm1hZT4nLCAnLW9tYWUnLCAnPG91dGZpbGUubWFlPic=

> <r_epik_Ionization_Penalty>
0.0769462

> <r_epik_Ionization_Penalty_Charging>
0.0759813

> <r_epik_Ionization_Penalty_Neutral>
0.000964829

> <r_epik_State_Penalty>
0.0654373

> <r_epik_Charging_Adjusted_Penalty>
0.141419

> <i_epik_Tot_Q>
2

> <i_epik_Tot_abs_Q>
2

> <r_epik_Metal_State_Penalty>
0.0656439

> <b_epik_Metal_Only>
0

> <s_lp_Force_Field>
OPLS_2005

> <r_lp_Energy>
28.3665

> <b_lp_Chiralities_Consistent>
1

> <s_lp_Variant>
AV-unprocessed.smi:3303-5

> <Gold.Version>
5.8.1

> <Gold.Id.Protein>
6NUR|6NUR_protein|mol2

> <Gold.PLP.Fitness>
45.6991

> <Gold.PLP.PLP>
-37.1967

> <Gold.PLP.part.hbond>
-2.0000

> <Gold.PLP.part.metal>
0.0000

> <Gold.PLP.part.buried>
-4.2566

> <Gold.PLP.part.nonpolar>
-30.8105

> <Gold.PLP.part.repulsive>
0.1510

> <Gold.PLP.ligand.clash>
0.0000

> <Gold.PLP.ligand.torsion>
0.2524

> <Gold.PLP.Chemscore.Hbond>
3.0000

> <Gold.PLP.Chemscore.CHOScore>
0.0000

> <Gold.PLP.Chemscore.Metal>
0.0000

> <Gold.Chemscore.Hbonds>
donor molecule, donor type, donor heavy atom, donor atom, acceptor molecule, acceptor atom, score
      L1  H     4    45       P1  7921  1.00
      L1  H    10    35       P1  7948  2.00

> <Gold.PLP.Chemscore.Internal.Correction>
0.0071

> <Gold.Rescore>
     Score         DG    S(hbond)    S(metal)    S(lipo)     H(rot)  DE(clash)    DE(int)     intcor
     19.50     -19.76       1.92        0.00      97.31       1.37       0.01       0.26       ----

> <Gold.Chemscore.Fitness>
19.4990

> <Gold.Chemscore.DG>
-19.7630

> <Gold.Chemscore.ZeroCoef>
-5.4800

> <Gold.Chemscore.Hbond>
1.9209

> <Gold.Chemscore.Metal>
0.0000

> <Gold.Chemscore.Lipo>
97.3145

> <Gold.Chemscore.Internal_Hbond>
0.0000

> <Gold.Chemscore.DEClash>
0.0073

> <Gold.Chemscore.DEInternal>
0.2567

> <Gold.Chemscore.Rot>
1.3744

> <Gold.Chemscore.Internal.Correction>
   9.000000E+99

> <Gold.Chemscore.Hbonds>
donor molecule, donor type, donor heavy atom, donor atom, acceptor molecule, acceptor atom, score
      L1  H     4    45       P1  7921  0.85
      L1  H    10    35       P1  7948  0.97

> <Gold.Chemscore.Hbond.Weighted>
-6.4157

> <Gold.Chemscore.Metal.Weighted>
-0.0000

> <Gold.Chemscore.Lipo.Weighted>
-11.3858

> <Gold.Chemscore.Internal_Hbond.Weighted>
0.0000

> <Gold.Chemscore.DEClash.Weighted>
0.0073

> <Gold.Chemscore.DEInternal.Weighted>
0.2567

> <Gold.Chemscore.Rot.Weighted>
3.5185

> <Gold.Chemscore.Internal.Correction.Weighted>
   9.000000E+99

> <Gold.Protein.RotatedTorsions>
[ 6907 6896 6895 6894 ] final -165.83 input  -60.11 | X-H torsion
[ 7974 7965 7964 7962 ] final   93.62 input  175.53 | X-H torsion
[ 8008 7997 7996 7995 ] final  121.28 input   59.86 | X-H torsion
[ 10167 10162 10161 10158 ] final  124.54 input  -65.29 | X-H torsion
[ 10718 10713 10712 10709 ] final  -42.15 input   66.30 | X-H torsion
[ 10763 10752 10751 10750 ] final  155.72 input  -60.55 | X-H torsion
[ 11005 11000 10999 10996 ] final  160.96 input  -57.11 | X-H torsion

> <Gold.Protein.ActiveResidues>
 VAL166  LYS551  ARG553  GLY616  TRP617  ASP618  TYR619  PRO620  LYS621  CYS622 
 ASP623  PHE694  ASN695  SER759  ASP760  ASP761  ALA762  ILE779  LEU786  VAL792 
 PHE793  MET794  SER795  GLU796  ALA797  LYS798  CYS799  TRP800  GLU811  SER814 

> <Gold.Protein.RotatedAtoms>
  151.4340  133.3662  159.2772 H   0  0  0  0  0  0  0  0  0  0  0  0  # atno 6907 bound_to 6896
  150.9205  134.8624  159.7496 H   0  0  0  0  0  0  0  0  0  0  0  0  # atno 6908 bound_to 6896
  152.4979  134.4277  159.9554 H   0  0  0  0  0  0  0  0  0  0  0  0  # atno 6909 bound_to 6896
  145.4765  139.2280  143.2906 H   0  0  0  0  0  0  0  0  0  0  0  0  # atno 7974 bound_to 7965
  156.2679  140.2812  156.1282 H   0  0  0  0  0  0  0  0  0  0  0  0  # atno 8008 bound_to 7997
  155.1082  140.0390  157.2734 H   0  0  0  0  0  0  0  0  0  0  0  0  # atno 8009 bound_to 7997
  154.6763  140.2599  155.6961 H   0  0  0  0  0  0  0  0  0  0  0  0  # atno 8010 bound_to 7997
  139.5736  144.6952  151.3713 H   0  0  0  0  0  0  0  0  0  0  0  0  # atno 10167 bound_to 10162
  156.2626  130.4198  149.8525 H   0  0  0  0  0  0  0  0  0  0  0  0  # atno 10718 bound_to 10713
  154.1728  135.2803  155.3076 H   0  0  0  0  0  0  0  0  0  0  0  0  # atno 10763 bound_to 10752
  154.6062  135.5513  153.7428 H   0  0  0  0  0  0  0  0  0  0  0  0  # atno 10764 bound_to 10752
  153.0160  135.6404  154.1868 H   0  0  0  0  0  0  0  0  0  0  0  0  # atno 10765 bound_to 10752
  140.2111  134.8267  157.3121 H   0  0  0  0  0  0  0  0  0  0  0  0  # atno 11005 bound_to 11000
  146.2366  140.5548  142.8952 LP  0  0  0  0  0  0  0  0  0  0  0  0  # atno 17320 bound_to 7965
  144.7914  140.6039  143.6539 LP  0  0  0  0  0  0  0  0  0  0  0  0  # atno 17321 bound_to 7965
  140.7019  143.7610  150.7417 LP  0  0  0  0  0  0  0  0  0  0  0  0  # atno 17342 bound_to 10162
  140.1123  143.4688  152.2363 LP  0  0  0  0  0  0  0  0  0  0  0  0  # atno 17343 bound_to 10162
  156.6035  130.8556  151.3437 LP  0  0  0  0  0  0  0  0  0  0  0  0  # atno 17370 bound_to 10713
  157.7256  130.9618  150.1621 LP  0  0  0  0  0  0  0  0  0  0  0  0  # atno 17371 bound_to 10713
  140.1950  134.4324  155.7694 LP  0  0  0  0  0  0  0  0  0  0  0  0  # atno 17394 bound_to 11000
  141.2226  133.7045  156.8090 LP  0  0  0  0  0  0  0  0  0  0  0  0  # atno 17395 bound_to 11000

$$$$
