AV-unprocessed.smi:1774|AV-procd|sdf|7168|dock7
  -GOLD-   22720 8403D 1   1.00000     0.00000
 Structure written by MMmdl.
 46 47  0  0  0  0  0  0  0  0  2 V2000
  151.6387  145.0007  157.5803 C   0  0  0  0  0  0  0  0  0  0  0  0
  152.0316  143.6419  158.1372 C   0  0  0  0  0  0  0  0  0  0  0  0
  152.8799  143.5764  159.2630 C   0  0  0  0  0  0  0  0  0  0  0  0
  153.2430  142.3194  159.7760 C   0  0  0  0  0  0  0  0  0  0  0  0
  152.7397  141.1735  159.1368 C   0  0  0  0  0  0  0  0  0  0  0  0
  151.9281  141.2266  158.0609 N   0  0  0  0  0  0  0  0  0  0  0  0
  151.5671  142.4323  157.5540 C   0  0  0  0  0  0  0  0  0  0  0  0
  150.7150  142.5643  156.4210 N   0  0  0  0  0  0  0  0  0  0  0  0
  150.5678  141.7221  155.3832 C   0  0  0  0  0  0  0  0  0  0  0  0
  151.1688  140.6576  155.2346 O   0  0  0  0  0  0  0  0  0  0  0  0
  149.6675  142.1857  154.5041 N   0  0  0  0  0  0  0  0  0  0  0  0
  149.2744  141.4994  153.2790 C   0  0  0  0  0  0  0  0  0  0  0  0
  147.7431  141.3725  153.1678 C   0  0  0  0  0  0  0  0  0  0  0  0
  147.3003  139.9578  153.1082 N   0  3  1  0  0  0  0  0  0  0  0  0
  148.2754  139.0880  152.4087 C   0  0  0  0  0  0  0  0  0  0  0  0
  147.7579  137.6392  152.3078 C   0  0  2  0  0  0  0  0  0  0  0  0
  146.6301  137.4589  151.2759 C   0  0  0  0  0  0  0  0  0  0  0  0
  147.3895  137.1564  153.5997 O   0  0  0  0  0  0  0  0  0  0  0  0
  146.4281  137.9541  154.2861 C   0  0  1  0  0  0  0  0  0  0  0  0
  146.1550  137.2976  155.6439 C   0  0  0  0  0  0  0  0  0  0  0  0
  146.9654  139.3887  154.4359 C   0  0  0  0  0  0  0  0  0  0  0  0
  152.0511  145.8110  158.1825 H   0  0  0  0  0  0  0  0  0  0  0  0
  150.5541  145.1116  157.5700 H   0  0  0  0  0  0  0  0  0  0  0  0
  152.0095  145.1167  156.5614 H   0  0  0  0  0  0  0  0  0  0  0  0
  153.2501  144.4768  159.7308 H   0  0  0  0  0  0  0  0  0  0  0  0
  153.8900  142.2359  160.6367 H   0  0  0  0  0  0  0  0  0  0  0  0
  152.9945  140.1883  159.4984 H   0  0  0  0  0  0  0  0  0  0  0  0
  150.1458  143.3974  156.4060 H   0  0  0  0  0  0  0  0  0  0  0  0
  149.2170  143.0677  154.7009 H   0  0  0  0  0  0  0  0  0  0  0  0
  149.6956  142.0274  152.4232 H   0  0  0  0  0  0  0  0  0  0  0  0
  149.7288  140.5083  153.2855 H   0  0  0  0  0  0  0  0  0  0  0  0
  147.3022  141.8509  154.0438 H   0  0  0  0  0  0  0  0  0  0  0  0
  147.3621  141.9117  152.2990 H   0  0  0  0  0  0  0  0  0  0  0  0
  148.4822  139.4778  151.4111 H   0  0  0  0  0  0  0  0  0  0  0  0
  149.2197  139.1040  152.9555 H   0  0  0  0  0  0  0  0  0  0  0  0
  148.5878  137.0132  151.9783 H   0  0  0  0  0  0  0  0  0  0  0  0
  146.9829  137.6981  150.2722 H   0  0  0  0  0  0  0  0  0  0  0  0
  145.7748  138.1027  151.4793 H   0  0  0  0  0  0  0  0  0  0  0  0
  146.2769  136.4276  151.2625 H   0  0  0  0  0  0  0  0  0  0  0  0
  145.4930  137.9693  153.7257 H   0  0  0  0  0  0  0  0  0  0  0  0
  145.4137  137.8611  156.2113 H   0  0  0  0  0  0  0  0  0  0  0  0
  147.0629  137.2392  156.2450 H   0  0  0  0  0  0  0  0  0  0  0  0
  145.7749  136.2835  155.5167 H   0  0  0  0  0  0  0  0  0  0  0  0
  147.8540  139.3948  155.0696 H   0  0  0  0  0  0  0  0  0  0  0  0
  146.2161  140.0024  154.9348 H   0  0  0  0  0  0  0  0  0  0  0  0
  146.4562  139.9416  152.5537 H   0  0  0  0  0  0  0  0  0  0  0  0
  1  2  1  0  0  0  0
  1 22  1  0  0  0  0
  1 23  1  0  0  0  0
  1 24  1  0  0  0  0
  2  7  1  0  0  0  0
  2  3  2  0  0  0  0
  3  4  1  0  0  0  0
  3 25  1  0  0  0  0
  4  5  2  0  0  0  0
  4 26  1  0  0  0  0
  5  6  1  0  0  0  0
  5 27  1  0  0  0  0
  6  7  2  0  0  0  0
  7  8  1  0  0  0  0
  8  9  1  0  0  0  0
  8 28  1  0  0  0  0
  9 10  2  0  0  0  0
  9 11  1  0  0  0  0
 11 12  1  0  0  0  0
 11 29  1  0  0  0  0
 12 13  1  0  0  0  0
 12 30  1  0  0  0  0
 12 31  1  0  0  0  0
 13 14  1  0  0  0  0
 13 32  1  0  0  0  0
 13 33  1  0  0  0  0
 14 21  1  0  0  0  0
 14 15  1  0  0  0  0
 14 46  1  0  0  0  0
 15 16  1  0  0  0  0
 15 34  1  0  0  0  0
 15 35  1  0  0  0  0
 16 17  1  0  0  0  0
 16 18  1  0  0  0  0
 16 36  1  0  0  0  0
 17 37  1  0  0  0  0
 17 38  1  0  0  0  0
 17 39  1  0  0  0  0
 18 19  1  0  0  0  0
 19 20  1  0  0  0  0
 19 21  1  0  0  0  0
 19 40  1  0  0  0  0
 20 41  1  0  0  0  0
 20 42  1  0  0  0  0
 20 43  1  0  0  0  0
 21 44  1  0  0  0  0
 21 45  1  0  0  0  0
M  CHG  1  14   1
M  END
> <s_m_source_file>
AV-unprocessed.smi

> <i_m_source_file_index>
1774

> <i_lp_mmshare_version>
43012

> <i_f3d_flags>
0

> <s_epik_input>
W0NIM11jMVtjSF1bY0hdW2NIXW5jMVtOSF1DKD1PKVtOSF1bQ0gyXVtDSDJdTjJbQ0gyXVtDQEBIXShbQ0gzXSlPW0NAQEhdKFtDSDNdKVtDSDJdMg==

> <s_epik_cmdline>
J2VwaWtfcHl0aG9uJywgJy1waCcsICc3LjAnLCAnLXRuJywgJzgnLCAnLW1hJywgJzIwMCcsICctbWV0YWxfYmluZGluZycsICctaW1hZScsICc8aW5maWxlLm1hZT4nLCAnLW9tYWUnLCAnPG91dGZpbGUubWFlPic=

> <r_epik_Ionization_Penalty>
0.602573

> <r_epik_Ionization_Penalty_Charging>
0.602531

> <r_epik_Ionization_Penalty_Neutral>
4.21996e-05

> <r_epik_State_Penalty>
0.617039

> <r_epik_Charging_Adjusted_Penalty>
1.21957

> <i_epik_Tot_Q>
1

> <i_epik_Tot_abs_Q>
1

> <r_epik_Metal_State_Penalty>
0.617042

> <b_epik_Metal_Only>
0

> <s_lp_Force_Field>
OPLS_2005

> <r_lp_Energy>
18.8628

> <b_lp_Chiralities_Consistent>
1

> <s_lp_Variant>
AV-unprocessed.smi:1774-5

> <Gold.Version>
5.8.1

> <Gold.Id.Protein>
6NUR|6NUR_protein|mol2

> <Gold.PLP.Fitness>
44.7663

> <Gold.PLP.PLP>
-34.6832

> <Gold.PLP.part.hbond>
-2.9809

> <Gold.PLP.part.metal>
0.0000

> <Gold.PLP.part.buried>
-3.4180

> <Gold.PLP.part.nonpolar>
-28.6677

> <Gold.PLP.part.repulsive>
0.3333

> <Gold.PLP.ligand.clash>
0.0000

> <Gold.PLP.ligand.torsion>
0.9635

> <Gold.PLP.Chemscore.Hbond>
4.0000

> <Gold.PLP.Chemscore.CHOScore>
0.0000

> <Gold.PLP.Chemscore.Metal>
0.0000

> <Gold.Chemscore.Hbonds>
donor molecule, donor type, donor heavy atom, donor atom, acceptor molecule, acceptor atom, score
      L1  H     8    28       P1  8028  1.00
      L1  H    11    29       P1  8028  1.00
      P1  H  7989  7998       L1    10  0.78

> <Gold.PLP.Chemscore.Internal.Correction>
0.0102

> <Gold.Rescore>
     Score         DG    S(hbond)    S(metal)    S(lipo)     H(rot)  DE(clash)    DE(int)     intcor
     18.06     -22.54       2.91        0.00      95.47       1.49       2.49       1.98       ----

> <Gold.Chemscore.Fitness>
18.0583

> <Gold.Chemscore.DG>
-22.5371

> <Gold.Chemscore.ZeroCoef>
-5.4800

> <Gold.Chemscore.Hbond>
2.9082

> <Gold.Chemscore.Metal>
0.0000

> <Gold.Chemscore.Lipo>
95.4696

> <Gold.Chemscore.Internal_Hbond>
0.0000

> <Gold.Chemscore.DEClash>
2.4945

> <Gold.Chemscore.DEInternal>
1.9843

> <Gold.Chemscore.Rot>
1.4946

> <Gold.Chemscore.Internal.Correction>
   9.000000E+99

> <Gold.Chemscore.Hbonds>
donor molecule, donor type, donor heavy atom, donor atom, acceptor molecule, acceptor atom, score
      L1  H     8    28       P1  8028  0.97
      L1  H    11    29       P1  8028  0.99
      P1  H  7989  7998       L1    10  0.15

> <Gold.Chemscore.Hbond.Weighted>
-9.7132

> <Gold.Chemscore.Metal.Weighted>
-0.0000

> <Gold.Chemscore.Lipo.Weighted>
-11.1699

> <Gold.Chemscore.Internal_Hbond.Weighted>
0.0000

> <Gold.Chemscore.DEClash.Weighted>
2.4945

> <Gold.Chemscore.DEInternal.Weighted>
1.9843

> <Gold.Chemscore.Rot.Weighted>
3.8261

> <Gold.Chemscore.Internal.Correction.Weighted>
   9.000000E+99

> <Gold.Protein.RotatedTorsions>
[ 6907 6896 6895 6894 ] final   90.28 input  -60.11 | X-H torsion
[ 7974 7965 7964 7962 ] final   45.39 input  175.53 | X-H torsion
[ 8008 7997 7996 7995 ] final -137.20 input   59.86 | X-H torsion
[ 10167 10162 10161 10158 ] final -173.96 input  -65.29 | X-H torsion
[ 10718 10713 10712 10709 ] final   20.37 input   66.30 | X-H torsion
[ 10763 10752 10751 10750 ] final   64.81 input  -60.55 | X-H torsion
[ 11005 11000 10999 10996 ] final   59.24 input  -57.11 | X-H torsion

> <Gold.Protein.ActiveResidues>
 VAL166  LYS551  ARG553  GLY616  TRP617  ASP618  TYR619  PRO620  LYS621  CYS622 
 ASP623  PHE694  ASN695  SER759  ASP760  ASP761  ALA762  ILE779  LEU786  VAL792 
 PHE793  MET794  SER795  GLU796  ALA797  LYS798  CYS799  TRP800  GLU811  SER814 

> <Gold.Protein.RotatedAtoms>
  152.5443  134.1836  159.8645 H   0  0  0  0  0  0  0  0  0  0  0  0  # atno 6907 bound_to 6896
  151.1837  133.4702  159.2602 H   0  0  0  0  0  0  0  0  0  0  0  0  # atno 6908 bound_to 6896
  151.1152  135.0061  159.8568 H   0  0  0  0  0  0  0  0  0  0  0  0  # atno 6909 bound_to 6896
  146.0484  139.4970  142.9734 H   0  0  0  0  0  0  0  0  0  0  0  0  # atno 7974 bound_to 7965
  155.4079  140.0510  157.3033 H   0  0  0  0  0  0  0  0  0  0  0  0  # atno 8008 bound_to 7997
  154.4960  140.2138  155.9407 H   0  0  0  0  0  0  0  0  0  0  0  0  # atno 8009 bound_to 7997
  156.1405  140.3155  155.8494 H   0  0  0  0  0  0  0  0  0  0  0  0  # atno 8010 bound_to 7997
  139.5660  144.1755  152.1313 H   0  0  0  0  0  0  0  0  0  0  0  0  # atno 10167 bound_to 10162
  157.1235  130.6560  149.5930 H   0  0  0  0  0  0  0  0  0  0  0  0  # atno 10718 bound_to 10713
  153.0071  135.5379  154.6569 H   0  0  0  0  0  0  0  0  0  0  0  0  # atno 10763 bound_to 10752
  154.5787  135.2848  155.0756 H   0  0  0  0  0  0  0  0  0  0  0  0  # atno 10764 bound_to 10752
  154.1894  135.6503  153.5108 H   0  0  0  0  0  0  0  0  0  0  0  0  # atno 10765 bound_to 10752
  140.0319  134.6000  155.9496 H   0  0  0  0  0  0  0  0  0  0  0  0  # atno 11005 bound_to 11000
  145.6766  141.0202  143.1629 LP  0  0  0  0  0  0  0  0  0  0  0  0  # atno 17320 bound_to 7965
  144.7110  139.8372  143.7414 LP  0  0  0  0  0  0  0  0  0  0  0  0  # atno 17321 bound_to 7965
  140.1278  144.5316  150.6822 LP  0  0  0  0  0  0  0  0  0  0  0  0  # atno 17342 bound_to 10162
  140.6943  143.2394  151.5044 LP  0  0  0  0  0  0  0  0  0  0  0  0  # atno 17343 bound_to 10162
  155.9823  130.4836  150.6875 LP  0  0  0  0  0  0  0  0  0  0  0  0  # atno 17370 bound_to 10713
  157.4456  131.0866  151.0899 LP  0  0  0  0  0  0  0  0  0  0  0  0  # atno 17371 bound_to 10713
  141.1835  133.6551  156.5121 LP  0  0  0  0  0  0  0  0  0  0  0  0  # atno 17394 bound_to 11000
  140.4212  134.7185  157.4891 LP  0  0  0  0  0  0  0  0  0  0  0  0  # atno 17395 bound_to 11000

$$$$
