AV-unprocessed.smi:3116|AV-procd|sdf|11862|dock2
  -GOLD-   2272017243D 1   1.00000     0.00000
 Structure written by MMmdl.
 34 34  0  0  0  0  0  0  0  0  2 V2000
  146.4755  138.4049  151.1933 C   0  0  0  0  0  0  0  0  0  0  0  0
  146.7381  138.7318  152.6747 C   0  0  2  0  0  0  0  0  0  0  0  0
  148.1850  138.9198  152.9318 N   0  3  0  0  0  0  0  0  0  0  0  0
  148.5335  139.6122  154.1940 C   0  0  2  0  0  0  0  0  0  0  0  0
  147.9236  141.0259  154.1724 C   0  0  0  0  0  0  0  0  0  0  0  0
  150.0720  139.6132  154.3957 C   0  0  2  0  0  0  0  0  0  0  0  0
  150.6713  138.1935  154.3947 C   0  0  0  0  0  0  0  0  0  0  0  0
  150.4661  140.3200  155.6078 N   0  0  0  0  0  0  0  0  0  0  0  0
  150.2826  141.6519  155.9176 C   0  0  0  0  0  0  0  0  0  0  0  0
  150.8151  141.8601  157.1575 C   0  0  0  0  0  0  0  0  0  0  0  0
  151.3122  140.5807  157.5315 C   0  0  0  0  0  0  0  0  0  0  0  0
  151.1030  139.6618  156.6028 N   0  0  0  0  0  0  0  0  0  0  0  0
  146.1742  137.6211  153.5689 C   0  0  0  0  0  0  0  0  0  0  0  0
  146.7017  136.4021  153.4288 N   0  0  0  0  0  0  0  0  0  0  0  0
  145.2834  137.8567  154.3835 O   0  0  0  0  0  0  0  0  0  0  0  0
  145.4121  138.2530  151.0030 H   0  0  0  0  0  0  0  0  0  0  0  0
  146.9996  137.4989  150.8862 H   0  0  0  0  0  0  0  0  0  0  0  0
  146.8042  139.2132  150.5399 H   0  0  0  0  0  0  0  0  0  0  0  0
  146.2230  139.6572  152.9387 H   0  0  0  0  0  0  0  0  0  0  0  0
  148.6079  138.0033  152.9640 H   0  0  0  0  0  0  0  0  0  0  0  0
  148.0834  139.0805  155.0340 H   0  0  0  0  0  0  0  0  0  0  0  0
  148.0660  141.5442  155.1207 H   0  0  0  0  0  0  0  0  0  0  0  0
  146.8490  140.9856  153.9910 H   0  0  0  0  0  0  0  0  0  0  0  0
  148.3697  141.6380  153.3877 H   0  0  0  0  0  0  0  0  0  0  0  0
  150.5181  140.1577  153.5615 H   0  0  0  0  0  0  0  0  0  0  0  0
  150.5097  137.6906  153.4411 H   0  0  0  0  0  0  0  0  0  0  0  0
  150.2303  137.5722  155.1750 H   0  0  0  0  0  0  0  0  0  0  0  0
  151.7481  138.2235  154.5647 H   0  0  0  0  0  0  0  0  0  0  0  0
  149.7926  142.3339  155.2385 H   0  0  0  0  0  0  0  0  0  0  0  0
  150.8464  142.7860  157.7124 H   0  0  0  0  0  0  0  0  0  0  0  0
  151.8153  140.2947  158.4433 H   0  0  0  0  0  0  0  0  0  0  0  0
  146.3616  135.6329  153.9878 H   0  0  0  0  0  0  0  0  0  0  0  0
  147.4387  136.2507  152.7547 H   0  0  0  0  0  0  0  0  0  0  0  0
  148.5869  139.4230  152.1539 H   0  0  0  0  0  0  0  0  0  0  0  0
  1  2  1  0  0  0  0
  1 16  1  0  0  0  0
  1 17  1  0  0  0  0
  1 18  1  0  0  0  0
  2  3  1  0  0  0  0
  2 13  1  0  0  0  0
  2 19  1  0  0  0  0
  3  4  1  0  0  0  0
  3 20  1  0  0  0  0
  3 34  1  0  0  0  0
  4  5  1  0  0  0  0
  4  6  1  0  0  0  0
  4 21  1  0  0  0  0
  5 22  1  0  0  0  0
  5 23  1  0  0  0  0
  5 24  1  0  0  0  0
  6  7  1  0  0  0  0
  6  8  1  0  0  0  0
  6 25  1  0  0  0  0
  7 26  1  0  0  0  0
  7 27  1  0  0  0  0
  7 28  1  0  0  0  0
  8 12  1  0  0  0  0
  8  9  1  0  0  0  0
  9 10  2  0  0  0  0
  9 29  1  0  0  0  0
 10 11  1  0  0  0  0
 10 30  1  0  0  0  0
 11 12  2  0  0  0  0
 11 31  1  0  0  0  0
 13 14  1  0  0  0  0
 13 15  2  0  0  0  0
 14 32  1  0  0  0  0
 14 33  1  0  0  0  0
M  CHG  1   3   1
M  END
> <s_m_source_file>
AV-unprocessed.smi

> <i_m_source_file_index>
3116

> <i_lp_mmshare_version>
43012

> <i_f3d_flags>
0

> <s_epik_input>
W05IMl1DKD1PKVtDQEhdKFtDSDNdKVtOSF1bQ0BIXShbQ0gzXSlbQ0BIXShbQ0gzXSluMVtjSF1bY0hdW2NIXW4x

> <s_epik_cmdline>
J2VwaWtfcHl0aG9uJywgJy1waCcsICc3LjAnLCAnLXRuJywgJzgnLCAnLW1hJywgJzIwMCcsICctbWV0YWxfYmluZGluZycsICctaW1hZScsICc8aW5maWxlLm1hZT4nLCAnLW9tYWUnLCAnPG91dGZpbGUubWFlPic=

> <r_lp_tautomer_probability>
1

> <r_epik_Ionization_Penalty>
0.15658

> <r_epik_Ionization_Penalty_Charging>
0.156568

> <r_epik_Ionization_Penalty_Neutral>
1.19778e-05

> <r_epik_State_Penalty>
0.145866

> <r_epik_Charging_Adjusted_Penalty>
0.302434

> <i_epik_Tot_Q>
1

> <i_epik_Tot_abs_Q>
1

> <r_epik_Metal_State_Penalty>
0.146064

> <b_epik_Metal_Only>
0

> <s_lp_Force_Field>
OPLS_2005

> <r_lp_Energy>
9.5332

> <b_lp_Chiralities_Consistent>
1

> <s_lp_Variant>
AV-unprocessed.smi:3116-1

> <Gold.Version>
5.8.1

> <Gold.Id.Protein>
6NUR|6NUR_protein|mol2

> <Gold.PLP.Fitness>
41.9603

> <Gold.PLP.PLP>
-28.9453

> <Gold.PLP.part.hbond>
-2.9099

> <Gold.PLP.part.metal>
0.0000

> <Gold.PLP.part.buried>
0.1896

> <Gold.PLP.part.nonpolar>
-26.9017

> <Gold.PLP.part.repulsive>
0.1607

> <Gold.PLP.ligand.clash>
0.0000

> <Gold.PLP.ligand.torsion>
0.2214

> <Gold.PLP.Chemscore.Hbond>
3.4785

> <Gold.PLP.Chemscore.CHOScore>
0.9713

> <Gold.PLP.Chemscore.Metal>
0.0000

> <Gold.Chemscore.Hbonds>
donor molecule, donor type, donor heavy atom, donor atom, acceptor molecule, acceptor atom, score
      L1  H     3    20       P1  7948  1.49
      L1  H     3    34       P1  7957  1.00
      L1  H    14    33       P1  7948  1.00
      L1  C     9    29       P1  8028  0.87

> <Gold.PLP.Chemscore.Internal.Correction>
0.1085

> <Gold.Rescore>
     Score         DG    S(hbond)    S(metal)    S(lipo)     H(rot)  DE(clash)    DE(int)     intcor
     15.07     -16.32       2.82        0.00      65.79       2.45       0.06       1.19       ----

> <Gold.Chemscore.Fitness>
15.0691

> <Gold.Chemscore.DG>
-16.3213

> <Gold.Chemscore.ZeroCoef>
-5.4800

> <Gold.Chemscore.Hbond>
2.8165

> <Gold.Chemscore.Metal>
0.0000

> <Gold.Chemscore.Lipo>
65.7888

> <Gold.Chemscore.Internal_Hbond>
0.0000

> <Gold.Chemscore.DEClash>
0.0580

> <Gold.Chemscore.DEInternal>
1.1942

> <Gold.Chemscore.Rot>
2.4465

> <Gold.Chemscore.Internal.Correction>
   9.000000E+99

> <Gold.Chemscore.Hbonds>
donor molecule, donor type, donor heavy atom, donor atom, acceptor molecule, acceptor atom, score
      L1  H     3    20       P1  7948  0.71
      L1  H     3    34       P1  7957  0.93
      L1  H    14    33       P1  7948  1.00

> <Gold.Chemscore.Hbond.Weighted>
-9.4071

> <Gold.Chemscore.Metal.Weighted>
-0.0000

> <Gold.Chemscore.Lipo.Weighted>
-7.6973

> <Gold.Chemscore.Internal_Hbond.Weighted>
0.0000

> <Gold.Chemscore.DEClash.Weighted>
0.0580

> <Gold.Chemscore.DEInternal.Weighted>
1.1942

> <Gold.Chemscore.Rot.Weighted>
6.2631

> <Gold.Chemscore.Internal.Correction.Weighted>
   9.000000E+99

> <Gold.Protein.RotatedTorsions>
[ 6907 6896 6895 6894 ] final  124.13 input  -60.11 | X-H torsion
[ 7974 7965 7964 7962 ] final   -8.19 input  175.53 | X-H torsion
[ 8008 7997 7996 7995 ] final  130.73 input   59.86 | X-H torsion
[ 10167 10162 10161 10158 ] final  179.87 input  -65.29 | X-H torsion
[ 10718 10713 10712 10709 ] final -147.01 input   66.30 | X-H torsion
[ 10763 10752 10751 10750 ] final  -44.29 input  -60.55 | X-H torsion
[ 11005 11000 10999 10996 ] final -104.91 input  -57.11 | X-H torsion

> <Gold.Protein.ActiveResidues>
 VAL166  LYS551  ARG553  GLY616  TRP617  ASP618  TYR619  PRO620  LYS621  CYS622 
 ASP623  PHE694  ASN695  SER759  ASP760  ASP761  ALA762  ILE779  LEU786  VAL792 
 PHE793  MET794  SER795  GLU796  ALA797  LYS798  CYS799  TRP800  GLU811  SER814 

> <Gold.Protein.RotatedAtoms>
  152.4104  133.6954  159.6392 H   0  0  0  0  0  0  0  0  0  0  0  0  # atno 6907 bound_to 6896
  150.7985  133.8634  159.3247 H   0  0  0  0  0  0  0  0  0  0  0  0  # atno 6908 bound_to 6896
  151.6378  135.1018  160.0186 H   0  0  0  0  0  0  0  0  0  0  0  0  # atno 6909 bound_to 6896
  146.2287  140.2432  142.8344 H   0  0  0  0  0  0  0  0  0  0  0  0  # atno 7974 bound_to 7965
  156.2959  140.2589  156.2810 H   0  0  0  0  0  0  0  0  0  0  0  0  # atno 8008 bound_to 7997
  154.9602  140.0392  157.2205 H   0  0  0  0  0  0  0  0  0  0  0  0  # atno 8009 bound_to 7997
  154.7953  140.2819  155.5965 H   0  0  0  0  0  0  0  0  0  0  0  0  # atno 8010 bound_to 7997
  139.5355  144.2509  152.0785 H   0  0  0  0  0  0  0  0  0  0  0  0  # atno 10167 bound_to 10162
  156.4021  130.7939  151.2150 H   0  0  0  0  0  0  0  0  0  0  0  0  # atno 10718 bound_to 10713
  154.0096  135.6683  153.4764 H   0  0  0  0  0  0  0  0  0  0  0  0  # atno 10763 bound_to 10752
  153.0627  135.5019  154.8126 H   0  0  0  0  0  0  0  0  0  0  0  0  # atno 10764 bound_to 10752
  154.7004  135.3077  154.9313 H   0  0  0  0  0  0  0  0  0  0  0  0  # atno 10765 bound_to 10752
  141.1078  133.8763  157.1669 H   0  0  0  0  0  0  0  0  0  0  0  0  # atno 11005 bound_to 11000
  144.9469  140.8137  143.5596 LP  0  0  0  0  0  0  0  0  0  0  0  0  # atno 17320 bound_to 7965
  145.2388  139.2081  143.5003 LP  0  0  0  0  0  0  0  0  0  0  0  0  # atno 17321 bound_to 7965
  140.1979  144.4687  150.6446 LP  0  0  0  0  0  0  0  0  0  0  0  0  # atno 17342 bound_to 10162
  140.6559  143.2237  151.5969 LP  0  0  0  0  0  0  0  0  0  0  0  0  # atno 17343 bound_to 10162
  157.7504  131.0283  150.4045 LP  0  0  0  0  0  0  0  0  0  0  0  0  # atno 17370 bound_to 10713
  156.4326  130.3975  149.6750 LP  0  0  0  0  0  0  0  0  0  0  0  0  # atno 17371 bound_to 10713
  139.9957  135.0048  157.0076 LP  0  0  0  0  0  0  0  0  0  0  0  0  # atno 17394 bound_to 11000
  140.4855  134.1246  155.7224 LP  0  0  0  0  0  0  0  0  0  0  0  0  # atno 17395 bound_to 11000

$$$$
