AV-unprocessed.smi:921|AV-procd|sdf|4170|dock4
  -GOLD-   22720 2 73D 1   1.00000     0.00000
 Structure written by MMmdl.
 39 41  0  0  0  0  0  0  0  0  1 V2000
  151.1276  137.5564  157.4843 N   0  0  0  0  0  0  0  0  0  0  0  0
  151.7216  137.2276  156.3339 C   0  0  0  0  0  0  0  0  0  0  0  0
  151.9851  136.0623  156.0436 O   0  0  0  0  0  0  0  0  0  0  0  0
  152.0657  138.3714  155.3715 C   0  0  0  0  0  0  0  0  0  0  0  0
  150.7968  139.0592  154.9298 C   0  0  0  0  0  0  0  0  0  0  0  0
  149.9206  138.4654  154.1127 N   0  0  0  0  0  0  0  0  0  0  0  0
  148.9302  139.4156  153.9732 C   0  0  0  0  0  0  0  0  0  0  0  0
  147.7199  139.3812  153.2442 C   0  0  0  0  0  0  0  0  0  0  0  0
  146.8517  140.4924  153.2500 C   0  0  0  0  0  0  0  0  0  0  0  0
  147.1814  141.6516  153.9816 C   0  0  0  0  0  0  0  0  0  0  0  0
  148.3836  141.7065  154.7127 C   0  0  0  0  0  0  0  0  0  0  0  0
  149.2459  140.5933  154.7051 C   0  0  0  0  0  0  0  0  0  0  0  0
  150.4754  140.3287  155.3007 N   0  0  0  0  0  0  0  0  0  0  0  0
  151.2179  141.2655  156.1351 C   0  0  0  0  0  0  0  0  0  0  0  0
  150.3574  141.8744  157.2606 C   0  0  1  0  0  0  0  0  0  0  0  0
  149.4400  140.9202  157.7546 O   0  0  0  0  0  0  0  0  0  0  0  0
  151.2194  142.4706  158.3645 C   0  0  0  0  0  0  0  0  0  0  0  0
  151.1472  143.8551  158.6315 C   0  0  0  0  0  0  0  0  0  0  0  0
  151.9392  144.4276  159.6451 C   0  0  0  0  0  0  0  0  0  0  0  0
  151.8627  145.7564  159.8938 F   0  0  0  0  0  0  0  0  0  0  0  0
  152.8108  143.6196  160.3990 C   0  0  0  0  0  0  0  0  0  0  0  0
  152.8916  142.2389  160.1361 C   0  0  0  0  0  0  0  0  0  0  0  0
  152.1012  141.6637  159.1218 C   0  0  0  0  0  0  0  0  0  0  0  0
  152.1994  140.3345  158.8794 F   0  0  0  0  0  0  0  0  0  0  0  0
  150.8918  136.8346  158.1497 H   0  0  0  0  0  0  0  0  0  0  0  0
  150.9240  138.5241  157.6887 H   0  0  0  0  0  0  0  0  0  0  0  0
  152.7418  139.0514  155.8858 H   0  0  0  0  0  0  0  0  0  0  0  0
  152.5922  137.9961  154.4931 H   0  0  0  0  0  0  0  0  0  0  0  0
  147.4591  138.4977  152.6806 H   0  0  0  0  0  0  0  0  0  0  0  0
  145.9285  140.4551  152.6904 H   0  0  0  0  0  0  0  0  0  0  0  0
  146.5114  142.4988  153.9810 H   0  0  0  0  0  0  0  0  0  0  0  0
  148.6388  142.5933  155.2736 H   0  0  0  0  0  0  0  0  0  0  0  0
  152.1146  140.7872  156.5260 H   0  0  0  0  0  0  0  0  0  0  0  0
  151.5806  142.0658  155.4889 H   0  0  0  0  0  0  0  0  0  0  0  0
  149.7552  142.6763  156.8315 H   0  0  0  0  0  0  0  0  0  0  0  0
  149.7534  140.6026  158.5875 H   0  0  0  0  0  0  0  0  0  0  0  0
  150.4835  144.4860  158.0584 H   0  0  0  0  0  0  0  0  0  0  0  0
  153.4182  144.0586  161.1768 H   0  0  0  0  0  0  0  0  0  0  0  0
  153.5624  141.6192  160.7124 H   0  0  0  0  0  0  0  0  0  0  0  0
  1  2  1  0  0  0  0
  1 25  1  0  0  0  0
  1 26  1  0  0  0  0
  2  3  2  0  0  0  0
  2  4  1  0  0  0  0
  4  5  1  0  0  0  0
  4 27  1  0  0  0  0
  4 28  1  0  0  0  0
  5 13  1  0  0  0  0
  5  6  2  0  0  0  0
  6  7  1  0  0  0  0
  7 12  2  0  0  0  0
  7  8  1  0  0  0  0
  8  9  2  0  0  0  0
  8 29  1  0  0  0  0
  9 10  1  0  0  0  0
  9 30  1  0  0  0  0
 10 11  2  0  0  0  0
 10 31  1  0  0  0  0
 11 12  1  0  0  0  0
 11 32  1  0  0  0  0
 12 13  1  0  0  0  0
 13 14  1  0  0  0  0
 14 15  1  0  0  0  0
 14 33  1  0  0  0  0
 14 34  1  0  0  0  0
 15 16  1  0  0  0  0
 15 17  1  0  0  0  0
 15 35  1  0  0  0  0
 16 36  1  0  0  0  0
 17 23  1  0  0  0  0
 17 18  2  0  0  0  0
 18 19  1  0  0  0  0
 18 37  1  0  0  0  0
 19 20  1  0  0  0  0
 19 21  2  0  0  0  0
 21 22  1  0  0  0  0
 21 38  1  0  0  0  0
 22 23  2  0  0  0  0
 22 39  1  0  0  0  0
 23 24  1  0  0  0  0
M  END
> <s_m_source_file>
AV-unprocessed.smi

> <i_m_source_file_index>
921

> <i_lp_mmshare_version>
43012

> <i_f3d_flags>
0

> <s_epik_input>
W2NIXTFbY0hdW2NIXVtjSF1jKGMxMiluKGMobjIpW0NIMl1DKD1PKVtOSDJdKVtDSDJdW0NASF0oW09IXSljM1tjSF1jKEYpW2NIXVtjSF1jM0Y=

> <s_epik_cmdline>
J2VwaWtfcHl0aG9uJywgJy1waCcsICc3LjAnLCAnLXRuJywgJzgnLCAnLW1hJywgJzIwMCcsICctbWV0YWxfYmluZGluZycsICctaW1hZScsICc8aW5maWxlLm1hZT4nLCAnLW9tYWUnLCAnPG91dGZpbGUubWFlPic=

> <r_epik_Ionization_Penalty>
0.0366909

> <r_epik_Ionization_Penalty_Charging>
0

> <r_epik_Ionization_Penalty_Neutral>
0.0366909

> <r_epik_State_Penalty>
0.0306642

> <r_epik_Charging_Adjusted_Penalty>
0.0306642

> <i_epik_Tot_Q>
0

> <i_epik_Tot_abs_Q>
0

> <r_epik_Metal_State_Penalty>
0.028853

> <b_epik_Metal_Only>
0

> <s_lp_Force_Field>
OPLS_2005

> <r_lp_Energy>
12.6205

> <b_lp_Chiralities_Consistent>
1

> <s_lp_Variant>
AV-unprocessed.smi:921-2

> <Gold.Version>
5.8.1

> <Gold.Id.Protein>
6NUR|6NUR_protein|mol2

> <Gold.PLP.Fitness>
53.6518

> <Gold.PLP.PLP>
-51.3538

> <Gold.PLP.part.hbond>
-1.0000

> <Gold.PLP.part.metal>
0.0000

> <Gold.PLP.part.buried>
-1.9437

> <Gold.PLP.part.nonpolar>
-49.1097

> <Gold.PLP.part.repulsive>
0.3174

> <Gold.PLP.ligand.clash>
0.0000

> <Gold.PLP.ligand.torsion>
0.3987

> <Gold.PLP.Chemscore.Hbond>
1.0000

> <Gold.PLP.Chemscore.CHOScore>
0.0000

> <Gold.PLP.Chemscore.Metal>
0.0000

> <Gold.Chemscore.Hbonds>
donor molecule, donor type, donor heavy atom, donor atom, acceptor molecule, acceptor atom, score
      P1  H 10752 10765       L1     3  1.00

> <Gold.PLP.Chemscore.Internal.Correction>
0.0954

> <Gold.Rescore>
     Score         DG    S(hbond)    S(metal)    S(lipo)     H(rot)  DE(clash)    DE(int)     intcor
     13.38     -15.67       0.99        0.00     126.78       3.11       0.78       1.51       ----

> <Gold.Chemscore.Fitness>
13.3753

> <Gold.Chemscore.DG>
-15.6656

> <Gold.Chemscore.ZeroCoef>
-5.4800

> <Gold.Chemscore.Hbond>
0.9940

> <Gold.Chemscore.Metal>
0.0000

> <Gold.Chemscore.Lipo>
126.7754

> <Gold.Chemscore.Internal_Hbond>
0.0000

> <Gold.Chemscore.DEClash>
0.7849

> <Gold.Chemscore.DEInternal>
1.5055

> <Gold.Chemscore.Rot>
3.1121

> <Gold.Chemscore.Internal.Correction>
   9.000000E+99

> <Gold.Chemscore.Hbonds>
donor molecule, donor type, donor heavy atom, donor atom, acceptor molecule, acceptor atom, score
      P1  H 10752 10765       L1     3  1.00

> <Gold.Chemscore.Hbond.Weighted>
-3.3199

> <Gold.Chemscore.Metal.Weighted>
-0.0000

> <Gold.Chemscore.Lipo.Weighted>
-14.8327

> <Gold.Chemscore.Internal_Hbond.Weighted>
0.0000

> <Gold.Chemscore.DEClash.Weighted>
0.7849

> <Gold.Chemscore.DEInternal.Weighted>
1.5055

> <Gold.Chemscore.Rot.Weighted>
7.9670

> <Gold.Chemscore.Internal.Correction.Weighted>
   9.000000E+99

> <Gold.Protein.RotatedTorsions>
[ 6907 6896 6895 6894 ] final    0.61 input  -60.11 | X-H torsion
[ 7974 7965 7964 7962 ] final  -23.33 input  175.53 | X-H torsion
[ 8008 7997 7996 7995 ] final  172.58 input   59.86 | X-H torsion
[ 10167 10162 10161 10158 ] final   32.26 input  -65.29 | X-H torsion
[ 10718 10713 10712 10709 ] final    9.70 input   66.30 | X-H torsion
[ 10763 10752 10751 10750 ] final -162.07 input  -60.55 | X-H torsion
[ 11005 11000 10999 10996 ] final  169.96 input  -57.11 | X-H torsion

> <Gold.Protein.ActiveResidues>
 VAL166  LYS551  ARG553  GLY616  TRP617  ASP618  TYR619  PRO620  LYS621  CYS622 
 ASP623  PHE694  ASN695  SER759  ASP760  ASP761  ALA762  ILE779  LEU786  VAL792 
 PHE793  MET794  SER795  GLU796  ALA797  LYS798  CYS799  TRP800  GLU811  SER814 

> <Gold.Protein.RotatedAtoms>
  151.5792  135.1059  160.0012 H   0  0  0  0  0  0  0  0  0  0  0  0  # atno 6907 bound_to 6896
  152.4362  133.7362  159.6626 H   0  0  0  0  0  0  0  0  0  0  0  0  # atno 6908 bound_to 6896
  150.8261  133.8100  159.3141 H   0  0  0  0  0  0  0  0  0  0  0  0  # atno 6909 bound_to 6896
  146.1622  140.4601  142.8566 H   0  0  0  0  0  0  0  0  0  0  0  0  # atno 7974 bound_to 7965
  156.1160  140.1482  156.9271 H   0  0  0  0  0  0  0  0  0  0  0  0  # atno 8008 bound_to 7997
  154.4801  140.0882  156.7399 H   0  0  0  0  0  0  0  0  0  0  0  0  # atno 8009 bound_to 7997
  155.4512  140.3435  155.4303 H   0  0  0  0  0  0  0  0  0  0  0  0  # atno 8010 bound_to 7997
  140.4514  144.1042  150.6192 H   0  0  0  0  0  0  0  0  0  0  0  0  # atno 10167 bound_to 10162
  156.9702  130.5966  149.5668 H   0  0  0  0  0  0  0  0  0  0  0  0  # atno 10718 bound_to 10713
  154.7247  135.3033  154.8990 H   0  0  0  0  0  0  0  0  0  0  0  0  # atno 10763 bound_to 10752
  153.9851  135.6725  153.4755 H   0  0  0  0  0  0  0  0  0  0  0  0  # atno 10764 bound_to 10752
  153.0865  135.4981  154.8525 H   0  0  0  0  0  0  0  0  0  0  0  0  # atno 10765 bound_to 10752
  140.3033  134.7577  157.3933 H   0  0  0  0  0  0  0  0  0  0  0  0  # atno 11005 bound_to 11000
  144.8043  140.6271  143.6457 LP  0  0  0  0  0  0  0  0  0  0  0  0  # atno 17320 bound_to 7965
  145.4558  139.1518  143.3893 LP  0  0  0  0  0  0  0  0  0  0  0  0  # atno 17321 bound_to 7965
  140.4202  143.2615  151.9724 LP  0  0  0  0  0  0  0  0  0  0  0  0  # atno 17342 bound_to 10162
  139.4797  144.5837  151.7889 LP  0  0  0  0  0  0  0  0  0  0  0  0  # atno 17343 bound_to 10162
  156.0286  130.5378  150.8473 LP  0  0  0  0  0  0  0  0  0  0  0  0  # atno 17370 bound_to 10713
  157.5597  131.0945  150.9576 LP  0  0  0  0  0  0  0  0  0  0  0  0  # atno 17371 bound_to 10713
  140.1090  134.5371  155.8283 LP  0  0  0  0  0  0  0  0  0  0  0  0  # atno 17394 bound_to 11000
  141.2123  133.6718  156.6653 LP  0  0  0  0  0  0  0  0  0  0  0  0  # atno 17395 bound_to 11000

$$$$
