#       Name:                AV-unprocessed.smi:1692
#       Creating user name   scv26
#       Creation time:       Fri Mar 27 07:54:23 2020


#       File generated by GOLD software.
#

@<TRIPOS>MOLECULE
AV-unprocessed.smi:1692
    51    52     1
SMALL
NO_CHARGES


@<TRIPOS>ATOM
      1 ****        -5.9339   2.3615  -0.3472 C.3            1 S1                 0.0000
      2 ****        -4.4377   2.2968  -0.0223 C.3            1 S1                 0.0000
      3 ****        -3.8910   0.8598  -0.0928 C.3            1 S1                 0.0000
      4 ****        -2.4873   0.7887   0.2927 N.3            1 S1                 0.0000
      5 ****        -1.9851  -0.5797   0.1774 C.3            1 S1                 0.0000
      6 ****        -0.4629  -0.7345   0.3367 C.3            1 S1                 0.0000
      7 ****         0.0006  -2.1736   0.0599 C.3            1 S1                 0.0000
      8 ****         1.4395  -2.3218   0.2464 N.am           1 S1                 0.0000
      9 ****         2.3705  -2.0151  -0.6687 C.2            1 S1                 0.0000
     10 ****         2.1038  -1.5602  -1.7815 O.2            1 S1                 0.0000
     11 ****         3.6078  -2.2693  -0.2073 N.am           1 S1                 0.0000
     12 ****         4.8484  -2.0965  -0.8775 C.ar           1 S1                 0.0000
     13 ****         5.9894  -2.4595  -0.1265 C.ar           1 S1                 0.0000
     14 ****         7.2683  -2.3279  -0.7016 C.ar           1 S1                 0.0000
     15 ****         7.3735  -1.8362  -2.0148 C.ar           1 S1                 0.0000
     16 ****         6.1881  -1.4976  -2.6931 C.ar           1 S1                 0.0000
     17 ****         4.9614  -1.6228  -2.1438 N.ar           1 S1                 0.0000
     18 ****        -2.3378   1.3298   1.6420 C.3            1 S1                 0.0000
     19 ****        -2.9051   2.7574   1.7802 C.3            1 S1                 0.0000
     20 ****        -2.0205   3.8308   1.1238 C.3            1 S1                 0.0000
     21 ****        -4.2477   2.8093   1.2952 O.3            1 S1                 0.0000
     22 ****        -6.1341   1.9860  -1.3509 H              1 S1                 0.0000
     23 ****        -6.2992   3.3875  -0.2977 H              1 S1                 0.0000
     24 ****        -6.5169   1.7661   0.3560 H              1 S1                 0.0000
     25 ****        -3.9049   2.9250  -0.7368 H              1 S1                 0.0000
     26 ****        -4.4842   0.2117   0.5545 H              1 S1                 0.0000
     27 ****        -4.0132   0.4806  -1.1080 H              1 S1                 0.0000
     28 ****        -2.4946  -1.2219   0.8975 H              1 S1                 0.0000
     29 ****        -2.2517  -0.9654  -0.8076 H              1 S1                 0.0000
     30 ****         0.0421  -0.0488  -0.3451 H              1 S1                 0.0000
     31 ****        -0.1572  -0.4540   1.3445 H              1 S1                 0.0000
     32 ****        -0.4996  -2.8610   0.7424 H              1 S1                 0.0000
     33 ****        -0.2812  -2.4798  -0.9490 H              1 S1                 0.0000
     34 ****         1.7468  -2.6899   1.1346 H              1 S1                 0.0000
     35 ****         3.6694  -2.6367   0.7306 H              1 S1                 0.0000
     36 ****         5.8907  -2.8362   0.8814 H              1 S1                 0.0000
     37 ****         8.1524  -2.6000  -0.1441 H              1 S1                 0.0000
     38 ****         8.3364  -1.7212  -2.4901 H              1 S1                 0.0000
     39 ****         6.2248  -1.1161  -3.7027 H              1 S1                 0.0000
     40 ****        -2.8510   0.6780   2.3506 H              1 S1                 0.0000
     41 ****        -1.2890   1.3391   1.9366 H              1 S1                 0.0000
     42 ****        -2.9552   2.9950   2.8431 H              1 S1                 0.0000
     43 ****        -1.0336   3.8549   1.5859 H              1 S1                 0.0000
     44 ****        -2.4626   4.8209   1.2370 H              1 S1                 0.0000
     45 ****        -1.8763   3.6485   0.0592 H              1 S1                 0.0000
     46 ****        -1.9330   1.3424  -0.3286 LP             1 S1                 0.0000
     47 ****         1.1513  -1.4017  -2.0417 LP             1 S1                 0.0000
     48 ****         2.8397  -1.3493  -2.4249 LP             1 S1                 0.0000
     49 ****         4.1458  -1.3695  -2.6639 LP             1 S1                 0.0000
     50 ****        -4.8227   2.2798   1.9190 LP             1 S1                 0.0000
     51 ****        -4.5419   3.7650   1.3008 LP             1 S1                 0.0000
@<TRIPOS>BOND
    1    1    2 1     
    2    1   22 1     
    3    1   23 1     
    4    1   24 1     
    5    2   21 1     
    6    2    3 1     
    7    2   25 1     
    8    3    4 1     
    9    3   26 1     
   10    3   27 1     
   11    4    5 1     
   12    4   18 1     
   13    5    6 1     
   14    5   28 1     
   15    5   29 1     
   16    6    7 1     
   17    6   30 1     
   18    6   31 1     
   19    7    8 1     
   20    7   32 1     
   21    7   33 1     
   22    8    9 am    
   23    8   34 1     
   24    9   10 2     
   25    9   11 am    
   26   11   12 1     
   27   11   35 1     
   28   12   17 ar    
   29   12   13 ar    
   30   13   14 ar    
   31   13   36 1     
   32   14   15 ar    
   33   14   37 1     
   34   15   16 ar    
   35   15   38 1     
   36   16   17 ar    
   37   16   39 1     
   38   18   19 1     
   39   18   40 1     
   40   18   41 1     
   41   19   20 1     
   42   19   21 1     
   43   19   42 1     
   44   20   43 1     
   45   20   44 1     
   46   20   45 1     
   47    4   46 1     
   48   10   47 1     
   49   10   48 1     
   50   17   49 1     
   51   21   50 1     
   52   21   51 1     
@<TRIPOS>SUBSTRUCTURE
      1 S1             1
@<TRIPOS>SET
LONE_PAIRS      STATIC     ATOMS    <user>   **** ""
6 46 47 48 49 50 51
DONOR_HYDROGENS      STATIC     ATOMS    <user>   **** ""
2 34 35
ATOM$BLUE        STATIC     ATOMS    COLORGROUP SYSTEM
6 46 47 48 49 50 51
ATOM$RED        STATIC     ATOMS    COLORGROUP SYSTEM
2 34 35
