AV-unprocessed.smi:1555|AV-procd|sdf|6264|dock6
  -GOLD-   22720 6453D 1   1.00000     0.00000
 Structure written by MMmdl.
 42 43  0  0  0  0  0  0  0  0  2 V2000
  150.0937  140.2064  156.2218 C   0  0  0  0  0  0  0  0  0  0  0  0
  150.1339  139.1810  155.0771 C   0  0  2  0  0  0  0  0  0  0  0  0
  149.2847  139.6022  153.8579 C   0  0  0  0  0  0  0  0  0  0  0  0
  147.9474  140.0724  154.2303 N   0  0  0  0  0  0  0  0  0  0  0  0
  147.6295  141.2473  154.8622 C   0  0  0  0  0  0  0  0  0  0  0  0
  146.2650  141.2616  154.9964 C   0  0  0  0  0  0  0  0  0  0  0  0
  145.8081  140.0979  154.4376 N   0  3  0  0  0  0  0  0  0  0  0  0
  146.8324  139.3776  153.9692 C   0  0  0  0  0  0  0  0  0  0  0  0
  149.6872  137.8851  155.5792 N   0  0  0  0  0  0  0  0  0  0  0  0
  150.4511  136.7845  155.6921 C   0  0  0  0  0  0  0  0  0  0  0  0
  151.6414  136.7819  155.3740 O   0  0  0  0  0  0  0  0  0  0  0  0
  149.8105  135.6957  156.1882 N   0  0  0  0  0  0  0  0  0  0  0  0
  148.3614  135.5626  156.4149 C   0  0  0  0  0  0  0  0  0  0  0  0
  147.7744  134.6348  155.3359 C   0  0  0  0  0  0  0  0  0  0  0  0
  148.4728  133.2546  155.3421 C   0  0  0  0  0  0  0  0  0  0  0  0
  147.9820  132.3453  154.2009 C   0  0  0  0  0  0  0  0  0  0  0  0
  148.5448  131.0546  154.3114 O   0  0  0  0  0  0  0  0  0  0  0  0
  150.0077  133.4246  155.2993 C   0  0  0  0  0  0  0  0  0  0  0  0
  150.4944  134.4106  156.3773 C   0  0  0  0  0  0  0  0  0  0  0  0
  150.5063  141.1672  155.9135 H   0  0  0  0  0  0  0  0  0  0  0  0
  150.6791  139.8638  157.0758 H   0  0  0  0  0  0  0  0  0  0  0  0
  149.0729  140.3764  156.5657 H   0  0  0  0  0  0  0  0  0  0  0  0
  151.1751  139.0854  154.7627 H   0  0  0  0  0  0  0  0  0  0  0  0
  149.7676  140.4122  153.3095 H   0  0  0  0  0  0  0  0  0  0  0  0
  149.1770  138.7703  153.1597 H   0  0  0  0  0  0  0  0  0  0  0  0
  148.3791  141.9655  155.1623 H   0  0  0  0  0  0  0  0  0  0  0  0
  145.6026  141.9938  155.4349 H   0  0  0  0  0  0  0  0  0  0  0  0
  146.7702  138.4219  153.4799 H   0  0  0  0  0  0  0  0  0  0  0  0
  148.7211  137.8155  155.8645 H   0  0  0  0  0  0  0  0  0  0  0  0
  148.1928  135.1337  157.4038 H   0  0  0  0  0  0  0  0  0  0  0  0
  147.8235  136.5104  156.4193 H   0  0  0  0  0  0  0  0  0  0  0  0
  146.7031  134.5158  155.5012 H   0  0  0  0  0  0  0  0  0  0  0  0
  147.8856  135.1027  154.3567 H   0  0  0  0  0  0  0  0  0  0  0  0
  148.2315  132.7652  156.2872 H   0  0  0  0  0  0  0  0  0  0  0  0
  146.8943  132.2683  154.2042 H   0  0  0  0  0  0  0  0  0  0  0  0
  148.2723  132.7595  153.2348 H   0  0  0  0  0  0  0  0  0  0  0  0
  148.5267  130.6444  153.4600 H   0  0  0  0  0  0  0  0  0  0  0  0
  150.4943  132.4585  155.4378 H   0  0  0  0  0  0  0  0  0  0  0  0
  150.3130  133.7858  154.3162 H   0  0  0  0  0  0  0  0  0  0  0  0
  151.5809  134.4996  156.3352 H   0  0  0  0  0  0  0  0  0  0  0  0
  150.2696  134.0224  157.3718 H   0  0  0  0  0  0  0  0  0  0  0  0
  144.8358  139.8212  154.3835 H   0  0  0  0  0  0  0  0  0  0  0  0
  1  2  1  0  0  0  0
  1 20  1  0  0  0  0
  1 21  1  0  0  0  0
  1 22  1  0  0  0  0
  2  3  1  0  0  0  0
  2  9  1  0  0  0  0
  2 23  1  0  0  0  0
  3  4  1  0  0  0  0
  3 24  1  0  0  0  0
  3 25  1  0  0  0  0
  4  8  1  0  0  0  0
  4  5  1  0  0  0  0
  5  6  2  0  0  0  0
  5 26  1  0  0  0  0
  6  7  1  0  0  0  0
  6 27  1  0  0  0  0
  7  8  2  0  0  0  0
  7 42  1  0  0  0  0
  8 28  1  0  0  0  0
  9 10  1  0  0  0  0
  9 29  1  0  0  0  0
 10 11  2  0  0  0  0
 10 12  1  0  0  0  0
 12 19  1  0  0  0  0
 12 13  1  0  0  0  0
 13 14  1  0  0  0  0
 13 30  1  0  0  0  0
 13 31  1  0  0  0  0
 14 15  1  0  0  0  0
 14 32  1  0  0  0  0
 14 33  1  0  0  0  0
 15 16  1  0  0  0  0
 15 18  1  0  0  0  0
 15 34  1  0  0  0  0
 16 17  1  0  0  0  0
 16 35  1  0  0  0  0
 16 36  1  0  0  0  0
 17 37  1  0  0  0  0
 18 19  1  0  0  0  0
 18 38  1  0  0  0  0
 18 39  1  0  0  0  0
 19 40  1  0  0  0  0
 19 41  1  0  0  0  0
M  CHG  1   7   1
M  END
> <s_m_source_file>
AV-unprocessed.smi

> <i_m_source_file_index>
1555

> <i_lp_mmshare_version>
43012

> <i_f3d_flags>
0

> <s_epik_input>
W2NIXTFuW2NIXVtjSF1uMVtDSDJdW0NAQEhdKFtDSDNdKVtOSF1DKD1PKU4yW0NIMl1bQ0gyXVtDSF0oW0NIMl1bT0hdKVtDSDJdW0NIMl0y

> <s_epik_cmdline>
J2VwaWtfcHl0aG9uJywgJy1waCcsICc3LjAnLCAnLXRuJywgJzgnLCAnLW1hJywgJzIwMCcsICctbWV0YWxfYmluZGluZycsICctaW1hZScsICc8aW5maWxlLm1hZT4nLCAnLW9tYWUnLCAnPG91dGZpbGUubWFlPic=

> <r_lp_tautomer_probability>
1

> <r_epik_Ionization_Penalty>
0.253261

> <r_epik_Ionization_Penalty_Charging>
0

> <r_epik_Ionization_Penalty_Neutral>
0.253261

> <r_epik_State_Penalty>
0.244619

> <r_epik_Charging_Adjusted_Penalty>
0.244619

> <i_epik_Tot_Q>
1

> <i_epik_Tot_abs_Q>
1

> <r_epik_Metal_State_Penalty>
0.535039

> <b_epik_Metal_Only>
0

> <s_lp_Force_Field>
OPLS_2005

> <r_lp_Energy>
34.4969

> <b_lp_Chiralities_Consistent>
1

> <s_lp_Variant>
AV-unprocessed.smi:1555-1

> <Gold.Version>
5.8.1

> <Gold.Id.Protein>
6NUR|6NUR_protein|mol2

> <Gold.PLP.Fitness>
41.7406

> <Gold.PLP.PLP>
-27.1491

> <Gold.PLP.part.hbond>
-3.0000

> <Gold.PLP.part.metal>
0.0000

> <Gold.PLP.part.buried>
3.4994

> <Gold.PLP.part.nonpolar>
-27.3178

> <Gold.PLP.part.repulsive>
0.1180

> <Gold.PLP.ligand.clash>
0.0000

> <Gold.PLP.ligand.torsion>
0.2554

> <Gold.PLP.Chemscore.Hbond>
4.0000

> <Gold.PLP.Chemscore.CHOScore>
1.0000

> <Gold.PLP.Chemscore.Metal>
0.0000

> <Gold.Chemscore.Hbonds>
donor molecule, donor type, donor heavy atom, donor atom, acceptor molecule, acceptor atom, score
      L1  H     7    42       P1 10175  0.19
      P1  H 10752 10765       L1    11  1.00
      L1  C     5    26       P1  8028  0.25

> <Gold.PLP.Chemscore.Internal.Correction>
0.1023

> <Gold.Rescore>
     Score         DG    S(hbond)    S(metal)    S(lipo)     H(rot)  DE(clash)    DE(int)     intcor
     11.82     -15.42       2.89        0.00      58.51       2.56       3.30       0.30       ----

> <Gold.Chemscore.Fitness>
11.8202

> <Gold.Chemscore.DG>
-15.4237

> <Gold.Chemscore.ZeroCoef>
-5.4800

> <Gold.Chemscore.Hbond>
2.8918

> <Gold.Chemscore.Metal>
0.0000

> <Gold.Chemscore.Lipo>
58.5144

> <Gold.Chemscore.Internal_Hbond>
0.0000

> <Gold.Chemscore.DEClash>
3.2990

> <Gold.Chemscore.DEInternal>
0.3045

> <Gold.Chemscore.Rot>
2.5630

> <Gold.Chemscore.Internal.Correction>
   9.000000E+99

> <Gold.Chemscore.Hbonds>
donor molecule, donor type, donor heavy atom, donor atom, acceptor molecule, acceptor atom, score
      L1  H     7    42       P1 10175  0.10
      P1  H 10752 10765       L1    11  0.99

> <Gold.Chemscore.Hbond.Weighted>
-9.6587

> <Gold.Chemscore.Metal.Weighted>
-0.0000

> <Gold.Chemscore.Lipo.Weighted>
-6.8462

> <Gold.Chemscore.Internal_Hbond.Weighted>
0.0000

> <Gold.Chemscore.DEClash.Weighted>
3.2990

> <Gold.Chemscore.DEInternal.Weighted>
0.3045

> <Gold.Chemscore.Rot.Weighted>
6.5612

> <Gold.Chemscore.Internal.Correction.Weighted>
   9.000000E+99

> <Gold.Protein.RotatedTorsions>
[ 6907 6896 6895 6894 ] final -124.78 input  -60.11 | X-H torsion
[ 7974 7965 7964 7962 ] final  150.63 input  175.53 | X-H torsion
[ 8008 7997 7996 7995 ] final  101.40 input   59.86 | X-H torsion
[ 10167 10162 10161 10158 ] final -175.50 input  -65.29 | X-H torsion
[ 10718 10713 10712 10709 ] final -153.10 input   66.30 | X-H torsion
[ 10763 10752 10751 10750 ] final  180.00 input  -60.55 | X-H torsion
[ 11005 11000 10999 10996 ] final -120.47 input  -57.11 | X-H torsion

> <Gold.Protein.ActiveResidues>
 VAL166  LYS551  ARG553  GLY616  TRP617  ASP618  TYR619  PRO620  LYS621  CYS622 
 ASP623  PHE694  ASN695  SER759  ASP760  ASP761  ALA762  ILE779  LEU786  VAL792 
 PHE793  MET794  SER795  GLU796  ALA797  LYS798  CYS799  TRP800  GLU811  SER814 

> <Gold.Protein.RotatedAtoms>
  150.8802  133.7382  159.2934 H   0  0  0  0  0  0  0  0  0  0  0  0  # atno 6907 bound_to 6896
  151.4966  135.1058  159.9827 H   0  0  0  0  0  0  0  0  0  0  0  0  # atno 6908 bound_to 6896
  152.4755  133.8082  159.7045 H   0  0  0  0  0  0  0  0  0  0  0  0  # atno 6909 bound_to 6896
  144.8350  139.6433  143.6042 H   0  0  0  0  0  0  0  0  0  0  0  0  # atno 7974 bound_to 7965
  156.1295  140.3198  155.8328 H   0  0  0  0  0  0  0  0  0  0  0  0  # atno 8008 bound_to 7997
  155.4357  140.0522  157.3032 H   0  0  0  0  0  0  0  0  0  0  0  0  # atno 8009 bound_to 7997
  154.4888  140.2084  155.9607 H   0  0  0  0  0  0  0  0  0  0  0  0  # atno 8010 bound_to 7997
  139.5578  144.1946  152.1188 H   0  0  0  0  0  0  0  0  0  0  0  0  # atno 10167 bound_to 10162
  156.4813  130.8304  151.2531 H   0  0  0  0  0  0  0  0  0  0  0  0  # atno 10718 bound_to 10713
  154.5278  135.2798  155.1206 H   0  0  0  0  0  0  0  0  0  0  0  0  # atno 10763 bound_to 10752
  154.2738  135.6298  153.5324 H   0  0  0  0  0  0  0  0  0  0  0  0  # atno 10764 bound_to 10752
  152.9950  135.5635  154.5784 H   0  0  0  0  0  0  0  0  0  0  0  0  # atno 10765 bound_to 10752
  141.0141  134.0221  157.3373 H   0  0  0  0  0  0  0  0  0  0  0  0  # atno 11005 bound_to 11000
  146.2650  139.6498  142.9336 LP  0  0  0  0  0  0  0  0  0  0  0  0  # atno 17320 bound_to 7965
  145.4814  141.0438  143.2644 LP  0  0  0  0  0  0  0  0  0  0  0  0  # atno 17321 bound_to 7965
  140.1454  144.5164  150.6719 LP  0  0  0  0  0  0  0  0  0  0  0  0  # atno 17342 bound_to 10162
  140.6853  143.2347  151.5277 LP  0  0  0  0  0  0  0  0  0  0  0  0  # atno 17343 bound_to 10162
  157.7483  131.0044  150.3074 LP  0  0  0  0  0  0  0  0  0  0  0  0  # atno 17370 bound_to 10713
  156.3519  130.3832  149.7322 LP  0  0  0  0  0  0  0  0  0  0  0  0  # atno 17371 bound_to 10713
  139.9107  135.0189  156.7678 LP  0  0  0  0  0  0  0  0  0  0  0  0  # atno 17394 bound_to 11000
  140.6684  133.9582  155.7843 LP  0  0  0  0  0  0  0  0  0  0  0  0  # atno 17395 bound_to 11000

$$$$
