#       Name:                AV-unprocessed.smi:46
#       Creating user name   scv26
#       Creation time:       Thu Mar 26 16:29:56 2020


#       File generated by GOLD software.
#

@<TRIPOS>MOLECULE
AV-unprocessed.smi:46
    38    39     1
SMALL
NO_CHARGES


@<TRIPOS>ATOM
      1 ****        -3.4787   0.7037   1.9175 C.3            1 S1                 0.0000
      2 ****        -2.8935   1.3551   0.6556 C.3            1 S1                 0.0000
      3 ****        -3.4636   0.7382  -0.6309 C.3            1 S1                 0.0000
      4 ****        -1.4401   1.2845   0.6676 N.pl3          1 S1                 0.0000
      5 ****        -0.6284   0.1725   0.5788 C.2            1 S1                 0.0000
      6 ****         0.6709   0.5958   0.6513 C.2            1 S1                 0.0000
      7 ****         1.9594  -0.1992   0.6020 C.3            1 S1                 0.0000
      8 ****         1.8363  -1.5928   1.2313 C.3            1 S1                 0.0000
      9 ****         1.3649  -2.4913   0.1617 N.4            1 S1                 1.0000
     10 ****         1.6472  -1.8485  -1.1369 C.3            1 S1                 0.0000
     11 ****         2.4019  -0.5434  -0.8314 C.3            1 S1                 0.0000
     12 ****         2.1978   0.5582  -1.8904 C.3            1 S1                 0.0000
     13 ****         2.7875   0.1672  -3.1116 O.3            1 S1                 0.0000
     14 ****         0.5422   2.0074   0.7928 C.2            1 S1                 0.0000
     15 ****        -0.7154   2.4146   0.8026 N.2            1 S1                 0.0000
     16 ****         2.7488   0.3595   1.1069 H              1 S1                 0.0000
     17 ****         3.4657  -0.7855  -0.7842 H              1 S1                 0.0000
     18 ****        -4.5640   0.8055   1.9426 H              1 S1                 0.0000
     19 ****        -3.0839   1.1727   2.8194 H              1 S1                 0.0000
     20 ****        -3.2438  -0.3600   1.9650 H              1 S1                 0.0000
     21 ****        -3.1773   2.4092   0.6668 H              1 S1                 0.0000
     22 ****        -4.5484   0.8435  -0.6663 H              1 S1                 0.0000
     23 ****        -3.2323  -0.3248  -0.7042 H              1 S1                 0.0000
     24 ****        -3.0565   1.2303  -1.5149 H              1 S1                 0.0000
     25 ****        -1.0426  -0.8190   0.4726 H              1 S1                 0.0000
     26 ****         2.8237  -1.9427   1.5355 H              1 S1                 0.0000
     27 ****         1.1940  -1.6196   2.1122 H              1 S1                 0.0000
     28 ****         1.8321  -3.3844   0.2281 H              1 S1                 0.0000
     29 ****         2.2220  -2.5093  -1.7864 H              1 S1                 0.0000
     30 ****         0.6954  -1.6433  -1.6282 H              1 S1                 0.0000
     31 ****         1.1404   0.7651  -2.0584 H              1 S1                 0.0000
     32 ****         2.6641   1.4882  -1.5636 H              1 S1                 0.0000
     33 ****         2.6823   0.8696  -3.7358 H              1 S1                 0.0000
     34 ****         1.3253   2.7457   0.8853 H              1 S1                 0.0000
     35 ****         0.3672  -2.6225   0.2475 H              1 S1                 0.0000
     36 ****         2.3379  -0.6579  -3.4539 LP             1 S1                 0.0000
     37 ****         3.7605  -0.0168  -2.9722 LP             1 S1                 0.0000
     38 ****        -1.0541   3.3514   0.8905 LP             1 S1                 0.0000
@<TRIPOS>BOND
    1    1    2 1     
    2    1   18 1     
    3    1   19 1     
    4    1   20 1     
    5    2    3 1     
    6    2    4 1     
    7    2   21 1     
    8    3   22 1     
    9    3   23 1     
   10    3   24 1     
   11    4   15 1     
   12    4    5 1     
   13    5    6 2     
   14    5   25 1     
   15    6    7 1     
   16    6   14 1     
   17    7   16 1     
   18    7   11 1     
   19    7    8 1     
   20    8    9 1     
   21    8   26 1     
   22    8   27 1     
   23    9   10 1     
   24    9   28 1     
   25    9   35 1     
   26   10   11 1     
   27   10   29 1     
   28   10   30 1     
   29   11   17 1     
   30   11   12 1     
   31   12   13 1     
   32   12   31 1     
   33   12   32 1     
   34   13   33 1     
   35   14   15 2     
   36   14   34 1     
   37   13   36 1     
   38   13   37 1     
   39   15   38 1     
@<TRIPOS>SUBSTRUCTURE
      1 S1             1
@<TRIPOS>SET
LONE_PAIRS      STATIC     ATOMS    <user>   **** ""
3 36 37 38
DONOR_HYDROGENS      STATIC     ATOMS    <user>   **** ""
3 28 35 33
ATOM$BLUE        STATIC     ATOMS    COLORGROUP SYSTEM
3 36 37 38
ATOM$RED        STATIC     ATOMS    COLORGROUP SYSTEM
3 28 35 33
