#       Name:                AV-unprocessed.smi:109
#       Creating user name   scv26
#       Creation time:       Thu Mar 26 18:12:48 2020


#       File generated by GOLD software.
#

@<TRIPOS>MOLECULE
AV-unprocessed.smi:109
    71    74     1
SMALL
NO_CHARGES


@<TRIPOS>ATOM
      1 ****        -4.7715   1.4221   3.7401 O.3            1 S1                 0.0000
      2 ****        -3.5604   1.5679   3.0304 C.3            1 S1                 0.0000
      3 ****        -3.8392   1.5822   1.5189 C.3            1 S1                 0.0000
      4 ****        -2.5621   1.7784   0.6718 C.3            1 S1                 0.0000
      5 ****        -1.6892   0.6136   0.8165 N.pl3          1 S1                 0.0000
      6 ****        -0.3458   0.7137   0.7061 C.ar           1 S1                 0.0000
      7 ****         0.2557   1.8967   0.4135 N.ar           1 S1                 0.0000
      8 ****         1.5870   1.9657   0.3171 C.ar           1 S1                 0.0000
      9 ****         2.4870   0.9921   0.4751 N.ar           1 S1                 0.0000
     10 ****         1.8861  -0.1970   0.7696 C.ar           1 S1                 0.0000
     11 ****         0.4876  -0.4176   0.9008 C.ar           1 S1                 0.0000
     12 ****         0.2500  -1.7508   1.2092 N.2            1 S1                 0.0000
     13 ****         1.4427  -2.2814   1.2603 C.2            1 S1                 0.0000
     14 ****         2.4850  -1.4161   0.9976 N.pl3          1 S1                 0.0000
     15 ****         3.9597  -1.6741   0.9784 C.3            1 S1                 0.0000
     16 ****         4.1750  -2.9833   1.4203 O.3            1 S1                 0.0000
     17 ****         4.3853  -3.8188   0.2911 C.3            1 S1                 0.0000
     18 ****         4.8945  -5.2283   0.6608 C.3            1 S1                 0.0000
     19 ****         6.2083  -5.2409   1.1784 O.3            1 S1                 0.0000
     20 ****         5.1724  -2.9339  -0.6845 C.3            1 S1                 0.0000
     21 ****         6.5526  -2.8893  -0.3662 O.3            1 S1                 0.0000
     22 ****         4.4863  -1.5819  -0.4718 C.3            1 S1                 0.0000
     23 ****         5.3518  -0.4822  -0.6832 O.3            1 S1                 0.0000
     24 ****        -2.8367   2.0832  -0.8272 C.3            1 S1                 0.0000
     25 ****        -3.4349   3.4895  -1.0505 C.3            1 S1                 0.0000
     26 ****        -3.6015   3.7986  -2.5475 C.3            1 S1                 0.0000
     27 ****        -4.4570   2.7294  -3.2447 C.3            1 S1                 0.0000
     28 ****        -3.8721   1.3250  -3.0289 C.3            1 S1                 0.0000
     29 ****        -3.7037   1.0150  -1.5323 C.3            1 S1                 0.0000
     30 ****         4.3843  -0.9467   1.6716 H              1 S1                 0.0000
     31 ****         3.3993  -3.9702  -0.1526 H              1 S1                 0.0000
     32 ****         5.0711  -3.2820  -1.7130 H              1 S1                 0.0000
     33 ****         3.6418  -1.4996  -1.1582 H              1 S1                 0.0000
     34 ****        -4.5786   1.4183   4.6652 H              1 S1                 0.0000
     35 ****        -3.0764   2.4942   3.3408 H              1 S1                 0.0000
     36 ****        -2.8960   0.7463   3.2994 H              1 S1                 0.0000
     37 ****        -4.3401   0.6561   1.2340 H              1 S1                 0.0000
     38 ****        -4.5465   2.3852   1.3161 H              1 S1                 0.0000
     39 ****        -2.0466   2.6432   1.0914 H              1 S1                 0.0000
     40 ****        -2.1563  -0.2586   1.0188 H              1 S1                 0.0000
     41 ****         1.9880   2.9402   0.0805 H              1 S1                 0.0000
     42 ****         1.5882  -3.3258   1.4938 H              1 S1                 0.0000
     43 ****         4.2258  -5.6848   1.3909 H              1 S1                 0.0000
     44 ****         4.8779  -5.8664  -0.2231 H              1 S1                 0.0000
     45 ****         6.4329  -6.1295   1.4091 H              1 S1                 0.0000
     46 ****         6.8797  -3.7752  -0.3264 H              1 S1                 0.0000
     47 ****         4.8763   0.3123  -0.4936 H              1 S1                 0.0000
     48 ****        -1.8700   2.0884  -1.3329 H              1 S1                 0.0000
     49 ****        -4.4064   3.5747  -0.5644 H              1 S1                 0.0000
     50 ****        -2.7935   4.2439  -0.5938 H              1 S1                 0.0000
     51 ****        -4.0574   4.7808  -2.6755 H              1 S1                 0.0000
     52 ****        -2.6208   3.8488  -3.0222 H              1 S1                 0.0000
     53 ****        -5.4756   2.7652  -2.8561 H              1 S1                 0.0000
     54 ****        -4.5253   2.9445  -4.3115 H              1 S1                 0.0000
     55 ****        -4.5180   0.5784  -3.4918 H              1 S1                 0.0000
     56 ****        -2.9059   1.2502  -3.5293 H              1 S1                 0.0000
     57 ****        -3.2564   0.0274  -1.4165 H              1 S1                 0.0000
     58 ****        -4.6899   0.9649  -1.0704 H              1 S1                 0.0000
     59 ****        -5.2111   0.5613   3.4837 LP             1 S1                 0.0000
     60 ****        -5.3818   2.1847   3.5260 LP             1 S1                 0.0000
     61 ****        -0.2985   2.7166   0.2701 LP             1 S1                 0.0000
     62 ****         3.4753   1.1183   0.3886 LP             1 S1                 0.0000
     63 ****        -0.6306  -2.2007   1.3578 LP             1 S1                 0.0000
     64 ****         3.3757  -3.3018   1.9298 LP             1 S1                 0.0000
     65 ****         4.9802  -3.0100   2.0127 LP             1 S1                 0.0000
     66 ****         6.2560  -4.6596   1.9907 LP             1 S1                 0.0000
     67 ****         6.8460  -4.9008   0.4873 LP             1 S1                 0.0000
     68 ****         6.6804  -2.4424   0.5192 LP             1 S1                 0.0000
     69 ****         7.0452  -2.3792  -1.0713 LP             1 S1                 0.0000
     70 ****         5.6597  -0.4727  -1.6346 LP             1 S1                 0.0000
     71 ****         6.1440  -0.5545  -0.0772 LP             1 S1                 0.0000
@<TRIPOS>BOND
    1    1    2 1     
    2    1   34 1     
    3    2    3 1     
    4    2   35 1     
    5    2   36 1     
    6    3    4 1     
    7    3   37 1     
    8    3   38 1     
    9    4    5 1     
   10    4   24 1     
   11    4   39 1     
   12    5    6 1     
   13    5   40 1     
   14    6   11 ar    
   15    6    7 ar    
   16    7    8 ar    
   17    8    9 ar    
   18    8   41 1     
   19    9   10 ar    
   20   10   14 1     
   21   10   11 ar    
   22   11   12 1     
   23   12   13 2     
   24   13   14 1     
   25   13   42 1     
   26   14   15 1     
   27   15   30 1     
   28   15   22 1     
   29   15   16 1     
   30   16   17 1     
   31   17   31 1     
   32   17   18 1     
   33   17   20 1     
   34   18   19 1     
   35   18   43 1     
   36   18   44 1     
   37   19   45 1     
   38   20   32 1     
   39   20   21 1     
   40   20   22 1     
   41   21   46 1     
   42   22   33 1     
   43   22   23 1     
   44   23   47 1     
   45   24   29 1     
   46   24   25 1     
   47   24   48 1     
   48   25   26 1     
   49   25   49 1     
   50   25   50 1     
   51   26   27 1     
   52   26   51 1     
   53   26   52 1     
   54   27   28 1     
   55   27   53 1     
   56   27   54 1     
   57   28   29 1     
   58   28   55 1     
   59   28   56 1     
   60   29   57 1     
   61   29   58 1     
   62    1   59 1     
   63    1   60 1     
   64    7   61 1     
   65    9   62 1     
   66   12   63 1     
   67   16   64 1     
   68   16   65 1     
   69   19   66 1     
   70   19   67 1     
   71   21   68 1     
   72   21   69 1     
   73   23   70 1     
   74   23   71 1     
@<TRIPOS>SUBSTRUCTURE
      1 S1             1
@<TRIPOS>SET
LONE_PAIRS      STATIC     ATOMS    <user>   **** ""
13 59 60 61 62 63 64 65 66 67 68 69 70 71
DONOR_HYDROGENS      STATIC     ATOMS    <user>   **** ""
5 34 40 45 46 47
ATOM$BLUE        STATIC     ATOMS    COLORGROUP SYSTEM
13 59 60 61 62 63 64 65 66 67 68 69 70 71
ATOM$RED        STATIC     ATOMS    COLORGROUP SYSTEM
5 34 40 45 46 47
