AV-unprocessed.smi:3058|AV-procd|sdf|11673|dock8
  -GOLD-   2272017 73D 1   1.00000     0.00000
 Structure written by MMmdl.
 39 41  0  0  0  0  0  0  0  0  2 V2000
  151.3938  141.0116  158.0614 O   0  0  0  0  0  0  0  0  0  0  0  0
  150.8521  142.0448  157.6673 C   0  0  0  0  0  0  0  0  0  0  0  0
  150.2477  142.1384  156.4725 N   0  0  0  0  0  0  0  0  0  0  0  0
  150.1413  141.0550  155.5024 C   0  0  0  0  0  0  0  0  0  0  0  0
  151.4460  140.2457  155.4052 C   0  0  0  0  0  0  0  0  0  0  0  0
  151.1891  138.7562  155.2858 C   0  0  0  0  0  0  0  0  0  0  0  0
  151.5888  137.8760  156.3157 C   0  0  0  0  0  0  0  0  0  0  0  0
  151.3375  136.4945  156.1810 C   0  0  0  0  0  0  0  0  0  0  0  0
  150.6933  136.0243  155.0184 C   0  0  0  0  0  0  0  0  0  0  0  0
  150.3255  136.8963  154.0540 N   0  3  0  0  0  0  0  0  0  0  0  0
  150.5472  138.2261  154.1455 C   0  0  0  0  0  0  0  0  0  0  0  0
  150.8378  143.3136  158.5385 C   0  0  2  0  0  0  0  0  0  0  0  0
  151.4215  144.5557  157.8207 C   0  0  0  0  0  0  0  0  0  0  0  0
  152.5275  145.0336  158.7823 C   0  0  1  0  0  0  0  0  0  0  0  0
  151.8854  145.5973  160.0644 C   0  0  0  0  0  0  0  0  0  0  0  0
  151.3725  144.3287  160.7733 C   0  0  0  0  0  0  0  0  0  0  0  0
  151.7558  143.2118  159.7834 C   0  0  2  0  0  0  0  0  0  0  0  0
  153.1074  143.7168  159.2783 C   0  0  0  0  0  0  0  0  0  0  0  0
  149.8238  143.0205  156.2236 H   0  0  0  0  0  0  0  0  0  0  0  0
  149.3040  140.4061  155.7658 H   0  0  0  0  0  0  0  0  0  0  0  0
  149.9021  141.4920  154.5325 H   0  0  0  0  0  0  0  0  0  0  0  0
  152.0297  140.5808  154.5467 H   0  0  0  0  0  0  0  0  0  0  0  0
  152.0678  140.4179  156.2848 H   0  0  0  0  0  0  0  0  0  0  0  0
  152.0809  138.2547  157.1999 H   0  0  0  0  0  0  0  0  0  0  0  0
  151.6354  135.8059  156.9582 H   0  0  0  0  0  0  0  0  0  0  0  0
  150.4629  134.9855  154.8323 H   0  0  0  0  0  0  0  0  0  0  0  0
  150.2064  138.8200  153.3097 H   0  0  0  0  0  0  0  0  0  0  0  0
  149.8099  143.5095  158.8497 H   0  0  0  0  0  0  0  0  0  0  0  0
  151.8474  144.3079  156.8469 H   0  0  0  0  0  0  0  0  0  0  0  0
  150.6660  145.3250  157.6565 H   0  0  0  0  0  0  0  0  0  0  0  0
  153.2473  145.7094  158.3198 H   0  0  0  0  0  0  0  0  0  0  0  0
  152.6276  146.1066  160.6805 H   0  0  0  0  0  0  0  0  0  0  0  0
  151.0856  146.3067  159.8484 H   0  0  0  0  0  0  0  0  0  0  0  0
  151.8830  144.1912  161.7275 H   0  0  0  0  0  0  0  0  0  0  0  0
  150.3009  144.3649  160.9719 H   0  0  0  0  0  0  0  0  0  0  0  0
  151.7829  142.2212  160.2393 H   0  0  0  0  0  0  0  0  0  0  0  0
  153.5471  143.1126  158.4847 H   0  0  0  0  0  0  0  0  0  0  0  0
  153.8457  143.8427  160.0723 H   0  0  0  0  0  0  0  0  0  0  0  0
  149.8606  136.5347  153.2207 H   0  0  0  0  0  0  0  0  0  0  0  0
  1  2  2  0  0  0  0
  2  3  1  0  0  0  0
  2 12  1  0  0  0  0
  3  4  1  0  0  0  0
  3 19  1  0  0  0  0
  4  5  1  0  0  0  0
  4 20  1  0  0  0  0
  4 21  1  0  0  0  0
  5  6  1  0  0  0  0
  5 22  1  0  0  0  0
  5 23  1  0  0  0  0
  6 11  1  0  0  0  0
  6  7  2  0  0  0  0
  7  8  1  0  0  0  0
  7 24  1  0  0  0  0
  8  9  2  0  0  0  0
  8 25  1  0  0  0  0
  9 10  1  0  0  0  0
  9 26  1  0  0  0  0
 10 11  2  0  0  0  0
 10 39  1  0  0  0  0
 11 27  1  0  0  0  0
 12 17  1  0  0  0  0
 12 13  1  0  0  0  0
 12 28  1  0  0  0  0
 13 14  1  0  0  0  0
 13 29  1  0  0  0  0
 13 30  1  0  0  0  0
 14 18  1  0  0  0  0
 14 15  1  0  0  0  0
 14 31  1  0  0  0  0
 15 16  1  0  0  0  0
 15 32  1  0  0  0  0
 15 33  1  0  0  0  0
 16 17  1  0  0  0  0
 16 34  1  0  0  0  0
 16 35  1  0  0  0  0
 17 18  1  0  0  0  0
 17 36  1  0  0  0  0
 18 37  1  0  0  0  0
 18 38  1  0  0  0  0
M  CHG  1  10   1
M  END
> <s_m_source_file>
AV-unprocessed.smi

> <i_m_source_file_index>
3058

> <i_lp_mmshare_version>
43012

> <i_f3d_flags>
0

> <s_epik_input>
W0NIMl0xW0NIMl1bQ0BIXShbQ0gyXTIpW0NAQEhdKFtDSDJdW0NAQEhdMTIpQyg9TylbTkhdW0NIMl1bQ0gyXWMzW2NIXVtjSF1bY0hdbltjSF0z

> <s_epik_cmdline>
J2VwaWtfcHl0aG9uJywgJy1waCcsICc3LjAnLCAnLXRuJywgJzgnLCAnLW1hJywgJzIwMCcsICctbWV0YWxfYmluZGluZycsICctaW1hZScsICc8aW5maWxlLm1hZT4nLCAnLW9tYWUnLCAnPG91dGZpbGUubWFlPic=

> <r_epik_Ionization_Penalty>
2.24375

> <r_epik_Ionization_Penalty_Charging>
2.24375

> <r_epik_Ionization_Penalty_Neutral>
1.89995e-08

> <r_epik_State_Penalty>
2.39035

> <r_epik_Charging_Adjusted_Penalty>
4.63411

> <i_epik_Tot_Q>
1

> <i_epik_Tot_abs_Q>
1

> <r_epik_Metal_State_Penalty>
2.40369

> <b_epik_Metal_Only>
0

> <s_lp_Force_Field>
OPLS_2005

> <r_lp_Energy>
53.6325

> <b_lp_Chiralities_Consistent>
1

> <s_lp_Variant>
AV-unprocessed.smi:3058-5

> <Gold.Version>
5.8.1

> <Gold.Id.Protein>
6NUR|6NUR_protein|mol2

> <Gold.PLP.Fitness>
49.3555

> <Gold.PLP.PLP>
-41.4571

> <Gold.PLP.part.hbond>
-3.0000

> <Gold.PLP.part.metal>
0.0000

> <Gold.PLP.part.buried>
-3.1732

> <Gold.PLP.part.nonpolar>
-35.7089

> <Gold.PLP.part.repulsive>
0.1202

> <Gold.PLP.ligand.clash>
0.0000

> <Gold.PLP.ligand.torsion>
0.5645

> <Gold.PLP.Chemscore.Hbond>
3.0000

> <Gold.PLP.Chemscore.CHOScore>
0.0000

> <Gold.PLP.Chemscore.Metal>
0.0000

> <Gold.Chemscore.Hbonds>
donor molecule, donor type, donor heavy atom, donor atom, acceptor molecule, acceptor atom, score
      L1  H     3    19       P1  8028  1.00
      L1  H    10    39       P1  7948  1.60

> <Gold.PLP.Chemscore.Internal.Correction>
0.0275

> <Gold.Rescore>
     Score         DG    S(hbond)    S(metal)    S(lipo)     H(rot)  DE(clash)    DE(int)     intcor
     20.49     -22.82       1.91        0.00     125.53       1.45       0.34       1.99       ----

> <Gold.Chemscore.Fitness>
20.4934

> <Gold.Chemscore.DG>
-22.8208

> <Gold.Chemscore.ZeroCoef>
-5.4800

> <Gold.Chemscore.Hbond>
1.9095

> <Gold.Chemscore.Metal>
0.0000

> <Gold.Chemscore.Lipo>
125.5328

> <Gold.Chemscore.Internal_Hbond>
0.0000

> <Gold.Chemscore.DEClash>
0.3409

> <Gold.Chemscore.DEInternal>
1.9865

> <Gold.Chemscore.Rot>
1.4548

> <Gold.Chemscore.Internal.Correction>
   9.000000E+99

> <Gold.Chemscore.Hbonds>
donor molecule, donor type, donor heavy atom, donor atom, acceptor molecule, acceptor atom, score
      L1  H     3    19       P1  8028  0.94
      L1  H    10    39       P1  7948  0.12

> <Gold.Chemscore.Hbond.Weighted>
-6.3777

> <Gold.Chemscore.Metal.Weighted>
-0.0000

> <Gold.Chemscore.Lipo.Weighted>
-14.6873

> <Gold.Chemscore.Internal_Hbond.Weighted>
0.0000

> <Gold.Chemscore.DEClash.Weighted>
0.3409

> <Gold.Chemscore.DEInternal.Weighted>
1.9865

> <Gold.Chemscore.Rot.Weighted>
3.7242

> <Gold.Chemscore.Internal.Correction.Weighted>
   9.000000E+99

> <Gold.Protein.RotatedTorsions>
[ 6907 6896 6895 6894 ] final  -53.58 input  -60.11 | X-H torsion
[ 7974 7965 7964 7962 ] final -133.54 input  175.53 | X-H torsion
[ 8008 7997 7996 7995 ] final -140.28 input   59.86 | X-H torsion
[ 10167 10162 10161 10158 ] final   97.29 input  -65.29 | X-H torsion
[ 10718 10713 10712 10709 ] final  106.28 input   66.30 | X-H torsion
[ 10763 10752 10751 10750 ] final  -53.37 input  -60.55 | X-H torsion
[ 11005 11000 10999 10996 ] final  173.95 input  -57.11 | X-H torsion

> <Gold.Protein.ActiveResidues>
 VAL166  LYS551  ARG553  GLY616  TRP617  ASP618  TYR619  PRO620  LYS621  CYS622 
 ASP623  PHE694  ASN695  SER759  ASP760  ASP761  ALA762  ILE779  LEU786  VAL792 
 PHE793  MET794  SER795  GLU796  ALA797  LYS798  CYS799  TRP800  GLU811  SER814 

> <Gold.Protein.RotatedAtoms>
  150.8414  134.7707  159.6935 H   0  0  0  0  0  0  0  0  0  0  0  0  # atno 6907 bound_to 6896
  152.4500  134.5409  159.9848 H   0  0  0  0  0  0  0  0  0  0  0  0  # atno 6908 bound_to 6896
  151.5549  133.3374  159.2996 H   0  0  0  0  0  0  0  0  0  0  0  0  # atno 6909 bound_to 6896
  144.9183  140.6983  143.4981 H   0  0  0  0  0  0  0  0  0  0  0  0  # atno 7974 bound_to 7965
  155.4588  140.0544  157.2993 H   0  0  0  0  0  0  0  0  0  0  0  0  # atno 8008 bound_to 7997
  154.4746  140.2055  155.9864 H   0  0  0  0  0  0  0  0  0  0  0  0  # atno 8009 bound_to 7997
  156.1111  140.3204  155.8079 H   0  0  0  0  0  0  0  0  0  0  0  0  # atno 8010 bound_to 7997
  139.7814  144.6887  151.0017 H   0  0  0  0  0  0  0  0  0  0  0  0  # atno 10167 bound_to 10162
  157.6674  131.0847  150.5983 H   0  0  0  0  0  0  0  0  0  0  0  0  # atno 10718 bound_to 10713
  154.1577  135.6480  153.4978 H   0  0  0  0  0  0  0  0  0  0  0  0  # atno 10763 bound_to 10752
  153.0119  135.5353  154.6742 H   0  0  0  0  0  0  0  0  0  0  0  0  # atno 10764 bound_to 10752
  154.6048  135.2947  155.0468 H   0  0  0  0  0  0  0  0  0  0  0  0  # atno 10765 bound_to 10752
  140.3460  134.7236  157.4235 H   0  0  0  0  0  0  0  0  0  0  0  0  # atno 11005 bound_to 11000
  145.3338  139.1752  143.4522 LP  0  0  0  0  0  0  0  0  0  0  0  0  # atno 17320 bound_to 7965
  146.3193  140.3371  142.8645 LP  0  0  0  0  0  0  0  0  0  0  0  0  # atno 17321 bound_to 7965
  140.7818  143.4479  151.0456 LP  0  0  0  0  0  0  0  0  0  0  0  0  # atno 17342 bound_to 10162
  139.8159  143.7887  152.3174 LP  0  0  0  0  0  0  0  0  0  0  0  0  # atno 17343 bound_to 10162
  156.6283  130.4425  149.5796 LP  0  0  0  0  0  0  0  0  0  0  0  0  # atno 17370 bound_to 10713
  156.2302  130.6789  151.1455 LP  0  0  0  0  0  0  0  0  0  0  0  0  # atno 17371 bound_to 10713
  140.0742  134.5820  155.8609 LP  0  0  0  0  0  0  0  0  0  0  0  0  # atno 17394 bound_to 11000
  141.2025  133.6626  156.6012 LP  0  0  0  0  0  0  0  0  0  0  0  0  # atno 17395 bound_to 11000

$$$$
