AV-unprocessed.smi:1570|AV-procd|sdf|6314|dock5
  -GOLD-   22720 6513D 1   1.00000     0.00000
 Structure written by MMmdl.
 51 53  0  0  0  0  0  0  0  0  1 V2000
  154.2726  139.9316  161.5276 C   0  0  0  0  0  0  0  0  0  0  0  0
  154.3356  141.3957  161.0752 C   0  0  0  0  0  0  0  0  0  0  0  0
  153.3683  141.6638  160.0140 N   0  0  0  0  0  0  0  0  0  0  0  0
  153.1203  140.8869  158.9333 C   0  0  0  0  0  0  0  0  0  0  0  0
  153.6687  139.8166  158.6700 O   0  0  0  0  0  0  0  0  0  0  0  0
  152.1729  141.4984  158.1838 N   0  0  0  0  0  0  0  0  0  0  0  0
  151.6112  141.0104  156.9252 C   0  0  0  0  0  0  0  0  0  0  0  0
  150.5257  139.9409  157.1590 C   0  0  2  0  0  0  0  0  0  0  0  0
  151.0861  138.9124  157.9506 O   0  0  0  0  0  0  0  0  0  0  0  0
  150.0760  139.2992  155.8306 C   0  0  0  0  0  0  0  0  0  0  0  0
  148.8765  139.8795  155.2235 N   0  0  0  0  0  0  0  0  0  0  0  0
  148.4231  139.0720  154.0981 C   0  0  0  0  0  0  0  0  0  0  0  0
  147.1345  139.6302  153.4686 C   0  0  2  0  0  0  0  0  0  0  0  0
  146.7037  138.8316  152.2338 C   0  0  0  0  0  0  0  0  0  0  0  0
  147.3512  140.9819  153.0683 O   0  0  0  0  0  0  0  0  0  0  0  0
  147.8301  141.8520  154.0951 C   0  0  1  0  0  0  0  0  0  0  0  0
  146.7207  142.2182  155.0957 C   0  0  0  0  0  0  0  0  0  0  0  0
  149.0826  141.2529  154.7658 C   0  0  0  0  0  0  0  0  0  0  0  0
  151.8191  142.7115  158.7919 C   0  0  0  0  0  0  0  0  0  0  0  0
  150.9093  143.7110  158.4049 C   0  0  0  0  0  0  0  0  0  0  0  0
  150.7889  144.8387  159.2503 C   0  0  0  0  0  0  0  0  0  0  0  0
  151.5617  144.9445  160.4357 C   0  0  0  0  0  0  0  0  0  0  0  0
  152.4724  143.9254  160.8004 C   0  0  0  0  0  0  0  0  0  0  0  0
  152.5712  142.8152  159.9436 C   0  0  0  0  0  0  0  0  0  0  0  0
  154.9981  139.7386  162.3180 H   0  0  0  0  0  0  0  0  0  0  0  0
  154.4920  139.2537  160.7022 H   0  0  0  0  0  0  0  0  0  0  0  0
  153.2848  139.6806  161.9147 H   0  0  0  0  0  0  0  0  0  0  0  0
  154.1464  142.0540  161.9243 H   0  0  0  0  0  0  0  0  0  0  0  0
  155.3395  141.6364  160.7250 H   0  0  0  0  0  0  0  0  0  0  0  0
  151.1737  141.8666  156.4090 H   0  0  0  0  0  0  0  0  0  0  0  0
  152.3945  140.6413  156.2620 H   0  0  0  0  0  0  0  0  0  0  0  0
  149.6791  140.3847  157.6812 H   0  0  0  0  0  0  0  0  0  0  0  0
  151.0314  139.1742  158.8573 H   0  0  0  0  0  0  0  0  0  0  0  0
  150.8949  139.3515  155.1114 H   0  0  0  0  0  0  0  0  0  0  0  0
  149.9115  138.2355  156.0103 H   0  0  0  0  0  0  0  0  0  0  0  0
  149.2073  139.0208  153.3410 H   0  0  0  0  0  0  0  0  0  0  0  0
  148.2430  138.0484  154.4290 H   0  0  0  0  0  0  0  0  0  0  0  0
  146.3266  139.5934  154.1999 H   0  0  0  0  0  0  0  0  0  0  0  0
  146.5189  137.7874  152.4866 H   0  0  0  0  0  0  0  0  0  0  0  0
  147.4712  138.8584  151.4599 H   0  0  0  0  0  0  0  0  0  0  0  0
  145.7862  139.2377  151.8075 H   0  0  0  0  0  0  0  0  0  0  0  0
  148.1271  142.7760  153.5982 H   0  0  0  0  0  0  0  0  0  0  0  0
  147.0711  142.9686  155.8047 H   0  0  0  0  0  0  0  0  0  0  0  0
  146.3884  141.3560  155.6735 H   0  0  0  0  0  0  0  0  0  0  0  0
  145.8532  142.6305  154.5803 H   0  0  0  0  0  0  0  0  0  0  0  0
  149.3760  141.8971  155.5932 H   0  0  0  0  0  0  0  0  0  0  0  0
  149.9077  141.2753  154.0522 H   0  0  0  0  0  0  0  0  0  0  0  0
  150.3277  143.6288  157.4989 H   0  0  0  0  0  0  0  0  0  0  0  0
  150.1015  145.6297  158.9886 H   0  0  0  0  0  0  0  0  0  0  0  0
  151.4553  145.8152  161.0659 H   0  0  0  0  0  0  0  0  0  0  0  0
  153.0666  144.0027  161.6988 H   0  0  0  0  0  0  0  0  0  0  0  0
  1  2  1  0  0  0  0
  1 25  1  0  0  0  0
  1 26  1  0  0  0  0
  1 27  1  0  0  0  0
  2  3  1  0  0  0  0
  2 28  1  0  0  0  0
  2 29  1  0  0  0  0
  3 24  1  0  0  0  0
  3  4  1  0  0  0  0
  4  5  2  0  0  0  0
  4  6  1  0  0  0  0
  6  7  1  0  0  0  0
  6 19  1  0  0  0  0
  7  8  1  0  0  0  0
  7 30  1  0  0  0  0
  7 31  1  0  0  0  0
  8  9  1  0  0  0  0
  8 10  1  0  0  0  0
  8 32  1  0  0  0  0
  9 33  1  0  0  0  0
 10 11  1  0  0  0  0
 10 34  1  0  0  0  0
 10 35  1  0  0  0  0
 11 18  1  0  0  0  0
 11 12  1  0  0  0  0
 12 13  1  0  0  0  0
 12 36  1  0  0  0  0
 12 37  1  0  0  0  0
 13 14  1  0  0  0  0
 13 15  1  0  0  0  0
 13 38  1  0  0  0  0
 14 39  1  0  0  0  0
 14 40  1  0  0  0  0
 14 41  1  0  0  0  0
 15 16  1  0  0  0  0
 16 17  1  0  0  0  0
 16 18  1  0  0  0  0
 16 42  1  0  0  0  0
 17 43  1  0  0  0  0
 17 44  1  0  0  0  0
 17 45  1  0  0  0  0
 18 46  1  0  0  0  0
 18 47  1  0  0  0  0
 19 24  2  0  0  0  0
 19 20  1  0  0  0  0
 20 21  2  0  0  0  0
 20 48  1  0  0  0  0
 21 22  1  0  0  0  0
 21 49  1  0  0  0  0
 22 23  2  0  0  0  0
 22 50  1  0  0  0  0
 23 24  1  0  0  0  0
 23 51  1  0  0  0  0
M  END
> <s_m_source_file>
AV-unprocessed.smi

> <i_m_source_file_index>
1570

> <i_lp_mmshare_version>
43012

> <i_f3d_flags>
0

> <s_epik_input>
W2NIXTFbY0hdW2NIXVtjSF1jKGMxMiluKFtDSDJdW0NIM10pYyg9TyluMltDSDJdW0NASF0oW09IXSlbQ0gyXU4zW0NIMl1bQ0BASF0oW0NIM10pT1tDQEBIXShbQ0gzXSlbQ0gyXTM=

> <s_epik_cmdline>
J2VwaWtfcHl0aG9uJywgJy1waCcsICc3LjAnLCAnLXRuJywgJzgnLCAnLW1hJywgJzIwMCcsICctbWV0YWxfYmluZGluZycsICctaW1hZScsICc8aW5maWxlLm1hZT4nLCAnLW9tYWUnLCAnPG91dGZpbGUubWFlPic=

> <r_epik_Ionization_Penalty>
0.214359

> <r_epik_Ionization_Penalty_Charging>
2.30976e-09

> <r_epik_Ionization_Penalty_Neutral>
0.214359

> <r_epik_State_Penalty>
0.204533

> <r_epik_Charging_Adjusted_Penalty>
0.204533

> <i_epik_Tot_Q>
0

> <i_epik_Tot_abs_Q>
0

> <r_epik_Metal_State_Penalty>
0.204533

> <b_epik_Metal_Only>
0

> <s_lp_Force_Field>
OPLS_2005

> <r_lp_Energy>
63.7902

> <b_lp_Chiralities_Consistent>
1

> <s_lp_Variant>
AV-unprocessed.smi:1570-3

> <Gold.Version>
5.8.1

> <Gold.Id.Protein>
6NUR|6NUR_protein|mol2

> <Gold.PLP.Fitness>
51.2152

> <Gold.PLP.PLP>
-50.1001

> <Gold.PLP.part.hbond>
-1.0000

> <Gold.PLP.part.metal>
0.0000

> <Gold.PLP.part.buried>
-4.3250

> <Gold.PLP.part.nonpolar>
-44.4319

> <Gold.PLP.part.repulsive>
0.8093

> <Gold.PLP.ligand.clash>
0.0000

> <Gold.PLP.ligand.torsion>
1.0157

> <Gold.PLP.Chemscore.Hbond>
1.0000

> <Gold.PLP.Chemscore.CHOScore>
0.0000

> <Gold.PLP.Chemscore.Metal>
0.0000

> <Gold.Chemscore.Hbonds>
donor molecule, donor type, donor heavy atom, donor atom, acceptor molecule, acceptor atom, score
      P1  H  7997  8009       L1     5  1.00

> <Gold.PLP.Chemscore.Internal.Correction>
0.1465

> <Gold.Rescore>
     Score         DG    S(hbond)    S(metal)    S(lipo)     H(rot)  DE(clash)    DE(int)     intcor
     17.30     -19.31       0.87        0.00     138.29       2.06       0.22       1.79       ----

> <Gold.Chemscore.Fitness>
17.3031

> <Gold.Chemscore.DG>
-19.3055

> <Gold.Chemscore.ZeroCoef>
-5.4800

> <Gold.Chemscore.Hbond>
0.8718

> <Gold.Chemscore.Metal>
0.0000

> <Gold.Chemscore.Lipo>
138.2944

> <Gold.Chemscore.Internal_Hbond>
0.0000

> <Gold.Chemscore.DEClash>
0.2172

> <Gold.Chemscore.DEInternal>
1.7852

> <Gold.Chemscore.Rot>
2.0574

> <Gold.Chemscore.Internal.Correction>
   9.000000E+99

> <Gold.Chemscore.Hbonds>
donor molecule, donor type, donor heavy atom, donor atom, acceptor molecule, acceptor atom, score
      P1  H  7997  8009       L1     5  0.58

> <Gold.Chemscore.Hbond.Weighted>
-2.9119

> <Gold.Chemscore.Metal.Weighted>
-0.0000

> <Gold.Chemscore.Lipo.Weighted>
-16.1804

> <Gold.Chemscore.Internal_Hbond.Weighted>
0.0000

> <Gold.Chemscore.DEClash.Weighted>
0.2172

> <Gold.Chemscore.DEInternal.Weighted>
1.7852

> <Gold.Chemscore.Rot.Weighted>
5.2669

> <Gold.Chemscore.Internal.Correction.Weighted>
   9.000000E+99

> <Gold.Protein.RotatedTorsions>
[ 6907 6896 6895 6894 ] final -132.70 input  -60.11 | X-H torsion
[ 7974 7965 7964 7962 ] final  171.69 input  175.53 | X-H torsion
[ 8008 7997 7996 7995 ] final  154.49 input   59.86 | X-H torsion
[ 10167 10162 10161 10158 ] final   88.89 input  -65.29 | X-H torsion
[ 10718 10713 10712 10709 ] final   57.26 input   66.30 | X-H torsion
[ 10763 10752 10751 10750 ] final  -34.31 input  -60.55 | X-H torsion
[ 11005 11000 10999 10996 ] final  -48.12 input  -57.11 | X-H torsion

> <Gold.Protein.ActiveResidues>
 VAL166  LYS551  ARG553  GLY616  TRP617  ASP618  TYR619  PRO620  LYS621  CYS622 
 ASP623  PHE694  ASN695  SER759  ASP760  ASP761  ALA762  ILE779  LEU786  VAL792 
 PHE793  MET794  SER795  GLU796  ALA797  LYS798  CYS799  TRP800  GLU811  SER814 

> <Gold.Protein.RotatedAtoms>
  150.9655  133.6400  159.2746 H   0  0  0  0  0  0  0  0  0  0  0  0  # atno 6907 bound_to 6896
  151.3707  135.0921  159.9474 H   0  0  0  0  0  0  0  0  0  0  0  0  # atno 6908 bound_to 6896
  152.5163  133.9210  159.7589 H   0  0  0  0  0  0  0  0  0  0  0  0  # atno 6909 bound_to 6896
  144.7288  139.9388  143.6428 H   0  0  0  0  0  0  0  0  0  0  0  0  # atno 7974 bound_to 7965
  156.2528  140.1965  156.6655 H   0  0  0  0  0  0  0  0  0  0  0  0  # atno 8008 bound_to 7997
  154.6432  140.0581  156.9896 H   0  0  0  0  0  0  0  0  0  0  0  0  # atno 8009 bound_to 7997
  155.1530  140.3253  155.4430 H   0  0  0  0  0  0  0  0  0  0  0  0  # atno 8010 bound_to 7997
  139.8628  144.6535  150.9039 H   0  0  0  0  0  0  0  0  0  0  0  0  # atno 10167 bound_to 10162
  157.5500  130.8758  149.8949 H   0  0  0  0  0  0  0  0  0  0  0  0  # atno 10718 bound_to 10713
  153.8446  135.6854  153.4799 H   0  0  0  0  0  0  0  0  0  0  0  0  # atno 10763 bound_to 10752
  153.1433  135.4648  154.9527 H   0  0  0  0  0  0  0  0  0  0  0  0  # atno 10764 bound_to 10752
  154.7830  135.3275  154.7896 H   0  0  0  0  0  0  0  0  0  0  0  0  # atno 10765 bound_to 10752
  141.0682  133.6687  156.3396 H   0  0  0  0  0  0  0  0  0  0  0  0  # atno 11005 bound_to 11000
  146.0801  139.3788  143.0470 LP  0  0  0  0  0  0  0  0  0  0  0  0  # atno 17320 bound_to 7965
  145.7853  140.9838  143.1078 LP  0  0  0  0  0  0  0  0  0  0  0  0  # atno 17321 bound_to 7965
  140.7772  143.3730  151.1614 LP  0  0  0  0  0  0  0  0  0  0  0  0  # atno 17342 bound_to 10162
  139.7358  143.9001  152.3034 LP  0  0  0  0  0  0  0  0  0  0  0  0  # atno 17343 bound_to 10162
  156.0568  130.3707  150.1072 LP  0  0  0  0  0  0  0  0  0  0  0  0  # atno 17370 bound_to 10713
  156.9246  130.9694  151.3543 LP  0  0  0  0  0  0  0  0  0  0  0  0  # atno 17371 bound_to 10713
  140.5729  134.5822  157.5462 LP  0  0  0  0  0  0  0  0  0  0  0  0  # atno 17394 bound_to 11000
  139.9497  134.7639  156.0477 LP  0  0  0  0  0  0  0  0  0  0  0  0  # atno 17395 bound_to 11000

$$$$
