AV-unprocessed.smi:1067|AV-procd|sdf|4672|dock6
  -GOLD-   22720 3183D 1   1.00000     0.00000
 Structure written by MMmdl.
 50 52  0  0  0  0  0  0  0  0  1 V2000
  146.2233  136.5264  151.1043 N   0  0  0  0  0  0  0  0  0  0  0  0
  145.2450  135.6240  151.2287 C   0  0  0  0  0  0  0  0  0  0  0  0
  144.1693  135.7793  150.6524 O   0  0  0  0  0  0  0  0  0  0  0  0
  145.5022  134.3635  152.1039 C   0  0  0  0  0  0  0  0  0  0  0  0
  145.9137  134.8166  153.5344 C   0  0  0  0  0  0  0  0  0  0  0  0
  147.0897  135.6879  153.5726 N   0  0  0  0  0  0  0  0  0  0  0  0
  147.3646  136.5859  154.5289 C   0  0  0  0  0  0  0  0  0  0  0  0
  146.6320  136.7956  155.4956 O   0  0  0  0  0  0  0  0  0  0  0  0
  148.5239  137.2188  154.2804 N   0  0  0  0  0  0  0  0  0  0  0  0
  149.1572  138.2320  155.0491 C   0  0  0  0  0  0  0  0  0  0  0  0
  149.0671  138.3364  156.4565 C   0  0  0  0  0  0  0  0  0  0  0  0
  149.7510  139.3803  157.1083 C   0  0  0  0  0  0  0  0  0  0  0  0
  150.5173  140.2886  156.3403 C   0  0  0  0  0  0  0  0  0  0  0  0
  151.2058  141.3541  156.9527 N   0  0  0  0  0  0  0  0  0  0  0  0
  151.6088  141.3117  158.3494 C   0  0  0  0  0  0  0  0  0  0  0  0
  152.2260  142.6845  158.6123 C   0  0  0  0  0  0  0  0  0  0  0  0
  151.4242  143.6071  157.6938 C   0  0  0  0  0  0  0  0  0  0  0  0
  151.0788  142.7276  156.4861 C   0  0  0  0  0  0  0  0  0  0  0  0
  150.6121  140.1789  154.9937 N   0  0  0  0  0  0  0  0  0  0  0  0
  149.9561  139.1757  154.3740 C   0  0  0  0  0  0  0  0  0  0  0  0
  144.2482  133.4517  152.2123 C   0  0  0  0  0  0  0  0  0  0  0  0
  143.8970  132.7600  150.8802 C   0  0  0  0  0  0  0  0  0  0  0  0
  145.0064  131.9940  150.4282 O   0  0  0  0  0  0  0  0  0  0  0  0
  146.1606  132.7863  150.1771 C   0  0  0  0  0  0  0  0  0  0  0  0
  146.6150  133.4789  151.4764 C   0  0  0  0  0  0  0  0  0  0  0  0
  146.0735  137.3537  150.5447 H   0  0  0  0  0  0  0  0  0  0  0  0
  147.1059  136.3824  151.5729 H   0  0  0  0  0  0  0  0  0  0  0  0
  145.0913  135.3652  153.9954 H   0  0  0  0  0  0  0  0  0  0  0  0
  146.0702  133.9463  154.1740 H   0  0  0  0  0  0  0  0  0  0  0  0
  147.7528  135.5838  152.8182 H   0  0  0  0  0  0  0  0  0  0  0  0
  148.9757  136.9927  153.4064 H   0  0  0  0  0  0  0  0  0  0  0  0
  148.4991  137.6359  157.0487 H   0  0  0  0  0  0  0  0  0  0  0  0
  149.6740  139.4711  158.1813 H   0  0  0  0  0  0  0  0  0  0  0  0
  150.7297  141.1571  158.9765 H   0  0  0  0  0  0  0  0  0  0  0  0
  152.3184  140.5064  158.5419 H   0  0  0  0  0  0  0  0  0  0  0  0
  152.1796  142.9774  159.6614 H   0  0  0  0  0  0  0  0  0  0  0  0
  153.2735  142.6827  158.3073 H   0  0  0  0  0  0  0  0  0  0  0  0
  150.5059  143.9116  158.1977 H   0  0  0  0  0  0  0  0  0  0  0  0
  151.9690  144.5099  157.4170 H   0  0  0  0  0  0  0  0  0  0  0  0
  151.7870  142.8904  155.6731 H   0  0  0  0  0  0  0  0  0  0  0  0
  150.0758  142.9462  156.1181 H   0  0  0  0  0  0  0  0  0  0  0  0
  150.0677  139.1321  153.3004 H   0  0  0  0  0  0  0  0  0  0  0  0
  144.4336  132.6741  152.9550 H   0  0  0  0  0  0  0  0  0  0  0  0
  143.3848  134.0023  152.5878 H   0  0  0  0  0  0  0  0  0  0  0  0
  143.0486  132.0904  151.0222 H   0  0  0  0  0  0  0  0  0  0  0  0
  143.6023  133.4802  150.1160 H   0  0  0  0  0  0  0  0  0  0  0  0
  146.9537  132.1363  149.8069 H   0  0  0  0  0  0  0  0  0  0  0  0
  145.9554  133.5105  149.3876 H   0  0  0  0  0  0  0  0  0  0  0  0
  147.5188  134.0563  151.2781 H   0  0  0  0  0  0  0  0  0  0  0  0
  146.9114  132.7106  152.1919 H   0  0  0  0  0  0  0  0  0  0  0  0
  1  2  1  0  0  0  0
  1 26  1  0  0  0  0
  1 27  1  0  0  0  0
  2  3  2  0  0  0  0
  2  4  1  0  0  0  0
  4 25  1  0  0  0  0
  4  5  1  0  0  0  0
  4 21  1  0  0  0  0
  5  6  1  0  0  0  0
  5 28  1  0  0  0  0
  5 29  1  0  0  0  0
  6  7  1  0  0  0  0
  6 30  1  0  0  0  0
  7  8  2  0  0  0  0
  7  9  1  0  0  0  0
  9 10  1  0  0  0  0
  9 31  1  0  0  0  0
 10 20  1  0  0  0  0
 10 11  2  0  0  0  0
 11 12  1  0  0  0  0
 11 32  1  0  0  0  0
 12 13  2  0  0  0  0
 12 33  1  0  0  0  0
 13 14  1  0  0  0  0
 13 19  1  0  0  0  0
 14 18  1  0  0  0  0
 14 15  1  0  0  0  0
 15 16  1  0  0  0  0
 15 34  1  0  0  0  0
 15 35  1  0  0  0  0
 16 17  1  0  0  0  0
 16 36  1  0  0  0  0
 16 37  1  0  0  0  0
 17 18  1  0  0  0  0
 17 38  1  0  0  0  0
 17 39  1  0  0  0  0
 18 40  1  0  0  0  0
 18 41  1  0  0  0  0
 19 20  2  0  0  0  0
 20 42  1  0  0  0  0
 21 22  1  0  0  0  0
 21 43  1  0  0  0  0
 21 44  1  0  0  0  0
 22 23  1  0  0  0  0
 22 45  1  0  0  0  0
 22 46  1  0  0  0  0
 23 24  1  0  0  0  0
 24 25  1  0  0  0  0
 24 47  1  0  0  0  0
 24 48  1  0  0  0  0
 25 49  1  0  0  0  0
 25 50  1  0  0  0  0
M  END
> <s_m_source_file>
AV-unprocessed.smi

> <i_m_source_file_index>
1067

> <i_lp_mmshare_version>
43012

> <i_f3d_flags>
0

> <s_epik_input>
W0NIMl0xW0NIMl1PW0NIMl1bQ0gyXUMxKEMoPU8pW05IMl0pW0NIMl1bTkhdQyg9TylbTkhdYzJbY0hdW2NIXWMobltjSF0yKU4zW0NIMl1bQ0gyXVtDSDJdW0NIMl0z

> <s_epik_cmdline>
J2VwaWtfcHl0aG9uJywgJy1waCcsICc3LjAnLCAnLXRuJywgJzgnLCAnLW1hJywgJzIwMCcsICctbWV0YWxfYmluZGluZycsICctaW1hZScsICc8aW5maWxlLm1hZT4nLCAnLW9tYWUnLCAnPG91dGZpbGUubWFlPic=

> <r_lp_tautomer_probability>
1

> <r_epik_Ionization_Penalty>
0.0944962

> <r_epik_Ionization_Penalty_Charging>
0

> <r_epik_Ionization_Penalty_Neutral>
0.0944962

> <r_epik_State_Penalty>
0.0841646

> <r_epik_Charging_Adjusted_Penalty>
0.0841646

> <i_epik_Tot_Q>
0

> <i_epik_Tot_abs_Q>
0

> <r_epik_Metal_State_Penalty>
0.0725577

> <b_epik_Metal_Only>
0

> <s_lp_Force_Field>
OPLS_2005

> <r_lp_Energy>
34.2759

> <b_lp_Chiralities_Consistent>
1

> <s_lp_Variant>
AV-unprocessed.smi:1067-1

> <Gold.Version>
5.8.1

> <Gold.Id.Protein>
6NUR|6NUR_protein|mol2

> <Gold.PLP.Fitness>
49.9911

> <Gold.PLP.PLP>
-36.8200

> <Gold.PLP.part.hbond>
-4.0000

> <Gold.PLP.part.metal>
0.0000

> <Gold.PLP.part.buried>
-5.5677

> <Gold.PLP.part.nonpolar>
-28.7315

> <Gold.PLP.part.repulsive>
1.2129

> <Gold.PLP.ligand.clash>
0.0000

> <Gold.PLP.ligand.torsion>
1.0067

> <Gold.PLP.Chemscore.Hbond>
4.0000

> <Gold.PLP.Chemscore.CHOScore>
1.0000

> <Gold.PLP.Chemscore.Metal>
0.0000

> <Gold.Chemscore.Hbonds>
donor molecule, donor type, donor heavy atom, donor atom, acceptor molecule, acceptor atom, score
      L1  H     1    27       P1  7948  1.00
      L1  H     6    30       P1  7948  1.00
      L1  H     9    31       P1  7948  1.00
      P1  H  7989  7998       L1    19  1.00
      L1  C    20    42       P1  7957  1.00

> <Gold.PLP.Chemscore.Internal.Correction>
0.1845

> <Gold.Rescore>
     Score         DG    S(hbond)    S(metal)    S(lipo)     H(rot)  DE(clash)    DE(int)     intcor
     18.39     -22.68       3.43        0.00      88.62       1.81       0.37       3.92       ----

> <Gold.Chemscore.Fitness>
18.3871

> <Gold.Chemscore.DG>
-22.6768

> <Gold.Chemscore.ZeroCoef>
-5.4800

> <Gold.Chemscore.Hbond>
3.4298

> <Gold.Chemscore.Metal>
0.0000

> <Gold.Chemscore.Lipo>
88.6183

> <Gold.Chemscore.Internal_Hbond>
0.0000

> <Gold.Chemscore.DEClash>
0.3731

> <Gold.Chemscore.DEInternal>
3.9166

> <Gold.Chemscore.Rot>
1.8075

> <Gold.Chemscore.Internal.Correction>
   9.000000E+99

> <Gold.Chemscore.Hbonds>
donor molecule, donor type, donor heavy atom, donor atom, acceptor molecule, acceptor atom, score
      L1  H     1    27       P1  7948  0.99
      L1  H     6    30       P1  7948  0.95
      L1  H     9    31       P1  7948  0.96
      P1  H  7989  7998       L1    19  0.25

> <Gold.Chemscore.Hbond.Weighted>
-11.4557

> <Gold.Chemscore.Metal.Weighted>
-0.0000

> <Gold.Chemscore.Lipo.Weighted>
-10.3683

> <Gold.Chemscore.Internal_Hbond.Weighted>
0.0000

> <Gold.Chemscore.DEClash.Weighted>
0.3731

> <Gold.Chemscore.DEInternal.Weighted>
3.9166

> <Gold.Chemscore.Rot.Weighted>
4.6272

> <Gold.Chemscore.Internal.Correction.Weighted>
   9.000000E+99

> <Gold.Protein.RotatedTorsions>
[ 6907 6896 6895 6894 ] final   23.50 input  -60.11 | X-H torsion
[ 7974 7965 7964 7962 ] final  -69.68 input  175.53 | X-H torsion
[ 8008 7997 7996 7995 ] final -126.52 input   59.86 | X-H torsion
[ 10167 10162 10161 10158 ] final    1.03 input  -65.29 | X-H torsion
[ 10718 10713 10712 10709 ] final -170.26 input   66.30 | X-H torsion
[ 10763 10752 10751 10750 ] final  -90.96 input  -60.55 | X-H torsion
[ 11005 11000 10999 10996 ] final -123.94 input  -57.11 | X-H torsion

> <Gold.Protein.ActiveResidues>
 VAL166  LYS551  ARG553  GLY616  TRP617  ASP618  TYR619  PRO620  LYS621  CYS622 
 ASP623  PHE694  ASN695  SER759  ASP760  ASP761  ALA762  ILE779  LEU786  VAL792 
 PHE793  MET794  SER795  GLU796  ALA797  LYS798  CYS799  TRP800  GLU811  SER814 

> <Gold.Protein.RotatedAtoms>
  151.9433  135.0203  160.0537 H   0  0  0  0  0  0  0  0  0  0  0  0  # atno 6907 bound_to 6896
  152.2017  133.4841  159.5070 H   0  0  0  0  0  0  0  0  0  0  0  0  # atno 6908 bound_to 6896
  150.6956  134.1499  159.4179 H   0  0  0  0  0  0  0  0  0  0  0  0  # atno 6909 bound_to 6896
  145.7006  140.9118  143.0733 H   0  0  0  0  0  0  0  0  0  0  0  0  # atno 7974 bound_to 7965
  155.2311  140.0425  157.2962 H   0  0  0  0  0  0  0  0  0  0  0  0  # atno 8008 bound_to 7997
  154.5888  140.2421  155.7920 H   0  0  0  0  0  0  0  0  0  0  0  0  # atno 8009 bound_to 7997
  156.2244  140.2959  156.0040 H   0  0  0  0  0  0  0  0  0  0  0  0  # atno 8010 bound_to 7997
  140.6701  143.7071  150.7906 H   0  0  0  0  0  0  0  0  0  0  0  0  # atno 10167 bound_to 10162
  156.7237  130.9279  151.3099 H   0  0  0  0  0  0  0  0  0  0  0  0  # atno 10718 bound_to 10713
  154.6711  135.5285  153.8140 H   0  0  0  0  0  0  0  0  0  0  0  0  # atno 10763 bound_to 10752
  153.0502  135.6529  154.0723 H   0  0  0  0  0  0  0  0  0  0  0  0  # atno 10764 bound_to 10752
  154.0621  135.2961  155.3303 H   0  0  0  0  0  0  0  0  0  0  0  0  # atno 10765 bound_to 10752
  140.9880  134.0579  157.3688 H   0  0  0  0  0  0  0  0  0  0  0  0  # atno 11005 bound_to 11000
  144.6969  139.8943  143.7455 LP  0  0  0  0  0  0  0  0  0  0  0  0  # atno 17320 bound_to 7965
  146.0801  139.3789  143.0470 LP  0  0  0  0  0  0  0  0  0  0  0  0  # atno 17321 bound_to 7965
  140.0755  143.5020  152.2558 LP  0  0  0  0  0  0  0  0  0  0  0  0  # atno 17342 bound_to 10162
  139.5966  144.7569  151.3271 LP  0  0  0  0  0  0  0  0  0  0  0  0  # atno 17343 bound_to 10162
  157.6888  130.9212  150.0457 LP  0  0  0  0  0  0  0  0  0  0  0  0  # atno 17370 bound_to 10713
  156.1577  130.3643  149.9345 LP  0  0  0  0  0  0  0  0  0  0  0  0  # atno 17371 bound_to 10713
  139.8979  135.0152  156.7124 LP  0  0  0  0  0  0  0  0  0  0  0  0  # atno 17394 bound_to 11000
  140.7084  133.9245  155.8068 LP  0  0  0  0  0  0  0  0  0  0  0  0  # atno 17395 bound_to 11000

$$$$
