AV-unprocessed.smi:1251|AV-procd|sdf|5261|dock9
  -GOLD-   22720 4373D 1   1.00000     0.00000
 Structure written by MMmdl.
 38 39  0  0  0  0  0  0  0  0  2 V2000
  146.5789  139.7437  154.7944 C   0  0  0  0  0  0  0  0  0  0  0  0
  147.5688  140.4166  153.8371 C   0  0  0  0  0  0  0  0  0  0  0  0
  148.4745  141.4338  154.5453 C   0  0  0  0  0  0  0  0  0  0  0  0
  149.7147  140.8116  155.0943 C   0  0  0  0  0  0  0  0  0  0  0  0
  150.4143  139.8850  154.4345 N   0  0  0  0  0  0  0  0  0  0  0  0
  151.5104  139.4427  155.1607 N   0  0  0  0  0  0  0  0  0  0  0  0
  151.6109  140.0212  156.3657 C   0  0  0  0  0  0  0  0  0  0  0  0
  152.6044  139.7345  157.2230 N   0  5  0  0  0  0  0  0  0  0  0  0
  152.4975  140.0864  158.5246 C   0  0  0  0  0  0  0  0  0  0  0  0
  151.4494  140.2761  159.1462 O   0  0  0  0  0  0  0  0  0  0  0  0
  153.6792  140.2261  159.1424 N   0  0  0  0  0  0  0  0  0  0  0  0
  153.8877  140.6050  160.5383 C   0  0  1  0  0  0  0  0  0  0  0  0
  155.3140  140.2193  160.9684 C   0  0  0  0  0  0  0  0  0  0  0  0
  153.6179  142.1139  160.6923 C   0  0  2  0  0  0  0  0  0  0  0  0
  153.3076  142.5709  162.1174 C   0  0  0  0  0  0  0  0  0  0  0  0
  152.5382  143.8645  161.9095 C   0  0  0  0  0  0  0  0  0  0  0  0
  152.0404  143.7718  160.4642 C   0  0  0  0  0  0  0  0  0  0  0  0
  152.4284  142.4822  160.0099 O   0  0  0  0  0  0  0  0  0  0  0  0
  150.3360  141.1946  156.6908 S   0  0  0  0  0  0  0  0  0  0  0  0
  145.9450  139.0345  154.2615 H   0  0  0  0  0  0  0  0  0  0  0  0
  145.9297  140.4793  155.2700 H   0  0  0  0  0  0  0  0  0  0  0  0
  147.1010  139.1981  155.5808 H   0  0  0  0  0  0  0  0  0  0  0  0
  148.1821  139.6522  153.3588 H   0  0  0  0  0  0  0  0  0  0  0  0
  147.0157  140.9133  153.0388 H   0  0  0  0  0  0  0  0  0  0  0  0
  148.7575  142.2298  153.8553 H   0  0  0  0  0  0  0  0  0  0  0  0
  147.9344  141.9093  155.3645 H   0  0  0  0  0  0  0  0  0  0  0  0
  154.5080  140.0642  158.5896 H   0  0  0  0  0  0  0  0  0  0  0  0
  153.1765  140.0667  161.1674 H   0  0  0  0  0  0  0  0  0  0  0  0
  155.4861  140.4430  162.0210 H   0  0  0  0  0  0  0  0  0  0  0  0
  156.0627  140.7567  160.3856 H   0  0  0  0  0  0  0  0  0  0  0  0
  155.4916  139.1521  160.8326 H   0  0  0  0  0  0  0  0  0  0  0  0
  154.4507  142.6946  160.2901 H   0  0  0  0  0  0  0  0  0  0  0  0
  152.6678  141.8410  162.6155 H   0  0  0  0  0  0  0  0  0  0  0  0
  154.2033  142.7059  162.7242 H   0  0  0  0  0  0  0  0  0  0  0  0
  151.7184  143.9593  162.6221 H   0  0  0  0  0  0  0  0  0  0  0  0
  153.1906  144.7302  162.0297 H   0  0  0  0  0  0  0  0  0  0  0  0
  150.9604  143.8977  160.3863 H   0  0  0  0  0  0  0  0  0  0  0  0
  152.5173  144.5320  159.8444 H   0  0  0  0  0  0  0  0  0  0  0  0
  1  2  1  0  0  0  0
  1 20  1  0  0  0  0
  1 21  1  0  0  0  0
  1 22  1  0  0  0  0
  2  3  1  0  0  0  0
  2 23  1  0  0  0  0
  2 24  1  0  0  0  0
  3  4  1  0  0  0  0
  3 25  1  0  0  0  0
  3 26  1  0  0  0  0
  4 19  1  0  0  0  0
  4  5  2  0  0  0  0
  5  6  1  0  0  0  0
  6  7  2  0  0  0  0
  7  8  1  0  0  0  0
  7 19  1  0  0  0  0
  8  9  1  0  0  0  0
  9 10  2  0  0  0  0
  9 11  1  0  0  0  0
 11 12  1  0  0  0  0
 11 27  1  0  0  0  0
 12 13  1  0  0  0  0
 12 14  1  0  0  0  0
 12 28  1  0  0  0  0
 13 29  1  0  0  0  0
 13 30  1  0  0  0  0
 13 31  1  0  0  0  0
 14 18  1  0  0  0  0
 14 15  1  0  0  0  0
 14 32  1  0  0  0  0
 15 16  1  0  0  0  0
 15 33  1  0  0  0  0
 15 34  1  0  0  0  0
 16 17  1  0  0  0  0
 16 35  1  0  0  0  0
 16 36  1  0  0  0  0
 17 18  1  0  0  0  0
 17 37  1  0  0  0  0
 17 38  1  0  0  0  0
M  CHG  1   8  -1
M  END
> <s_m_source_file>
AV-unprocessed.smi

> <i_m_source_file_index>
1251

> <i_lp_mmshare_version>
43012

> <i_f3d_flags>
0

> <s_epik_input>
W0NIM11bQ0gyXVtDSDJdYzFubmMoczEpW05IXUMoPU8pW05IXVtDQEhdKFtDSDNdKVtDQEBIXTJbQ0gyXVtDSDJdW0NIMl1PMg==

> <s_epik_cmdline>
J2VwaWtfcHl0aG9uJywgJy1waCcsICc3LjAnLCAnLXRuJywgJzgnLCAnLW1hJywgJzIwMCcsICctbWV0YWxfYmluZGluZycsICctaW1hZScsICc8aW5maWxlLm1hZT4nLCAnLW9tYWUnLCAnPG91dGZpbGUubWFlPic=

> <r_lp_tautomer_probability>
1

> <r_epik_Ionization_Penalty>
4.22551

> <r_epik_Ionization_Penalty_Charging>
4.21437

> <r_epik_Ionization_Penalty_Neutral>
0.0111434

> <r_epik_State_Penalty>
4.21389

> <r_epik_Charging_Adjusted_Penalty>
8.42826

> <i_epik_Tot_Q>
-1

> <i_epik_Tot_abs_Q>
1

> <r_epik_Metal_State_Penalty>
0.69377

> <b_epik_Metal_Only>
1

> <s_lp_Force_Field>
OPLS_2005

> <r_lp_Energy>
12.2708

> <b_lp_Chiralities_Consistent>
1

> <s_lp_Variant>
AV-unprocessed.smi:1251-6

> <Gold.Version>
5.8.1

> <Gold.Id.Protein>
6NUR|6NUR_protein|mol2

> <Gold.PLP.Fitness>
46.7272

> <Gold.PLP.PLP>
-41.3890

> <Gold.PLP.part.hbond>
-2.8937

> <Gold.PLP.part.metal>
0.0000

> <Gold.PLP.part.buried>
-4.2825

> <Gold.PLP.part.nonpolar>
-34.0274

> <Gold.PLP.part.repulsive>
0.2315

> <Gold.PLP.ligand.clash>
0.0000

> <Gold.PLP.ligand.torsion>
1.1037

> <Gold.PLP.Chemscore.Hbond>
2.5000

> <Gold.PLP.Chemscore.CHOScore>
0.0000

> <Gold.PLP.Chemscore.Metal>
0.0000

> <Gold.Chemscore.Hbonds>
donor molecule, donor type, donor heavy atom, donor atom, acceptor molecule, acceptor atom, score
      P1  H  7989  7998       L1     5  0.30
      P1  H  7997  8008       L1     8  2.00

> <Gold.PLP.Chemscore.Internal.Correction>
0.0456

> <Gold.Rescore>
     Score         DG    S(hbond)    S(metal)    S(lipo)     H(rot)  DE(clash)    DE(int)     intcor
      9.90     -15.70       0.90        0.00      95.48       1.55       0.51       5.29       ----

> <Gold.Chemscore.Fitness>
9.8997

> <Gold.Chemscore.DG>
-15.6955

> <Gold.Chemscore.ZeroCoef>
-5.4800

> <Gold.Chemscore.Hbond>
0.8997

> <Gold.Chemscore.Metal>
0.0000

> <Gold.Chemscore.Lipo>
95.4751

> <Gold.Chemscore.Internal_Hbond>
0.0000

> <Gold.Chemscore.DEClash>
0.5053

> <Gold.Chemscore.DEInternal>
5.2905

> <Gold.Chemscore.Rot>
1.5469

> <Gold.Chemscore.Internal.Correction>
   9.000000E+99

> <Gold.Chemscore.Hbonds>
donor molecule, donor type, donor heavy atom, donor atom, acceptor molecule, acceptor atom, score
      P1  H  7997  8008       L1     8  0.62

> <Gold.Chemscore.Hbond.Weighted>
-3.0049

> <Gold.Chemscore.Metal.Weighted>
-0.0000

> <Gold.Chemscore.Lipo.Weighted>
-11.1706

> <Gold.Chemscore.Internal_Hbond.Weighted>
0.0000

> <Gold.Chemscore.DEClash.Weighted>
0.5053

> <Gold.Chemscore.DEInternal.Weighted>
5.2905

> <Gold.Chemscore.Rot.Weighted>
3.9600

> <Gold.Chemscore.Internal.Correction.Weighted>
   9.000000E+99

> <Gold.Protein.RotatedTorsions>
[ 6907 6896 6895 6894 ] final -129.72 input  -60.11 | X-H torsion
[ 7974 7965 7964 7962 ] final -126.46 input  175.53 | X-H torsion
[ 8008 7997 7996 7995 ] final  -60.47 input   59.86 | X-H torsion
[ 10167 10162 10161 10158 ] final  127.10 input  -65.29 | X-H torsion
[ 10718 10713 10712 10709 ] final   -2.65 input   66.30 | X-H torsion
[ 10763 10752 10751 10750 ] final  -36.29 input  -60.55 | X-H torsion
[ 11005 11000 10999 10996 ] final  -65.28 input  -57.11 | X-H torsion

> <Gold.Protein.ActiveResidues>
 VAL166  LYS551  ARG553  GLY616  TRP617  ASP618  TYR619  PRO620  LYS621  CYS622 
 ASP623  PHE694  ASN695  SER759  ASP760  ASP761  ALA762  ILE779  LEU786  VAL792 
 PHE793  MET794  SER795  GLU796  ALA797  LYS798  CYS799  TRP800  GLU811  SER814 

> <Gold.Protein.RotatedAtoms>
  150.9318  133.6758  159.2808 H   0  0  0  0  0  0  0  0  0  0  0  0  # atno 6907 bound_to 6896
  151.4177  135.0992  159.9614 H   0  0  0  0  0  0  0  0  0  0  0  0  # atno 6908 bound_to 6896
  152.5029  133.8777  159.7385 H   0  0  0  0  0  0  0  0  0  0  0  0  # atno 6909 bound_to 6896
  144.9871  140.7696  143.4577 H   0  0  0  0  0  0  0  0  0  0  0  0  # atno 7974 bound_to 7965
  154.4400  140.1039  156.6279 H   0  0  0  0  0  0  0  0  0  0  0  0  # atno 8008 bound_to 7997
  155.5637  140.3488  155.4479 H   0  0  0  0  0  0  0  0  0  0  0  0  # atno 8009 bound_to 7997
  156.0441  140.1289  157.0113 H   0  0  0  0  0  0  0  0  0  0  0  0  # atno 8010 bound_to 7997
  139.5596  144.6872  151.4082 H   0  0  0  0  0  0  0  0  0  0  0  0  # atno 10167 bound_to 10162
  156.7876  130.5351  149.5741 H   0  0  0  0  0  0  0  0  0  0  0  0  # atno 10718 bound_to 10713
  153.8772  135.6825  153.4769 H   0  0  0  0  0  0  0  0  0  0  0  0  # atno 10763 bound_to 10752
  153.1254  135.4721  154.9261 H   0  0  0  0  0  0  0  0  0  0  0  0  # atno 10764 bound_to 10752
  154.7686  135.3231  154.8187 H   0  0  0  0  0  0  0  0  0  0  0  0  # atno 10765 bound_to 10752
  141.1450  133.6679  156.5962 H   0  0  0  0  0  0  0  0  0  0  0  0  # atno 11005 bound_to 11000
  145.2338  139.2103  143.5028 LP  0  0  0  0  0  0  0  0  0  0  0  0  # atno 17320 bound_to 7965
  146.3422  140.2221  142.8591 LP  0  0  0  0  0  0  0  0  0  0  0  0  # atno 17321 bound_to 7965
  140.6874  143.7943  150.7205 LP  0  0  0  0  0  0  0  0  0  0  0  0  # atno 17342 bound_to 10162
  140.1414  143.4437  152.2191 LP  0  0  0  0  0  0  0  0  0  0  0  0  # atno 17343 bound_to 10162
  156.1179  130.6088  151.0148 LP  0  0  0  0  0  0  0  0  0  0  0  0  # atno 17370 bound_to 10713
  157.6616  131.0880  150.7825 LP  0  0  0  0  0  0  0  0  0  0  0  0  # atno 17371 bound_to 10713
  140.3724  134.7594  157.4607 LP  0  0  0  0  0  0  0  0  0  0  0  0  # atno 17394 bound_to 11000
  140.0700  134.5876  155.8652 LP  0  0  0  0  0  0  0  0  0  0  0  0  # atno 17395 bound_to 11000

$$$$
