AV-unprocessed.smi:3136|AV-procd|sdf|11950|dock7
  -GOLD-   2272017343D 1   1.00000     0.00000
 Structure written by MMmdl.
 40 40  0  0  0  0  0  0  0  0  2 V2000
  148.0028  144.9148  161.5673 C   0  0  0  0  0  0  0  0  0  0  0  0
  146.7544  145.1393  160.7037 C   0  0  0  0  0  0  0  0  0  0  0  0
  146.8619  144.4581  159.4187 N   0  0  0  0  0  0  0  0  0  0  0  0
  146.8193  143.1282  159.2448 C   0  0  0  0  0  0  0  0  0  0  0  0
  146.6902  142.3296  160.1730 O   0  0  0  0  0  0  0  0  0  0  0  0
  146.9412  142.6290  157.8020 C   0  0  0  0  0  0  0  0  0  0  0  0
  148.1399  141.6879  157.5978 C   0  0  0  0  0  0  0  0  0  0  0  0
  149.0579  142.2148  156.5667 N   0  3  0  0  0  0  0  0  0  0  0  0
  150.4481  141.7060  156.6421 C   0  0  2  0  0  0  0  0  0  0  0  0
  150.5117  140.3628  155.8962 C   0  0  0  0  0  0  0  0  0  0  0  0
  150.9131  141.5916  158.1203 C   0  0  1  0  0  0  0  0  0  0  0  0
  152.0235  140.5448  158.3341 C   0  0  0  0  0  0  0  0  0  0  0  0
  151.3436  142.8843  158.6424 N   0  0  0  0  0  0  0  0  0  0  0  0
  151.3537  144.1153  158.0149 C   0  0  0  0  0  0  0  0  0  0  0  0
  151.7948  145.0341  158.9233 C   0  0  0  0  0  0  0  0  0  0  0  0
  152.0250  144.2653  160.0973 C   0  0  0  0  0  0  0  0  0  0  0  0
  151.7462  142.9829  159.9290 N   0  0  0  0  0  0  0  0  0  0  0  0
  147.8952  145.4027  162.5361 H   0  0  0  0  0  0  0  0  0  0  0  0
  148.8953  145.3211  161.0907 H   0  0  0  0  0  0  0  0  0  0  0  0
  148.1719  143.8527  161.7478 H   0  0  0  0  0  0  0  0  0  0  0  0
  145.8759  144.7531  161.2209 H   0  0  0  0  0  0  0  0  0  0  0  0
  146.5824  146.2065  160.5546 H   0  0  0  0  0  0  0  0  0  0  0  0
  146.9735  145.0424  158.6027 H   0  0  0  0  0  0  0  0  0  0  0  0
  146.0207  142.1073  157.5337 H   0  0  0  0  0  0  0  0  0  0  0  0
  147.0206  143.4903  157.1377 H   0  0  0  0  0  0  0  0  0  0  0  0
  148.6907  141.5638  158.5314 H   0  0  0  0  0  0  0  0  0  0  0  0
  147.7872  140.7003  157.3000 H   0  0  0  0  0  0  0  0  0  0  0  0
  148.6890  141.9889  155.6536 H   0  0  0  0  0  0  0  0  0  0  0  0
  151.1081  142.3986  156.1162 H   0  0  0  0  0  0  0  0  0  0  0  0
  151.5355  140.0013  155.8014 H   0  0  0  0  0  0  0  0  0  0  0  0
  150.1168  140.4591  154.8841 H   0  0  0  0  0  0  0  0  0  0  0  0
  149.9300  139.5949  156.4075 H   0  0  0  0  0  0  0  0  0  0  0  0
  150.0585  141.2694  158.7187 H   0  0  0  0  0  0  0  0  0  0  0  0
  151.6663  139.5345  158.1374 H   0  0  0  0  0  0  0  0  0  0  0  0
  152.3795  140.5576  159.3649 H   0  0  0  0  0  0  0  0  0  0  0  0
  152.8794  140.7277  157.6841 H   0  0  0  0  0  0  0  0  0  0  0  0
  151.0460  144.2370  156.9867 H   0  0  0  0  0  0  0  0  0  0  0  0
  151.9290  146.0953  158.7732 H   0  0  0  0  0  0  0  0  0  0  0  0
  152.3785  144.5995  161.0616 H   0  0  0  0  0  0  0  0  0  0  0  0
  149.0836  143.2198  156.6622 H   0  0  0  0  0  0  0  0  0  0  0  0
  1  2  1  0  0  0  0
  1 18  1  0  0  0  0
  1 19  1  0  0  0  0
  1 20  1  0  0  0  0
  2  3  1  0  0  0  0
  2 21  1  0  0  0  0
  2 22  1  0  0  0  0
  3  4  1  0  0  0  0
  3 23  1  0  0  0  0
  4  5  2  0  0  0  0
  4  6  1  0  0  0  0
  6  7  1  0  0  0  0
  6 24  1  0  0  0  0
  6 25  1  0  0  0  0
  7  8  1  0  0  0  0
  7 26  1  0  0  0  0
  7 27  1  0  0  0  0
  8  9  1  0  0  0  0
  8 28  1  0  0  0  0
  8 40  1  0  0  0  0
  9 10  1  0  0  0  0
  9 11  1  0  0  0  0
  9 29  1  0  0  0  0
 10 30  1  0  0  0  0
 10 31  1  0  0  0  0
 10 32  1  0  0  0  0
 11 12  1  0  0  0  0
 11 13  1  0  0  0  0
 11 33  1  0  0  0  0
 12 34  1  0  0  0  0
 12 35  1  0  0  0  0
 12 36  1  0  0  0  0
 13 17  1  0  0  0  0
 13 14  1  0  0  0  0
 14 15  2  0  0  0  0
 14 37  1  0  0  0  0
 15 16  1  0  0  0  0
 15 38  1  0  0  0  0
 16 17  2  0  0  0  0
 16 39  1  0  0  0  0
M  CHG  1   8   1
M  END
> <s_m_source_file>
AV-unprocessed.smi

> <i_m_source_file_index>
3136

> <i_lp_mmshare_version>
43012

> <i_f3d_flags>
0

> <s_epik_input>
W0NIM11bQ0gyXVtOSF1DKD1PKVtDSDJdW0NIMl1bTkhdW0NASF0oW0NIM10pW0NASF0oW0NIM10pbjFbY0hdW2NIXVtjSF1uMQ==

> <s_epik_cmdline>
J2VwaWtfcHl0aG9uJywgJy1waCcsICc3LjAnLCAnLXRuJywgJzgnLCAnLW1hJywgJzIwMCcsICctbWV0YWxfYmluZGluZycsICctaW1hZScsICc8aW5maWxlLm1hZT4nLCAnLW9tYWUnLCAnPG91dGZpbGUubWFlPic=

> <r_lp_tautomer_probability>
1

> <r_epik_Ionization_Penalty>
0.00463447

> <r_epik_Ionization_Penalty_Charging>
0.00462393

> <r_epik_Ionization_Penalty_Neutral>
1.05394e-05

> <r_epik_State_Penalty>
-0

> <r_epik_Charging_Adjusted_Penalty>
0.00462393

> <i_epik_Tot_Q>
1

> <i_epik_Tot_abs_Q>
1

> <r_epik_Metal_State_Penalty>
-0

> <b_epik_Metal_Only>
0

> <s_lp_Force_Field>
OPLS_2005

> <r_lp_Energy>
10.6492

> <b_lp_Chiralities_Consistent>
1

> <s_lp_Variant>
AV-unprocessed.smi:3136-3

> <Gold.Version>
5.8.1

> <Gold.Id.Protein>
6NUR|6NUR_protein|mol2

> <Gold.PLP.Fitness>
51.8949

> <Gold.PLP.PLP>
-37.9879

> <Gold.PLP.part.hbond>
-3.8768

> <Gold.PLP.part.metal>
0.0000

> <Gold.PLP.part.buried>
-6.6466

> <Gold.PLP.part.nonpolar>
-28.9875

> <Gold.PLP.part.repulsive>
0.1141

> <Gold.PLP.ligand.clash>
0.0000

> <Gold.PLP.ligand.torsion>
1.3308

> <Gold.PLP.Chemscore.Hbond>
4.4820

> <Gold.PLP.Chemscore.CHOScore>
0.9868

> <Gold.PLP.Chemscore.Metal>
0.0000

> <Gold.Chemscore.Hbonds>
donor molecule, donor type, donor heavy atom, donor atom, acceptor molecule, acceptor atom, score
      L1  H     3    23       P1  8029  1.00
      L1  H     8    40       P1  8028  1.63
      P1  H  6933  6944       L1     5  0.37
      P1  H  6934  6946       L1     5  1.00
      L1  C    14    37       P1  8028  0.95

> <Gold.PLP.Chemscore.Internal.Correction>
0.1620

> <Gold.Rescore>
     Score         DG    S(hbond)    S(metal)    S(lipo)     H(rot)  DE(clash)    DE(int)     intcor
     19.02     -20.17       3.54        0.00      75.24       2.32       0.00       1.14       ----

> <Gold.Chemscore.Fitness>
19.0220

> <Gold.Chemscore.DG>
-20.1709

> <Gold.Chemscore.ZeroCoef>
-5.4800

> <Gold.Chemscore.Hbond>
3.5378

> <Gold.Chemscore.Metal>
0.0000

> <Gold.Chemscore.Lipo>
75.2409

> <Gold.Chemscore.Internal_Hbond>
0.0000

> <Gold.Chemscore.DEClash>
0.0047

> <Gold.Chemscore.DEInternal>
1.1442

> <Gold.Chemscore.Rot>
2.3159

> <Gold.Chemscore.Internal.Correction>
   9.000000E+99

> <Gold.Chemscore.Hbonds>
donor molecule, donor type, donor heavy atom, donor atom, acceptor molecule, acceptor atom, score
      L1  H     3    23       P1  8029  0.99
      L1  H     8    40       P1  8028  0.79
      P1  H  6933  6944       L1     5  0.28
      P1  H  6934  6946       L1     5  0.95

> <Gold.Chemscore.Hbond.Weighted>
-11.8163

> <Gold.Chemscore.Metal.Weighted>
-0.0000

> <Gold.Chemscore.Lipo.Weighted>
-8.8032

> <Gold.Chemscore.Internal_Hbond.Weighted>
0.0000

> <Gold.Chemscore.DEClash.Weighted>
0.0047

> <Gold.Chemscore.DEInternal.Weighted>
1.1442

> <Gold.Chemscore.Rot.Weighted>
5.9286

> <Gold.Chemscore.Internal.Correction.Weighted>
   9.000000E+99

> <Gold.Protein.RotatedTorsions>
[ 6907 6896 6895 6894 ] final -135.36 input  -60.11 | X-H torsion
[ 7974 7965 7964 7962 ] final -111.49 input  175.53 | X-H torsion
[ 8008 7997 7996 7995 ] final  139.64 input   59.86 | X-H torsion
[ 10167 10162 10161 10158 ] final  178.19 input  -65.29 | X-H torsion
[ 10718 10713 10712 10709 ] final  171.81 input   66.30 | X-H torsion
[ 10763 10752 10751 10750 ] final  174.03 input  -60.55 | X-H torsion
[ 11005 11000 10999 10996 ] final  -68.01 input  -57.11 | X-H torsion

> <Gold.Protein.ActiveResidues>
 VAL166  LYS551  ARG553  GLY616  TRP617  ASP618  TYR619  PRO620  LYS621  CYS622 
 ASP623  PHE694  ASN695  SER759  ASP760  ASP761  ALA762  ILE779  LEU786  VAL792 
 PHE793  MET794  SER795  GLU796  ALA797  LYS798  CYS799  TRP800  GLU811  SER814 

> <Gold.Protein.RotatedAtoms>
  150.9970  133.6093  159.2700 H   0  0  0  0  0  0  0  0  0  0  0  0  # atno 6907 bound_to 6896
  151.3294  135.0837  159.9343 H   0  0  0  0  0  0  0  0  0  0  0  0  # atno 6908 bound_to 6896
  152.5263  133.9602  159.7768 H   0  0  0  0  0  0  0  0  0  0  0  0  # atno 6909 bound_to 6896
  145.1554  140.8851  143.3621 H   0  0  0  0  0  0  0  0  0  0  0  0  # atno 7974 bound_to 7965
  156.2987  140.2362  156.4270 H   0  0  0  0  0  0  0  0  0  0  0  0  # atno 8008 bound_to 7997
  154.8304  140.0433  157.1493 H   0  0  0  0  0  0  0  0  0  0  0  0  # atno 8009 bound_to 7997
  154.9214  140.3004  155.5218 H   0  0  0  0  0  0  0  0  0  0  0  0  # atno 8010 bound_to 7997
  139.5284  144.2709  152.0629 H   0  0  0  0  0  0  0  0  0  0  0  0  # atno 10167 bound_to 10162
  156.9881  131.0139  151.2864 H   0  0  0  0  0  0  0  0  0  0  0  0  # atno 10718 bound_to 10713
  154.4483  135.2764  155.1799 H   0  0  0  0  0  0  0  0  0  0  0  0  # atno 10763 bound_to 10752
  154.3637  135.6124  153.5707 H   0  0  0  0  0  0  0  0  0  0  0  0  # atno 10764 bound_to 10752
  152.9845  135.5840  154.4823 H   0  0  0  0  0  0  0  0  0  0  0  0  # atno 10765 bound_to 10752
  141.1522  133.6731  156.6380 H   0  0  0  0  0  0  0  0  0  0  0  0  # atno 11005 bound_to 11000
  145.0386  139.3279  143.5988 LP  0  0  0  0  0  0  0  0  0  0  0  0  # atno 17320 bound_to 7965
  146.3489  139.9751  142.8702 LP  0  0  0  0  0  0  0  0  0  0  0  0  # atno 17321 bound_to 7965
  140.2169  144.4506  150.6360 LP  0  0  0  0  0  0  0  0  0  0  0  0  # atno 17342 bound_to 10162
  140.6444  143.2210  151.6218 LP  0  0  0  0  0  0  0  0  0  0  0  0  # atno 17343 bound_to 10162
  157.5478  130.8162  149.8107 LP  0  0  0  0  0  0  0  0  0  0  0  0  # atno 17370 bound_to 10713
  156.0218  130.3793  150.1940 LP  0  0  0  0  0  0  0  0  0  0  0  0  # atno 17371 bound_to 10713
  140.3415  134.7845  157.4401 LP  0  0  0  0  0  0  0  0  0  0  0  0  # atno 17394 bound_to 11000
  140.0934  134.5570  155.8422 LP  0  0  0  0  0  0  0  0  0  0  0  0  # atno 17395 bound_to 11000

$$$$
