#       Name:                AV-unprocessed.smi:1102
#       Creating user name   scv26
#       Creation time:       Fri Mar 27 03:30:55 2020


#       File generated by GOLD software.
#

@<TRIPOS>MOLECULE
AV-unprocessed.smi:1102
    44    45     1
SMALL
NO_CHARGES


@<TRIPOS>ATOM
      1 ****        -5.7389  -0.4246  -3.0305 C.3            1 S1                 0.0000
      2 ****        -5.0982  -0.1168  -1.7583 N.pl3          1 S1                 0.0000
      3 ****        -5.8876   0.4310  -0.6598 C.3            1 S1                 0.0000
      4 ****        -3.7049  -0.2974  -1.6001 C.ar           1 S1                 0.0000
      5 ****        -2.9006  -0.8078  -2.6492 C.ar           1 S1                 0.0000
      6 ****        -1.5178  -0.9685  -2.4394 C.ar           1 S1                 0.0000
      7 ****        -0.9641  -0.6280  -1.1906 C.ar           1 S1                 0.0000
      8 ****         0.4379  -0.7804  -1.0154 N.am           1 S1                 0.0000
      9 ****         1.1333  -0.8615   0.1319 C.2            1 S1                 0.0000
     10 ****         0.6436  -0.8797   1.2609 O.2            1 S1                 0.0000
     11 ****         2.4501  -0.9426  -0.1052 N.am           1 S1                 0.0000
     12 ****         3.4838  -1.0222   0.9211 C.3            1 S1                 0.0000
     13 ****         3.9738   0.3746   1.3382 C.3            1 S1                 0.0000
     14 ****         5.1489   0.3438   2.3146 C.3            1 S1                 0.0000
     15 ****         5.0084   1.6801   3.0063 C.3            1 S1                 0.0000
     16 ****         3.4936   1.8010   3.1346 C.3            1 S1                 0.0000
     17 ****         2.9508   1.0975   2.0208 O.3            1 S1                 0.0000
     18 ****        -1.8401  -0.1152  -0.2054 C.ar           1 S1                 0.0000
     19 ****        -3.1659   0.0416  -0.4034 N.ar           1 S1                 0.0000
     20 ****        -5.3126   0.1813  -3.8307 H              1 S1                 0.0000
     21 ****        -6.8094  -0.2225  -2.9949 H              1 S1                 0.0000
     22 ****        -5.6090  -1.4777  -3.2812 H              1 S1                 0.0000
     23 ****        -5.5342   1.4281  -0.3946 H              1 S1                 0.0000
     24 ****        -5.8147  -0.2085   0.2205 H              1 S1                 0.0000
     25 ****        -6.9414   0.5106  -0.9268 H              1 S1                 0.0000
     26 ****        -3.3145  -1.0777  -3.6088 H              1 S1                 0.0000
     27 ****        -0.8920  -1.3528  -3.2317 H              1 S1                 0.0000
     28 ****         0.9728  -0.8711  -1.8666 H              1 S1                 0.0000
     29 ****         2.7628  -0.9289  -1.0648 H              1 S1                 0.0000
     30 ****         3.1307  -1.5831   1.7882 H              1 S1                 0.0000
     31 ****         4.3159  -1.5909   0.5054 H              1 S1                 0.0000
     32 ****         4.2605   0.9527   0.4580 H              1 S1                 0.0000
     33 ****         5.0284  -0.4631   3.0391 H              1 S1                 0.0000
     34 ****         6.1115   0.2173   1.8183 H              1 S1                 0.0000
     35 ****         5.5235   1.7254   3.9661 H              1 S1                 0.0000
     36 ****         5.3981   2.4750   2.3689 H              1 S1                 0.0000
     37 ****         3.1482   1.3178   4.0492 H              1 S1                 0.0000
     38 ****         3.1590   2.8383   3.1527 H              1 S1                 0.0000
     39 ****        -1.4898   0.2046   0.7634 H              1 S1                 0.0000
     40 ****        -0.3486  -0.8321   1.3764 LP             1 S1                 0.0000
     41 ****         1.2379  -0.9421   2.0627 LP             1 S1                 0.0000
     42 ****         2.2549   0.4563   2.3442 LP             1 S1                 0.0000
     43 ****         2.5337   1.7519   1.3900 LP             1 S1                 0.0000
     44 ****        -3.7454   0.4046   0.3262 LP             1 S1                 0.0000
@<TRIPOS>BOND
    1    1    2 1     
    2    1   20 1     
    3    1   21 1     
    4    1   22 1     
    5    2    3 1     
    6    2    4 1     
    7    3   23 1     
    8    3   24 1     
    9    3   25 1     
   10    4   19 ar    
   11    4    5 ar    
   12    5    6 ar    
   13    5   26 1     
   14    6    7 ar    
   15    6   27 1     
   16    7    8 1     
   17    7   18 ar    
   18    8    9 am    
   19    8   28 1     
   20    9   10 2     
   21    9   11 am    
   22   11   12 1     
   23   11   29 1     
   24   12   13 1     
   25   12   30 1     
   26   12   31 1     
   27   13   17 1     
   28   13   14 1     
   29   13   32 1     
   30   14   15 1     
   31   14   33 1     
   32   14   34 1     
   33   15   16 1     
   34   15   35 1     
   35   15   36 1     
   36   16   17 1     
   37   16   37 1     
   38   16   38 1     
   39   18   19 ar    
   40   18   39 1     
   41   10   40 1     
   42   10   41 1     
   43   17   42 1     
   44   17   43 1     
   45   19   44 1     
@<TRIPOS>SUBSTRUCTURE
      1 S1             1
@<TRIPOS>SET
LONE_PAIRS      STATIC     ATOMS    <user>   **** ""
5 40 41 42 43 44
DONOR_HYDROGENS      STATIC     ATOMS    <user>   **** ""
2 28 29
ATOM$BLUE        STATIC     ATOMS    COLORGROUP SYSTEM
5 40 41 42 43 44
ATOM$RED        STATIC     ATOMS    COLORGROUP SYSTEM
2 28 29
