AV-unprocessed.smi:244|AV-procd|sdf|1864|dock8
  -GOLD-   2262020503D 1   1.00000     0.00000
 Structure written by MMmdl.
 57 61  0  0  0  0  0  0  0  0  2 V2000
  144.9552  134.3791  150.9325 C   0  0  0  0  0  0  0  0  0  0  0  0
  145.1850  133.1268  151.6845 N   0  3  1  0  0  0  0  0  0  0  0  0
  144.9682  131.9198  150.8483 C   0  0  0  0  0  0  0  0  0  0  0  0
  145.1073  130.6373  151.6839 C   0  0  0  0  0  0  0  0  0  0  0  0
  146.4763  130.5931  152.3731 C   0  0  2  0  0  0  0  0  0  0  0  0
  146.5656  129.4268  153.1838 O   0  0  0  0  0  0  0  0  0  0  0  0
  147.8466  129.3065  153.7936 C   0  0  0  0  0  0  0  0  0  0  0  0
  148.0964  130.5231  154.6989 C   0  0  0  0  0  0  0  0  0  0  0  0
  147.9557  131.7630  153.9380 N   0  0  0  0  0  0  0  0  0  0  0  0
  148.3063  132.8651  154.6405 C   0  0  0  0  0  0  0  0  0  0  0  0
  148.8993  133.9164  154.0153 N   0  0  0  0  0  0  0  0  0  0  0  0
  149.2595  134.9940  154.7200 C   0  0  0  0  0  0  0  0  0  0  0  0
  149.1306  135.2162  156.0302 N   0  0  0  0  0  0  0  0  0  0  0  0
  148.5417  134.1586  156.6587 C   0  0  0  0  0  0  0  0  0  0  0  0
  148.1050  132.9532  156.0429 C   0  0  0  0  0  0  0  0  0  0  0  0
  147.5684  132.0955  156.9940 N   0  0  0  0  0  0  0  0  0  0  0  0
  147.6783  132.7592  158.1126 C   0  0  0  0  0  0  0  0  0  0  0  0
  148.2427  134.0108  158.0019 N   0  0  0  0  0  0  0  0  0  0  0  0
  148.4795  134.9582  159.0807 C   0  0  0  0  0  0  0  0  0  0  0  0
  147.4750  134.8414  160.2544 C   0  0  0  0  0  0  0  0  0  0  0  0
  146.1673  134.8764  159.7096 O   0  0  0  0  0  0  0  0  0  0  0  0
  147.6362  133.5268  161.0490 C   0  0  0  0  0  0  0  0  0  0  0  0
  146.7887  133.5161  162.3336 C   0  0  0  0  0  0  0  0  0  0  0  0
  147.0924  134.6529  163.1327 O   0  0  0  0  0  0  0  0  0  0  0  0
  146.7782  135.8792  162.4848 C   0  0  0  0  0  0  0  0  0  0  0  0
  147.6335  136.0366  161.2154 C   0  0  0  0  0  0  0  0  0  0  0  0
  146.6649  131.8510  153.2490 C   0  0  1  0  0  0  0  0  0  0  0  0
  146.5043  133.1134  152.3663 C   0  0  0  0  0  0  0  0  0  0  0  0
  145.6793  134.4888  150.1241 H   0  0  0  0  0  0  0  0  0  0  0  0
  145.0422  135.2450  151.5897 H   0  0  0  0  0  0  0  0  0  0  0  0
  143.9544  134.3909  150.4997 H   0  0  0  0  0  0  0  0  0  0  0  0
  143.9735  131.9578  150.4025 H   0  0  0  0  0  0  0  0  0  0  0  0
  145.6851  131.9117  150.0256 H   0  0  0  0  0  0  0  0  0  0  0  0
  144.3140  130.5959  152.4316 H   0  0  0  0  0  0  0  0  0  0  0  0
  144.9806  129.7619  151.0462 H   0  0  0  0  0  0  0  0  0  0  0  0
  147.2529  130.5526  151.6065 H   0  0  0  0  0  0  0  0  0  0  0  0
  147.8767  128.3882  154.3802 H   0  0  0  0  0  0  0  0  0  0  0  0
  148.6219  129.2230  153.0303 H   0  0  0  0  0  0  0  0  0  0  0  0
  147.3847  130.5097  155.5258 H   0  0  0  0  0  0  0  0  0  0  0  0
  149.0960  130.4643  155.1324 H   0  0  0  0  0  0  0  0  0  0  0  0
  149.7169  135.7919  154.1536 H   0  0  0  0  0  0  0  0  0  0  0  0
  147.3413  132.3549  159.0562 H   0  0  0  0  0  0  0  0  0  0  0  0
  149.4962  134.8023  159.4439 H   0  0  0  0  0  0  0  0  0  0  0  0
  148.4603  135.9662  158.6636 H   0  0  0  0  0  0  0  0  0  0  0  0
  146.2267  134.7454  158.7755 H   0  0  0  0  0  0  0  0  0  0  0  0
  147.3736  132.6653  160.4345 H   0  0  0  0  0  0  0  0  0  0  0  0
  148.6841  133.4002  161.3239 H   0  0  0  0  0  0  0  0  0  0  0  0
  145.7230  133.4950  162.1012 H   0  0  0  0  0  0  0  0  0  0  0  0
  147.0016  132.6162  162.9109 H   0  0  0  0  0  0  0  0  0  0  0  0
  145.7132  135.9192  162.2513 H   0  0  0  0  0  0  0  0  0  0  0  0
  146.9801  136.7001  163.1730 H   0  0  0  0  0  0  0  0  0  0  0  0
  148.6790  136.1223  161.5150 H   0  0  0  0  0  0  0  0  0  0  0  0
  147.3848  136.9705  160.7098 H   0  0  0  0  0  0  0  0  0  0  0  0
  145.8843  131.8643  154.0119 H   0  0  0  0  0  0  0  0  0  0  0  0
  147.3016  133.1627  151.6227 H   0  0  0  0  0  0  0  0  0  0  0  0
  146.5781  134.0151  152.9754 H   0  0  0  0  0  0  0  0  0  0  0  0
  144.4862  133.0993  152.4135 H   0  0  0  0  0  0  0  0  0  0  0  0
  1  2  1  0  0  0  0
  1 29  1  0  0  0  0
  1 30  1  0  0  0  0
  1 31  1  0  0  0  0
  2 28  1  0  0  0  0
  2  3  1  0  0  0  0
  2 57  1  0  0  0  0
  3  4  1  0  0  0  0
  3 32  1  0  0  0  0
  3 33  1  0  0  0  0
  4  5  1  0  0  0  0
  4 34  1  0  0  0  0
  4 35  1  0  0  0  0
  5 27  1  0  0  0  0
  5  6  1  0  0  0  0
  5 36  1  0  0  0  0
  6  7  1  0  0  0  0
  7  8  1  0  0  0  0
  7 37  1  0  0  0  0
  7 38  1  0  0  0  0
  8  9  1  0  0  0  0
  8 39  1  0  0  0  0
  8 40  1  0  0  0  0
  9 10  1  0  0  0  0
  9 27  1  0  0  0  0
 10 15  1  0  0  0  0
 10 11  2  0  0  0  0
 11 12  1  0  0  0  0
 12 13  2  0  0  0  0
 12 41  1  0  0  0  0
 13 14  1  0  0  0  0
 14 18  1  0  0  0  0
 14 15  2  0  0  0  0
 15 16  1  0  0  0  0
 16 17  2  0  0  0  0
 17 18  1  0  0  0  0
 17 42  1  0  0  0  0
 18 19  1  0  0  0  0
 19 20  1  0  0  0  0
 19 43  1  0  0  0  0
 19 44  1  0  0  0  0
 20 26  1  0  0  0  0
 20 21  1  0  0  0  0
 20 22  1  0  0  0  0
 21 45  1  0  0  0  0
 22 23  1  0  0  0  0
 22 46  1  0  0  0  0
 22 47  1  0  0  0  0
 23 24  1  0  0  0  0
 23 48  1  0  0  0  0
 23 49  1  0  0  0  0
 24 25  1  0  0  0  0
 25 26  1  0  0  0  0
 25 50  1  0  0  0  0
 25 51  1  0  0  0  0
 26 52  1  0  0  0  0
 26 53  1  0  0  0  0
 27 28  1  0  0  0  0
 27 54  1  0  0  0  0
 28 55  1  0  0  0  0
 28 56  1  0  0  0  0
M  CHG  1   2   1
M  END
> <s_m_source_file>
AV-unprocessed.smi

> <i_m_source_file_index>
244

> <i_lp_mmshare_version>
43012

> <i_f3d_flags>
0

> <s_epik_input>
W0NIMl0xW0NIMl1OKFtDSDNdKVtDSDJdW0NAQEhdKFtDQEhdMTIpTihbQ0gyXVtDSDJdTzIpYyhuW2NIXW4zKWMoYzM0KW5bY0hdbjRbQ0gyXUM1KFtPSF0pW0NIMl1bQ0gyXU9bQ0gyXVtDSDJdNQ==

> <s_epik_cmdline>
J2VwaWtfcHl0aG9uJywgJy1waCcsICc3LjAnLCAnLXRuJywgJzgnLCAnLW1hJywgJzIwMCcsICctbWV0YWxfYmluZGluZycsICctaW1hZScsICc8aW5maWxlLm1hZT4nLCAnLW9tYWUnLCAnPG91dGZpbGUubWFlPic=

> <r_lp_tautomer_probability>
1

> <r_epik_Ionization_Penalty>
0.0136215

> <r_epik_Ionization_Penalty_Charging>
0.0131385

> <r_epik_Ionization_Penalty_Neutral>
0.000483022

> <r_epik_State_Penalty>
0.0104001

> <r_epik_Charging_Adjusted_Penalty>
0.0235387

> <i_epik_Tot_Q>
1

> <i_epik_Tot_abs_Q>
1

> <r_epik_Metal_State_Penalty>
0.0104469

> <b_epik_Metal_Only>
0

> <s_lp_Force_Field>
OPLS_2005

> <r_lp_Energy>
41.0301

> <b_lp_Chiralities_Consistent>
1

> <s_lp_Variant>
AV-unprocessed.smi:244-1

> <Gold.Version>
5.8.1

> <Gold.Id.Protein>
6NUR|6NUR_protein|mol2

> <Gold.PLP.Fitness>
35.2316

> <Gold.PLP.PLP>
-35.4863

> <Gold.PLP.part.hbond>
-0.5320

> <Gold.PLP.part.metal>
0.0000

> <Gold.PLP.part.buried>
-5.2371

> <Gold.PLP.part.nonpolar>
-30.0307

> <Gold.PLP.part.repulsive>
0.3963

> <Gold.PLP.ligand.clash>
0.0000

> <Gold.PLP.ligand.torsion>
1.1157

> <Gold.PLP.Chemscore.Hbond>
0.0000

> <Gold.PLP.Chemscore.CHOScore>
0.6151

> <Gold.PLP.Chemscore.Metal>
0.0000

> <Gold.Chemscore.Hbonds>
donor molecule, donor type, donor heavy atom, donor atom, acceptor molecule, acceptor atom, score
      L1  C    12    41       P1  7948  0.80

> <Gold.PLP.Chemscore.Internal.Correction>
0.1315

> <Gold.Rescore>
     Score         DG    S(hbond)    S(metal)    S(lipo)     H(rot)  DE(clash)    DE(int)     intcor
      7.64     -10.56       0.00        0.00      89.14       2.09       0.01       2.91       ----

> <Gold.Chemscore.Fitness>
7.6353

> <Gold.Chemscore.DG>
-10.5559

> <Gold.Chemscore.ZeroCoef>
-5.4800

> <Gold.Chemscore.Hbond>
0.0000

> <Gold.Chemscore.Metal>
0.0000

> <Gold.Chemscore.Lipo>
89.1371

> <Gold.Chemscore.Internal_Hbond>
0.0000

> <Gold.Chemscore.DEClash>
0.0082

> <Gold.Chemscore.DEInternal>
2.9125

> <Gold.Chemscore.Rot>
2.0911

> <Gold.Chemscore.Internal.Correction>
   9.000000E+99

> <Gold.Chemscore.Hbond.Weighted>
-0.0000

> <Gold.Chemscore.Metal.Weighted>
-0.0000

> <Gold.Chemscore.Lipo.Weighted>
-10.4290

> <Gold.Chemscore.Internal_Hbond.Weighted>
0.0000

> <Gold.Chemscore.DEClash.Weighted>
0.0082

> <Gold.Chemscore.DEInternal.Weighted>
2.9125

> <Gold.Chemscore.Rot.Weighted>
5.3531

> <Gold.Chemscore.Internal.Correction.Weighted>
   9.000000E+99

> <Gold.Protein.RotatedTorsions>
[ 6907 6896 6895 6894 ] final  -48.72 input  -60.11 | X-H torsion
[ 7974 7965 7964 7962 ] final -166.53 input  175.53 | X-H torsion
[ 8008 7997 7996 7995 ] final  -51.66 input   59.86 | X-H torsion
[ 10167 10162 10161 10158 ] final  -71.10 input  -65.29 | X-H torsion
[ 10718 10713 10712 10709 ] final  103.77 input   66.30 | X-H torsion
[ 10763 10752 10751 10750 ] final -113.05 input  -60.55 | X-H torsion
[ 11005 11000 10999 10996 ] final  -91.13 input  -57.11 | X-H torsion

> <Gold.Protein.ActiveResidues>
 VAL166  LYS551  ARG553  GLY616  TRP617  ASP618  TYR619  PRO620  LYS621  CYS622 
 ASP623  PHE694  ASN695  SER759  ASP760  ASP761  ALA762  ILE779  LEU786  VAL792 
 PHE793  MET794  SER795  GLU796  ALA797  LYS798  CYS799  TRP800  GLU811  SER814 

> <Gold.Protein.RotatedAtoms>
  150.8877  134.8276  159.7270 H   0  0  0  0  0  0  0  0  0  0  0  0  # atno 6907 bound_to 6896
  152.4817  134.4697  159.9641 H   0  0  0  0  0  0  0  0  0  0  0  0  # atno 6908 bound_to 6896
  151.4764  133.3518  159.2867 H   0  0  0  0  0  0  0  0  0  0  0  0  # atno 6909 bound_to 6896
  144.7243  140.2653  143.6259 H   0  0  0  0  0  0  0  0  0  0  0  0  # atno 7974 bound_to 7965
  154.4088  140.1242  156.4865 H   0  0  0  0  0  0  0  0  0  0  0  0  # atno 8008 bound_to 7997
  155.7033  140.3494  155.4923 H   0  0  0  0  0  0  0  0  0  0  0  0  # atno 8009 bound_to 7997
  155.9365  140.1079  157.1080 H   0  0  0  0  0  0  0  0  0  0  0  0  # atno 8010 bound_to 7997
  140.5299  143.2322  151.7280 H   0  0  0  0  0  0  0  0  0  0  0  0  # atno 10167 bound_to 10162
  157.6762  131.0787  150.5605 H   0  0  0  0  0  0  0  0  0  0  0  0  # atno 10718 bound_to 10713
  154.8378  135.4468  154.1289 H   0  0  0  0  0  0  0  0  0  0  0  0  # atno 10763 bound_to 10752
  153.2505  135.6926  153.7691 H   0  0  0  0  0  0  0  0  0  0  0  0  # atno 10764 bound_to 10752
  153.7005  135.3372  155.3199 H   0  0  0  0  0  0  0  0  0  0  0  0  # atno 10765 bound_to 10752
  141.1551  133.7736  156.9836 H   0  0  0  0  0  0  0  0  0  0  0  0  # atno 11005 bound_to 11000
  145.8096  139.1998  143.2001 LP  0  0  0  0  0  0  0  0  0  0  0  0  # atno 17320 bound_to 7965
  146.0607  140.7973  142.9736 LP  0  0  0  0  0  0  0  0  0  0  0  0  # atno 17321 bound_to 7965
  139.4951  144.4129  152.0061 LP  0  0  0  0  0  0  0  0  0  0  0  0  # atno 17342 bound_to 10162
  140.3231  144.3405  150.6005 LP  0  0  0  0  0  0  0  0  0  0  0  0  # atno 17343 bound_to 10162
  156.5908  130.4329  149.5937 LP  0  0  0  0  0  0  0  0  0  0  0  0  # atno 17370 bound_to 10713
  156.2585  130.6948  151.1709 LP  0  0  0  0  0  0  0  0  0  0  0  0  # atno 17371 bound_to 10713
  140.1049  134.9512  157.1979 LP  0  0  0  0  0  0  0  0  0  0  0  0  # atno 17394 bound_to 11000
  140.3269  134.2853  155.7235 LP  0  0  0  0  0  0  0  0  0  0  0  0  # atno 17395 bound_to 11000

$$$$
