#       Name:                AV-unprocessed.smi:1912
#       Creating user name   scv26
#       Creation time:       Fri Mar 27 09:48:53 2020


#       File generated by GOLD software.
#

@<TRIPOS>MOLECULE
AV-unprocessed.smi:1912
    50    52     1
SMALL
NO_CHARGES


@<TRIPOS>ATOM
      1 ****        -3.8769  -3.3973   1.2037 C.3            1 S1                 0.0000
      2 ****        -2.4576  -3.3569   1.1986 O.3            1 S1                 0.0000
      3 ****        -1.8430  -2.1267   1.2925 C.ar           1 S1                 0.0000
      4 ****        -2.5332  -0.8995   1.4281 C.ar           1 S1                 0.0000
      5 ****        -1.8231   0.3125   1.5064 C.ar           1 S1                 0.0000
      6 ****        -0.4076   0.3304   1.4528 C.ar           1 S1                 0.0000
      7 ****         0.3354   1.4924   1.4996 O.3            1 S1                 0.0000
      8 ****        -0.3461   2.7329   1.3921 C.3            1 S1                 0.0000
      9 ****         0.2874  -0.8977   1.3269 C.ar           1 S1                 0.0000
     10 ****         1.8124  -0.9197   1.2246 C.3            1 S1                 0.0000
     11 ****         2.3856  -2.0324   1.8819 O.3            1 S1                 0.0000
     12 ****         2.3012  -0.9278  -0.2396 C.3            1 S1                 0.0000
     13 ****         1.9337   0.2848  -0.9588 N.pl3          1 S1                 0.0000
     14 ****         2.5990   1.4653  -0.9974 C.2            1 S1                 0.0000
     15 ****         3.8906   1.6678  -0.2709 C.3            1 S1                 0.0000
     16 ****         2.0283   2.4322  -1.7160 N.2            1 S1                 0.0000
     17 ****         0.8839   1.8209  -2.1907 C.ar           1 S1                 0.0000
     18 ****        -0.1533   2.3233  -3.0088 C.ar           1 S1                 0.0000
     19 ****        -1.2429   1.5020  -3.3651 C.ar           1 S1                 0.0000
     20 ****        -1.3106   0.1691  -2.9108 C.ar           1 S1                 0.0000
     21 ****        -0.2869  -0.3519  -2.0969 C.ar           1 S1                 0.0000
     22 ****         0.7976   0.4727  -1.7414 C.ar           1 S1                 0.0000
     23 ****        -0.4365  -2.1082   1.2449 C.ar           1 S1                 0.0000
     24 ****        -4.2064  -4.4320   1.1101 H              1 S1                 0.0000
     25 ****        -4.2942  -2.8413   0.3631 H              1 S1                 0.0000
     26 ****        -4.2851  -3.0048   2.1360 H              1 S1                 0.0000
     27 ****        -3.6110  -0.8591   1.4706 H              1 S1                 0.0000
     28 ****        -2.3941   1.2229   1.6051 H              1 S1                 0.0000
     29 ****         0.3852   3.5393   1.3392 H              1 S1                 0.0000
     30 ****        -0.9789   2.9166   2.2611 H              1 S1                 0.0000
     31 ****        -0.9506   2.7781   0.4850 H              1 S1                 0.0000
     32 ****         2.2186  -0.0466   1.7344 H              1 S1                 0.0000
     33 ****         2.1785  -1.9753   2.8022 H              1 S1                 0.0000
     34 ****         3.3860  -1.0335  -0.2762 H              1 S1                 0.0000
     35 ****         1.8967  -1.7892  -0.7726 H              1 S1                 0.0000
     36 ****         4.2489   2.6887  -0.4068 H              1 S1                 0.0000
     37 ****         4.6498   0.9849  -0.6525 H              1 S1                 0.0000
     38 ****         3.7591   1.4914   0.7964 H              1 S1                 0.0000
     39 ****        -0.1111   3.3431  -3.3613 H              1 S1                 0.0000
     40 ****        -2.0307   1.8968  -3.9897 H              1 S1                 0.0000
     41 ****        -2.1498  -0.4527  -3.1861 H              1 S1                 0.0000
     42 ****        -0.3401  -1.3706  -1.7425 H              1 S1                 0.0000
     43 ****         0.0912  -3.0435   1.1285 H              1 S1                 0.0000
     44 ****        -2.1516  -3.7774   0.3444 LP             1 S1                 0.0000
     45 ****        -2.1421  -3.9064   1.9723 LP             1 S1                 0.0000
     46 ****         0.9958   1.4517   0.7498 LP             1 S1                 0.0000
     47 ****         0.8225   1.4971   2.3729 LP             1 S1                 0.0000
     48 ****         3.3779  -2.0234   1.7580 LP             1 S1                 0.0000
     49 ****         2.0102  -2.8784   1.5033 LP             1 S1                 0.0000
     50 ****         2.3485   3.3665  -1.8724 LP             1 S1                 0.0000
@<TRIPOS>BOND
    1    1    2 1     
    2    1   24 1     
    3    1   25 1     
    4    1   26 1     
    5    2    3 1     
    6    3   23 ar    
    7    3    4 ar    
    8    4    5 ar    
    9    4   27 1     
   10    5    6 ar    
   11    5   28 1     
   12    6    7 1     
   13    6    9 ar    
   14    7    8 1     
   15    8   29 1     
   16    8   30 1     
   17    8   31 1     
   18    9   10 1     
   19    9   23 ar    
   20   10   11 1     
   21   10   12 1     
   22   10   32 1     
   23   11   33 1     
   24   12   13 1     
   25   12   34 1     
   26   12   35 1     
   27   13   22 1     
   28   13   14 1     
   29   14   15 1     
   30   14   16 2     
   31   15   36 1     
   32   15   37 1     
   33   15   38 1     
   34   16   17 1     
   35   17   22 ar    
   36   17   18 ar    
   37   18   19 ar    
   38   18   39 1     
   39   19   20 ar    
   40   19   40 1     
   41   20   21 ar    
   42   20   41 1     
   43   21   22 ar    
   44   21   42 1     
   45   23   43 1     
   46    2   44 1     
   47    2   45 1     
   48    7   46 1     
   49    7   47 1     
   50   11   48 1     
   51   11   49 1     
   52   16   50 1     
@<TRIPOS>SUBSTRUCTURE
      1 S1             1
@<TRIPOS>SET
LONE_PAIRS      STATIC     ATOMS    <user>   **** ""
7 44 45 46 47 48 49 50
DONOR_HYDROGENS      STATIC     ATOMS    <user>   **** ""
1 33
ATOM$BLUE        STATIC     ATOMS    COLORGROUP SYSTEM
7 44 45 46 47 48 49 50
ATOM$RED        STATIC     ATOMS    COLORGROUP SYSTEM
1 33
