#       Name:                AV-unprocessed.smi:113
#       Creating user name   scv26
#       Creation time:       Thu Mar 26 18:19:32 2020


#       File generated by GOLD software.
#

@<TRIPOS>MOLECULE
AV-unprocessed.smi:113
    63    66     1
SMALL
NO_CHARGES


@<TRIPOS>ATOM
      1 ****        -2.3119  -0.3892  -4.3298 C.3            1 S1                 0.0000
      2 ****        -2.4801  -1.3129  -3.1414 C.ar           1 S1                 0.0000
      3 ****        -1.9670  -0.9604  -1.8805 C.ar           1 S1                 0.0000
      4 ****        -2.1394  -1.8509  -0.7961 C.ar           1 S1                 0.0000
      5 ****        -1.5984  -1.5161   0.5984 C.3            1 S1                 0.0000
      6 ****        -0.8922  -0.2509   0.7445 N.am           1 S1                 0.0000
      7 ****        -1.6504   0.8954   1.0853 C.2            1 S1                 0.0000
      8 ****        -2.8707   0.8363   1.2504 O.2            1 S1                 0.0000
      9 ****        -0.8813   2.1361   1.2069 C.2            1 S1                 0.0000
     10 ****        -1.6252   3.4045   1.5950 C.3            1 S1                 0.0000
     11 ****         0.4535   2.1271   0.9752 C.2            1 S1                 0.0000
     12 ****         1.1683   0.9942   0.6182 N.am           1 S1                 0.0000
     13 ****         2.6626   1.0287   0.3540 C.3            1 S1                 0.0000
     14 ****         3.4381   0.5591   1.5847 C.3            1 S1                 0.0000
     15 ****         3.6222   1.8591   2.3385 C.3            1 S1                 0.0000
     16 ****         4.7060   1.7838   3.2431 O.3            1 S1                 0.0000
     17 ****         3.7874   2.8897   1.2059 C.3            1 S1                 0.0000
     18 ****         5.2326   3.1384   0.7288 C.3            1 S1                 0.0000
     19 ****         5.8978   4.0384   1.5907 O.3            1 S1                 0.0000
     20 ****         3.0733   2.3397   0.0942 O.3            1 S1                 0.0000
     21 ****         0.4979  -0.2406   0.4933 C.2            1 S1                 0.0000
     22 ****         1.1091  -1.2621   0.1699 O.2            1 S1                 0.0000
     23 ****        -2.8303  -3.0688  -1.0391 C.ar           1 S1                 0.0000
     24 ****        -3.0480  -4.0143  -0.0076 C.2            1 S1                 0.0000
     25 ****        -3.7338  -5.2139  -0.2690 C.2            1 S1                 0.0000
     26 ****        -4.2082  -5.4820  -1.5636 C.2            1 S1                 0.0000
     27 ****        -3.9961  -4.5481  -2.5936 C.2            1 S1                 0.0000
     28 ****        -3.3118  -3.3370  -2.3545 C.ar           1 S1                 0.0000
     29 ****        -3.1320  -2.4688  -3.3740 N.ar           1 S1                 0.0000
     30 ****        -2.2010   0.6458  -4.0054 H              1 S1                 0.0000
     31 ****        -3.1766  -0.4433  -4.9924 H              1 S1                 0.0000
     32 ****        -1.4245  -0.6673  -4.8987 H              1 S1                 0.0000
     33 ****        -1.4513  -0.0191  -1.7636 H              1 S1                 0.0000
     34 ****        -2.4098  -1.5230   1.3278 H              1 S1                 0.0000
     35 ****        -0.9243  -2.3036   0.9390 H              1 S1                 0.0000
     36 ****        -0.9568   4.2631   1.6657 H              1 S1                 0.0000
     37 ****        -2.1108   3.2805   2.5635 H              1 S1                 0.0000
     38 ****        -2.3907   3.6392   0.8546 H              1 S1                 0.0000
     39 ****         0.9763   3.0652   1.0802 H              1 S1                 0.0000
     40 ****         2.8205   0.4140  -0.5336 H              1 S1                 0.0000
     41 ****         2.9092  -0.2114   2.1465 H              1 S1                 0.0000
     42 ****         4.3972   0.1587   1.2532 H              1 S1                 0.0000
     43 ****         2.7137   2.0807   2.8997 H              1 S1                 0.0000
     44 ****         4.8296   2.6348   3.6357 H              1 S1                 0.0000
     45 ****         3.3271   3.8395   1.4807 H              1 S1                 0.0000
     46 ****         5.7945   2.2074   0.6491 H              1 S1                 0.0000
     47 ****         5.2223   3.5890  -0.2640 H              1 S1                 0.0000
     48 ****         6.7745   4.1733   1.2642 H              1 S1                 0.0000
     49 ****        -2.6967  -3.8400   0.9978 H              1 S1                 0.0000
     50 ****        -3.8954  -5.9284   0.5248 H              1 S1                 0.0000
     51 ****        -4.7345  -6.4028  -1.7673 H              1 S1                 0.0000
     52 ****        -4.3659  -4.7655  -3.5851 H              1 S1                 0.0000
     53 ****        -3.3480  -0.0360   1.1440 LP             1 S1                 0.0000
     54 ****        -3.3832   1.6606   1.4907 LP             1 S1                 0.0000
     55 ****         5.5355   1.5145   2.7538 LP             1 S1                 0.0000
     56 ****         4.5053   1.1102   3.9545 LP             1 S1                 0.0000
     57 ****         5.9367   3.6554   2.5136 LP             1 S1                 0.0000
     58 ****         5.4078   4.9098   1.6118 LP             1 S1                 0.0000
     59 ****         2.2677   2.9038  -0.0870 LP             1 S1                 0.0000
     60 ****         3.6690   2.3415  -0.7090 LP             1 S1                 0.0000
     61 ****         0.6202  -2.1297   0.0789 LP             1 S1                 0.0000
     62 ****         2.0936  -1.2227  -0.0013 LP             1 S1                 0.0000
     63 ****        -3.4778  -2.6811  -4.2880 LP             1 S1                 0.0000
@<TRIPOS>BOND
    1    1    2 1     
    2    1   30 1     
    3    1   31 1     
    4    1   32 1     
    5    2   29 ar    
    6    2    3 ar    
    7    3    4 ar    
    8    3   33 1     
    9    4    5 1     
   10    4   23 ar    
   11    5    6 1     
   12    5   34 1     
   13    5   35 1     
   14    6   21 am    
   15    6    7 am    
   16    7    8 2     
   17    7    9 1     
   18    9   10 1     
   19    9   11 2     
   20   10   36 1     
   21   10   37 1     
   22   10   38 1     
   23   11   12 1     
   24   11   39 1     
   25   12   13 1     
   26   12   21 am    
   27   13   20 1     
   28   13   14 1     
   29   13   40 1     
   30   14   15 1     
   31   14   41 1     
   32   14   42 1     
   33   15   16 1     
   34   15   17 1     
   35   15   43 1     
   36   16   44 1     
   37   17   18 1     
   38   17   20 1     
   39   17   45 1     
   40   18   19 1     
   41   18   46 1     
   42   18   47 1     
   43   19   48 1     
   44   21   22 2     
   45   23   28 ar    
   46   23   24 1     
   47   24   25 2     
   48   24   49 1     
   49   25   26 1     
   50   25   50 1     
   51   26   27 2     
   52   26   51 1     
   53   27   28 1     
   54   27   52 1     
   55   28   29 ar    
   56    8   53 1     
   57    8   54 1     
   58   16   55 1     
   59   16   56 1     
   60   19   57 1     
   61   19   58 1     
   62   20   59 1     
   63   20   60 1     
   64   22   61 1     
   65   22   62 1     
   66   29   63 1     
@<TRIPOS>SUBSTRUCTURE
      1 S1             1
@<TRIPOS>SET
LONE_PAIRS      STATIC     ATOMS    <user>   **** ""
11 53 54 55 56 57 58 59 60 61 62 63
DONOR_HYDROGENS      STATIC     ATOMS    <user>   **** ""
2 44 48
ATOM$BLUE        STATIC     ATOMS    COLORGROUP SYSTEM
11 53 54 55 56 57 58 59 60 61 62 63
ATOM$RED        STATIC     ATOMS    COLORGROUP SYSTEM
2 44 48
