AV-unprocessed.smi:1604|AV-procd|sdf|6450|dock4
  -GOLD-   22720 7103D 1   1.00000     0.00000
 Structure written by MMmdl.
 47 49  0  0  0  0  0  0  0  0  2 V2000
  145.4099  135.0549  154.3001 O   0  0  0  0  0  0  0  0  0  0  0  0
  146.3292  135.5423  153.6430 C   0  0  0  0  0  0  0  0  0  0  0  0
  147.2347  136.4127  154.1194 N   0  0  0  0  0  0  0  0  0  0  0  0
  147.3094  136.9721  155.4268 C   0  0  0  0  0  0  0  0  0  0  0  0
  146.9375  136.2360  156.5811 C   0  0  0  0  0  0  0  0  0  0  0  0
  147.0196  136.8374  157.8518 C   0  0  0  0  0  0  0  0  0  0  0  0
  147.4628  138.1682  157.9494 C   0  0  0  0  0  0  0  0  0  0  0  0
  147.7936  138.8467  156.8311 N   0  3  0  0  0  0  0  0  0  0  0  0
  147.7362  138.3192  155.5831 C   0  0  0  0  0  0  0  0  0  0  0  0
  148.0820  139.1318  154.4826 N   0  0  0  0  0  0  0  0  0  0  0  0
  147.0950  140.1625  154.1708 C   0  0  0  0  0  0  0  0  0  0  0  0
  147.8826  141.3987  153.7301 C   0  0  0  0  0  0  0  0  0  0  0  0
  149.2180  141.2308  154.4440 C   0  0  0  0  0  0  0  0  0  0  0  0
  149.4197  139.7172  154.4093 C   0  0  0  0  0  0  0  0  0  0  0  0
  146.5628  135.2608  152.3497 N   0  0  0  0  0  0  0  0  0  0  0  0
  145.8315  134.3257  151.4833 C   0  0  1  0  0  0  0  0  0  0  0  0
  145.9351  132.8582  151.9683 C   0  0  0  0  0  0  0  0  0  0  0  0
  145.7868  131.8156  150.8491 C   0  0  0  0  0  0  0  0  0  0  0  0
  144.4163  131.8099  150.1568 C   0  0  0  0  0  0  0  0  0  0  0  0
  144.1219  133.0939  149.3633 C   0  0  0  0  0  0  0  0  0  0  0  0
  143.6917  134.1971  150.2134 N   0  0  0  0  0  0  0  0  0  0  0  0
  144.3958  134.8047  151.1808 C   0  0  0  0  0  0  0  0  0  0  0  0
  143.9009  135.7323  151.8202 O   0  0  0  0  0  0  0  0  0  0  0  0
  147.9975  136.6450  153.5007 H   0  0  0  0  0  0  0  0  0  0  0  0
  146.5772  135.2208  156.5115 H   0  0  0  0  0  0  0  0  0  0  0  0
  146.7408  136.2859  158.7379 H   0  0  0  0  0  0  0  0  0  0  0  0
  147.5535  138.7101  158.8796 H   0  0  0  0  0  0  0  0  0  0  0  0
  146.4117  139.8310  153.3885 H   0  0  0  0  0  0  0  0  0  0  0  0
  146.5013  140.3957  155.0564 H   0  0  0  0  0  0  0  0  0  0  0  0
  148.0379  141.3739  152.6505 H   0  0  0  0  0  0  0  0  0  0  0  0
  147.3791  142.3335  153.9774 H   0  0  0  0  0  0  0  0  0  0  0  0
  150.0310  141.7794  153.9676 H   0  0  0  0  0  0  0  0  0  0  0  0
  149.1340  141.5730  155.4765 H   0  0  0  0  0  0  0  0  0  0  0  0
  150.1071  139.3829  155.1862 H   0  0  0  0  0  0  0  0  0  0  0  0
  149.8569  139.4236  153.4545 H   0  0  0  0  0  0  0  0  0  0  0  0
  147.3390  135.7352  151.9125 H   0  0  0  0  0  0  0  0  0  0  0  0
  146.3743  134.3916  150.5397 H   0  0  0  0  0  0  0  0  0  0  0  0
  146.9105  132.6994  152.4305 H   0  0  0  0  0  0  0  0  0  0  0  0
  145.1984  132.6622  152.7486 H   0  0  0  0  0  0  0  0  0  0  0  0
  146.5714  131.9621  150.1057 H   0  0  0  0  0  0  0  0  0  0  0  0
  145.9634  130.8268  151.2737 H   0  0  0  0  0  0  0  0  0  0  0  0
  144.3933  130.9679  149.4642 H   0  0  0  0  0  0  0  0  0  0  0  0
  143.6239  131.6203  150.8822 H   0  0  0  0  0  0  0  0  0  0  0  0
  144.9807  133.3914  148.7603 H   0  0  0  0  0  0  0  0  0  0  0  0
  143.3102  132.8998  148.6620 H   0  0  0  0  0  0  0  0  0  0  0  0
  142.7555  134.5393  150.0508 H   0  0  0  0  0  0  0  0  0  0  0  0
  148.1004  139.8144  156.9311 H   0  0  0  0  0  0  0  0  0  0  0  0
  1  2  2  0  0  0  0
  2  3  1  0  0  0  0
  2 15  1  0  0  0  0
  3  4  1  0  0  0  0
  3 24  1  0  0  0  0
  4  9  1  0  0  0  0
  4  5  2  0  0  0  0
  5  6  1  0  0  0  0
  5 25  1  0  0  0  0
  6  7  2  0  0  0  0
  6 26  1  0  0  0  0
  7  8  1  0  0  0  0
  7 27  1  0  0  0  0
  8  9  2  0  0  0  0
  8 47  1  0  0  0  0
  9 10  1  0  0  0  0
 10 14  1  0  0  0  0
 10 11  1  0  0  0  0
 11 12  1  0  0  0  0
 11 28  1  0  0  0  0
 11 29  1  0  0  0  0
 12 13  1  0  0  0  0
 12 30  1  0  0  0  0
 12 31  1  0  0  0  0
 13 14  1  0  0  0  0
 13 32  1  0  0  0  0
 13 33  1  0  0  0  0
 14 34  1  0  0  0  0
 14 35  1  0  0  0  0
 15 16  1  0  0  0  0
 15 36  1  0  0  0  0
 16 22  1  0  0  0  0
 16 17  1  0  0  0  0
 16 37  1  0  0  0  0
 17 18  1  0  0  0  0
 17 38  1  0  0  0  0
 17 39  1  0  0  0  0
 18 19  1  0  0  0  0
 18 40  1  0  0  0  0
 18 41  1  0  0  0  0
 19 20  1  0  0  0  0
 19 42  1  0  0  0  0
 19 43  1  0  0  0  0
 20 21  1  0  0  0  0
 20 44  1  0  0  0  0
 20 45  1  0  0  0  0
 21 22  1  0  0  0  0
 21 46  1  0  0  0  0
 22 23  2  0  0  0  0
M  CHG  1   8   1
M  END
> <s_m_source_file>
AV-unprocessed.smi

> <i_m_source_file_index>
1604

> <i_lp_mmshare_version>
43012

> <i_f3d_flags>
0

> <s_epik_input>
Tz1DMVtOSF1bQ0gyXVtDSDJdW0NIMl1bQ0gyXVtDQEhdMVtOSF1DKD1PKVtOSF1jMltjSF1bY0hdW2NIXW5jMk4zW0NIMl1bQ0gyXVtDSDJdW0NIMl0z

> <s_epik_cmdline>
J2VwaWtfcHl0aG9uJywgJy1waCcsICc3LjAnLCAnLXRuJywgJzgnLCAnLW1hJywgJzIwMCcsICctbWV0YWxfYmluZGluZycsICctaW1hZScsICc8aW5maWxlLm1hZT4nLCAnLW9tYWUnLCAnPG91dGZpbGUubWFlPic=

> <r_lp_tautomer_probability>
0.999994

> <r_epik_Ionization_Penalty>
1.20452

> <r_epik_Ionization_Penalty_Charging>
1.2045

> <r_epik_Ionization_Penalty_Neutral>
1.88134e-05

> <r_epik_State_Penalty>
1.2704

> <r_epik_Charging_Adjusted_Penalty>
2.4749

> <i_epik_Tot_Q>
1

> <i_epik_Tot_abs_Q>
1

> <r_epik_Metal_State_Penalty>
1.34433

> <b_epik_Metal_Only>
0

> <s_lp_Force_Field>
OPLS_2005

> <r_lp_Energy>
47.2667

> <b_lp_Chiralities_Consistent>
1

> <s_lp_Variant>
AV-unprocessed.smi:1604-4

> <Gold.Version>
5.8.1

> <Gold.Id.Protein>
6NUR|6NUR_protein|mol2

> <Gold.PLP.Fitness>
38.8620

> <Gold.PLP.PLP>
-30.6923

> <Gold.PLP.part.hbond>
-3.0000

> <Gold.PLP.part.metal>
0.0000

> <Gold.PLP.part.buried>
-3.2029

> <Gold.PLP.part.nonpolar>
-24.6828

> <Gold.PLP.part.repulsive>
0.4038

> <Gold.PLP.ligand.clash>
0.0000

> <Gold.PLP.ligand.torsion>
0.4308

> <Gold.PLP.Chemscore.Hbond>
2.9440

> <Gold.PLP.Chemscore.CHOScore>
0.0000

> <Gold.PLP.Chemscore.Metal>
0.0000

> <Gold.Chemscore.Hbonds>
donor molecule, donor type, donor heavy atom, donor atom, acceptor molecule, acceptor atom, score
      L1  H     3    24       P1  7948  0.94
      L1  H    15    36       P1  7948  1.00
      L1  H    21    46       P1 10186  1.00

> <Gold.PLP.Chemscore.Internal.Correction>
0.1993

> <Gold.Rescore>
     Score         DG    S(hbond)    S(metal)    S(lipo)     H(rot)  DE(clash)    DE(int)     intcor
     18.41     -19.94       2.81        0.00      71.03       1.26       0.03       1.50       ----

> <Gold.Chemscore.Fitness>
18.4108

> <Gold.Chemscore.DG>
-19.9430

> <Gold.Chemscore.ZeroCoef>
-5.4800

> <Gold.Chemscore.Hbond>
2.8051

> <Gold.Chemscore.Metal>
0.0000

> <Gold.Chemscore.Lipo>
71.0309

> <Gold.Chemscore.Internal_Hbond>
0.0000

> <Gold.Chemscore.DEClash>
0.0280

> <Gold.Chemscore.DEInternal>
1.5042

> <Gold.Chemscore.Rot>
1.2566

> <Gold.Chemscore.Internal.Correction>
   9.000000E+99

> <Gold.Chemscore.Hbonds>
donor molecule, donor type, donor heavy atom, donor atom, acceptor molecule, acceptor atom, score
      L1  H     3    24       P1  7948  0.90
      L1  H    15    36       P1  7948  0.97
      L1  H    21    46       P1 10186  0.78

> <Gold.Chemscore.Hbond.Weighted>
-9.3692

> <Gold.Chemscore.Metal.Weighted>
-0.0000

> <Gold.Chemscore.Lipo.Weighted>
-8.3106

> <Gold.Chemscore.Internal_Hbond.Weighted>
0.0000

> <Gold.Chemscore.DEClash.Weighted>
0.0280

> <Gold.Chemscore.DEInternal.Weighted>
1.5042

> <Gold.Chemscore.Rot.Weighted>
3.2168

> <Gold.Chemscore.Internal.Correction.Weighted>
   9.000000E+99

> <Gold.Protein.RotatedTorsions>
[ 6907 6896 6895 6894 ] final  110.22 input  -60.11 | X-H torsion
[ 7974 7965 7964 7962 ] final  138.63 input  175.53 | X-H torsion
[ 8008 7997 7996 7995 ] final   25.19 input   59.86 | X-H torsion
[ 10167 10162 10161 10158 ] final  144.17 input  -65.29 | X-H torsion
[ 10718 10713 10712 10709 ] final -122.05 input   66.30 | X-H torsion
[ 10763 10752 10751 10750 ] final  141.67 input  -60.55 | X-H torsion
[ 11005 11000 10999 10996 ] final  124.00 input  -57.11 | X-H torsion

> <Gold.Protein.ActiveResidues>
 VAL166  LYS551  ARG553  GLY616  TRP617  ASP618  TYR619  PRO620  LYS621  CYS622 
 ASP623  PHE694  ASN695  SER759  ASP760  ASP761  ALA762  ILE779  LEU786  VAL792 
 PHE793  MET794  SER795  GLU796  ALA797  LYS798  CYS799  TRP800  GLU811  SER814 

> <Gold.Protein.RotatedAtoms>
  152.5030  133.8832  159.7356 H   0  0  0  0  0  0  0  0  0  0  0  0  # atno 6907 bound_to 6896
  150.9289  133.6782  159.2822 H   0  0  0  0  0  0  0  0  0  0  0  0  # atno 6908 bound_to 6896
  151.4133  135.0992  159.9644 H   0  0  0  0  0  0  0  0  0  0  0  0  # atno 6909 bound_to 6896
  144.9355  139.4995  143.5597 H   0  0  0  0  0  0  0  0  0  0  0  0  # atno 7974 bound_to 7965
  155.0078  140.3133  155.4841 H   0  0  0  0  0  0  0  0  0  0  0  0  # atno 8008 bound_to 7997
  156.2914  140.2220  156.5132 H   0  0  0  0  0  0  0  0  0  0  0  0  # atno 8009 bound_to 7997
  154.7561  140.0462  157.0922 H   0  0  0  0  0  0  0  0  0  0  0  0  # atno 8010 bound_to 7997
  139.4953  144.5990  151.6521 H   0  0  0  0  0  0  0  0  0  0  0  0  # atno 10167 bound_to 10162
  156.1387  130.6449  150.9737 H   0  0  0  0  0  0  0  0  0  0  0  0  # atno 10718 bound_to 10713
  153.9432  135.2978  155.3442 H   0  0  0  0  0  0  0  0  0  0  0  0  # atno 10763 bound_to 10752
  154.7466  135.5000  153.9218 H   0  0  0  0  0  0  0  0  0  0  0  0  # atno 10764 bound_to 10752
  153.1032  135.6740  153.9742 H   0  0  0  0  0  0  0  0  0  0  0  0  # atno 10765 bound_to 10752
  139.9338  134.9640  156.8344 H   0  0  0  0  0  0  0  0  0  0  0  0  # atno 11005 bound_to 11000
  146.3264  139.8336  142.8903 LP  0  0  0  0  0  0  0  0  0  0  0  0  # atno 17320 bound_to 7965
  145.3074  141.0211  143.3574 LP  0  0  0  0  0  0  0  0  0  0  0  0  # atno 17321 bound_to 7965
  140.5635  144.0228  150.6181 LP  0  0  0  0  0  0  0  0  0  0  0  0  # atno 17342 bound_to 10162
  140.3322  143.3070  152.0675 LP  0  0  0  0  0  0  0  0  0  0  0  0  # atno 17343 bound_to 10162
  157.6556  131.0890  150.7955 LP  0  0  0  0  0  0  0  0  0  0  0  0  # atno 17370 bound_to 10713
  156.8032  130.4928  149.5366 LP  0  0  0  0  0  0  0  0  0  0  0  0  # atno 17371 bound_to 10713
  140.6129  134.0065  155.7585 LP  0  0  0  0  0  0  0  0  0  0  0  0  # atno 17394 bound_to 11000
  141.0942  133.9870  157.3188 LP  0  0  0  0  0  0  0  0  0  0  0  0  # atno 17395 bound_to 11000

$$$$
