AV-unprocessed.smi:3303|AV-procd|sdf|12675|dock10
  -GOLD-   2272019 13D 1   1.00000     0.00000
 Structure written by MMmdl.
 44 45  0  0  0  0  0  0  0  0  2 V2000
  152.0349  139.8125  155.7658 C   0  0  0  0  0  0  0  0  0  0  0  0
  150.5561  140.0756  156.0965 C   0  0  2  0  0  0  0  0  0  0  0  0
  149.6825  138.9338  155.5366 C   0  0  0  0  0  0  0  0  0  0  0  0
  148.2698  139.1646  155.8379 N   0  0  0  0  0  0  0  0  0  0  0  0
  147.4751  137.9959  155.4811 C   0  0  0  0  0  0  0  0  0  0  0  0
  147.7514  140.4077  155.2479 C   0  0  2  0  0  0  0  0  0  0  0  0
  147.6901  140.4116  153.7031 C   0  0  0  0  0  0  0  0  0  0  0  0
  148.5623  141.5926  155.8108 C   0  0  0  0  0  0  0  0  0  0  0  0
  150.0751  141.4439  155.5666 C   0  0  1  0  0  0  0  0  0  0  0  0
  150.7957  142.5482  156.2389 N   0  3  0  0  0  0  0  0  0  0  0  0
  150.9335  142.3996  157.7012 C   0  0  0  0  0  0  0  0  0  0  0  0
  151.8944  143.4511  158.2723 C   0  0  0  0  0  0  0  0  0  0  0  0
  152.3256  143.1240  159.6893 C   0  0  0  0  0  0  0  0  0  0  0  0
  153.0659  141.9547  159.9657 C   0  0  0  0  0  0  0  0  0  0  0  0
  153.4482  141.7025  161.2976 C   0  0  0  0  0  0  0  0  0  0  0  0
  153.0769  142.6240  162.2956 C   0  0  0  0  0  0  0  0  0  0  0  0
  152.3392  143.7630  161.9160 C   0  0  0  0  0  0  0  0  0  0  0  0
  151.9695  144.0156  160.6413 N   0  0  0  0  0  0  0  0  0  0  0  0
  152.2070  139.8224  154.6890 H   0  0  0  0  0  0  0  0  0  0  0  0
  152.3517  138.8395  156.1422 H   0  0  0  0  0  0  0  0  0  0  0  0
  152.6880  140.5612  156.2146 H   0  0  0  0  0  0  0  0  0  0  0  0
  150.4507  140.0710  157.1829 H   0  0  0  0  0  0  0  0  0  0  0  0
  149.8323  138.8192  154.4628 H   0  0  0  0  0  0  0  0  0  0  0  0
  149.9919  137.9932  155.9944 H   0  0  0  0  0  0  0  0  0  0  0  0
  146.4213  138.1625  155.7059 H   0  0  0  0  0  0  0  0  0  0  0  0
  147.8019  137.1285  156.0557 H   0  0  0  0  0  0  0  0  0  0  0  0
  147.5692  137.7487  154.4235 H   0  0  0  0  0  0  0  0  0  0  0  0
  146.7273  140.5233  155.6055 H   0  0  0  0  0  0  0  0  0  0  0  0
  147.3025  141.3640  153.3408 H   0  0  0  0  0  0  0  0  0  0  0  0
  147.0218  139.6402  153.3218 H   0  0  0  0  0  0  0  0  0  0  0  0
  148.6652  140.2659  153.2399 H   0  0  0  0  0  0  0  0  0  0  0  0
  148.2030  142.5275  155.3784 H   0  0  0  0  0  0  0  0  0  0  0  0
  148.3751  141.6661  156.8835 H   0  0  0  0  0  0  0  0  0  0  0  0
  150.2621  141.4872  154.4924 H   0  0  0  0  0  0  0  0  0  0  0  0
  151.7170  142.6252  155.8322 H   0  0  0  0  0  0  0  0  0  0  0  0
  149.9527  142.5054  158.1667 H   0  0  0  0  0  0  0  0  0  0  0  0
  151.2937  141.3947  157.9263 H   0  0  0  0  0  0  0  0  0  0  0  0
  152.7817  143.5300  157.6421 H   0  0  0  0  0  0  0  0  0  0  0  0
  151.4217  144.4343  158.2605 H   0  0  0  0  0  0  0  0  0  0  0  0
  153.3367  141.2661  159.1786 H   0  0  0  0  0  0  0  0  0  0  0  0
  154.0164  140.8189  161.5491 H   0  0  0  0  0  0  0  0  0  0  0  0
  153.3516  142.4617  163.3275 H   0  0  0  0  0  0  0  0  0  0  0  0
  152.0393  144.4911  162.6553 H   0  0  0  0  0  0  0  0  0  0  0  0
  150.2931  143.4048  156.0559 H   0  0  0  0  0  0  0  0  0  0  0  0
  1  2  1  0  0  0  0
  1 19  1  0  0  0  0
  1 20  1  0  0  0  0
  1 21  1  0  0  0  0
  2  9  1  0  0  0  0
  2  3  1  0  0  0  0
  2 22  1  0  0  0  0
  3  4  1  0  0  0  0
  3 23  1  0  0  0  0
  3 24  1  0  0  0  0
  4  5  1  0  0  0  0
  4  6  1  0  0  0  0
  5 25  1  0  0  0  0
  5 26  1  0  0  0  0
  5 27  1  0  0  0  0
  6  7  1  0  0  0  0
  6  8  1  0  0  0  0
  6 28  1  0  0  0  0
  7 29  1  0  0  0  0
  7 30  1  0  0  0  0
  7 31  1  0  0  0  0
  8  9  1  0  0  0  0
  8 32  1  0  0  0  0
  8 33  1  0  0  0  0
  9 10  1  0  0  0  0
  9 34  1  0  0  0  0
 10 11  1  0  0  0  0
 10 35  1  0  0  0  0
 10 44  1  0  0  0  0
 11 12  1  0  0  0  0
 11 36  1  0  0  0  0
 11 37  1  0  0  0  0
 12 13  1  0  0  0  0
 12 38  1  0  0  0  0
 12 39  1  0  0  0  0
 13 18  1  0  0  0  0
 13 14  2  0  0  0  0
 14 15  1  0  0  0  0
 14 40  1  0  0  0  0
 15 16  2  0  0  0  0
 15 41  1  0  0  0  0
 16 17  1  0  0  0  0
 16 42  1  0  0  0  0
 17 18  2  0  0  0  0
 17 43  1  0  0  0  0
M  CHG  1  10   1
M  END
> <s_m_source_file>
AV-unprocessed.smi

> <i_m_source_file_index>
3303

> <i_lp_mmshare_version>
43012

> <i_f3d_flags>
0

> <s_epik_input>
W0NIM11bQ0BASF0xW0NIMl1OKFtDSDNdKVtDQEBIXShbQ0gzXSlbQ0gyXVtDQEhdMVtOSF1bQ0gyXVtDSDJdYzJbY0hdW2NIXVtjSF1bY0hdbjI=

> <s_epik_cmdline>
J2VwaWtfcHl0aG9uJywgJy1waCcsICc3LjAnLCAnLXRuJywgJzgnLCAnLW1hJywgJzIwMCcsICctbWV0YWxfYmluZGluZycsICctaW1hZScsICc8aW5maWxlLm1hZT4nLCAnLW9tYWUnLCAnPG91dGZpbGUubWFlPic=

> <r_epik_Ionization_Penalty>
1.37325

> <r_epik_Ionization_Penalty_Charging>
0.000251572

> <r_epik_Ionization_Penalty_Neutral>
1.373

> <r_epik_State_Penalty>
1.46343

> <r_epik_Charging_Adjusted_Penalty>
1.46368

> <i_epik_Tot_Q>
1

> <i_epik_Tot_abs_Q>
1

> <r_epik_Metal_State_Penalty>
1.46331

> <b_epik_Metal_Only>
0

> <s_lp_Force_Field>
OPLS_2005

> <r_lp_Energy>
23.1884

> <b_lp_Chiralities_Consistent>
1

> <s_lp_Variant>
AV-unprocessed.smi:3303-19

> <Gold.Version>
5.8.1

> <Gold.Id.Protein>
6NUR|6NUR_protein|mol2

> <Gold.PLP.Fitness>
45.1226

> <Gold.PLP.PLP>
-39.5353

> <Gold.PLP.part.hbond>
-1.0000

> <Gold.PLP.part.metal>
0.0000

> <Gold.PLP.part.buried>
-2.4640

> <Gold.PLP.part.nonpolar>
-35.3674

> <Gold.PLP.part.repulsive>
0.2044

> <Gold.PLP.ligand.clash>
0.0000

> <Gold.PLP.ligand.torsion>
0.2087

> <Gold.PLP.Chemscore.Hbond>
2.0000

> <Gold.PLP.Chemscore.CHOScore>
0.0000

> <Gold.PLP.Chemscore.Metal>
0.0000

> <Gold.Chemscore.Hbonds>
donor molecule, donor type, donor heavy atom, donor atom, acceptor molecule, acceptor atom, score
      L1  H    10    44       P1  8028  2.00

> <Gold.PLP.Chemscore.Internal.Correction>
0.0047

> <Gold.Rescore>
     Score         DG    S(hbond)    S(metal)    S(lipo)     H(rot)  DE(clash)    DE(int)     intcor
     18.45     -19.35       0.99        0.00     119.26       1.33       0.70       0.20       ----

> <Gold.Chemscore.Fitness>
18.4493

> <Gold.Chemscore.DG>
-19.3478

> <Gold.Chemscore.ZeroCoef>
-5.4800

> <Gold.Chemscore.Hbond>
0.9937

> <Gold.Chemscore.Metal>
0.0000

> <Gold.Chemscore.Lipo>
119.2586

> <Gold.Chemscore.Internal_Hbond>
0.0000

> <Gold.Chemscore.DEClash>
0.7019

> <Gold.Chemscore.DEInternal>
0.1965

> <Gold.Chemscore.Rot>
1.3298

> <Gold.Chemscore.Internal.Correction>
   9.000000E+99

> <Gold.Chemscore.Hbonds>
donor molecule, donor type, donor heavy atom, donor atom, acceptor molecule, acceptor atom, score
      L1  H    10    44       P1  8028  0.99

> <Gold.Chemscore.Hbond.Weighted>
-3.3188

> <Gold.Chemscore.Metal.Weighted>
-0.0000

> <Gold.Chemscore.Lipo.Weighted>
-13.9533

> <Gold.Chemscore.Internal_Hbond.Weighted>
0.0000

> <Gold.Chemscore.DEClash.Weighted>
0.7019

> <Gold.Chemscore.DEInternal.Weighted>
0.1965

> <Gold.Chemscore.Rot.Weighted>
3.4043

> <Gold.Chemscore.Internal.Correction.Weighted>
   9.000000E+99

> <Gold.Protein.RotatedTorsions>
[ 6907 6896 6895 6894 ] final -125.27 input  -60.11 | X-H torsion
[ 7974 7965 7964 7962 ] final    3.60 input  175.53 | X-H torsion
[ 8008 7997 7996 7995 ] final   32.13 input   59.86 | X-H torsion
[ 10167 10162 10161 10158 ] final   -7.72 input  -65.29 | X-H torsion
[ 10718 10713 10712 10709 ] final   57.40 input   66.30 | X-H torsion
[ 10763 10752 10751 10750 ] final -142.38 input  -60.55 | X-H torsion
[ 11005 11000 10999 10996 ] final  175.13 input  -57.11 | X-H torsion

> <Gold.Protein.ActiveResidues>
 VAL166  LYS551  ARG553  GLY616  TRP617  ASP618  TYR619  PRO620  LYS621  CYS622 
 ASP623  PHE694  ASN695  SER759  ASP760  ASP761  ALA762  ILE779  LEU786  VAL792 
 PHE793  MET794  SER795  GLU796  ALA797  LYS798  CYS799  TRP800  GLU811  SER814 

> <Gold.Protein.RotatedAtoms>
  150.8851  133.7319  159.2920 H   0  0  0  0  0  0  0  0  0  0  0  0  # atno 6907 bound_to 6896
  151.4887  135.1055  159.9807 H   0  0  0  0  0  0  0  0  0  0  0  0  # atno 6908 bound_to 6896
  152.4785  133.8149  159.7079 H   0  0  0  0  0  0  0  0  0  0  0  0  # atno 6909 bound_to 6896
  146.2445  140.0661  142.8365 H   0  0  0  0  0  0  0  0  0  0  0  0  # atno 7974 bound_to 7965
  155.1175  140.3245  155.4506 H   0  0  0  0  0  0  0  0  0  0  0  0  # atno 8008 bound_to 7997
  156.2672  140.2033  156.6246 H   0  0  0  0  0  0  0  0  0  0  0  0  # atno 8009 bound_to 7997
  154.6709  140.0536  157.0151 H   0  0  0  0  0  0  0  0  0  0  0  0  # atno 8010 bound_to 7997
  140.7037  143.6049  150.8761 H   0  0  0  0  0  0  0  0  0  0  0  0  # atno 10167 bound_to 10162
  157.5511  130.8766  149.8965 H   0  0  0  0  0  0  0  0  0  0  0  0  # atno 10718 bound_to 10713
  154.8511  135.3497  154.6019 H   0  0  0  0  0  0  0  0  0  0  0  0  # atno 10763 bound_to 10752
  153.6628  135.6989  153.5176 H   0  0  0  0  0  0  0  0  0  0  0  0  # atno 10764 bound_to 10752
  153.2804  135.4265  155.1030 H   0  0  0  0  0  0  0  0  0  0  0  0  # atno 10765 bound_to 10752
  140.3588  134.7131  157.4317 H   0  0  0  0  0  0  0  0  0  0  0  0  # atno 11005 bound_to 11000
  145.0857  140.9251  143.4799 LP  0  0  0  0  0  0  0  0  0  0  0  0  # atno 17320 bound_to 7965
  145.0823  139.2950  143.5777 LP  0  0  0  0  0  0  0  0  0  0  0  0  # atno 17321 bound_to 7965
  139.9773  143.5990  152.2954 LP  0  0  0  0  0  0  0  0  0  0  0  0  # atno 17342 bound_to 10162
  139.6599  144.7662  151.1984 LP  0  0  0  0  0  0  0  0  0  0  0  0  # atno 17343 bound_to 10162
  156.0577  130.3705  150.1052 LP  0  0  0  0  0  0  0  0  0  0  0  0  # atno 17370 bound_to 10713
  156.9225  130.9687  151.3546 LP  0  0  0  0  0  0  0  0  0  0  0  0  # atno 17371 bound_to 10713
  140.0643  134.5951  155.8713 LP  0  0  0  0  0  0  0  0  0  0  0  0  # atno 17394 bound_to 11000
  141.1990  133.6604  156.5823 LP  0  0  0  0  0  0  0  0  0  0  0  0  # atno 17395 bound_to 11000

$$$$
