#       Name:                AV-unprocessed.smi:2645
#       Creating user name   scv26
#       Creation time:       Fri Mar 27 14:29:07 2020


#       File generated by GOLD software.
#

@<TRIPOS>MOLECULE
AV-unprocessed.smi:2645
    55    57     1
SMALL
NO_CHARGES


@<TRIPOS>ATOM
      1 ****        -2.6077   1.8502   0.1411 O.2            1 S1                 0.0000
      2 ****        -3.2445   1.4726  -0.8434 C.2            1 S1                 0.0000
      3 ****        -3.0823   0.2670  -1.4081 N.am           1 S1                 0.0000
      4 ****        -2.1422  -0.7480  -0.9479 C.3            1 S1                 0.0000
      5 ****        -0.7034  -0.4159  -1.3911 C.3            1 S1                 0.0000
      6 ****         0.2482  -1.4661  -1.0312 N.3            1 S1                 0.0000
      7 ****         0.5086  -1.4747   0.4143 C.3            1 S1                 0.0000
      8 ****         1.5394  -2.5651   0.7635 C.3            1 S1                 0.0000
      9 ****         2.7811  -2.2935   0.0332 N.am           1 S1                 0.0000
     10 ****         3.9782  -1.9693   0.5790 C.2            1 S1                 0.0000
     11 ****         4.9714  -1.7432  -0.1138 O.2            1 S1                 0.0000
     12 ****         4.0869  -1.8360   2.1112 C.3            1 S1                 0.0000
     13 ****         5.4632  -1.4077   2.6618 C.3            1 S1                 0.0000
     14 ****         5.3066  -2.4720   3.7511 C.3            1 S1                 0.0000
     15 ****         4.2908  -3.1727   2.8449 C.3            1 S1                 0.0000
     16 ****         2.5357  -2.3257  -1.4112 C.3            1 S1                 0.0000
     17 ****         1.4999  -1.2397  -1.7619 C.3            1 S1                 0.0000
     18 ****        -4.1794   2.1927  -1.4889 N.am           1 S1                 0.0000
     19 ****        -4.6111   3.5179  -1.2135 C.ar           1 S1                 0.0000
     20 ****        -5.6327   4.0041  -2.0607 C.ar           1 S1                 0.0000
     21 ****        -6.1272   5.3093  -1.8717 C.ar           1 S1                 0.0000
     22 ****        -5.5857   6.0962  -0.8397 C.ar           1 S1                 0.0000
     23 ****        -4.5712   5.5365  -0.0415 C.ar           1 S1                 0.0000
     24 ****        -4.0962   4.2859  -0.2207 N.ar           1 S1                 0.0000
     25 ****        -3.6452   0.0357  -2.2136 H              1 S1                 0.0000
     26 ****        -2.2230  -0.8384   0.1356 H              1 S1                 0.0000
     27 ****        -2.4486  -1.7075  -1.3652 H              1 S1                 0.0000
     28 ****        -0.7056  -0.3014  -2.4762 H              1 S1                 0.0000
     29 ****        -0.3774   0.5399  -0.9777 H              1 S1                 0.0000
     30 ****         0.8708  -0.4975   0.7381 H              1 S1                 0.0000
     31 ****        -0.4100  -1.6750   0.9640 H              1 S1                 0.0000
     32 ****         1.6678  -2.6124   1.8429 H              1 S1                 0.0000
     33 ****         1.1605  -3.5464   0.4737 H              1 S1                 0.0000
     34 ****         3.2923  -1.2284   2.5477 H              1 S1                 0.0000
     35 ****         6.3106  -1.6163   2.0066 H              1 S1                 0.0000
     36 ****         5.4987  -0.3867   3.0424 H              1 S1                 0.0000
     37 ****         6.2077  -3.0500   3.9582 H              1 S1                 0.0000
     38 ****         4.8575  -2.0781   4.6642 H              1 S1                 0.0000
     39 ****         3.4091  -3.5413   3.3697 H              1 S1                 0.0000
     40 ****         4.7407  -3.9503   2.2244 H              1 S1                 0.0000
     41 ****         3.4410  -2.1649  -1.9976 H              1 S1                 0.0000
     42 ****         2.1655  -3.3118  -1.6964 H              1 S1                 0.0000
     43 ****         1.3049  -1.2597  -2.8348 H              1 S1                 0.0000
     44 ****         1.8987  -0.2514  -1.5265 H              1 S1                 0.0000
     45 ****        -4.6289   1.7439  -2.2730 H              1 S1                 0.0000
     46 ****        -6.0372   3.3863  -2.8495 H              1 S1                 0.0000
     47 ****        -6.9074   5.6996  -2.5086 H              1 S1                 0.0000
     48 ****        -5.9384   7.1017  -0.6637 H              1 S1                 0.0000
     49 ****        -4.1285   6.1074   0.7614 H              1 S1                 0.0000
     50 ****        -1.9294   1.2463   0.5595 LP             1 S1                 0.0000
     51 ****        -2.7691   2.7607   0.5219 LP             1 S1                 0.0000
     52 ****        -0.1409  -2.3539  -1.2770 LP             1 S1                 0.0000
     53 ****         4.9085  -1.7965  -1.1104 LP             1 S1                 0.0000
     54 ****         5.8405  -1.5064   0.3204 LP             1 S1                 0.0000
     55 ****        -3.3733   3.9296   0.3713 LP             1 S1                 0.0000
@<TRIPOS>BOND
    1    1    2 2     
    2    2    3 am    
    3    2   18 am    
    4    3    4 1     
    5    3   25 1     
    6    4    5 1     
    7    4   26 1     
    8    4   27 1     
    9    5    6 1     
   10    5   28 1     
   11    5   29 1     
   12    6   17 1     
   13    6    7 1     
   14    7    8 1     
   15    7   30 1     
   16    7   31 1     
   17    8    9 1     
   18    8   32 1     
   19    8   33 1     
   20    9   10 am    
   21    9   16 1     
   22   10   11 2     
   23   10   12 1     
   24   12   15 1     
   25   12   13 1     
   26   12   34 1     
   27   13   14 1     
   28   13   35 1     
   29   13   36 1     
   30   14   15 1     
   31   14   37 1     
   32   14   38 1     
   33   15   39 1     
   34   15   40 1     
   35   16   17 1     
   36   16   41 1     
   37   16   42 1     
   38   17   43 1     
   39   17   44 1     
   40   18   19 1     
   41   18   45 1     
   42   19   24 ar    
   43   19   20 ar    
   44   20   21 ar    
   45   20   46 1     
   46   21   22 ar    
   47   21   47 1     
   48   22   23 ar    
   49   22   48 1     
   50   23   24 ar    
   51   23   49 1     
   52    1   50 1     
   53    1   51 1     
   54    6   52 1     
   55   11   53 1     
   56   11   54 1     
   57   24   55 1     
@<TRIPOS>SUBSTRUCTURE
      1 S1             1
@<TRIPOS>SET
LONE_PAIRS      STATIC     ATOMS    <user>   **** ""
6 50 51 52 53 54 55
DONOR_HYDROGENS      STATIC     ATOMS    <user>   **** ""
2 25 45
ATOM$BLUE        STATIC     ATOMS    COLORGROUP SYSTEM
6 50 51 52 53 54 55
ATOM$RED        STATIC     ATOMS    COLORGROUP SYSTEM
2 25 45
