#       Name:                AV-unprocessed.smi:623
#       Creating user name   scv26
#       Creation time:       Fri Mar 27 00:01:25 2020


#       File generated by GOLD software.
#

@<TRIPOS>MOLECULE
AV-unprocessed.smi:623
    51    53     1
SMALL
NO_CHARGES


@<TRIPOS>ATOM
      1 ****        -2.1115  -2.2789   1.2535 C.3            1 S1                 0.0000
      2 ****        -1.3949  -1.4567   0.1454 C.3            1 S1                 0.0000
      3 ****         0.1055  -1.8494   0.2553 C.3            1 S1                 0.0000
      4 ****        -1.9936  -1.6343  -1.2643 C.3            1 S1                 0.0000
      5 ****        -3.4290  -1.0797  -1.1195 C.3            1 S1                 0.0000
      6 ****        -3.2385   0.0904  -0.1318 C.3            1 S1                 0.0000
      7 ****        -1.7114   0.0655   0.1380 C.3            1 S1                 0.0000
      8 ****        -1.3220   0.8414   1.4127 C.3            1 S1                 0.0000
      9 ****        -1.0656   0.5919  -1.1803 C.3            1 S1                 0.0000
     10 ****         0.3135   1.0282  -0.9955 N.am           1 S1                 0.0000
     11 ****         1.0614   1.7128  -1.8743 C.2            1 S1                 0.0000
     12 ****         0.6383   2.0790  -2.9699 O.2            1 S1                 0.0000
     13 ****         2.5143   2.0278  -1.4770 C.3            1 S1                 0.0000
     14 ****         2.9053   1.5002  -0.1578 N.am           1 S1                 0.0000
     15 ****         3.4764   0.2393  -0.0549 C.2            1 S1                 0.0000
     16 ****         3.8162  -0.3319   1.1247 C.2            1 S1                 0.0000
     17 ****         3.5896   0.3758   2.3801 C.2            1 S1                 0.0000
     18 ****         3.8610  -0.0576   3.4976 O.2            1 S1                 0.0000
     19 ****         3.0144   1.6410   2.2357 N.am           1 S1                 0.0000
     20 ****         2.6605   2.2351   1.0234 C.2            1 S1                 0.0000
     21 ****         2.1431   3.3511   1.0101 O.2            1 S1                 0.0000
     22 ****        -1.2092  -0.6210  -2.1289 C.3            1 S1                 0.0000
     23 ****         2.8372   2.1678   3.0788 H              1 S1                 0.0000
     24 ****        -1.9737  -3.3478   1.0878 H              1 S1                 0.0000
     25 ****        -3.1843  -2.1173   1.3305 H              1 S1                 0.0000
     26 ****        -1.6938  -2.0510   2.2346 H              1 S1                 0.0000
     27 ****         0.7553  -1.4237  -0.5039 H              1 S1                 0.0000
     28 ****         0.2241  -2.9303   0.1746 H              1 S1                 0.0000
     29 ****         0.5161  -1.5547   1.2214 H              1 S1                 0.0000
     30 ****        -1.9599  -2.6520  -1.6548 H              1 S1                 0.0000
     31 ****        -3.8432  -0.7495  -2.0729 H              1 S1                 0.0000
     32 ****        -4.1101  -1.8303  -0.7178 H              1 S1                 0.0000
     33 ****        -3.5779   1.0391  -0.5497 H              1 S1                 0.0000
     34 ****        -3.8162  -0.0679   0.7791 H              1 S1                 0.0000
     35 ****        -1.5465   1.9030   1.3061 H              1 S1                 0.0000
     36 ****        -0.2591   0.7496   1.6366 H              1 S1                 0.0000
     37 ****        -1.8695   0.4757   2.2814 H              1 S1                 0.0000
     38 ****        -1.6257   1.4459  -1.5658 H              1 S1                 0.0000
     39 ****         0.7460   0.7759  -0.1186 H              1 S1                 0.0000
     40 ****         3.1713   1.6170  -2.2452 H              1 S1                 0.0000
     41 ****         2.6643   3.1079  -1.5233 H              1 S1                 0.0000
     42 ****         3.6538  -0.3247  -0.9596 H              1 S1                 0.0000
     43 ****         4.2548  -1.3192   1.1401 H              1 S1                 0.0000
     44 ****        -0.2442  -1.0249  -2.4364 H              1 S1                 0.0000
     45 ****        -1.7428  -0.3594  -3.0434 H              1 S1                 0.0000
     46 ****        -0.3015   1.8684  -3.2388 LP             1 S1                 0.0000
     47 ****         1.2342   2.5873  -3.5916 LP             1 S1                 0.0000
     48 ****         4.2713  -0.9642   3.5962 LP             1 S1                 0.0000
     49 ****         3.6715   0.4964   4.3083 LP             1 S1                 0.0000
     50 ****         1.8794   3.7697   0.1410 LP             1 S1                 0.0000
     51 ****         1.9862   3.8398   1.8683 LP             1 S1                 0.0000
@<TRIPOS>BOND
    1    1    2 1     
    2    1   24 1     
    3    1   25 1     
    4    1   26 1     
    5    2    7 1     
    6    2    3 1     
    7    2    4 1     
    8    3   27 1     
    9    3   28 1     
   10    3   29 1     
   11    4   22 1     
   12    4    5 1     
   13    4   30 1     
   14    5    6 1     
   15    5   31 1     
   16    5   32 1     
   17    6    7 1     
   18    6   33 1     
   19    6   34 1     
   20    7    8 1     
   21    7    9 1     
   22    8   35 1     
   23    8   36 1     
   24    8   37 1     
   25    9   10 1     
   26    9   22 1     
   27    9   38 1     
   28   10   11 am    
   29   10   39 1     
   30   11   12 2     
   31   11   13 1     
   32   13   14 1     
   33   13   40 1     
   34   13   41 1     
   35   14   20 1     
   36   14   15 1     
   37   15   16 2     
   38   15   42 1     
   39   16   17 1     
   40   16   43 1     
   41   17   18 2     
   42   17   19 1     
   43   19   23 1     
   44   19   20 1     
   45   20   21 2     
   46   22   44 1     
   47   22   45 1     
   48   12   46 1     
   49   12   47 1     
   50   18   48 1     
   51   18   49 1     
   52   21   50 1     
   53   21   51 1     
@<TRIPOS>SUBSTRUCTURE
      1 S1             1
@<TRIPOS>SET
LONE_PAIRS      STATIC     ATOMS    <user>   **** ""
6 46 47 48 49 50 51
DONOR_HYDROGENS      STATIC     ATOMS    <user>   **** ""
2 39 23
ATOM$BLUE        STATIC     ATOMS    COLORGROUP SYSTEM
6 46 47 48 49 50 51
ATOM$RED        STATIC     ATOMS    COLORGROUP SYSTEM
2 39 23
