#       Name:                AV-unprocessed.smi:2109
#       Creating user name   scv26
#       Creation time:       Fri Mar 27 11:34:53 2020


#       File generated by GOLD software.
#

@<TRIPOS>MOLECULE
AV-unprocessed.smi:2109
    51    52     1
SMALL
NO_CHARGES


@<TRIPOS>ATOM
      1 ****        -4.3695   3.1418   0.6699 C.3            1 S1                 0.0000
      2 ****        -4.0425   2.9858  -0.8256 C.3            1 S1                 0.0000
      3 ****        -5.3231   2.7179  -1.6300 C.3            1 S1                 0.0000
      4 ****        -2.9916   1.8889  -1.0973 C.3            1 S1                 0.0000
      5 ****        -1.7033   2.1866  -0.4772 N.am           1 S1                 0.0000
      6 ****        -1.2262   1.6160   0.6380 C.2            1 S1                 0.0000
      7 ****        -1.8236   0.7597   1.2898 O.2            1 S1                 0.0000
      8 ****        -0.0119   2.0859   0.9569 N.am           1 S1                 0.0000
      9 ****         0.7549   1.6978   2.1386 C.3            1 S1                 0.0000
     10 ****         1.6557   0.4771   1.9762 C.ar           1 S1                 0.0000
     11 ****         2.6385   0.2269   2.9566 C.ar           1 S1                 0.0000
     12 ****         3.4762  -0.8954   2.8240 C.ar           1 S1                 0.0000
     13 ****         3.3291  -1.7216   1.7674 N.pl3          1 S1                 1.0000
     14 ****         2.4029  -1.5445   0.7943 C.ar           1 S1                 0.0000
     15 ****         2.3464  -2.4958  -0.2487 N.3            1 S1                 0.0000
     16 ****         1.2806  -2.3719  -1.2397 C.3            1 S1                 0.0000
     17 ****         1.1862  -3.6465  -2.0950 C.3            1 S1                 0.0000
     18 ****         2.4552  -3.9313  -2.6720 O.3            1 S1                 0.0000
     19 ****         3.4404  -4.1848  -1.6768 C.3            1 S1                 0.0000
     20 ****         3.6278  -2.9351  -0.7999 C.3            1 S1                 0.0000
     21 ****         1.5398  -0.4228   0.8882 C.ar           1 S1                 0.0000
     22 ****        -4.7378   2.2070   1.0939 H              1 S1                 0.0000
     23 ****        -5.1354   3.9018   0.8266 H              1 S1                 0.0000
     24 ****        -3.4945   3.4462   1.2441 H              1 S1                 0.0000
     25 ****        -3.6344   3.9355  -1.1746 H              1 S1                 0.0000
     26 ****        -5.7918   1.7806  -1.3279 H              1 S1                 0.0000
     27 ****        -5.1126   2.6556  -2.6981 H              1 S1                 0.0000
     28 ****        -6.0522   3.5161  -1.4866 H              1 S1                 0.0000
     29 ****        -3.3676   0.9155  -0.7772 H              1 S1                 0.0000
     30 ****        -2.8200   1.8055  -2.1707 H              1 S1                 0.0000
     31 ****        -1.1333   2.8831  -0.9347 H              1 S1                 0.0000
     32 ****         0.3996   2.7863   0.3572 H              1 S1                 0.0000
     33 ****         1.3777   2.5492   2.4146 H              1 S1                 0.0000
     34 ****         0.0849   1.5285   2.9833 H              1 S1                 0.0000
     35 ****         2.7513   0.8891   3.8030 H              1 S1                 0.0000
     36 ****         4.2523  -1.1580   3.5284 H              1 S1                 0.0000
     37 ****         0.3212  -2.2099  -0.7477 H              1 S1                 0.0000
     38 ****         1.4773  -1.5074  -1.8750 H              1 S1                 0.0000
     39 ****         0.8482  -4.4938  -1.4959 H              1 S1                 0.0000
     40 ****         0.4554  -3.5096  -2.8922 H              1 S1                 0.0000
     41 ****         3.1499  -5.0452  -1.0715 H              1 S1                 0.0000
     42 ****         4.3799  -4.4435  -2.1656 H              1 S1                 0.0000
     43 ****         4.0518  -2.1232  -1.3922 H              1 S1                 0.0000
     44 ****         4.3455  -3.1656  -0.0127 H              1 S1                 0.0000
     45 ****         0.7936  -0.2466   0.1306 H              1 S1                 0.0000
     46 ****         3.9472  -2.5306   1.7022 H              1 S1                 0.0000
     47 ****        -2.7265   0.4468   0.9953 LP             1 S1                 0.0000
     48 ****        -1.4059   0.3769   2.1139 LP             1 S1                 0.0000
     49 ****         2.0289  -3.2753   0.2913 LP             1 S1                 0.0000
     50 ****         2.7443  -3.1479  -3.2222 LP             1 S1                 0.0000
     51 ****         2.3714  -4.7374  -3.2579 LP             1 S1                 0.0000
@<TRIPOS>BOND
    1    1    2 1     
    2    1   22 1     
    3    1   23 1     
    4    1   24 1     
    5    2    3 1     
    6    2    4 1     
    7    2   25 1     
    8    3   26 1     
    9    3   27 1     
   10    3   28 1     
   11    4    5 1     
   12    4   29 1     
   13    4   30 1     
   14    5    6 am    
   15    5   31 1     
   16    6    7 2     
   17    6    8 am    
   18    8    9 1     
   19    8   32 1     
   20    9   10 1     
   21    9   33 1     
   22    9   34 1     
   23   10   21 ar    
   24   10   11 ar    
   25   11   12 ar    
   26   11   35 1     
   27   12   13 ar    
   28   12   36 1     
   29   13   14 ar    
   30   13   46 1     
   31   14   15 1     
   32   14   21 ar    
   33   15   20 1     
   34   15   16 1     
   35   16   17 1     
   36   16   37 1     
   37   16   38 1     
   38   17   18 1     
   39   17   39 1     
   40   17   40 1     
   41   18   19 1     
   42   19   20 1     
   43   19   41 1     
   44   19   42 1     
   45   20   43 1     
   46   20   44 1     
   47   21   45 1     
   48    7   47 1     
   49    7   48 1     
   50   15   49 1     
   51   18   50 1     
   52   18   51 1     
@<TRIPOS>SUBSTRUCTURE
      1 S1             1
@<TRIPOS>SET
LONE_PAIRS      STATIC     ATOMS    <user>   **** ""
5 47 48 49 50 51
DONOR_HYDROGENS      STATIC     ATOMS    <user>   **** ""
3 31 32 46
ATOM$BLUE        STATIC     ATOMS    COLORGROUP SYSTEM
5 47 48 49 50 51
ATOM$RED        STATIC     ATOMS    COLORGROUP SYSTEM
3 31 32 46
