AV-unprocessed.smi:2913|AV-procd|sdf|11184|dock10
  -GOLD-   2272016 73D 1   1.00000     0.00000
 Structure written by MMmdl.
 41 42  0  0  0  0  0  0  0  0  1 V2000
  145.7094  135.7159  151.0448 C   0  0  0  0  0  0  0  0  0  0  0  0
  145.5951  134.2090  151.2066 C   0  0  0  0  0  0  0  0  0  0  0  0
  144.6294  133.5336  150.5445 C   0  0  0  0  0  0  0  0  0  0  0  0
  144.4595  132.0837  150.6534 C   0  0  0  0  0  0  0  0  0  0  0  0
  143.5792  131.4769  150.0426 O   0  0  0  0  0  0  0  0  0  0  0  0
  145.3382  131.4502  151.4779 N   0  0  0  0  0  0  0  0  0  0  0  0
  145.2450  129.9998  151.6651 C   0  0  0  0  0  0  0  0  0  0  0  0
  146.3467  132.1399  152.1717 C   0  0  0  0  0  0  0  0  0  0  0  0
  146.5164  133.4767  152.0665 C   0  0  0  0  0  0  0  0  0  0  0  0
  147.5040  134.2070  152.7493 N   0  0  0  0  0  0  0  0  0  0  0  0
  148.0090  134.0212  153.9833 C   0  0  0  0  0  0  0  0  0  0  0  0
  147.7081  133.1123  154.7566 O   0  0  0  0  0  0  0  0  0  0  0  0
  148.9212  134.9621  154.2668 N   0  0  0  0  0  0  0  0  0  0  0  0
  149.7176  135.0463  155.4891 C   0  0  2  0  0  0  0  0  0  0  0  0
  148.7778  135.3128  156.6754 C   0  0  0  0  0  0  0  0  0  0  0  0
  150.7860  136.1446  155.3223 C   0  0  1  0  0  0  0  0  0  0  0  0
  150.2381  137.5724  155.3002 C   0  0  0  0  0  0  0  0  0  0  0  0
  151.4477  138.3704  155.7285 C   0  0  0  0  0  0  0  0  0  0  0  0
  152.0621  137.4589  156.7860 C   0  0  0  0  0  0  0  0  0  0  0  0
  151.6931  136.1307  156.4238 O   0  0  0  0  0  0  0  0  0  0  0  0
  144.9583  136.1071  150.3576 H   0  0  0  0  0  0  0  0  0  0  0  0
  146.6919  135.9822  150.6538 H   0  0  0  0  0  0  0  0  0  0  0  0
  145.5748  136.2117  152.0065 H   0  0  0  0  0  0  0  0  0  0  0  0
  143.9477  134.0760  149.9054 H   0  0  0  0  0  0  0  0  0  0  0  0
  146.0042  129.6094  152.3435 H   0  0  0  0  0  0  0  0  0  0  0  0
  145.3655  129.4824  150.7123 H   0  0  0  0  0  0  0  0  0  0  0  0
  144.2720  129.7295  152.0779 H   0  0  0  0  0  0  0  0  0  0  0  0
  146.9505  131.4997  152.7943 H   0  0  0  0  0  0  0  0  0  0  0  0
  147.8986  134.9712  152.2208 H   0  0  0  0  0  0  0  0  0  0  0  0
  149.1027  135.6653  153.5661 H   0  0  0  0  0  0  0  0  0  0  0  0
  150.2280  134.0996  155.6743 H   0  0  0  0  0  0  0  0  0  0  0  0
  149.3236  135.3319  157.6186 H   0  0  0  0  0  0  0  0  0  0  0  0
  148.0192  134.5335  156.7564 H   0  0  0  0  0  0  0  0  0  0  0  0
  148.2638  136.2686  156.5684 H   0  0  0  0  0  0  0  0  0  0  0  0
  151.3673  135.9720  154.4146 H   0  0  0  0  0  0  0  0  0  0  0  0
  149.8581  137.8693  154.3224 H   0  0  0  0  0  0  0  0  0  0  0  0
  149.4366  137.6902  156.0313 H   0  0  0  0  0  0  0  0  0  0  0  0
  152.1340  138.4897  154.8888 H   0  0  0  0  0  0  0  0  0  0  0  0
  151.1978  139.3605  156.1105 H   0  0  0  0  0  0  0  0  0  0  0  0
  153.1450  137.5683  156.8482 H   0  0  0  0  0  0  0  0  0  0  0  0
  151.6430  137.6777  157.7689 H   0  0  0  0  0  0  0  0  0  0  0  0
  1  2  1  0  0  0  0
  1 21  1  0  0  0  0
  1 22  1  0  0  0  0
  1 23  1  0  0  0  0
  2  9  1  0  0  0  0
  2  3  2  0  0  0  0
  3  4  1  0  0  0  0
  3 24  1  0  0  0  0
  4  5  2  0  0  0  0
  4  6  1  0  0  0  0
  6  7  1  0  0  0  0
  6  8  1  0  0  0  0
  7 25  1  0  0  0  0
  7 26  1  0  0  0  0
  7 27  1  0  0  0  0
  8  9  2  0  0  0  0
  8 28  1  0  0  0  0
  9 10  1  0  0  0  0
 10 11  1  0  0  0  0
 10 29  1  0  0  0  0
 11 12  2  0  0  0  0
 11 13  1  0  0  0  0
 13 14  1  0  0  0  0
 13 30  1  0  0  0  0
 14 15  1  0  0  0  0
 14 16  1  0  0  0  0
 14 31  1  0  0  0  0
 15 32  1  0  0  0  0
 15 33  1  0  0  0  0
 15 34  1  0  0  0  0
 16 20  1  0  0  0  0
 16 17  1  0  0  0  0
 16 35  1  0  0  0  0
 17 18  1  0  0  0  0
 17 36  1  0  0  0  0
 17 37  1  0  0  0  0
 18 19  1  0  0  0  0
 18 38  1  0  0  0  0
 18 39  1  0  0  0  0
 19 20  1  0  0  0  0
 19 40  1  0  0  0  0
 19 41  1  0  0  0  0
M  END
> <s_m_source_file>
AV-unprocessed.smi

> <i_m_source_file_index>
2913

> <i_lp_mmshare_version>
43012

> <i_f3d_flags>
0

> <s_epik_input>
W0NIM11jMVtjSF1jKD1PKW4oW0NIM10pW2NIXWMxW05IXUMoPU8pW05IXVtDQEhdKFtDSDNdKVtDQEBIXTJbQ0gyXVtDSDJdW0NIMl1PMg==

> <s_epik_cmdline>
J2VwaWtfcHl0aG9uJywgJy1waCcsICc3LjAnLCAnLXRuJywgJzgnLCAnLW1hJywgJzIwMCcsICctbWV0YWxfYmluZGluZycsICctaW1hZScsICc8aW5maWxlLm1hZT4nLCAnLW9tYWUnLCAnPG91dGZpbGUubWFlPic=

> <r_lp_tautomer_probability>
1

> <r_epik_Ionization_Penalty>
2.72039e-05

> <r_epik_Ionization_Penalty_Charging>
8.03976e-06

> <r_epik_Ionization_Penalty_Neutral>
1.91642e-05

> <r_epik_State_Penalty>
-0

> <r_epik_Charging_Adjusted_Penalty>
8.03976e-06

> <i_epik_Tot_Q>
0

> <i_epik_Tot_abs_Q>
0

> <r_epik_Metal_State_Penalty>
-0

> <b_epik_Metal_Only>
0

> <s_lp_Force_Field>
OPLS_2005

> <r_lp_Energy>
32.0319

> <b_lp_Chiralities_Consistent>
1

> <s_lp_Variant>
AV-unprocessed.smi:2913-3

> <Gold.Version>
5.8.1

> <Gold.Id.Protein>
6NUR|6NUR_protein|mol2

> <Gold.PLP.Fitness>
41.4031

> <Gold.PLP.PLP>
-30.4100

> <Gold.PLP.part.hbond>
-4.0000

> <Gold.PLP.part.metal>
0.0000

> <Gold.PLP.part.buried>
-3.9991

> <Gold.PLP.part.nonpolar>
-23.3671

> <Gold.PLP.part.repulsive>
1.0551

> <Gold.PLP.ligand.clash>
0.0000

> <Gold.PLP.ligand.torsion>
0.3776

> <Gold.PLP.Chemscore.Hbond>
3.9120

> <Gold.PLP.Chemscore.CHOScore>
0.0000

> <Gold.PLP.Chemscore.Metal>
0.0000

> <Gold.Chemscore.Hbonds>
donor molecule, donor type, donor heavy atom, donor atom, acceptor molecule, acceptor atom, score
      L1  H    10    29       P1  7948  1.00
      L1  H    13    30       P1  7948  0.99
      P1  H 10752 10765       L1    20  0.46
      P1  H 10785 10796       L1     5  0.90

> <Gold.PLP.Chemscore.Internal.Correction>
0.0123

> <Gold.Rescore>
     Score         DG    S(hbond)    S(metal)    S(lipo)     H(rot)  DE(clash)    DE(int)     intcor
     17.43     -18.89       2.63        0.00      65.97       1.21       0.46       1.00       ----

> <Gold.Chemscore.Fitness>
17.4277

> <Gold.Chemscore.DG>
-18.8880

> <Gold.Chemscore.ZeroCoef>
-5.4800

> <Gold.Chemscore.Hbond>
2.6311

> <Gold.Chemscore.Metal>
0.0000

> <Gold.Chemscore.Lipo>
65.9664

> <Gold.Chemscore.Internal_Hbond>
0.0000

> <Gold.Chemscore.DEClash>
0.4599

> <Gold.Chemscore.DEInternal>
1.0003

> <Gold.Chemscore.Rot>
1.2101

> <Gold.Chemscore.Internal.Correction>
   9.000000E+99

> <Gold.Chemscore.Hbonds>
donor molecule, donor type, donor heavy atom, donor atom, acceptor molecule, acceptor atom, score
      L1  H    10    29       P1  7948  0.78
      L1  H    13    30       P1  7948  0.69
      P1  H 10752 10765       L1    20  0.03
      P1  H 10785 10796       L1     5  0.88

> <Gold.Chemscore.Hbond.Weighted>
-8.7878

> <Gold.Chemscore.Metal.Weighted>
-0.0000

> <Gold.Chemscore.Lipo.Weighted>
-7.7181

> <Gold.Chemscore.Internal_Hbond.Weighted>
0.0000

> <Gold.Chemscore.DEClash.Weighted>
0.4599

> <Gold.Chemscore.DEInternal.Weighted>
1.0003

> <Gold.Chemscore.Rot.Weighted>
3.0979

> <Gold.Chemscore.Internal.Correction.Weighted>
   9.000000E+99

> <Gold.Protein.RotatedTorsions>
[ 6907 6896 6895 6894 ] final  164.69 input  -60.11 | X-H torsion
[ 7974 7965 7964 7962 ] final  -68.16 input  175.53 | X-H torsion
[ 8008 7997 7996 7995 ] final  111.41 input   59.86 | X-H torsion
[ 10167 10162 10161 10158 ] final -115.36 input  -65.29 | X-H torsion
[ 10718 10713 10712 10709 ] final  -71.39 input   66.30 | X-H torsion
[ 10763 10752 10751 10750 ] final -128.15 input  -60.55 | X-H torsion
[ 11005 11000 10999 10996 ] final   56.13 input  -57.11 | X-H torsion

> <Gold.Protein.ActiveResidues>
 VAL166  LYS551  ARG553  GLY616  TRP617  ASP618  TYR619  PRO620  LYS621  CYS622 
 ASP623  PHE694  ASN695  SER759  ASP760  ASP761  ALA762  ILE779  LEU786  VAL792 
 PHE793  MET794  SER795  GLU796  ALA797  LYS798  CYS799  TRP800  GLU811  SER814 

> <Gold.Protein.RotatedAtoms>
  151.9060  133.3549  159.3846 H   0  0  0  0  0  0  0  0  0  0  0  0  # atno 6907 bound_to 6896
  150.7069  134.4780  159.5466 H   0  0  0  0  0  0  0  0  0  0  0  0  # atno 6908 bound_to 6896
  152.2378  134.8259  160.0515 H   0  0  0  0  0  0  0  0  0  0  0  0  # atno 6909 bound_to 6896
  145.7200  140.9042  143.0635 H   0  0  0  0  0  0  0  0  0  0  0  0  # atno 7974 bound_to 7965
  156.2122  140.3020  155.9757 H   0  0  0  0  0  0  0  0  0  0  0  0  # atno 8008 bound_to 7997
  155.2696  140.0433  157.3022 H   0  0  0  0  0  0  0  0  0  0  0  0  # atno 8009 bound_to 7997
  154.5715  140.2349  155.8193 H   0  0  0  0  0  0  0  0  0  0  0  0  # atno 8010 bound_to 7997
  140.0909  143.4700  152.1870 H   0  0  0  0  0  0  0  0  0  0  0  0  # atno 10167 bound_to 10162
  156.0365  130.4350  150.2437 H   0  0  0  0  0  0  0  0  0  0  0  0  # atno 10718 bound_to 10713
  154.8755  135.3938  154.3710 H   0  0  0  0  0  0  0  0  0  0  0  0  # atno 10763 bound_to 10752
  153.4470  135.7027  153.6138 H   0  0  0  0  0  0  0  0  0  0  0  0  # atno 10764 bound_to 10752
  153.4695  135.3794  155.2352 H   0  0  0  0  0  0  0  0  0  0  0  0  # atno 10765 bound_to 10752
  140.0553  134.5679  155.9215 H   0  0  0  0  0  0  0  0  0  0  0  0  # atno 11005 bound_to 11000
  144.6919  139.9190  143.7467 LP  0  0  0  0  0  0  0  0  0  0  0  0  # atno 17320 bound_to 7965
  146.0634  139.3626  143.0567 LP  0  0  0  0  0  0  0  0  0  0  0  0  # atno 17321 bound_to 7965
  139.5725  144.7470  151.3852 LP  0  0  0  0  0  0  0  0  0  0  0  0  # atno 17342 bound_to 10162
  140.7029  143.7587  150.7433 LP  0  0  0  0  0  0  0  0  0  0  0  0  # atno 17343 bound_to 10162
  157.0536  131.0069  151.3246 LP  0  0  0  0  0  0  0  0  0  0  0  0  # atno 17370 bound_to 10713
  157.5123  130.7946  149.7718 LP  0  0  0  0  0  0  0  0  0  0  0  0  # atno 17371 bound_to 10713
  141.1949  133.6585  156.5617 LP  0  0  0  0  0  0  0  0  0  0  0  0  # atno 17394 bound_to 11000
  140.3854  134.7487  157.4688 LP  0  0  0  0  0  0  0  0  0  0  0  0  # atno 17395 bound_to 11000

$$$$
