AV-unprocessed.smi:193|AV-procd|sdf|1505|dock2
  -GOLD-   2262019333D 1   1.00000     0.00000
 Structure written by MMmdl.
 62 66  0  0  0  0  0  0  0  0  2 V2000
  148.7699  141.1697  154.9732 C   0  0  0  0  0  0  0  0  0  0  0  0
  149.9047  140.2638  155.4760 C   0  0  1  0  0  0  0  0  0  0  0  0
  150.3343  139.3130  154.3350 C   0  0  0  0  0  0  0  0  0  0  0  0
  151.2195  138.2312  154.7647 N   0  0  0  0  0  0  0  0  0  0  0  0
  150.6674  137.0365  155.1095 C   0  0  0  0  0  0  0  0  0  0  0  0
  151.4776  135.9917  155.4278 N   0  0  0  0  0  0  0  0  0  0  0  0
  150.9582  134.8023  155.7440 C   0  0  0  0  0  0  0  0  0  0  0  0
  149.6755  134.4424  155.8017 N   0  0  0  0  0  0  0  0  0  0  0  0
  148.8545  135.4858  155.4919 C   0  0  0  0  0  0  0  0  0  0  0  0
  149.2620  136.8049  155.1429 C   0  0  0  0  0  0  0  0  0  0  0  0
  148.1424  137.5979  154.9178 N   0  0  0  0  0  0  0  0  0  0  0  0
  147.1342  136.7923  155.1094 C   0  0  0  0  0  0  0  0  0  0  0  0
  147.4715  135.5007  155.4437 N   0  0  0  0  0  0  0  0  0  0  0  0
  146.5556  134.4005  155.7037 C   0  0  0  0  0  0  0  0  0  0  0  0
  146.1332  133.6187  154.4345 C   0  0  0  0  0  0  0  0  0  0  0  0
  145.6637  132.3458  154.8441 O   0  0  0  0  0  0  0  0  0  0  0  0
  144.9854  134.3525  153.7118 C   0  0  0  0  0  0  0  0  0  0  0  0
  144.6465  133.7087  152.3557 C   0  0  0  0  0  0  0  0  0  0  0  0
  145.8121  133.6466  151.5428 O   0  0  0  0  0  0  0  0  0  0  0  0
  146.8297  132.8262  152.1036 C   0  0  0  0  0  0  0  0  0  0  0  0
  147.3022  133.4101  153.4469 C   0  0  0  0  0  0  0  0  0  0  0  0
  152.4638  138.5934  155.4403 C   0  0  0  0  0  0  0  0  0  0  0  0
  152.2106  139.0474  156.8897 C   0  0  0  0  0  0  0  0  0  0  0  0
  151.9270  140.4995  157.0392 N   0  3  2  0  0  0  0  0  0  0  0  0
  151.4275  140.8138  158.4001 C   0  0  2  0  0  0  0  0  0  0  0  0
  151.9389  142.1244  158.9565 C   0  0  0  0  0  0  0  0  0  0  0  0
  152.4763  140.8194  159.4998 C   0  0  2  0  0  0  0  0  0  0  0  0
  153.9339  140.4543  159.2852 C   0  0  0  0  0  0  0  0  0  0  0  0
  151.0922  141.1231  155.9729 C   0  0  0  0  0  0  0  0  0  0  0  0
  149.0979  141.7929  154.1404 H   0  0  0  0  0  0  0  0  0  0  0  0
  148.4110  141.8300  155.7633 H   0  0  0  0  0  0  0  0  0  0  0  0
  147.9181  140.5803  154.6322 H   0  0  0  0  0  0  0  0  0  0  0  0
  149.4955  139.6885  156.3073 H   0  0  0  0  0  0  0  0  0  0  0  0
  149.4542  138.8875  153.8505 H   0  0  0  0  0  0  0  0  0  0  0  0
  150.8426  139.8788  153.5534 H   0  0  0  0  0  0  0  0  0  0  0  0
  151.6720  134.0275  155.9823 H   0  0  0  0  0  0  0  0  0  0  0  0
  146.1094  137.1180  155.0037 H   0  0  0  0  0  0  0  0  0  0  0  0
  147.0226  133.7288  156.4253 H   0  0  0  0  0  0  0  0  0  0  0  0
  145.6744  134.8103  156.1990 H   0  0  0  0  0  0  0  0  0  0  0  0
  144.7282  132.3952  154.9669 H   0  0  0  0  0  0  0  0  0  0  0  0
  144.0960  134.3882  154.3424 H   0  0  0  0  0  0  0  0  0  0  0  0
  145.2751  135.3894  153.5359 H   0  0  0  0  0  0  0  0  0  0  0  0
  144.2259  132.7106  152.4866 H   0  0  0  0  0  0  0  0  0  0  0  0
  143.8917  134.3032  151.8406 H   0  0  0  0  0  0  0  0  0  0  0  0
  146.4639  131.8056  152.2252 H   0  0  0  0  0  0  0  0  0  0  0  0
  147.6651  132.7790  151.4051 H   0  0  0  0  0  0  0  0  0  0  0  0
  147.7866  134.3688  153.2570 H   0  0  0  0  0  0  0  0  0  0  0  0
  148.0651  132.7603  153.8772 H   0  0  0  0  0  0  0  0  0  0  0  0
  153.1400  137.7408  155.4543 H   0  0  0  0  0  0  0  0  0  0  0  0
  152.9877  139.3638  154.8739 H   0  0  0  0  0  0  0  0  0  0  0  0
  151.4136  138.4561  157.3435 H   0  0  0  0  0  0  0  0  0  0  0  0
  153.1028  138.8316  157.4763 H   0  0  0  0  0  0  0  0  0  0  0  0
  150.4060  140.5023  158.6117 H   0  0  0  0  0  0  0  0  0  0  0  0
  152.6028  142.7243  158.3364 H   0  0  0  0  0  0  0  0  0  0  0  0
  151.2710  142.6919  159.6013 H   0  0  0  0  0  0  0  0  0  0  0  0
  152.1106  140.5341  160.4843 H   0  0  0  0  0  0  0  0  0  0  0  0
  154.2936  140.7987  158.3155 H   0  0  0  0  0  0  0  0  0  0  0  0
  154.0634  139.3738  159.3456 H   0  0  0  0  0  0  0  0  0  0  0  0
  154.5480  140.9159  160.0587 H   0  0  0  0  0  0  0  0  0  0  0  0
  151.7390  141.3764  155.1323 H   0  0  0  0  0  0  0  0  0  0  0  0
  150.7293  142.0847  156.3378 H   0  0  0  0  0  0  0  0  0  0  0  0
  152.8217  140.9627  156.9696 H   0  0  0  0  0  0  0  0  0  0  0  0
  1  2  1  0  0  0  0
  1 30  1  0  0  0  0
  1 31  1  0  0  0  0
  1 32  1  0  0  0  0
  2 29  1  0  0  0  0
  2  3  1  0  0  0  0
  2 33  1  0  0  0  0
  3  4  1  0  0  0  0
  3 34  1  0  0  0  0
  3 35  1  0  0  0  0
  4  5  1  0  0  0  0
  4 22  1  0  0  0  0
  5 10  1  0  0  0  0
  5  6  2  0  0  0  0
  6  7  1  0  0  0  0
  7  8  2  0  0  0  0
  7 36  1  0  0  0  0
  8  9  1  0  0  0  0
  9 13  1  0  0  0  0
  9 10  2  0  0  0  0
 10 11  1  0  0  0  0
 11 12  2  0  0  0  0
 12 13  1  0  0  0  0
 12 37  1  0  0  0  0
 13 14  1  0  0  0  0
 14 15  1  0  0  0  0
 14 38  1  0  0  0  0
 14 39  1  0  0  0  0
 15 21  1  0  0  0  0
 15 16  1  0  0  0  0
 15 17  1  0  0  0  0
 16 40  1  0  0  0  0
 17 18  1  0  0  0  0
 17 41  1  0  0  0  0
 17 42  1  0  0  0  0
 18 19  1  0  0  0  0
 18 43  1  0  0  0  0
 18 44  1  0  0  0  0
 19 20  1  0  0  0  0
 20 21  1  0  0  0  0
 20 45  1  0  0  0  0
 20 46  1  0  0  0  0
 21 47  1  0  0  0  0
 21 48  1  0  0  0  0
 22 23  1  0  0  0  0
 22 49  1  0  0  0  0
 22 50  1  0  0  0  0
 23 24  1  0  0  0  0
 23 51  1  0  0  0  0
 23 52  1  0  0  0  0
 24 25  1  0  0  0  0
 24 29  1  0  0  0  0
 24 62  1  0  0  0  0
 25 27  1  0  0  0  0
 25 26  1  0  0  0  0
 25 53  1  0  0  0  0
 26 27  1  0  0  0  0
 26 54  1  0  0  0  0
 26 55  1  0  0  0  0
 27 28  1  0  0  0  0
 27 56  1  0  0  0  0
 28 57  1  0  0  0  0
 28 58  1  0  0  0  0
 28 59  1  0  0  0  0
 29 60  1  0  0  0  0
 29 61  1  0  0  0  0
M  CHG  1  24   1
M  END
> <s_m_source_file>
AV-unprocessed.smi

> <i_m_source_file_index>
193

> <i_lp_mmshare_version>
43012

> <i_f3d_flags>
0

> <s_epik_input>
W0NIM11bQ0BASF0xW0NIMl1bQ0BIXTFOKFtDSDJdMilbQ0gyXVtDSDJdTihbQ0gyXVtDQEhdMltDSDNdKWMobltjSF1uMyljKGMzNCluW2NIXW40W0NIMl1DNShbT0hdKVtDSDJdW0NIMl1PW0NIMl1bQ0gyXTU=

> <s_epik_cmdline>
J2VwaWtfcHl0aG9uJywgJy1waCcsICc3LjAnLCAnLXRuJywgJzgnLCAnLW1hJywgJzIwMCcsICctbWV0YWxfYmluZGluZycsICctaW1hZScsICc8aW5maWxlLm1hZT4nLCAnLW9tYWUnLCAnPG91dGZpbGUubWFlPic=

> <r_lp_tautomer_probability>
1

> <r_epik_Ionization_Penalty>
0.0540825

> <r_epik_Ionization_Penalty_Charging>
0.0538476

> <r_epik_Ionization_Penalty_Neutral>
0.000234891

> <r_epik_State_Penalty>
0.0200719

> <r_epik_Charging_Adjusted_Penalty>
0.0739194

> <i_epik_Tot_Q>
1

> <i_epik_Tot_abs_Q>
1

> <r_epik_Metal_State_Penalty>
0.0199414

> <b_epik_Metal_Only>
0

> <s_lp_Force_Field>
OPLS_2005

> <r_lp_Energy>
56.796

> <b_lp_Chiralities_Consistent>
1

> <s_lp_Variant>
AV-unprocessed.smi:193-10

> <Gold.Version>
5.8.1

> <Gold.Id.Protein>
6NUR|6NUR_protein|mol2

> <Gold.PLP.Fitness>
42.7490

> <Gold.PLP.PLP>
-38.3359

> <Gold.PLP.part.hbond>
-2.0000

> <Gold.PLP.part.metal>
0.0000

> <Gold.PLP.part.buried>
-4.7438

> <Gold.PLP.part.nonpolar>
-31.9297

> <Gold.PLP.part.repulsive>
0.5297

> <Gold.PLP.ligand.clash>
0.0000

> <Gold.PLP.ligand.torsion>
1.5369

> <Gold.PLP.Chemscore.Hbond>
2.0000

> <Gold.PLP.Chemscore.CHOScore>
0.0000

> <Gold.PLP.Chemscore.Metal>
0.0000

> <Gold.Chemscore.Hbonds>
donor molecule, donor type, donor heavy atom, donor atom, acceptor molecule, acceptor atom, score
      L1  H    16    40       P1 10957  0.73
      P1  H 10752 10763       L1     6  0.96

> <Gold.PLP.Chemscore.Internal.Correction>
1.4869

> <Gold.Rescore>
     Score         DG    S(hbond)    S(metal)    S(lipo)     H(rot)  DE(clash)    DE(int)     intcor
     13.87     -16.88       1.60        0.00      93.86       1.93       0.20       2.81       ----

> <Gold.Chemscore.Fitness>
13.8733

> <Gold.Chemscore.DG>
-16.8827

> <Gold.Chemscore.ZeroCoef>
-5.4800

> <Gold.Chemscore.Hbond>
1.6046

> <Gold.Chemscore.Metal>
0.0000

> <Gold.Chemscore.Lipo>
93.8586

> <Gold.Chemscore.Internal_Hbond>
0.0000

> <Gold.Chemscore.DEClash>
0.2004

> <Gold.Chemscore.DEInternal>
2.8090

> <Gold.Chemscore.Rot>
1.9290

> <Gold.Chemscore.Internal.Correction>
   9.000000E+99

> <Gold.Chemscore.Hbonds>
donor molecule, donor type, donor heavy atom, donor atom, acceptor molecule, acceptor atom, score
      L1  H    16    40       P1 10957  0.59
      P1  H 10752 10763       L1     6  0.45

> <Gold.Chemscore.Hbond.Weighted>
-5.3595

> <Gold.Chemscore.Metal.Weighted>
-0.0000

> <Gold.Chemscore.Lipo.Weighted>
-10.9815

> <Gold.Chemscore.Internal_Hbond.Weighted>
0.0000

> <Gold.Chemscore.DEClash.Weighted>
0.2004

> <Gold.Chemscore.DEInternal.Weighted>
2.8090

> <Gold.Chemscore.Rot.Weighted>
4.9383

> <Gold.Chemscore.Internal.Correction.Weighted>
   9.000000E+99

> <Gold.Protein.RotatedTorsions>
[ 6907 6896 6895 6894 ] final  -20.80 input  -60.11 | X-H torsion
[ 7974 7965 7964 7962 ] final  129.20 input  175.53 | X-H torsion
[ 8008 7997 7996 7995 ] final  138.20 input   59.86 | X-H torsion
[ 10167 10162 10161 10158 ] final -126.07 input  -65.29 | X-H torsion
[ 10718 10713 10712 10709 ] final   -6.34 input   66.30 | X-H torsion
[ 10763 10752 10751 10750 ] final   48.80 input  -60.55 | X-H torsion
[ 11005 11000 10999 10996 ] final  157.11 input  -57.11 | X-H torsion

> <Gold.Protein.ActiveResidues>
 VAL166  LYS551  ARG553  GLY616  TRP617  ASP618  TYR619  PRO620  LYS621  CYS622 
 ASP623  PHE694  ASN695  SER759  ASP760  ASP761  ALA762  ILE779  LEU786  VAL792 
 PHE793  MET794  SER795  GLU796  ALA797  LYS798  CYS799  TRP800  GLU811  SER814 

> <Gold.Protein.RotatedAtoms>
  151.2427  135.0594  159.9031 H   0  0  0  0  0  0  0  0  0  0  0  0  # atno 6907 bound_to 6896
  152.5391  134.0417  159.8080 H   0  0  0  0  0  0  0  0  0  0  0  0  # atno 6908 bound_to 6896
  151.0613  133.5493  159.2665 H   0  0  0  0  0  0  0  0  0  0  0  0  # atno 6909 bound_to 6896
  145.0313  139.4044  143.5148 H   0  0  0  0  0  0  0  0  0  0  0  0  # atno 7974 bound_to 7965
  156.2998  140.2399  156.4035 H   0  0  0  0  0  0  0  0  0  0  0  0  # atno 8008 bound_to 7997
  154.8506  140.0424  157.1621 H   0  0  0  0  0  0  0  0  0  0  0  0  # atno 8009 bound_to 7997
  154.9003  140.2976  155.5325 H   0  0  0  0  0  0  0  0  0  0  0  0  # atno 8010 bound_to 7997
  139.9754  143.5800  152.2398 H   0  0  0  0  0  0  0  0  0  0  0  0  # atno 10167 bound_to 10162
  156.7333  130.5187  149.5840 H   0  0  0  0  0  0  0  0  0  0  0  0  # atno 10718 bound_to 10713
  152.9790  135.5932  154.3984 H   0  0  0  0  0  0  0  0  0  0  0  0  # atno 10763 bound_to 10752
  154.3632  135.2767  155.2310 H   0  0  0  0  0  0  0  0  0  0  0  0  # atno 10764 bound_to 10752
  154.4298  135.6039  153.6116 H   0  0  0  0  0  0  0  0  0  0  0  0  # atno 10765 bound_to 10752
  140.1738  134.8524  157.2722 H   0  0  0  0  0  0  0  0  0  0  0  0  # atno 11005 bound_to 11000
  146.3499  139.9864  142.8690 LP  0  0  0  0  0  0  0  0  0  0  0  0  # atno 17320 bound_to 7965
  145.1767  140.9747  143.4290 LP  0  0  0  0  0  0  0  0  0  0  0  0  # atno 17321 bound_to 7965
  139.6450  144.7657  151.2262 LP  0  0  0  0  0  0  0  0  0  0  0  0  # atno 17342 bound_to 10162
  140.7508  143.6254  150.8473 LP  0  0  0  0  0  0  0  0  0  0  0  0  # atno 17343 bound_to 10162
  156.1514  130.6312  151.0600 LP  0  0  0  0  0  0  0  0  0  0  0  0  # atno 17370 bound_to 10713
  157.6849  131.0827  150.7269 LP  0  0  0  0  0  0  0  0  0  0  0  0  # atno 17371 bound_to 10713
  140.2346  134.3868  155.7506 LP  0  0  0  0  0  0  0  0  0  0  0  0  # atno 17394 bound_to 11000
  141.2219  133.7233  156.8694 LP  0  0  0  0  0  0  0  0  0  0  0  0  # atno 17395 bound_to 11000

$$$$
