AV-unprocessed.smi:2817|AV-procd|sdf|10846|dock10
  -GOLD-   2272015293D 1   1.00000     0.00000
 Structure written by MMmdl.
 42 44  0  0  0  0  0  0  0  0  1 V2000
  149.7021  135.8942  156.5319 O   0  0  0  0  0  0  0  0  0  0  0  0
  149.6134  136.2617  157.7035 C   0  0  0  0  0  0  0  0  0  0  0  0
  148.4247  136.0112  158.5189 C   0  0  0  0  0  0  0  0  0  0  0  0
  148.3630  136.4265  159.8062 C   0  0  0  0  0  0  0  0  0  0  0  0
  147.1168  136.1777  160.6518 C   0  0  0  0  0  0  0  0  0  0  0  0
  147.2425  136.5161  162.1472 C   0  0  0  0  0  0  0  0  0  0  0  0
  147.3935  135.0220  162.4550 C   0  0  0  0  0  0  0  0  0  0  0  0
  146.8912  134.7084  161.0410 C   0  0  0  0  0  0  0  0  0  0  0  0
  149.4373  137.1197  160.3799 N   0  0  0  0  0  0  0  0  0  0  0  0
  150.4996  137.3574  159.6790 C   0  0  0  0  0  0  0  0  0  0  0  0
  150.6152  136.9332  158.3411 N   0  0  0  0  0  0  0  0  0  0  0  0
  151.8704  137.2722  157.6520 C   0  0  0  0  0  0  0  0  0  0  0  0
  151.7332  138.5557  156.8009 C   0  0  2  0  0  0  0  0  0  0  0  0
  153.0121  138.9457  156.3431 O   0  0  0  0  0  0  0  0  0  0  0  0
  151.1635  139.7319  157.6084 C   0  0  0  0  0  0  0  0  0  0  0  0
  152.1624  140.1874  158.5115 O   0  0  0  0  0  0  0  0  0  0  0  0
  152.1948  141.5274  158.8311 C   0  0  0  0  0  0  0  0  0  0  0  0
  151.6741  142.4245  157.8754 C   0  0  0  0  0  0  0  0  0  0  0  0
  151.6672  143.8115  158.1171 C   0  0  0  0  0  0  0  0  0  0  0  0
  152.1841  144.3178  159.3237 C   0  0  0  0  0  0  0  0  0  0  0  0
  152.7070  143.4342  160.2862 C   0  0  0  0  0  0  0  0  0  0  0  0
  152.7138  142.0464  160.0445 C   0  0  0  0  0  0  0  0  0  0  0  0
  147.5890  135.4859  158.0797 H   0  0  0  0  0  0  0  0  0  0  0  0
  146.2283  136.6261  160.2050 H   0  0  0  0  0  0  0  0  0  0  0  0
  148.1061  137.1241  162.4196 H   0  0  0  0  0  0  0  0  0  0  0  0
  146.3219  136.9333  162.5575 H   0  0  0  0  0  0  0  0  0  0  0  0
  148.4314  134.7248  162.6108 H   0  0  0  0  0  0  0  0  0  0  0  0
  146.7464  134.6584  163.2538 H   0  0  0  0  0  0  0  0  0  0  0  0
  145.8369  134.4292  161.0240 H   0  0  0  0  0  0  0  0  0  0  0  0
  147.5026  133.9875  160.4968 H   0  0  0  0  0  0  0  0  0  0  0  0
  151.3605  137.8996  160.0747 H   0  0  0  0  0  0  0  0  0  0  0  0
  152.6520  137.4120  158.4014 H   0  0  0  0  0  0  0  0  0  0  0  0
  152.2376  136.4421  157.0456 H   0  0  0  0  0  0  0  0  0  0  0  0
  151.0938  138.3845  155.9338 H   0  0  0  0  0  0  0  0  0  0  0  0
  152.9673  139.0899  155.4103 H   0  0  0  0  0  0  0  0  0  0  0  0
  150.8504  140.5340  156.9376 H   0  0  0  0  0  0  0  0  0  0  0  0
  150.2907  139.4012  158.1743 H   0  0  0  0  0  0  0  0  0  0  0  0
  151.2753  142.0445  156.9461 H   0  0  0  0  0  0  0  0  0  0  0  0
  151.2653  144.4866  157.3760 H   0  0  0  0  0  0  0  0  0  0  0  0
  152.1799  145.3818  159.5102 H   0  0  0  0  0  0  0  0  0  0  0  0
  153.1049  143.8214  161.2126 H   0  0  0  0  0  0  0  0  0  0  0  0
  153.1242  141.4010  160.8060 H   0  0  0  0  0  0  0  0  0  0  0  0
  1  2  2  0  0  0  0
  2 11  1  0  0  0  0
  2  3  1  0  0  0  0
  3  4  2  0  0  0  0
  3 23  1  0  0  0  0
  4  5  1  0  0  0  0
  4  9  1  0  0  0  0
  5  8  1  0  0  0  0
  5  6  1  0  0  0  0
  5 24  1  0  0  0  0
  6  7  1  0  0  0  0
  6 25  1  0  0  0  0
  6 26  1  0  0  0  0
  7  8  1  0  0  0  0
  7 27  1  0  0  0  0
  7 28  1  0  0  0  0
  8 29  1  0  0  0  0
  8 30  1  0  0  0  0
  9 10  2  0  0  0  0
 10 11  1  0  0  0  0
 10 31  1  0  0  0  0
 11 12  1  0  0  0  0
 12 13  1  0  0  0  0
 12 32  1  0  0  0  0
 12 33  1  0  0  0  0
 13 14  1  0  0  0  0
 13 15  1  0  0  0  0
 13 34  1  0  0  0  0
 14 35  1  0  0  0  0
 15 16  1  0  0  0  0
 15 36  1  0  0  0  0
 15 37  1  0  0  0  0
 16 17  1  0  0  0  0
 17 22  1  0  0  0  0
 17 18  2  0  0  0  0
 18 19  1  0  0  0  0
 18 38  1  0  0  0  0
 19 20  2  0  0  0  0
 19 39  1  0  0  0  0
 20 21  1  0  0  0  0
 20 40  1  0  0  0  0
 21 22  2  0  0  0  0
 21 41  1  0  0  0  0
 22 42  1  0  0  0  0
M  END
> <s_m_source_file>
AV-unprocessed.smi

> <i_m_source_file_index>
2817

> <i_lp_mmshare_version>
43012

> <i_f3d_flags>
0

> <s_epik_input>
W0NIMl0xW0NIMl1bQ0gyXVtDSF0xYyhbY0hdYzI9TyluW2NIXW4yW0NIMl1bQ0BIXShbT0hdKVtDSDJdT2MzW2NIXVtjSF1bY0hdW2NIXVtjSF0z

> <s_epik_cmdline>
J2VwaWtfcHl0aG9uJywgJy1waCcsICc3LjAnLCAnLXRuJywgJzgnLCAnLW1hJywgJzIwMCcsICctbWV0YWxfYmluZGluZycsICctaW1hZScsICc8aW5maWxlLm1hZT4nLCAnLW9tYWUnLCAnPG91dGZpbGUubWFlPic=

> <r_lp_tautomer_probability>
1

> <r_epik_Ionization_Penalty>
2.12778e-05

> <r_epik_Ionization_Penalty_Charging>
7.42033e-08

> <r_epik_Ionization_Penalty_Neutral>
2.12036e-05

> <r_epik_State_Penalty>
-0

> <r_epik_Charging_Adjusted_Penalty>
7.42033e-08

> <i_epik_Tot_Q>
0

> <i_epik_Tot_abs_Q>
0

> <r_epik_Metal_State_Penalty>
-0

> <b_epik_Metal_Only>
0

> <s_lp_Force_Field>
OPLS_2005

> <r_lp_Energy>
32.2435

> <b_lp_Chiralities_Consistent>
1

> <s_lp_Variant>
AV-unprocessed.smi:2817-1

> <Gold.Version>
5.8.1

> <Gold.Id.Protein>
6NUR|6NUR_protein|mol2

> <Gold.PLP.Fitness>
44.3509

> <Gold.PLP.PLP>
-42.0254

> <Gold.PLP.part.hbond>
-2.0000

> <Gold.PLP.part.metal>
0.0000

> <Gold.PLP.part.buried>
-4.8584

> <Gold.PLP.part.nonpolar>
-35.3433

> <Gold.PLP.part.repulsive>
0.0172

> <Gold.PLP.ligand.clash>
0.0000

> <Gold.PLP.ligand.torsion>
1.1779

> <Gold.PLP.Chemscore.Hbond>
1.4160

> <Gold.PLP.Chemscore.CHOScore>
0.0000

> <Gold.PLP.Chemscore.Metal>
0.0000

> <Gold.Chemscore.Hbonds>
donor molecule, donor type, donor heavy atom, donor atom, acceptor molecule, acceptor atom, score
      P1  H  6931  6943       L1     9  0.48
      P1  H  7997  8009       L1    14  0.70

> <Gold.PLP.Chemscore.Internal.Correction>
0.4332

> <Gold.Rescore>
     Score         DG    S(hbond)    S(metal)    S(lipo)     H(rot)  DE(clash)    DE(int)     intcor
     16.68     -17.84       1.24        0.00     123.27       2.42       0.08       1.09       ----

> <Gold.Chemscore.Fitness>
16.6770

> <Gold.Chemscore.DG>
-17.8407

> <Gold.Chemscore.ZeroCoef>
-5.4800

> <Gold.Chemscore.Hbond>
1.2410

> <Gold.Chemscore.Metal>
0.0000

> <Gold.Chemscore.Lipo>
123.2672

> <Gold.Chemscore.Internal_Hbond>
0.0000

> <Gold.Chemscore.DEClash>
0.0769

> <Gold.Chemscore.DEInternal>
1.0868

> <Gold.Chemscore.Rot>
2.4245

> <Gold.Chemscore.Internal.Correction>
   9.000000E+99

> <Gold.Chemscore.Hbonds>
donor molecule, donor type, donor heavy atom, donor atom, acceptor molecule, acceptor atom, score
      P1  H  6931  6943       L1     9  0.44
      P1  H  7997  8009       L1    14  0.07

> <Gold.Chemscore.Hbond.Weighted>
-4.1450

> <Gold.Chemscore.Metal.Weighted>
-0.0000

> <Gold.Chemscore.Lipo.Weighted>
-14.4223

> <Gold.Chemscore.Internal_Hbond.Weighted>
0.0000

> <Gold.Chemscore.DEClash.Weighted>
0.0769

> <Gold.Chemscore.DEInternal.Weighted>
1.0868

> <Gold.Chemscore.Rot.Weighted>
6.2066

> <Gold.Chemscore.Internal.Correction.Weighted>
   9.000000E+99

> <Gold.Protein.RotatedTorsions>
[ 6907 6896 6895 6894 ] final -133.33 input  -60.11 | X-H torsion
[ 7974 7965 7964 7962 ] final -169.78 input  175.53 | X-H torsion
[ 8008 7997 7996 7995 ] final -177.77 input   59.86 | X-H torsion
[ 10167 10162 10161 10158 ] final   85.59 input  -65.29 | X-H torsion
[ 10718 10713 10712 10709 ] final  155.05 input   66.30 | X-H torsion
[ 10763 10752 10751 10750 ] final  -58.09 input  -60.55 | X-H torsion
[ 11005 11000 10999 10996 ] final  -73.79 input  -57.11 | X-H torsion

> <Gold.Protein.ActiveResidues>
 VAL166  LYS551  ARG553  GLY616  TRP617  ASP618  TYR619  PRO620  LYS621  CYS622 
 ASP623  PHE694  ASN695  SER759  ASP760  ASP761  ALA762  ILE779  LEU786  VAL792 
 PHE793  MET794  SER795  GLU796  ALA797  LYS798  CYS799  TRP800  GLU811  SER814 

> <Gold.Protein.RotatedAtoms>
  150.9728  133.6326  159.2735 H   0  0  0  0  0  0  0  0  0  0  0  0  # atno 6907 bound_to 6896
  151.3609  135.0903  159.9444 H   0  0  0  0  0  0  0  0  0  0  0  0  # atno 6908 bound_to 6896
  152.5189  133.9301  159.7631 H   0  0  0  0  0  0  0  0  0  0  0  0  # atno 6909 bound_to 6896
  144.7180  140.2171  143.6320 H   0  0  0  0  0  0  0  0  0  0  0  0  # atno 7974 bound_to 7965
  156.0109  140.1240  157.0455 H   0  0  0  0  0  0  0  0  0  0  0  0  # atno 8008 bound_to 7997
  154.4275  140.1088  156.5897 H   0  0  0  0  0  0  0  0  0  0  0  0  # atno 8009 bound_to 7997
  155.6081  140.3471  155.4616 H   0  0  0  0  0  0  0  0  0  0  0  0  # atno 8010 bound_to 7997
  139.8962  144.6356  150.8686 H   0  0  0  0  0  0  0  0  0  0  0  0  # atno 10167 bound_to 10162
  157.2235  131.0723  151.1897 H   0  0  0  0  0  0  0  0  0  0  0  0  # atno 10718 bound_to 10713
  154.2327  135.6358  153.5180 H   0  0  0  0  0  0  0  0  0  0  0  0  # atno 10763 bound_to 10752
  152.9946  135.5523  154.5996 H   0  0  0  0  0  0  0  0  0  0  0  0  # atno 10764 bound_to 10752
  154.5482  135.2899  155.1007 H   0  0  0  0  0  0  0  0  0  0  0  0  # atno 10765 bound_to 10752
  141.1627  133.6890  156.7265 H   0  0  0  0  0  0  0  0  0  0  0  0  # atno 11005 bound_to 11000
  145.8536  139.2188  143.1757 LP  0  0  0  0  0  0  0  0  0  0  0  0  # atno 17320 bound_to 7965
  146.0238  140.8323  142.9910 LP  0  0  0  0  0  0  0  0  0  0  0  0  # atno 17321 bound_to 7965
  140.7716  143.3472  151.2087 LP  0  0  0  0  0  0  0  0  0  0  0  0  # atno 17342 bound_to 10162
  139.7066  143.9446  152.2929 LP  0  0  0  0  0  0  0  0  0  0  0  0  # atno 17343 bound_to 10162
  157.3551  130.7102  149.6466 LP  0  0  0  0  0  0  0  0  0  0  0  0  # atno 17370 bound_to 10713
  155.9680  130.4241  150.4594 LP  0  0  0  0  0  0  0  0  0  0  0  0  # atno 17371 bound_to 10713
  140.2777  134.8342  157.3905 LP  0  0  0  0  0  0  0  0  0  0  0  0  # atno 17394 bound_to 11000
  140.1462  134.4908  155.7994 LP  0  0  0  0  0  0  0  0  0  0  0  0  # atno 17395 bound_to 11000

$$$$
