#       Name:                AV-unprocessed.smi:297
#       Creating user name   scv26
#       Creation time:       Thu Mar 26 22:14:50 2020


#       File generated by GOLD software.
#

@<TRIPOS>MOLECULE
AV-unprocessed.smi:297
    36    37     1
SMALL
NO_CHARGES


@<TRIPOS>ATOM
      1 ****        -4.7452  -2.2927   1.4286 N.1            1 S1                 0.0000
      2 ****        -4.1636  -1.4625   0.8700 C.1            1 S1                 0.0000
      3 ****        -3.4325  -0.4186   0.1676 C.ar           1 S1                 0.0000
      4 ****        -2.0852  -0.4492   0.2687 N.ar           1 S1                 0.0000
      5 ****        -1.3433   0.4926  -0.3644 C.ar           1 S1                 0.0000
      6 ****         0.0619   0.4321  -0.2417 N.3            1 S1                 0.0000
      7 ****         0.8096   0.4586  -1.4955 C.3            1 S1                 0.0000
      8 ****         2.2999   0.7142  -1.2203 C.3            1 S1                 0.0000
      9 ****         2.7927  -0.2600  -0.3075 O.3            1 S1                 0.0000
     10 ****         2.1322  -0.2015   0.9572 C.3            1 S1                 0.0000
     11 ****         2.7890  -1.2129   1.9082 C.2            1 S1                 0.0000
     12 ****         4.1012  -1.4223   1.7686 N.am           1 S1                 0.0000
     13 ****         2.1304  -1.7882   2.7729 O.2            1 S1                 0.0000
     14 ****         0.6255  -0.4784   0.7541 C.3            1 S1                 0.0000
     15 ****        -1.9483   1.5194  -1.1257 C.ar           1 S1                 0.0000
     16 ****        -3.3508   1.5556  -1.2337 C.ar           1 S1                 0.0000
     17 ****        -4.1147   0.5711  -0.5797 C.ar           1 S1                 0.0000
     18 ****        -5.8402   0.6104  -0.7086 Cl             1 S1                 0.0000
     19 ****         0.6828  -0.4997  -2.0010 H              1 S1                 0.0000
     20 ****         0.4384   1.2257  -2.1735 H              1 S1                 0.0000
     21 ****         2.8686   0.6498  -2.1479 H              1 S1                 0.0000
     22 ****         2.4560   1.7173  -0.8199 H              1 S1                 0.0000
     23 ****         2.2705   0.7917   1.3881 H              1 S1                 0.0000
     24 ****         4.5723  -2.0744   2.3791 H              1 S1                 0.0000
     25 ****         4.6175  -0.9231   1.0588 H              1 S1                 0.0000
     26 ****         0.1019  -0.3537   1.7032 H              1 S1                 0.0000
     27 ****         0.4691  -1.5080   0.4274 H              1 S1                 0.0000
     28 ****        -1.3595   2.2825  -1.6123 H              1 S1                 0.0000
     29 ****        -3.8330   2.3319  -1.8092 H              1 S1                 0.0000
     30 ****        -5.2477  -3.0100   1.9112 LP             1 S1                 0.0000
     31 ****        -1.6378  -1.1628   0.8077 LP             1 S1                 0.0000
     32 ****         0.2174   1.3257   0.1793 LP             1 S1                 0.0000
     33 ****         3.7703  -0.1035  -0.1672 LP             1 S1                 0.0000
     34 ****         2.6537  -1.1687  -0.7011 LP             1 S1                 0.0000
     35 ****         1.1525  -1.6000   2.8644 LP             1 S1                 0.0000
     36 ****         2.5727  -2.4441   3.3845 LP             1 S1                 0.0000
@<TRIPOS>BOND
    1    1    2 3     
    2    2    3 1     
    3    3   17 ar    
    4    3    4 ar    
    5    4    5 ar    
    6    5    6 1     
    7    5   15 ar    
    8    6   14 1     
    9    6    7 1     
   10    7    8 1     
   11    7   19 1     
   12    7   20 1     
   13    8    9 1     
   14    8   21 1     
   15    8   22 1     
   16    9   10 1     
   17   10   11 1     
   18   10   14 1     
   19   10   23 1     
   20   11   12 am    
   21   11   13 2     
   22   12   24 1     
   23   12   25 1     
   24   14   26 1     
   25   14   27 1     
   26   15   16 ar    
   27   15   28 1     
   28   16   17 ar    
   29   16   29 1     
   30   17   18 1     
   31    1   30 1     
   32    4   31 1     
   33    6   32 1     
   34    9   33 1     
   35    9   34 1     
   36   13   35 1     
   37   13   36 1     
@<TRIPOS>SUBSTRUCTURE
      1 S1             1
@<TRIPOS>SET
LONE_PAIRS      STATIC     ATOMS    <user>   **** ""
7 30 31 32 33 34 35 36
DONOR_HYDROGENS      STATIC     ATOMS    <user>   **** ""
2 24 25
ATOM$BLUE        STATIC     ATOMS    COLORGROUP SYSTEM
7 30 31 32 33 34 35 36
ATOM$RED        STATIC     ATOMS    COLORGROUP SYSTEM
2 24 25
