#       Name:                AV-unprocessed.smi:1965
#       Creating user name   scv26
#       Creation time:       Fri Mar 27 10:10:37 2020


#       File generated by GOLD software.
#

@<TRIPOS>MOLECULE
AV-unprocessed.smi:1965
    40    42     1
SMALL
NO_CHARGES


@<TRIPOS>ATOM
      1 ****        -2.7575  -1.9994   0.2444 O.2            1 S1                 0.0000
      2 ****        -1.5908  -2.0857   0.6229 C.2            1 S1                 0.0000
      3 ****        -0.9676  -3.2805   0.6987 N.am           1 S1                 0.0000
      4 ****        -1.4238  -4.5981   0.4036 C.2            1 S1                 0.0000
      5 ****        -2.6845  -4.9247   0.0893 N.2            1 S1                 0.0000
      6 ****        -2.8364  -6.2971  -0.1241 C.2            1 S1                 0.0000
      7 ****        -1.6752  -7.0094   0.0417 C.2            1 S1                 0.0000
      8 ****        -0.3378  -5.9789   0.4757 S.3            1 S1                 0.0000
      9 ****        -0.8621  -1.0152   0.9812 N.am           1 S1                 0.0000
     10 ****        -1.3083   0.3754   0.9426 C.3            1 S1                 0.0000
     11 ****        -0.6645   1.2396   2.0444 C.3            1 S1                 0.0000
     12 ****        -0.3158   2.5597   1.3496 C.3            1 S1                 0.0000
     13 ****         0.0068   2.1353  -0.0174 N.4            1 S1                 1.0000
     14 ****         0.1599   3.1698  -1.0605 C.3            1 S1                 0.0000
     15 ****         0.6741   2.4915  -2.3487 C.3            1 S1                 0.0000
     16 ****        -0.2021   1.2885  -2.7661 C.3            1 S1                 0.0000
     17 ****        -0.4299   0.3106  -1.5932 C.3            1 S1                 0.0000
     18 ****        -0.9698   1.0955  -0.3838 C.3            1 S1                 0.0000
     19 ****        -0.0381  -3.2429   1.0918 H              1 S1                 0.0000
     20 ****        -3.8097  -6.6833  -0.3891 H              1 S1                 0.0000
     21 ****        -1.5264  -8.0742  -0.0622 H              1 S1                 0.0000
     22 ****         0.0874  -1.1811   1.2843 H              1 S1                 0.0000
     23 ****        -2.3906   0.4072   1.0833 H              1 S1                 0.0000
     24 ****        -1.3200   1.3820   2.9041 H              1 S1                 0.0000
     25 ****         0.2529   0.7717   2.4055 H              1 S1                 0.0000
     26 ****        -1.1795   3.2265   1.3351 H              1 S1                 0.0000
     27 ****         0.5172   3.0792   1.8242 H              1 S1                 0.0000
     28 ****        -0.7935   3.6696  -1.2374 H              1 S1                 0.0000
     29 ****         0.8676   3.9291  -0.7263 H              1 S1                 0.0000
     30 ****         0.7229   3.2185  -3.1600 H              1 S1                 0.0000
     31 ****         1.6961   2.1459  -2.1861 H              1 S1                 0.0000
     32 ****        -1.1665   1.6543  -3.1211 H              1 S1                 0.0000
     33 ****         0.2550   0.7654  -3.6066 H              1 S1                 0.0000
     34 ****        -1.1346  -0.4659  -1.8921 H              1 S1                 0.0000
     35 ****         0.5055  -0.1887  -1.3363 H              1 S1                 0.0000
     36 ****        -1.8852   1.6027  -0.6969 H              1 S1                 0.0000
     37 ****         0.8983   1.6658   0.0522 H              1 S1                 0.0000
     38 ****        -3.2616  -2.8236  -0.0139 LP             1 S1                 0.0000
     39 ****        -3.2022  -1.1052   0.1949 LP             1 S1                 0.0000
     40 ****        -3.4304  -4.2628   0.0159 LP             1 S1                 0.0000
@<TRIPOS>BOND
    1    1    2 2     
    2    2    3 am    
    3    2    9 am    
    4    3    4 1     
    5    3   19 1     
    6    4    8 1     
    7    4    5 2     
    8    5    6 1     
    9    6    7 2     
   10    6   20 1     
   11    7    8 1     
   12    7   21 1     
   13    9   10 1     
   14    9   22 1     
   15   10   18 1     
   16   10   11 1     
   17   10   23 1     
   18   11   12 1     
   19   11   24 1     
   20   11   25 1     
   21   12   13 1     
   22   12   26 1     
   23   12   27 1     
   24   13   18 1     
   25   13   14 1     
   26   13   37 1     
   27   14   15 1     
   28   14   28 1     
   29   14   29 1     
   30   15   16 1     
   31   15   30 1     
   32   15   31 1     
   33   16   17 1     
   34   16   32 1     
   35   16   33 1     
   36   17   18 1     
   37   17   34 1     
   38   17   35 1     
   39   18   36 1     
   40    1   38 1     
   41    1   39 1     
   42    5   40 1     
@<TRIPOS>SUBSTRUCTURE
      1 S1             1
@<TRIPOS>SET
LONE_PAIRS      STATIC     ATOMS    <user>   **** ""
3 38 39 40
DONOR_HYDROGENS      STATIC     ATOMS    <user>   **** ""
3 19 22 37
ATOM$BLUE        STATIC     ATOMS    COLORGROUP SYSTEM
3 38 39 40
ATOM$RED        STATIC     ATOMS    COLORGROUP SYSTEM
3 19 22 37
