#       Name:                AV-unprocessed.smi:207
#       Creating user name   scv26
#       Creation time:       Thu Mar 26 19:51:47 2020


#       File generated by GOLD software.
#

@<TRIPOS>MOLECULE
AV-unprocessed.smi:207
    66    69     1
SMALL
NO_CHARGES


@<TRIPOS>ATOM
      1 ****        -3.3099  -2.9202   0.0679 C.3            1 S1                 0.0000
      2 ****        -3.1033  -1.8670   1.1819 C.3            1 S1                 0.0000
      3 ****        -3.5729  -2.4595   2.5309 C.3            1 S1                 0.0000
      4 ****        -1.5878  -1.5832   1.3475 C.3            1 S1                 0.0000
      5 ****        -1.0406  -0.7875   0.2536 N.3            1 S1                 0.0000
      6 ****         0.3064  -0.8445   0.0930 C.ar           1 S1                 0.0000
      7 ****         0.8487  -2.0682  -0.1376 N.ar           1 S1                 0.0000
      8 ****         2.1665  -2.2058  -0.3042 C.ar           1 S1                 0.0000
      9 ****         3.1115  -1.2658  -0.2770 N.ar           1 S1                 0.0000
     10 ****         2.5791  -0.0321  -0.0488 C.ar           1 S1                 0.0000
     11 ****         1.1994   0.2686   0.1467 C.ar           1 S1                 0.0000
     12 ****         1.0498   1.6332   0.3711 N.2            1 S1                 0.0000
     13 ****         2.2634   2.1077   0.3106 C.2            1 S1                 0.0000
     14 ****         3.2446   1.1778   0.0527 N.pl3          1 S1                 0.0000
     15 ****         4.6749   1.4295  -0.0538 C.3            1 S1                 0.0000
     16 ****         5.1735   1.6682  -1.4922 C.3            1 S1                 0.0000
     17 ****         4.4360   2.8894  -2.0784 C.3            1 S1                 0.0000
     18 ****         4.9498   3.2816  -3.3359 O.3            1 S1                 0.0000
     19 ****         6.7006   1.6524  -1.6578 C.3            1 S1                 0.0000
     20 ****         6.6253   0.7110  -2.7510 O.3            1 S1                 0.0000
     21 ****         5.2506   0.4351  -2.4041 C.3            1 S1                 0.0000
     22 ****        -1.7327   0.4684   0.0158 C.3            1 S1                 0.0000
     23 ****        -3.2256   0.2135  -0.2169 C.3            1 S1                 0.0000
     24 ****        -3.8382  -0.5889   0.8800 N.4            1 S1                 1.0000
     25 ****        -5.3129  -0.7198   0.7020 C.3            1 S1                 0.0000
     26 ****        -6.0648   0.5212   1.2102 C.3            1 S1                 0.0000
     27 ****        -5.9275   0.6248   2.6115 O.3            1 S1                 0.0000
     28 ****        -2.7650  -3.8374   0.2945 H              1 S1                 0.0000
     29 ****        -2.9520  -2.5703  -0.9002 H              1 S1                 0.0000
     30 ****        -4.3586  -3.1940  -0.0480 H              1 S1                 0.0000
     31 ****        -2.9300  -3.2852   2.8392 H              1 S1                 0.0000
     32 ****        -4.5838  -2.8627   2.4955 H              1 S1                 0.0000
     33 ****        -3.5421  -1.7121   3.3246 H              1 S1                 0.0000
     34 ****        -1.4161  -1.0260   2.2700 H              1 S1                 0.0000
     35 ****        -1.0510  -2.5259   1.4609 H              1 S1                 0.0000
     36 ****         2.5134  -3.2126  -0.4852 H              1 S1                 0.0000
     37 ****         2.4773   3.1575   0.4506 H              1 S1                 0.0000
     38 ****         4.9157   2.2862   0.5770 H              1 S1                 0.0000
     39 ****         5.1949   0.5823   0.3954 H              1 S1                 0.0000
     40 ****         3.3762   2.6766  -2.2175 H              1 S1                 0.0000
     41 ****         4.5031   3.7455  -1.4062 H              1 S1                 0.0000
     42 ****         4.9023   2.5430  -3.9239 H              1 S1                 0.0000
     43 ****         7.1352   2.6086  -1.9510 H              1 S1                 0.0000
     44 ****         7.2349   1.2337  -0.8033 H              1 S1                 0.0000
     45 ****         5.1590  -0.5166  -1.8803 H              1 S1                 0.0000
     46 ****         4.5817   0.4715  -3.2646 H              1 S1                 0.0000
     47 ****        -1.5981   1.1233   0.8777 H              1 S1                 0.0000
     48 ****        -1.3119   0.9763  -0.8529 H              1 S1                 0.0000
     49 ****        -3.7324   1.1732  -0.3110 H              1 S1                 0.0000
     50 ****        -3.3645  -0.3000  -1.1690 H              1 S1                 0.0000
     51 ****        -5.5374  -0.8863  -0.3527 H              1 S1                 0.0000
     52 ****        -5.7165  -1.5863   1.2205 H              1 S1                 0.0000
     53 ****        -5.7137   1.4383   0.7384 H              1 S1                 0.0000
     54 ****        -7.1259   0.4315   0.9765 H              1 S1                 0.0000
     55 ****        -6.4344   1.3648   2.9107 H              1 S1                 0.0000
     56 ****        -3.7248  -0.0342   1.7167 H              1 S1                 0.0000
     57 ****        -1.2916  -1.2804  -0.5795 LP             1 S1                 0.0000
     58 ****         0.2564  -2.8727  -0.1830 LP             1 S1                 0.0000
     59 ****         4.0869  -1.4434  -0.4074 LP             1 S1                 0.0000
     60 ****         0.2028   2.1369   0.5406 LP             1 S1                 0.0000
     61 ****         5.9015   3.5719  -3.2355 LP             1 S1                 0.0000
     62 ****         4.4072   4.0382  -3.7006 LP             1 S1                 0.0000
     63 ****         7.2370  -0.0747  -2.6582 LP             1 S1                 0.0000
     64 ****         6.7454   1.1219  -3.6547 LP             1 S1                 0.0000
     65 ****        -4.9648   0.7588   2.8466 LP             1 S1                 0.0000
     66 ****        -6.2634  -0.2112   3.0455 LP             1 S1                 0.0000
@<TRIPOS>BOND
    1    1    2 1     
    2    1   28 1     
    3    1   29 1     
    4    1   30 1     
    5    2   24 1     
    6    2    3 1     
    7    2    4 1     
    8    3   31 1     
    9    3   32 1     
   10    3   33 1     
   11    4    5 1     
   12    4   34 1     
   13    4   35 1     
   14    5    6 1     
   15    5   22 1     
   16    6   11 ar    
   17    6    7 ar    
   18    7    8 ar    
   19    8    9 ar    
   20    8   36 1     
   21    9   10 ar    
   22   10   14 1     
   23   10   11 ar    
   24   11   12 1     
   25   12   13 2     
   26   13   14 1     
   27   13   37 1     
   28   14   15 1     
   29   15   16 1     
   30   15   38 1     
   31   15   39 1     
   32   16   21 1     
   33   16   17 1     
   34   16   19 1     
   35   17   18 1     
   36   17   40 1     
   37   17   41 1     
   38   18   42 1     
   39   19   20 1     
   40   19   43 1     
   41   19   44 1     
   42   20   21 1     
   43   21   45 1     
   44   21   46 1     
   45   22   23 1     
   46   22   47 1     
   47   22   48 1     
   48   23   24 1     
   49   23   49 1     
   50   23   50 1     
   51   24   25 1     
   52   24   56 1     
   53   25   26 1     
   54   25   51 1     
   55   25   52 1     
   56   26   27 1     
   57   26   53 1     
   58   26   54 1     
   59   27   55 1     
   60    5   57 1     
   61    7   58 1     
   62    9   59 1     
   63   12   60 1     
   64   18   61 1     
   65   18   62 1     
   66   20   63 1     
   67   20   64 1     
   68   27   65 1     
   69   27   66 1     
@<TRIPOS>SUBSTRUCTURE
      1 S1             1
@<TRIPOS>SET
LONE_PAIRS      STATIC     ATOMS    <user>   **** ""
10 57 58 59 60 61 62 63 64 65 66
DONOR_HYDROGENS      STATIC     ATOMS    <user>   **** ""
3 42 56 55
ATOM$BLUE        STATIC     ATOMS    COLORGROUP SYSTEM
10 57 58 59 60 61 62 63 64 65 66
ATOM$RED        STATIC     ATOMS    COLORGROUP SYSTEM
3 42 56 55
