AV-unprocessed.smi:2317|AV-procd|sdf|9273|dock5
  -GOLD-   2272012493D 1   1.00000     0.00000
 Structure written by MMmdl.
 37 38  0  0  0  0  0  0  0  0  1 V2000
  145.9160  138.7471  153.7023 O   0  0  0  0  0  0  0  0  0  0  0  0
  146.8291  138.1675  153.1150 C   0  0  0  0  0  0  0  0  0  0  0  0
  146.6289  137.1510  152.2654 N   0  0  0  0  0  0  0  0  0  0  0  0
  145.3207  136.6053  151.9219 C   0  0  0  0  0  0  0  0  0  0  0  0
  145.4374  135.2433  151.2057 C   0  0  2  0  0  0  0  0  0  0  0  0
  144.0463  134.6777  150.8493 C   0  0  0  0  0  0  0  0  0  0  0  0
  144.1505  133.3506  150.0811 C   0  0  0  0  0  0  0  0  0  0  0  0
  144.9625  132.3129  150.8693 C   0  0  0  0  0  0  0  0  0  0  0  0
  146.3557  132.8554  151.2312 C   0  0  0  0  0  0  0  0  0  0  0  0
  146.2812  134.1987  151.9833 C   0  0  2  0  0  0  0  0  0  0  0  0
  145.7525  133.9785  153.2775 O   0  0  0  0  0  0  0  0  0  0  0  0
  148.1388  138.4431  153.2404 N   0  0  0  0  0  0  0  0  0  0  0  0
  148.7747  139.4268  154.0474 C   0  0  0  0  0  0  0  0  0  0  0  0
  148.1903  140.6662  154.4059 C   0  0  0  0  0  0  0  0  0  0  0  0
  148.9366  141.5596  155.2006 C   0  0  0  0  0  0  0  0  0  0  0  0
  150.1879  141.3016  155.6363 N   0  0  0  0  0  0  0  0  0  0  0  0
  150.7468  140.1252  155.2820 C   0  0  0  0  0  0  0  0  0  0  0  0
  150.0881  139.1628  154.4906 C   0  0  0  0  0  0  0  0  0  0  0  0
  150.7099  138.0030  154.1670 F   0  0  0  0  0  0  0  0  0  0  0  0
  147.4328  136.7266  151.8262 H   0  0  0  0  0  0  0  0  0  0  0  0
  144.7092  136.5043  152.8201 H   0  0  0  0  0  0  0  0  0  0  0  0
  144.8108  137.3218  151.2766 H   0  0  0  0  0  0  0  0  0  0  0  0
  145.9526  135.4276  150.2612 H   0  0  0  0  0  0  0  0  0  0  0  0
  143.4620  134.5279  151.7581 H   0  0  0  0  0  0  0  0  0  0  0  0
  143.4943  135.4002  150.2473 H   0  0  0  0  0  0  0  0  0  0  0  0
  143.1530  132.9620  149.8736 H   0  0  0  0  0  0  0  0  0  0  0  0
  144.6219  133.5243  149.1130 H   0  0  0  0  0  0  0  0  0  0  0  0
  144.4240  132.0413  151.7782 H   0  0  0  0  0  0  0  0  0  0  0  0
  145.0610  131.3973  150.2858 H   0  0  0  0  0  0  0  0  0  0  0  0
  146.9014  132.1200  151.8235 H   0  0  0  0  0  0  0  0  0  0  0  0
  146.9306  132.9921  150.3144 H   0  0  0  0  0  0  0  0  0  0  0  0
  147.2973  134.5723  152.1141 H   0  0  0  0  0  0  0  0  0  0  0  0
  145.0134  133.3941  153.2051 H   0  0  0  0  0  0  0  0  0  0  0  0
  148.7677  137.8338  152.7379 H   0  0  0  0  0  0  0  0  0  0  0  0
  147.2020  140.9550  154.0840 H   0  0  0  0  0  0  0  0  0  0  0  0
  148.5174  142.5121  155.4896 H   0  0  0  0  0  0  0  0  0  0  0  0
  151.7501  139.9453  155.6382 H   0  0  0  0  0  0  0  0  0  0  0  0
  1  2  2  0  0  0  0
  2  3  1  0  0  0  0
  2 12  1  0  0  0  0
  3  4  1  0  0  0  0
  3 20  1  0  0  0  0
  4  5  1  0  0  0  0
  4 21  1  0  0  0  0
  4 22  1  0  0  0  0
  5 10  1  0  0  0  0
  5  6  1  0  0  0  0
  5 23  1  0  0  0  0
  6  7  1  0  0  0  0
  6 24  1  0  0  0  0
  6 25  1  0  0  0  0
  7  8  1  0  0  0  0
  7 26  1  0  0  0  0
  7 27  1  0  0  0  0
  8  9  1  0  0  0  0
  8 28  1  0  0  0  0
  8 29  1  0  0  0  0
  9 10  1  0  0  0  0
  9 30  1  0  0  0  0
  9 31  1  0  0  0  0
 10 11  1  0  0  0  0
 10 32  1  0  0  0  0
 11 33  1  0  0  0  0
 12 13  1  0  0  0  0
 12 34  1  0  0  0  0
 13 18  1  0  0  0  0
 13 14  2  0  0  0  0
 14 15  1  0  0  0  0
 14 35  1  0  0  0  0
 15 16  2  0  0  0  0
 15 36  1  0  0  0  0
 16 17  1  0  0  0  0
 17 18  2  0  0  0  0
 17 37  1  0  0  0  0
 18 19  1  0  0  0  0
M  END
> <s_m_source_file>
AV-unprocessed.smi

> <i_m_source_file_index>
2317

> <i_lp_mmshare_version>
43012

> <i_f3d_flags>
0

> <s_epik_input>
RmMxW2NIXW5bY0hdW2NIXWMxW05IXUMoPU8pW05IXVtDSDJdW0NAQEhdMltDSDJdW0NIMl1bQ0gyXVtDSDJdW0NASF0yW09IXQ==

> <s_epik_cmdline>
J2VwaWtfcHl0aG9uJywgJy1waCcsICc3LjAnLCAnLXRuJywgJzgnLCAnLW1hJywgJzIwMCcsICctbWV0YWxfYmluZGluZycsICctaW1hZScsICc8aW5maWxlLm1hZT4nLCAnLW9tYWUnLCAnPG91dGZpbGUubWFlPic=

> <r_epik_Ionization_Penalty>
0.00317647

> <r_epik_Ionization_Penalty_Charging>
0

> <r_epik_Ionization_Penalty_Neutral>
0.00317647

> <r_epik_State_Penalty>
0.0022093

> <r_epik_Charging_Adjusted_Penalty>
0.0022093

> <i_epik_Tot_Q>
0

> <i_epik_Tot_abs_Q>
0

> <r_epik_Metal_State_Penalty>
-0

> <b_epik_Metal_Only>
0

> <s_lp_Force_Field>
OPLS_2005

> <r_lp_Energy>
20.2731

> <b_lp_Chiralities_Consistent>
1

> <s_lp_Variant>
AV-unprocessed.smi:2317-3

> <Gold.Version>
5.8.1

> <Gold.Id.Protein>
6NUR|6NUR_protein|mol2

> <Gold.PLP.Fitness>
42.2310

> <Gold.PLP.PLP>
-33.9837

> <Gold.PLP.part.hbond>
-2.9781

> <Gold.PLP.part.metal>
0.0000

> <Gold.PLP.part.buried>
-1.4604

> <Gold.PLP.part.nonpolar>
-31.3999

> <Gold.PLP.part.repulsive>
0.8527

> <Gold.PLP.ligand.clash>
0.0000

> <Gold.PLP.ligand.torsion>
0.2749

> <Gold.PLP.Chemscore.Hbond>
1.9280

> <Gold.PLP.Chemscore.CHOScore>
1.0000

> <Gold.PLP.Chemscore.Metal>
0.0000

> <Gold.Chemscore.Hbonds>
donor molecule, donor type, donor heavy atom, donor atom, acceptor molecule, acceptor atom, score
      L1  H     3    20       P1  7948  1.00
      L1  H    12    34       P1  7948  0.94
      L1  C    15    36       P1  8028  1.00

> <Gold.PLP.Chemscore.Internal.Correction>
0.0131

> <Gold.Rescore>
     Score         DG    S(hbond)    S(metal)    S(lipo)     H(rot)  DE(clash)    DE(int)     intcor
     15.81     -16.26       1.86        0.00      78.12       1.79       0.07       0.38       ----

> <Gold.Chemscore.Fitness>
15.8141

> <Gold.Chemscore.DG>
-16.2618

> <Gold.Chemscore.ZeroCoef>
-5.4800

> <Gold.Chemscore.Hbond>
1.8598

> <Gold.Chemscore.Metal>
0.0000

> <Gold.Chemscore.Lipo>
78.1235

> <Gold.Chemscore.Internal_Hbond>
0.0000

> <Gold.Chemscore.DEClash>
0.0670

> <Gold.Chemscore.DEInternal>
0.3807

> <Gold.Chemscore.Rot>
1.7853

> <Gold.Chemscore.Internal.Correction>
   9.000000E+99

> <Gold.Chemscore.Hbonds>
donor molecule, donor type, donor heavy atom, donor atom, acceptor molecule, acceptor atom, score
      L1  H     3    20       P1  7948  0.94
      L1  H    12    34       P1  7948  0.91

> <Gold.Chemscore.Hbond.Weighted>
-6.2118

> <Gold.Chemscore.Metal.Weighted>
-0.0000

> <Gold.Chemscore.Lipo.Weighted>
-9.1404

> <Gold.Chemscore.Internal_Hbond.Weighted>
0.0000

> <Gold.Chemscore.DEClash.Weighted>
0.0670

> <Gold.Chemscore.DEInternal.Weighted>
0.3807

> <Gold.Chemscore.Rot.Weighted>
4.5704

> <Gold.Chemscore.Internal.Correction.Weighted>
   9.000000E+99

> <Gold.Protein.RotatedTorsions>
[ 6907 6896 6895 6894 ] final  158.58 input  -60.11 | X-H torsion
[ 7974 7965 7964 7962 ] final -148.16 input  175.53 | X-H torsion
[ 8008 7997 7996 7995 ] final -160.66 input   59.86 | X-H torsion
[ 10167 10162 10161 10158 ] final -100.74 input  -65.29 | X-H torsion
[ 10718 10713 10712 10709 ] final  176.81 input   66.30 | X-H torsion
[ 10763 10752 10751 10750 ] final  120.35 input  -60.55 | X-H torsion
[ 11005 11000 10999 10996 ] final -123.48 input  -57.11 | X-H torsion

> <Gold.Protein.ActiveResidues>
 VAL166  LYS551  ARG553  GLY616  TRP617  ASP618  TYR619  PRO620  LYS621  CYS622 
 ASP623  PHE694  ASN695  SER759  ASP760  ASP761  ALA762  ILE779  LEU786  VAL792 
 PHE793  MET794  SER795  GLU796  ALA797  LYS798  CYS799  TRP800  GLU811  SER814 

> <Gold.Protein.RotatedAtoms>
  151.9982  133.3816  159.4171 H   0  0  0  0  0  0  0  0  0  0  0  0  # atno 6907 bound_to 6896
  150.6913  134.3862  159.5065 H   0  0  0  0  0  0  0  0  0  0  0  0  # atno 6908 bound_to 6896
  152.1606  134.8915  160.0592 H   0  0  0  0  0  0  0  0  0  0  0  0  # atno 6909 bound_to 6896
  144.8047  140.5233  143.5683 H   0  0  0  0  0  0  0  0  0  0  0  0  # atno 7974 bound_to 7965
  155.7807  140.0864  157.2060 H   0  0  0  0  0  0  0  0  0  0  0  0  # atno 8008 bound_to 7997
  154.3990  140.1508  156.3107 H   0  0  0  0  0  0  0  0  0  0  0  0  # atno 8009 bound_to 7997
  155.8656  140.3428  155.5788 H   0  0  0  0  0  0  0  0  0  0  0  0  # atno 8010 bound_to 7997
  140.2487  143.3487  152.0734 H   0  0  0  0  0  0  0  0  0  0  0  0  # atno 10167 bound_to 10162
  156.9146  130.9921  151.3015 H   0  0  0  0  0  0  0  0  0  0  0  0  # atno 10718 bound_to 10713
  153.5972  135.3455  155.2932 H   0  0  0  0  0  0  0  0  0  0  0  0  # atno 10763 bound_to 10752
  154.8642  135.4219  154.2452 H   0  0  0  0  0  0  0  0  0  0  0  0  # atno 10764 bound_to 10752
  153.3272  135.7042  153.7050 H   0  0  0  0  0  0  0  0  0  0  0  0  # atno 10765 bound_to 10752
  140.9915  134.0531  157.3648 H   0  0  0  0  0  0  0  0  0  0  0  0  # atno 11005 bound_to 11000
  145.5467  139.1476  143.3416 LP  0  0  0  0  0  0  0  0  0  0  0  0  # atno 17320 bound_to 7965
  146.2336  140.5606  142.8965 LP  0  0  0  0  0  0  0  0  0  0  0  0  # atno 17321 bound_to 7965
  139.5053  144.6792  151.6051 LP  0  0  0  0  0  0  0  0  0  0  0  0  # atno 17342 bound_to 10162
  140.6057  143.9529  150.6417 LP  0  0  0  0  0  0  0  0  0  0  0  0  # atno 17343 bound_to 10162
  157.5946  130.8468  149.8709 LP  0  0  0  0  0  0  0  0  0  0  0  0  # atno 17370 bound_to 10713
  156.0519  130.3716  150.1180 LP  0  0  0  0  0  0  0  0  0  0  0  0  # atno 17371 bound_to 10713
  139.8995  135.0158  156.7197 LP  0  0  0  0  0  0  0  0  0  0  0  0  # atno 17394 bound_to 11000
  140.7032  133.9288  155.8037 LP  0  0  0  0  0  0  0  0  0  0  0  0  # atno 17395 bound_to 11000

$$$$
