AV-unprocessed.smi:1381|AV-procd|sdf|5607|dock3
  -GOLD-   22720 5213D 1   1.00000     0.00000
 Structure written by MMmdl.
 43 44  0  0  0  0  0  0  0  0  2 V2000
  143.7719  132.1129  150.2151 C   0  0  0  0  0  0  0  0  0  0  0  0
  144.2252  133.3447  150.9207 C   0  0  0  0  0  0  0  0  0  0  0  0
  145.3513  134.1128  150.8216 C   0  0  0  0  0  0  0  0  0  0  0  0
  145.1293  135.1312  151.7863 C   0  0  0  0  0  0  0  0  0  0  0  0
  146.0870  136.1557  151.9975 N   0  0  0  0  0  0  0  0  0  0  0  0
  145.8676  137.3955  152.4675 C   0  0  0  0  0  0  0  0  0  0  0  0
  144.7721  137.8437  152.8072 O   0  0  0  0  0  0  0  0  0  0  0  0
  147.0029  138.1071  152.5214 N   0  0  0  0  0  0  0  0  0  0  0  0
  147.0977  139.4873  152.9826 C   0  0  0  0  0  0  0  0  0  0  0  0
  147.1072  139.5678  154.5215 C   0  0  0  0  0  0  0  0  0  0  0  0
  148.4750  139.7311  155.0728 N   0  3  1  0  0  0  0  0  0  0  0  0
  149.4454  138.7961  154.4585 C   0  0  0  0  0  0  0  0  0  0  0  0
  150.8221  138.9261  155.1342 C   0  0  1  0  0  0  0  0  0  0  0  0
  151.8767  138.0375  154.4654 C   0  0  0  0  0  0  0  0  0  0  0  0
  151.2679  140.2770  155.0463 O   0  0  0  0  0  0  0  0  0  0  0  0
  150.3853  141.2395  155.6231 C   0  0  2  0  0  0  0  0  0  0  0  0
  150.3749  141.1732  157.1607 C   0  0  0  0  0  0  0  0  0  0  0  0
  148.9833  141.1227  154.9929 C   0  0  0  0  0  0  0  0  0  0  0  0
  143.9732  134.9967  152.4176 N   0  0  0  0  0  0  0  0  0  0  0  0
  143.3882  133.8506  151.8668 O   0  0  0  0  0  0  0  0  0  0  0  0
  144.4070  131.9003  149.3552 H   0  0  0  0  0  0  0  0  0  0  0  0
  142.7478  132.2252  149.8591 H   0  0  0  0  0  0  0  0  0  0  0  0
  143.8060  131.2516  150.8822 H   0  0  0  0  0  0  0  0  0  0  0  0
  146.1947  133.9667  150.1630 H   0  0  0  0  0  0  0  0  0  0  0  0
  147.0391  135.9205  151.7591 H   0  0  0  0  0  0  0  0  0  0  0  0
  147.8599  137.6637  152.2240 H   0  0  0  0  0  0  0  0  0  0  0  0
  147.9879  139.9461  152.5514 H   0  0  0  0  0  0  0  0  0  0  0  0
  146.2427  140.0360  152.5866 H   0  0  0  0  0  0  0  0  0  0  0  0
  146.4980  140.4232  154.8172 H   0  0  0  0  0  0  0  0  0  0  0  0
  146.6386  138.6887  154.9668 H   0  0  0  0  0  0  0  0  0  0  0  0
  149.0856  137.7715  154.5612 H   0  0  0  0  0  0  0  0  0  0  0  0
  149.5243  139.0026  153.3897 H   0  0  0  0  0  0  0  0  0  0  0  0
  150.7457  138.6297  156.1804 H   0  0  0  0  0  0  0  0  0  0  0  0
  151.5895  136.9865  154.5069 H   0  0  0  0  0  0  0  0  0  0  0  0
  152.8418  138.1375  154.9626 H   0  0  0  0  0  0  0  0  0  0  0  0
  152.0136  138.3060  153.4175 H   0  0  0  0  0  0  0  0  0  0  0  0
  150.7887  142.2162  155.3540 H   0  0  0  0  0  0  0  0  0  0  0  0
  149.8031  142.0021  157.5787 H   0  0  0  0  0  0  0  0  0  0  0  0
  151.3875  141.2392  157.5593 H   0  0  0  0  0  0  0  0  0  0  0  0
  149.9279  140.2521  157.5337 H   0  0  0  0  0  0  0  0  0  0  0  0
  149.0289  141.4240  153.9451 H   0  0  0  0  0  0  0  0  0  0  0  0
  148.3027  141.8152  155.4873 H   0  0  0  0  0  0  0  0  0  0  0  0
  148.4246  139.4870  156.0516 H   0  0  0  0  0  0  0  0  0  0  0  0
  1  2  1  0  0  0  0
  1 21  1  0  0  0  0
  1 22  1  0  0  0  0
  1 23  1  0  0  0  0
  2 20  1  0  0  0  0
  2  3  2  0  0  0  0
  3  4  1  0  0  0  0
  3 24  1  0  0  0  0
  4  5  1  0  0  0  0
  4 19  2  0  0  0  0
  5  6  1  0  0  0  0
  5 25  1  0  0  0  0
  6  7  2  0  0  0  0
  6  8  1  0  0  0  0
  8  9  1  0  0  0  0
  8 26  1  0  0  0  0
  9 10  1  0  0  0  0
  9 27  1  0  0  0  0
  9 28  1  0  0  0  0
 10 11  1  0  0  0  0
 10 29  1  0  0  0  0
 10 30  1  0  0  0  0
 11 18  1  0  0  0  0
 11 12  1  0  0  0  0
 11 43  1  0  0  0  0
 12 13  1  0  0  0  0
 12 31  1  0  0  0  0
 12 32  1  0  0  0  0
 13 14  1  0  0  0  0
 13 15  1  0  0  0  0
 13 33  1  0  0  0  0
 14 34  1  0  0  0  0
 14 35  1  0  0  0  0
 14 36  1  0  0  0  0
 15 16  1  0  0  0  0
 16 17  1  0  0  0  0
 16 18  1  0  0  0  0
 16 37  1  0  0  0  0
 17 38  1  0  0  0  0
 17 39  1  0  0  0  0
 17 40  1  0  0  0  0
 18 41  1  0  0  0  0
 18 42  1  0  0  0  0
 19 20  1  0  0  0  0
M  CHG  1  11   1
M  END
> <s_m_source_file>
AV-unprocessed.smi

> <i_m_source_file_index>
1381

> <i_lp_mmshare_version>
43012

> <i_f3d_flags>
0

> <s_epik_input>
W0NIM11jMVtjSF1jKG5vMSlbTkhdQyg9TylbTkhdW0NIMl1bQ0gyXU4yW0NIMl1bQ0BASF0oW0NIM10pT1tDQEBIXShbQ0gzXSlbQ0gyXTI=

> <s_epik_cmdline>
J2VwaWtfcHl0aG9uJywgJy1waCcsICc3LjAnLCAnLXRuJywgJzgnLCAnLW1hJywgJzIwMCcsICctbWV0YWxfYmluZGluZycsICctaW1hZScsICc8aW5maWxlLm1hZT4nLCAnLW9tYWUnLCAnPG91dGZpbGUubWFlPic=

> <r_epik_Ionization_Penalty>
0.707076

> <r_epik_Ionization_Penalty_Charging>
0.707039

> <r_epik_Ionization_Penalty_Neutral>
3.6548e-05

> <r_epik_State_Penalty>
0.730276

> <r_epik_Charging_Adjusted_Penalty>
1.43732

> <i_epik_Tot_Q>
1

> <i_epik_Tot_abs_Q>
1

> <r_epik_Metal_State_Penalty>
0.743132

> <b_epik_Metal_Only>
0

> <s_lp_Force_Field>
OPLS_2005

> <r_lp_Energy>
14.2109

> <b_lp_Chiralities_Consistent>
1

> <s_lp_Variant>
AV-unprocessed.smi:1381-6

> <Gold.Version>
5.8.1

> <Gold.Id.Protein>
6NUR|6NUR_protein|mol2

> <Gold.PLP.Fitness>
41.7270

> <Gold.PLP.PLP>
-34.0806

> <Gold.PLP.part.hbond>
-3.0000

> <Gold.PLP.part.metal>
0.0000

> <Gold.PLP.part.buried>
-6.0931

> <Gold.PLP.part.nonpolar>
-26.7491

> <Gold.PLP.part.repulsive>
2.1426

> <Gold.PLP.ligand.clash>
0.0000

> <Gold.PLP.ligand.torsion>
0.6923

> <Gold.PLP.Chemscore.Hbond>
3.0000

> <Gold.PLP.Chemscore.CHOScore>
0.0000

> <Gold.PLP.Chemscore.Metal>
0.0000

> <Gold.Chemscore.Hbonds>
donor molecule, donor type, donor heavy atom, donor atom, acceptor molecule, acceptor atom, score
      L1  H     5    25       P1  7948  1.00
      L1  H     8    26       P1  7948  1.00
      P1  H  7989  7998       L1    15  1.00

> <Gold.PLP.Chemscore.Internal.Correction>
0.0309

> <Gold.Rescore>
     Score         DG    S(hbond)    S(metal)    S(lipo)     H(rot)  DE(clash)    DE(int)     intcor
     16.45     -18.12       2.48        0.00      72.33       1.61       0.03       1.64       ----

> <Gold.Chemscore.Fitness>
16.4549

> <Gold.Chemscore.DG>
-18.1163

> <Gold.Chemscore.ZeroCoef>
-5.4800

> <Gold.Chemscore.Hbond>
2.4822

> <Gold.Chemscore.Metal>
0.0000

> <Gold.Chemscore.Lipo>
72.3295

> <Gold.Chemscore.Internal_Hbond>
0.0000

> <Gold.Chemscore.DEClash>
0.0253

> <Gold.Chemscore.DEInternal>
1.6362

> <Gold.Chemscore.Rot>
1.6081

> <Gold.Chemscore.Internal.Correction>
   9.000000E+99

> <Gold.Chemscore.Hbonds>
donor molecule, donor type, donor heavy atom, donor atom, acceptor molecule, acceptor atom, score
      L1  H     5    25       P1  7948  0.97
      L1  H     8    26       P1  7948  0.99
      P1  H  7989  7998       L1    15  0.47

> <Gold.Chemscore.Hbond.Weighted>
-8.2904

> <Gold.Chemscore.Metal.Weighted>
-0.0000

> <Gold.Chemscore.Lipo.Weighted>
-8.4626

> <Gold.Chemscore.Internal_Hbond.Weighted>
0.0000

> <Gold.Chemscore.DEClash.Weighted>
0.0253

> <Gold.Chemscore.DEInternal.Weighted>
1.6362

> <Gold.Chemscore.Rot.Weighted>
4.1167

> <Gold.Chemscore.Internal.Correction.Weighted>
   9.000000E+99

> <Gold.Protein.RotatedTorsions>
[ 6907 6896 6895 6894 ] final   -3.00 input  -60.11 | X-H torsion
[ 7974 7965 7964 7962 ] final   20.69 input  175.53 | X-H torsion
[ 8008 7997 7996 7995 ] final    2.90 input   59.86 | X-H torsion
[ 10167 10162 10161 10158 ] final  -36.82 input  -65.29 | X-H torsion
[ 10718 10713 10712 10709 ] final   79.04 input   66.30 | X-H torsion
[ 10763 10752 10751 10750 ] final  -69.24 input  -60.55 | X-H torsion
[ 11005 11000 10999 10996 ] final   91.52 input  -57.11 | X-H torsion

> <Gold.Protein.ActiveResidues>
 VAL166  LYS551  ARG553  GLY616  TRP617  ASP618  TYR619  PRO620  LYS621  CYS622 
 ASP623  PHE694  ASN695  SER759  ASP760  ASP761  ALA762  ILE779  LEU786  VAL792 
 PHE793  MET794  SER795  GLU796  ALA797  LYS798  CYS799  TRP800  GLU811  SER814 

> <Gold.Protein.RotatedAtoms>
  151.5208  135.1067  159.9877 H   0  0  0  0  0  0  0  0  0  0  0  0  # atno 6907 bound_to 6896
  152.4621  133.7840  159.6877 H   0  0  0  0  0  0  0  0  0  0  0  0  # atno 6908 bound_to 6896
  150.8588  133.7610  159.3025 H   0  0  0  0  0  0  0  0  0  0  0  0  # atno 6909 bound_to 6896
  146.2101  139.8133  142.8695 H   0  0  0  0  0  0  0  0  0  0  0  0  # atno 7974 bound_to 7965
  154.6971  140.2665  155.6755 H   0  0  0  0  0  0  0  0  0  0  0  0  # atno 8008 bound_to 7997
  156.2752  140.2779  156.1493 H   0  0  0  0  0  0  0  0  0  0  0  0  # atno 8009 bound_to 7997
  155.0815  140.0372  157.2631 H   0  0  0  0  0  0  0  0  0  0  0  0  # atno 8010 bound_to 7997
  140.7133  143.3383  151.2413 H   0  0  0  0  0  0  0  0  0  0  0  0  # atno 10167 bound_to 10162
  157.6764  130.9896  150.1874 H   0  0  0  0  0  0  0  0  0  0  0  0  # atno 10718 bound_to 10713
  154.4005  135.6032  153.5894 H   0  0  0  0  0  0  0  0  0  0  0  0  # atno 10763 bound_to 10752
  152.9788  135.5905  154.4190 H   0  0  0  0  0  0  0  0  0  0  0  0  # atno 10764 bound_to 10752
  154.3988  135.2842  155.2088 H   0  0  0  0  0  0  0  0  0  0  0  0  # atno 10765 bound_to 10752
  139.8837  134.8679  156.3440 H   0  0  0  0  0  0  0  0  0  0  0  0  # atno 11005 bound_to 11000
  145.3173  141.0235  143.3520 LP  0  0  0  0  0  0  0  0  0  0  0  0  # atno 17320 bound_to 7965
  144.8892  139.4797  143.6686 LP  0  0  0  0  0  0  0  0  0  0  0  0  # atno 17321 bound_to 7965
  139.6884  143.9734  152.2846 LP  0  0  0  0  0  0  0  0  0  0  0  0  # atno 17342 bound_to 10162
  139.9387  144.6695  150.8288 LP  0  0  0  0  0  0  0  0  0  0  0  0  # atno 17343 bound_to 10162
  156.2593  130.3709  149.8148 LP  0  0  0  0  0  0  0  0  0  0  0  0  # atno 17370 bound_to 10713
  156.5898  130.8501  151.3405 LP  0  0  0  0  0  0  0  0  0  0  0  0  # atno 17371 bound_to 10713
  140.9640  133.7370  156.0440 LP  0  0  0  0  0  0  0  0  0  0  0  0  # atno 17394 bound_to 11000
  140.7954  134.3569  157.5453 LP  0  0  0  0  0  0  0  0  0  0  0  0  # atno 17395 bound_to 11000

$$$$
