AV-unprocessed.smi:1310|AV-procd|sdf|5445|dock6
  -GOLD-   22720 5 13D 1   1.00000     0.00000
 Structure written by MMmdl.
 34 35  0  0  0  0  0  0  0  0  1 V2000
  146.3210  139.1033  151.8784 C   0  0  0  0  0  0  0  0  0  0  0  0
  146.9884  138.6450  153.0489 O   0  0  0  0  0  0  0  0  0  0  0  0
  147.7308  139.5519  153.7772 C   0  0  0  0  0  0  0  0  0  0  0  0
  148.8474  139.0849  154.4983 C   0  0  0  0  0  0  0  0  0  0  0  0
  149.6104  140.0030  155.2452 C   0  0  0  0  0  0  0  0  0  0  0  0
  149.2332  141.3679  155.2435 C   0  0  0  0  0  0  0  0  0  0  0  0
  149.9018  142.4003  155.9573 N   0  0  0  0  0  0  0  0  0  0  0  0
  150.9321  142.3215  156.8229 C   0  0  0  0  0  0  0  0  0  0  0  0
  151.5072  141.2840  157.1432 O   0  0  0  0  0  0  0  0  0  0  0  0
  151.3075  143.5074  157.3358 N   0  0  0  0  0  0  0  0  0  0  0  0
  152.3804  143.7820  158.2953 C   0  0  0  0  0  0  0  0  0  0  0  0
  152.2918  142.8243  159.4989 C   0  0  0  0  0  0  0  0  0  0  0  0
  152.4581  143.6950  160.7449 C   0  0  0  0  0  0  0  0  0  0  0  0
  151.8693  145.0422  160.3411 C   0  0  0  0  0  0  0  0  0  0  0  0
  152.2796  145.2078  158.8776 C   0  0  0  0  0  0  0  0  0  0  0  0
  148.0947  141.7300  154.4940 C   0  0  0  0  0  0  0  0  0  0  0  0
  147.3590  140.8555  153.7763 N   0  0  0  0  0  0  0  0  0  0  0  0
  145.7887  138.2712  151.4177 H   0  0  0  0  0  0  0  0  0  0  0  0
  147.0264  139.4925  151.1426 H   0  0  0  0  0  0  0  0  0  0  0  0
  145.5871  139.8750  152.1145 H   0  0  0  0  0  0  0  0  0  0  0  0
  149.1134  138.0382  154.4816 H   0  0  0  0  0  0  0  0  0  0  0  0
  150.4552  139.6334  155.8034 H   0  0  0  0  0  0  0  0  0  0  0  0
  149.5636  143.3333  155.7726 H   0  0  0  0  0  0  0  0  0  0  0  0
  150.7725  144.3110  157.0395 H   0  0  0  0  0  0  0  0  0  0  0  0
  153.3510  143.6519  157.8131 H   0  0  0  0  0  0  0  0  0  0  0  0
  151.3135  142.3414  159.5350 H   0  0  0  0  0  0  0  0  0  0  0  0
  153.0392  142.0316  159.4520 H   0  0  0  0  0  0  0  0  0  0  0  0
  151.9715  143.2692  161.6228 H   0  0  0  0  0  0  0  0  0  0  0  0
  153.5181  143.8122  160.9737 H   0  0  0  0  0  0  0  0  0  0  0  0
  150.7817  145.0041  160.4162 H   0  0  0  0  0  0  0  0  0  0  0  0
  152.2188  145.8611  160.9706 H   0  0  0  0  0  0  0  0  0  0  0  0
  153.2602  145.6832  158.8303 H   0  0  0  0  0  0  0  0  0  0  0  0
  151.5872  145.8527  158.3351 H   0  0  0  0  0  0  0  0  0  0  0  0
  147.7612  142.7573  154.4676 H   0  0  0  0  0  0  0  0  0  0  0  0
  1  2  1  0  0  0  0
  1 18  1  0  0  0  0
  1 19  1  0  0  0  0
  1 20  1  0  0  0  0
  2  3  1  0  0  0  0
  3 17  1  0  0  0  0
  3  4  2  0  0  0  0
  4  5  1  0  0  0  0
  4 21  1  0  0  0  0
  5  6  2  0  0  0  0
  5 22  1  0  0  0  0
  6  7  1  0  0  0  0
  6 16  1  0  0  0  0
  7  8  1  0  0  0  0
  7 23  1  0  0  0  0
  8  9  2  0  0  0  0
  8 10  1  0  0  0  0
 10 11  1  0  0  0  0
 10 24  1  0  0  0  0
 11 15  1  0  0  0  0
 11 12  1  0  0  0  0
 11 25  1  0  0  0  0
 12 13  1  0  0  0  0
 12 26  1  0  0  0  0
 12 27  1  0  0  0  0
 13 14  1  0  0  0  0
 13 28  1  0  0  0  0
 13 29  1  0  0  0  0
 14 15  1  0  0  0  0
 14 30  1  0  0  0  0
 14 31  1  0  0  0  0
 15 32  1  0  0  0  0
 15 33  1  0  0  0  0
 16 17  2  0  0  0  0
 16 34  1  0  0  0  0
M  END
> <s_m_source_file>
AV-unprocessed.smi

> <i_m_source_file_index>
1310

> <i_lp_mmshare_version>
43012

> <i_f3d_flags>
0

> <s_epik_input>
W0NIM11PYzFbY0hdW2NIXWMoW2NIXW4xKVtOSF1DKD1PKVtOSF1bQ0hdMltDSDJdW0NIMl1bQ0gyXVtDSDJdMg==

> <s_epik_cmdline>
J2VwaWtfcHl0aG9uJywgJy1waCcsICc3LjAnLCAnLXRuJywgJzgnLCAnLW1hJywgJzIwMCcsICctbWV0YWxfYmluZGluZycsICctaW1hZScsICc8aW5maWxlLm1hZT4nLCAnLW9tYWUnLCAnPG91dGZpbGUubWFlPic=

> <r_lp_tautomer_probability>
1

> <r_epik_Ionization_Penalty>
0.000100082

> <r_epik_Ionization_Penalty_Charging>
0

> <r_epik_Ionization_Penalty_Neutral>
0.000100082

> <r_epik_State_Penalty>
-0

> <r_epik_Charging_Adjusted_Penalty>
0

> <i_epik_Tot_Q>
0

> <i_epik_Tot_abs_Q>
0

> <r_epik_Metal_State_Penalty>
-0

> <b_epik_Metal_Only>
0

> <s_lp_Force_Field>
OPLS_2005

> <r_lp_Energy>
31.5118

> <b_lp_Chiralities_Consistent>
1

> <s_lp_Variant>
AV-unprocessed.smi:1310-1

> <Gold.Version>
5.8.1

> <Gold.Id.Protein>
6NUR|6NUR_protein|mol2

> <Gold.PLP.Fitness>
45.9653

> <Gold.PLP.PLP>
-40.5644

> <Gold.PLP.part.hbond>
-1.6102

> <Gold.PLP.part.metal>
0.0000

> <Gold.PLP.part.buried>
-3.4294

> <Gold.PLP.part.nonpolar>
-37.3640

> <Gold.PLP.part.repulsive>
0.8472

> <Gold.PLP.ligand.clash>
0.0000

> <Gold.PLP.ligand.torsion>
0.5156

> <Gold.PLP.Chemscore.Hbond>
1.2122

> <Gold.PLP.Chemscore.CHOScore>
0.9309

> <Gold.PLP.Chemscore.Metal>
0.0000

> <Gold.Chemscore.Hbonds>
donor molecule, donor type, donor heavy atom, donor atom, acceptor molecule, acceptor atom, score
      L1  H     7    23       P1  8028  1.00
      L1  H    10    24       P1  8028  0.16
      L1  C    16    34       P1  8028  0.94

> <Gold.PLP.Chemscore.Internal.Correction>
0.0029

> <Gold.Rescore>
     Score         DG    S(hbond)    S(metal)    S(lipo)     H(rot)  DE(clash)    DE(int)     intcor
     16.02     -19.58       1.78        0.00      96.54       1.23       0.83       2.73       ----

> <Gold.Chemscore.Fitness>
16.0203

> <Gold.Chemscore.DG>
-19.5790

> <Gold.Chemscore.ZeroCoef>
-5.4800

> <Gold.Chemscore.Hbond>
1.7832

> <Gold.Chemscore.Metal>
0.0000

> <Gold.Chemscore.Lipo>
96.5439

> <Gold.Chemscore.Internal_Hbond>
0.0000

> <Gold.Chemscore.DEClash>
0.8308

> <Gold.Chemscore.DEInternal>
2.7279

> <Gold.Chemscore.Rot>
1.2315

> <Gold.Chemscore.Internal.Correction>
   9.000000E+99

> <Gold.Chemscore.Hbonds>
donor molecule, donor type, donor heavy atom, donor atom, acceptor molecule, acceptor atom, score
      L1  H     7    23       P1  8028  0.94
      L1  H    10    24       P1  8028  0.17

> <Gold.Chemscore.Hbond.Weighted>
-5.9559

> <Gold.Chemscore.Metal.Weighted>
-0.0000

> <Gold.Chemscore.Lipo.Weighted>
-11.2956

> <Gold.Chemscore.Internal_Hbond.Weighted>
0.0000

> <Gold.Chemscore.DEClash.Weighted>
0.8308

> <Gold.Chemscore.DEInternal.Weighted>
2.7279

> <Gold.Chemscore.Rot.Weighted>
3.1526

> <Gold.Chemscore.Internal.Correction.Weighted>
   9.000000E+99

> <Gold.Protein.RotatedTorsions>
[ 6907 6896 6895 6894 ] final   40.50 input  -60.11 | X-H torsion
[ 7974 7965 7964 7962 ] final -170.02 input  175.53 | X-H torsion
[ 8008 7997 7996 7995 ] final -135.97 input   59.86 | X-H torsion
[ 10167 10162 10161 10158 ] final  104.09 input  -65.29 | X-H torsion
[ 10718 10713 10712 10709 ] final -177.97 input   66.30 | X-H torsion
[ 10763 10752 10751 10750 ] final   88.98 input  -60.55 | X-H torsion
[ 11005 11000 10999 10996 ] final  -21.20 input  -57.11 | X-H torsion

> <Gold.Protein.ActiveResidues>
 VAL166  LYS551  ARG553  GLY616  TRP617  ASP618  TYR619  PRO620  LYS621  CYS622 
 ASP623  PHE694  ASN695  SER759  ASP760  ASP761  ALA762  ILE779  LEU786  VAL792 
 PHE793  MET794  SER795  GLU796  ALA797  LYS798  CYS799  TRP800  GLU811  SER814 

> <Gold.Protein.RotatedAtoms>
  152.1833  134.8735  160.0524 H   0  0  0  0  0  0  0  0  0  0  0  0  # atno 6907 bound_to 6896
  151.9651  133.3703  159.4058 H   0  0  0  0  0  0  0  0  0  0  0  0  # atno 6908 bound_to 6896
  150.6921  134.4122  159.5211 H   0  0  0  0  0  0  0  0  0  0  0  0  # atno 6909 bound_to 6896
  144.7176  140.2135  143.6324 H   0  0  0  0  0  0  0  0  0  0  0  0  # atno 7974 bound_to 7965
  155.3875  140.0498  157.3042 H   0  0  0  0  0  0  0  0  0  0  0  0  # atno 8008 bound_to 7997
  154.5052  140.2171  155.9227 H   0  0  0  0  0  0  0  0  0  0  0  0  # atno 8009 bound_to 7997
  156.1517  140.3134  155.8664 H   0  0  0  0  0  0  0  0  0  0  0  0  # atno 8010 bound_to 7997
  139.7207  144.7059  151.0878 H   0  0  0  0  0  0  0  0  0  0  0  0  # atno 10167 bound_to 10162
  156.8373  130.9674  151.3102 H   0  0  0  0  0  0  0  0  0  0  0  0  # atno 10718 bound_to 10713
  153.1824  135.4487  155.0045 H   0  0  0  0  0  0  0  0  0  0  0  0  # atno 10763 bound_to 10752
  154.8038  135.3266  154.7485 H   0  0  0  0  0  0  0  0  0  0  0  0  # atno 10764 bound_to 10752
  153.7948  135.6967  153.4920 H   0  0  0  0  0  0  0  0  0  0  0  0  # atno 10765 bound_to 10752
  140.8538  133.7837  155.9996 H   0  0  0  0  0  0  0  0  0  0  0  0  # atno 11005 bound_to 11000
  145.8568  139.2203  143.1739 LP  0  0  0  0  0  0  0  0  0  0  0  0  # atno 17320 bound_to 7965
  146.0210  140.8348  142.9923 LP  0  0  0  0  0  0  0  0  0  0  0  0  # atno 17321 bound_to 7965
  140.7753  143.5170  150.9582 LP  0  0  0  0  0  0  0  0  0  0  0  0  # atno 17342 bound_to 10162
  139.8857  143.7016  152.3151 LP  0  0  0  0  0  0  0  0  0  0  0  0  # atno 17343 bound_to 10162
  157.6374  130.8778  149.9385 LP  0  0  0  0  0  0  0  0  0  0  0  0  # atno 17370 bound_to 10713
  156.0900  130.3664  150.0413 LP  0  0  0  0  0  0  0  0  0  0  0  0  # atno 17371 bound_to 10713
  140.8760  134.2669  157.5168 LP  0  0  0  0  0  0  0  0  0  0  0  0  # atno 17394 bound_to 11000
  139.8705  134.9591  156.4321 LP  0  0  0  0  0  0  0  0  0  0  0  0  # atno 17395 bound_to 11000

$$$$
