#       Name:                AV-unprocessed.smi:1795
#       Creating user name   scv26
#       Creation time:       Fri Mar 27 08:48:39 2020


#       File generated by GOLD software.
#

@<TRIPOS>MOLECULE
AV-unprocessed.smi:1795
    54    55     1
SMALL
NO_CHARGES


@<TRIPOS>ATOM
      1 ****        -3.2394  -1.4413  -4.5256 C.3            1 S1                 0.0000
      2 ****        -1.8563  -1.6567  -3.9022 C.3            1 S1                 0.0000
      3 ****        -1.4713  -0.5216  -2.9346 C.3            1 S1                 0.0000
      4 ****        -0.1806  -0.7443  -2.2737 N.3            1 S1                 0.0000
      5 ****         0.1649   0.3437  -1.3288 C.3            1 S1                 0.0000
      6 ****         0.1759   1.7407  -2.0002 C.3            1 S1                 0.0000
      7 ****         1.5272   0.1274  -0.6068 C.3            1 S1                 0.0000
      8 ****         1.8337   1.1640   0.3753 N.am           1 S1                 0.0000
      9 ****         1.2709   1.2637   1.5891 C.2            1 S1                 0.0000
     10 ****         0.4166   0.4772   2.0011 O.2            1 S1                 0.0000
     11 ****         1.7370   2.4457   2.4512 C.3            1 S1                 0.0000
     12 ****         1.4056   2.2944   3.8780 N.am           1 S1                 0.0000
     13 ****         0.2333   2.9295   4.3346 C.2            1 S1                 0.0000
     14 ****        -0.1648   2.8505   5.6142 C.2            1 S1                 0.0000
     15 ****         0.6452   2.0889   6.5351 C.2            1 S1                 0.0000
     16 ****         1.7667   1.4747   6.1083 C.2            1 S1                 0.0000
     17 ****         2.2038   1.5556   4.7095 C.2            1 S1                 0.0000
     18 ****         3.2240   0.9936   4.3099 O.2            1 S1                 0.0000
     19 ****        -0.2283  -2.0607  -1.6272 C.3            1 S1                 0.0000
     20 ****        -0.6213  -3.1939  -2.5942 C.3            1 S1                 0.0000
     21 ****        -0.7474  -4.5444  -1.8809 C.3            1 S1                 0.0000
     22 ****        -1.8750  -2.8873  -3.1906 O.3            1 S1                 0.0000
     23 ****        -3.2721  -0.5128  -5.0964 H              1 S1                 0.0000
     24 ****        -4.0143  -1.3920  -3.7601 H              1 S1                 0.0000
     25 ****        -3.4925  -2.2566  -5.2036 H              1 S1                 0.0000
     26 ****        -1.1180  -1.7202  -4.7036 H              1 S1                 0.0000
     27 ****        -1.4487   0.3985  -3.5158 H              1 S1                 0.0000
     28 ****        -2.2536  -0.4029  -2.1831 H              1 S1                 0.0000
     29 ****        -0.6070   0.3693  -0.5583 H              1 S1                 0.0000
     30 ****         0.4865   2.5293  -1.3159 H              1 S1                 0.0000
     31 ****        -0.8119   2.0407  -2.3469 H              1 S1                 0.0000
     32 ****         0.8545   1.7621  -2.8534 H              1 S1                 0.0000
     33 ****         1.5663  -0.8223  -0.0754 H              1 S1                 0.0000
     34 ****         2.3350   0.1023  -1.3389 H              1 S1                 0.0000
     35 ****         2.5231   1.8531   0.1113 H              1 S1                 0.0000
     36 ****         2.8133   2.5808   2.3275 H              1 S1                 0.0000
     37 ****         1.2881   3.3555   2.0505 H              1 S1                 0.0000
     38 ****        -0.3196   3.4724   3.5817 H              1 S1                 0.0000
     39 ****        -1.0690   3.3398   5.9452 H              1 S1                 0.0000
     40 ****         0.3500   2.0099   7.5710 H              1 S1                 0.0000
     41 ****         2.3594   0.9084   6.8117 H              1 S1                 0.0000
     42 ****         0.7453  -2.3233  -1.2189 H              1 S1                 0.0000
     43 ****        -0.9280  -2.0351  -0.7901 H              1 S1                 0.0000
     44 ****         0.1327  -3.2820  -3.3784 H              1 S1                 0.0000
     45 ****         0.1959  -4.8328  -1.4164 H              1 S1                 0.0000
     46 ****        -1.0264  -5.3308  -2.5827 H              1 S1                 0.0000
     47 ****        -1.5081  -4.5091  -1.1004 H              1 S1                 0.0000
     48 ****         0.5537  -0.7323  -2.9525 LP             1 S1                 0.0000
     49 ****         0.1122  -0.2790   1.4218 LP             1 S1                 0.0000
     50 ****         0.0276   0.5950   2.9147 LP             1 S1                 0.0000
     51 ****         3.4929   1.0689   3.3496 LP             1 S1                 0.0000
     52 ****         3.7836   0.4618   4.9456 LP             1 S1                 0.0000
     53 ****        -2.1152  -3.6211  -3.8262 LP             1 S1                 0.0000
     54 ****        -2.5667  -2.8303  -2.4707 LP             1 S1                 0.0000
@<TRIPOS>BOND
    1    1    2 1     
    2    1   23 1     
    3    1   24 1     
    4    1   25 1     
    5    2   22 1     
    6    2    3 1     
    7    2   26 1     
    8    3    4 1     
    9    3   27 1     
   10    3   28 1     
   11    4    5 1     
   12    4   19 1     
   13    5    6 1     
   14    5    7 1     
   15    5   29 1     
   16    6   30 1     
   17    6   31 1     
   18    6   32 1     
   19    7    8 1     
   20    7   33 1     
   21    7   34 1     
   22    8    9 am    
   23    8   35 1     
   24    9   10 2     
   25    9   11 1     
   26   11   12 1     
   27   11   36 1     
   28   11   37 1     
   29   12   17 am    
   30   12   13 1     
   31   13   14 2     
   32   13   38 1     
   33   14   15 1     
   34   14   39 1     
   35   15   16 2     
   36   15   40 1     
   37   16   17 1     
   38   16   41 1     
   39   17   18 2     
   40   19   20 1     
   41   19   42 1     
   42   19   43 1     
   43   20   21 1     
   44   20   22 1     
   45   20   44 1     
   46   21   45 1     
   47   21   46 1     
   48   21   47 1     
   49    4   48 1     
   50   10   49 1     
   51   10   50 1     
   52   18   51 1     
   53   18   52 1     
   54   22   53 1     
   55   22   54 1     
@<TRIPOS>SUBSTRUCTURE
      1 S1             1
@<TRIPOS>SET
LONE_PAIRS      STATIC     ATOMS    <user>   **** ""
7 48 49 50 51 52 53 54
DONOR_HYDROGENS      STATIC     ATOMS    <user>   **** ""
1 35
ATOM$BLUE        STATIC     ATOMS    COLORGROUP SYSTEM
7 48 49 50 51 52 53 54
ATOM$RED        STATIC     ATOMS    COLORGROUP SYSTEM
1 35
