AV-unprocessed.smi:175|AV-procd|sdf|1430|dock4
  -GOLD-   2262019203D 1   1.00000     0.00000
 Structure written by MMmdl.
 47 50  0  0  0  0  0  0  0  0  1 V2000
  151.9219  145.2208  158.6198 C   0  0  0  0  0  0  0  0  0  0  0  0
  152.2840  143.7334  158.4814 C   0  0  1  0  0  0  0  0  0  0  0  0
  152.7074  143.2042  159.7295 O   0  0  0  0  0  0  0  0  0  0  0  0
  152.6410  141.7939  159.6242 C   0  0  0  0  0  0  0  0  0  0  0  0
  151.3006  141.5721  158.9341 C   0  0  0  0  0  0  0  0  0  0  0  0
  151.1642  142.7747  157.9952 C   0  0  1  0  0  0  0  0  0  0  0  0
  149.8742  143.3344  158.1815 O   0  0  0  0  0  0  0  0  0  0  0  0
  151.3071  142.3713  156.5066 C   0  0  0  0  0  0  0  0  0  0  0  0
  150.7008  141.0859  156.1924 N   0  0  0  0  0  0  0  0  0  0  0  0
  149.3600  140.7736  156.2374 C   0  0  0  0  0  0  0  0  0  0  0  0
  149.0612  139.5488  155.9011 N   0  0  0  0  0  0  0  0  0  0  0  0
  150.2901  138.9698  155.6107 C   0  0  0  0  0  0  0  0  0  0  0  0
  150.7021  137.6757  155.1834 C   0  0  0  0  0  0  0  0  0  0  0  0
  149.8642  136.6408  154.9519 N   0  0  0  0  0  0  0  0  0  0  0  0
  148.9016  136.3938  156.0271 C   0  0  0  0  0  0  0  0  0  0  0  0
  149.1383  134.9367  156.3712 C   0  0  0  0  0  0  0  0  0  0  0  0
  148.5424  134.3492  157.2724 O   0  0  0  0  0  0  0  0  0  0  0  0
  150.0722  134.4254  155.5682 N   0  0  0  0  0  0  0  0  0  0  0  0
  150.5931  133.0609  155.5875 C   0  0  0  0  0  0  0  0  0  0  0  0
  149.6989  132.0840  154.8029 C   0  0  0  0  0  0  0  0  0  0  0  0
  149.4110  132.6179  153.6168 F   0  0  0  0  0  0  0  0  0  0  0  0
  150.3356  130.9295  154.6051 F   0  0  0  0  0  0  0  0  0  0  0  0
  148.5572  131.8490  155.4492 F   0  0  0  0  0  0  0  0  0  0  0  0
  150.5368  135.3921  154.5878 C   0  0  0  0  0  0  0  0  0  0  0  0
  152.0259  137.4576  154.9952 N   0  0  0  0  0  0  0  0  0  0  0  0
  152.9008  138.4447  155.2124 C   0  0  0  0  0  0  0  0  0  0  0  0
  152.6659  139.6972  155.6110 N   0  0  0  0  0  0  0  0  0  0  0  0
  151.3328  139.9191  155.7971 C   0  0  0  0  0  0  0  0  0  0  0  0
  151.5778  145.6322  157.6707 H   0  0  0  0  0  0  0  0  0  0  0  0
  152.7896  145.8000  158.9353 H   0  0  0  0  0  0  0  0  0  0  0  0
  151.1377  145.3753  159.3610 H   0  0  0  0  0  0  0  0  0  0  0  0
  153.1446  143.6491  157.8171 H   0  0  0  0  0  0  0  0  0  0  0  0
  153.4654  141.4301  159.0085 H   0  0  0  0  0  0  0  0  0  0  0  0
  152.6986  141.3123  160.6003 H   0  0  0  0  0  0  0  0  0  0  0  0
  151.2544  140.6109  158.4210 H   0  0  0  0  0  0  0  0  0  0  0  0
  150.5139  141.5741  159.6905 H   0  0  0  0  0  0  0  0  0  0  0  0
  149.6385  143.8123  157.4012 H   0  0  0  0  0  0  0  0  0  0  0  0
  150.8510  143.1295  155.8688 H   0  0  0  0  0  0  0  0  0  0  0  0
  152.3597  142.3304  156.2225 H   0  0  0  0  0  0  0  0  0  0  0  0
  148.6032  141.4900  156.5220 H   0  0  0  0  0  0  0  0  0  0  0  0
  149.0465  137.0252  156.9059 H   0  0  0  0  0  0  0  0  0  0  0  0
  147.8845  136.5354  155.6614 H   0  0  0  0  0  0  0  0  0  0  0  0
  151.6046  133.0518  155.1787 H   0  0  0  0  0  0  0  0  0  0  0  0
  150.6808  132.7286  156.6228 H   0  0  0  0  0  0  0  0  0  0  0  0
  150.2305  135.0893  153.5860 H   0  0  0  0  0  0  0  0  0  0  0  0
  151.6260  135.4620  154.6016 H   0  0  0  0  0  0  0  0  0  0  0  0
  153.9378  138.1958  155.0412 H   0  0  0  0  0  0  0  0  0  0  0  0
  1  2  1  0  0  0  0
  1 29  1  0  0  0  0
  1 30  1  0  0  0  0
  1 31  1  0  0  0  0
  2  6  1  0  0  0  0
  2  3  1  0  0  0  0
  2 32  1  0  0  0  0
  3  4  1  0  0  0  0
  4  5  1  0  0  0  0
  4 33  1  0  0  0  0
  4 34  1  0  0  0  0
  5  6  1  0  0  0  0
  5 35  1  0  0  0  0
  5 36  1  0  0  0  0
  6  7  1  0  0  0  0
  6  8  1  0  0  0  0
  7 37  1  0  0  0  0
  8  9  1  0  0  0  0
  8 38  1  0  0  0  0
  8 39  1  0  0  0  0
  9 28  1  0  0  0  0
  9 10  1  0  0  0  0
 10 11  2  0  0  0  0
 10 40  1  0  0  0  0
 11 12  1  0  0  0  0
 12 28  2  0  0  0  0
 12 13  1  0  0  0  0
 13 14  1  0  0  0  0
 13 25  2  0  0  0  0
 14 24  1  0  0  0  0
 14 15  1  0  0  0  0
 15 16  1  0  0  0  0
 15 41  1  0  0  0  0
 15 42  1  0  0  0  0
 16 17  2  0  0  0  0
 16 18  1  0  0  0  0
 18 19  1  0  0  0  0
 18 24  1  0  0  0  0
 19 20  1  0  0  0  0
 19 43  1  0  0  0  0
 19 44  1  0  0  0  0
 20 21  1  0  0  0  0
 20 22  1  0  0  0  0
 20 23  1  0  0  0  0
 24 45  1  0  0  0  0
 24 46  1  0  0  0  0
 25 26  1  0  0  0  0
 26 27  2  0  0  0  0
 26 47  1  0  0  0  0
 27 28  1  0  0  0  0
M  END
> <s_m_source_file>
AV-unprocessed.smi

> <i_m_source_file_index>
175

> <i_lp_mmshare_version>
43012

> <i_f3d_flags>
0

> <s_epik_input>
W0NIMl0xW0NIMl1PW0NAQEhdKFtDSDNdKVtDQEBdMShbT0hdKVtDSDJdbihbY0hdbjIpYyhjMjMpbltjSF1uYzNONFtDSDJdQyg9TylOKFtDSDJdNClbQ0gyXUMoRikoRilG

> <s_epik_cmdline>
J2VwaWtfcHl0aG9uJywgJy1waCcsICc3LjAnLCAnLXRuJywgJzgnLCAnLW1hJywgJzIwMCcsICctbWV0YWxfYmluZGluZycsICctaW1hZScsICc8aW5maWxlLm1hZT4nLCAnLW9tYWUnLCAnPG91dGZpbGUubWFlPic=

> <r_lp_tautomer_probability>
1

> <r_epik_Ionization_Penalty>
0.000307802

> <r_epik_Ionization_Penalty_Charging>
0

> <r_epik_Ionization_Penalty_Neutral>
0.000307802

> <r_epik_State_Penalty>
-0

> <r_epik_Charging_Adjusted_Penalty>
0

> <i_epik_Tot_Q>
0

> <i_epik_Tot_abs_Q>
0

> <r_epik_Metal_State_Penalty>
-0

> <b_epik_Metal_Only>
0

> <s_epik_Chemistry_Notes>
This compound contains an acetal/aminal-like group ( X-CH(R)-Y where X, Y are N, S, or O) that may be acid/base labile, releasing an aldehyde.

> <s_lp_Force_Field>
OPLS_2005

> <r_lp_Energy>
36.8699

> <b_lp_Chiralities_Consistent>
1

> <s_lp_Variant>
AV-unprocessed.smi:175-2

> <Gold.Version>
5.8.1

> <Gold.Id.Protein>
6NUR|6NUR_protein|mol2

> <Gold.PLP.Fitness>
52.0098

> <Gold.PLP.PLP>
-45.6089

> <Gold.PLP.part.hbond>
-3.0000

> <Gold.PLP.part.metal>
0.0000

> <Gold.PLP.part.buried>
-7.6964

> <Gold.PLP.part.nonpolar>
-36.3203

> <Gold.PLP.part.repulsive>
0.2405

> <Gold.PLP.ligand.clash>
0.0000

> <Gold.PLP.ligand.torsion>
0.9794

> <Gold.PLP.Chemscore.Hbond>
2.7007

> <Gold.PLP.Chemscore.CHOScore>
0.0000

> <Gold.PLP.Chemscore.Metal>
0.0000

> <Gold.Chemscore.Hbonds>
donor molecule, donor type, donor heavy atom, donor atom, acceptor molecule, acceptor atom, score
      L1  H     7    37       P1  8028  0.86
      P1  H  7997  8010       L1    27  0.95
      P1  H 10752 10765       L1    25  0.70

> <Gold.PLP.Chemscore.Internal.Correction>
0.2575

> <Gold.Rescore>
     Score         DG    S(hbond)    S(metal)    S(lipo)     H(rot)  DE(clash)    DE(int)     intcor
     11.77     -14.79       2.33        0.00      79.68       3.05       1.46       1.56       ----

> <Gold.Chemscore.Fitness>
11.7712

> <Gold.Chemscore.DG>
-14.7873

> <Gold.Chemscore.ZeroCoef>
-5.4800

> <Gold.Chemscore.Hbond>
2.3322

> <Gold.Chemscore.Metal>
0.0000

> <Gold.Chemscore.Lipo>
79.6794

> <Gold.Chemscore.Internal_Hbond>
0.0000

> <Gold.Chemscore.DEClash>
1.4565

> <Gold.Chemscore.DEInternal>
1.5596

> <Gold.Chemscore.Rot>
3.0487

> <Gold.Chemscore.Internal.Correction>
   9.000000E+99

> <Gold.Chemscore.Hbonds>
donor molecule, donor type, donor heavy atom, donor atom, acceptor molecule, acceptor atom, score
      L1  H     7    37       P1  8028  0.51
      P1  H  7997  8010       L1    27  0.22
      P1  H 10752 10765       L1    25  0.58

> <Gold.Chemscore.Hbond.Weighted>
-7.7894

> <Gold.Chemscore.Metal.Weighted>
-0.0000

> <Gold.Chemscore.Lipo.Weighted>
-9.3225

> <Gold.Chemscore.Internal_Hbond.Weighted>
0.0000

> <Gold.Chemscore.DEClash.Weighted>
1.4565

> <Gold.Chemscore.DEInternal.Weighted>
1.5596

> <Gold.Chemscore.Rot.Weighted>
7.8046

> <Gold.Chemscore.Internal.Correction.Weighted>
   9.000000E+99

> <Gold.Protein.RotatedTorsions>
[ 6907 6896 6895 6894 ] final -151.26 input  -60.11 | X-H torsion
[ 7974 7965 7964 7962 ] final   36.28 input  175.53 | X-H torsion
[ 8008 7997 7996 7995 ] final   88.50 input   59.86 | X-H torsion
[ 10167 10162 10161 10158 ] final  124.56 input  -65.29 | X-H torsion
[ 10718 10713 10712 10709 ] final  -66.32 input   66.30 | X-H torsion
[ 10763 10752 10751 10750 ] final  173.81 input  -60.55 | X-H torsion
[ 11005 11000 10999 10996 ] final -113.52 input  -57.11 | X-H torsion

> <Gold.Protein.ActiveResidues>
 VAL166  LYS551  ARG553  GLY616  TRP617  ASP618  TYR619  PRO620  LYS621  CYS622 
 ASP623  PHE694  ASN695  SER759  ASP760  ASP761  ALA762  ILE779  LEU786  VAL792 
 PHE793  MET794  SER795  GLU796  ALA797  LYS798  CYS799  TRP800  GLU811  SER814 

> <Gold.Protein.RotatedAtoms>
  151.2105  133.4558  159.2597 H   0  0  0  0  0  0  0  0  0  0  0  0  # atno 6907 bound_to 6896
  151.0981  134.9956  159.8445 H   0  0  0  0  0  0  0  0  0  0  0  0  # atno 6908 bound_to 6896
  152.5441  134.2034  159.8774 H   0  0  0  0  0  0  0  0  0  0  0  0  # atno 6909 bound_to 6896
  146.1222  139.6037  142.9282 H   0  0  0  0  0  0  0  0  0  0  0  0  # atno 7974 bound_to 7965
  155.9886  140.3371  155.6731 H   0  0  0  0  0  0  0  0  0  0  0  0  # atno 8008 bound_to 7997
  155.6452  140.0699  157.2623 H   0  0  0  0  0  0  0  0  0  0  0  0  # atno 8009 bound_to 7997
  154.4212  140.1735  156.1603 H   0  0  0  0  0  0  0  0  0  0  0  0  # atno 8010 bound_to 7997
  139.5735  144.6951  151.3715 H   0  0  0  0  0  0  0  0  0  0  0  0  # atno 10167 bound_to 10162
  156.0619  130.4260  150.1692 H   0  0  0  0  0  0  0  0  0  0  0  0  # atno 10718 bound_to 10713
  154.4453  135.2763  155.1819 H   0  0  0  0  0  0  0  0  0  0  0  0  # atno 10763 bound_to 10752
  154.3669  135.6117  153.5723 H   0  0  0  0  0  0  0  0  0  0  0  0  # atno 10764 bound_to 10752
  152.9843  135.5848  154.4788 H   0  0  0  0  0  0  0  0  0  0  0  0  # atno 10765 bound_to 10752
  141.0609  133.9536  157.2668 H   0  0  0  0  0  0  0  0  0  0  0  0  # atno 11005 bound_to 11000
  145.5441  141.0418  143.2314 LP  0  0  0  0  0  0  0  0  0  0  0  0  # atno 17320 bound_to 7965
  144.7608  139.6961  143.7235 LP  0  0  0  0  0  0  0  0  0  0  0  0  # atno 17321 bound_to 7965
  140.7018  143.7611  150.7416 LP  0  0  0  0  0  0  0  0  0  0  0  0  # atno 17342 bound_to 10162
  140.1124  143.4686  152.2362 LP  0  0  0  0  0  0  0  0  0  0  0  0  # atno 17343 bound_to 10162
  156.9758  130.9849  151.3448 LP  0  0  0  0  0  0  0  0  0  0  0  0  # atno 17370 bound_to 10713
  157.5634  130.8261  149.8295 LP  0  0  0  0  0  0  0  0  0  0  0  0  # atno 17371 bound_to 10713
  139.9432  135.0188  156.8772 LP  0  0  0  0  0  0  0  0  0  0  0  0  # atno 17394 bound_to 11000
  140.5870  134.0298  155.7485 LP  0  0  0  0  0  0  0  0  0  0  0  0  # atno 17395 bound_to 11000

$$$$
