#       Name:                AV-unprocessed.smi:1920
#       Creating user name   scv26
#       Creation time:       Fri Mar 27 09:52:08 2020


#       File generated by GOLD software.
#

@<TRIPOS>MOLECULE
AV-unprocessed.smi:1920
    39    40     1
SMALL
NO_CHARGES


@<TRIPOS>ATOM
      1 ****        -2.6795  -2.0634   2.4060 C.3            1 S1                 0.0000
      2 ****        -2.1834  -1.0958   1.3231 C.3            1 S1                 0.0000
      3 ****        -2.4340  -1.6631  -0.0912 C.3            1 S1                 0.0000
      4 ****        -2.1448  -0.6961  -1.1562 N.pl3          1 S1                 0.0000
      5 ****        -2.9029   0.3863  -1.5221 C.2            1 S1                 0.0000
      6 ****        -2.2333   1.0040  -2.5468 C.2            1 S1                 0.0000
      7 ****        -1.0990   0.2697  -2.7672 N.pl3          1 S1                 1.0000
      8 ****        -1.0489  -0.7662  -1.9236 C.2            1 S1                 0.0000
      9 ****        -0.7610  -0.8336   1.5395 N.am           1 S1                 0.0000
     10 ****        -0.1401   0.3391   1.3346 C.2            1 S1                 0.0000
     11 ****        -0.7213   1.3562   0.9569 O.2            1 S1                 0.0000
     12 ****         1.3702   0.3624   1.5818 C.3            1 S1                 0.0000
     13 ****         2.1840   0.3363   0.2714 C.3            1 S1                 0.0000
     14 ****         3.6690   0.2717   0.5185 C.2            1 S1                 0.0000
     15 ****         4.3485   1.1703  -0.1907 C.2            1 S1                 0.0000
     16 ****         3.4538   2.0170  -1.0520 C.3            1 S1                 0.0000
     17 ****         2.0312   1.5937  -0.6263 C.3            1 S1                 0.0000
     18 ****        -3.7471  -2.2575   2.2998 H              1 S1                 0.0000
     19 ****        -2.5191  -1.6531   3.4038 H              1 S1                 0.0000
     20 ****        -2.1609  -3.0213   2.3521 H              1 S1                 0.0000
     21 ****        -2.7493  -0.1692   1.4366 H              1 S1                 0.0000
     22 ****        -1.8389  -2.5617  -0.2626 H              1 S1                 0.0000
     23 ****        -3.4798  -1.9530  -0.2009 H              1 S1                 0.0000
     24 ****        -3.8336   0.6349  -1.0331 H              1 S1                 0.0000
     25 ****        -2.4724   1.8883  -3.1193 H              1 S1                 0.0000
     26 ****        -0.2696  -1.5050  -1.8656 H              1 S1                 0.0000
     27 ****        -0.2013  -1.6109   1.8598 H              1 S1                 0.0000
     28 ****         1.6164   1.2543   2.1596 H              1 S1                 0.0000
     29 ****         1.6461  -0.4893   2.2056 H              1 S1                 0.0000
     30 ****         1.9222  -0.5550  -0.3009 H              1 S1                 0.0000
     31 ****         4.1102  -0.4500   1.1902 H              1 S1                 0.0000
     32 ****         5.4221   1.2888  -0.1827 H              1 S1                 0.0000
     33 ****         3.6329   3.0782  -0.8768 H              1 S1                 0.0000
     34 ****         3.6432   1.7980  -2.1031 H              1 S1                 0.0000
     35 ****         1.3898   1.4020  -1.4866 H              1 S1                 0.0000
     36 ****         1.5775   2.4115  -0.0651 H              1 S1                 0.0000
     37 ****        -0.3966   0.4800  -3.4653 H              1 S1                 0.0000
     38 ****        -1.7065   1.3351   0.7866 LP             1 S1                 0.0000
     39 ****        -0.2083   2.2037   0.8203 LP             1 S1                 0.0000
@<TRIPOS>BOND
    1    1    2 1     
    2    1   18 1     
    3    1   19 1     
    4    1   20 1     
    5    2    3 1     
    6    2    9 1     
    7    2   21 1     
    8    3    4 1     
    9    3   22 1     
   10    3   23 1     
   11    4    8 1     
   12    4    5 1     
   13    5    6 2     
   14    5   24 1     
   15    6    7 1     
   16    6   25 1     
   17    7    8 2     
   18    7   37 1     
   19    8   26 1     
   20    9   10 am    
   21    9   27 1     
   22   10   11 2     
   23   10   12 1     
   24   12   13 1     
   25   12   28 1     
   26   12   29 1     
   27   13   17 1     
   28   13   14 1     
   29   13   30 1     
   30   14   15 2     
   31   14   31 1     
   32   15   16 1     
   33   15   32 1     
   34   16   17 1     
   35   16   33 1     
   36   16   34 1     
   37   17   35 1     
   38   17   36 1     
   39   11   38 1     
   40   11   39 1     
@<TRIPOS>SUBSTRUCTURE
      1 S1             1
@<TRIPOS>SET
LONE_PAIRS      STATIC     ATOMS    <user>   **** ""
2 38 39
DONOR_HYDROGENS      STATIC     ATOMS    <user>   **** ""
2 37 27
ATOM$BLUE        STATIC     ATOMS    COLORGROUP SYSTEM
2 38 39
ATOM$RED        STATIC     ATOMS    COLORGROUP SYSTEM
2 37 27
