AV-unprocessed.smi:2934|AV-procd|sdf|11254|dock6
  -GOLD-   2272016143D 1   1.00000     0.00000
 Structure written by MMmdl.
 43 44  0  0  0  0  0  0  0  0  1 V2000
  153.8693  141.1656  160.5917 C   0  0  0  0  0  0  0  0  0  0  0  0
  152.9369  141.3427  159.4730 N   0  0  0  0  0  0  0  0  0  0  0  0
  152.7292  140.2900  158.6361 C   0  0  0  0  0  0  0  0  0  0  0  0
  153.0782  139.1389  158.9065 O   0  0  0  0  0  0  0  0  0  0  0  0
  152.0771  140.5841  157.4958 N   0  0  0  0  0  0  0  0  0  0  0  0
  151.7030  139.6257  156.4625 C   0  0  0  0  0  0  0  0  0  0  0  0
  151.1743  140.3345  155.2001 C   0  0  0  0  0  0  0  0  0  0  0  0
  149.6576  140.5461  155.2203 C   0  0  0  0  0  0  0  0  0  0  0  0
  149.0729  140.8074  156.2721 O   0  0  0  0  0  0  0  0  0  0  0  0
  149.0300  140.4265  154.0402 N   0  0  0  0  0  0  0  0  0  0  0  0
  147.5910  140.5676  153.8328 C   0  0  0  0  0  0  0  0  0  0  0  0
  147.0952  141.9642  154.2584 C   0  0  0  0  0  0  0  0  0  0  0  0
  146.3285  141.7565  155.5641 C   0  0  0  0  0  0  0  0  0  0  0  0
  145.7321  140.3597  155.4249 C   0  0  0  0  0  0  0  0  0  0  0  0
  146.8114  139.5561  154.6962 C   0  0  0  0  0  0  0  0  0  0  0  0
  152.3308  142.6286  159.3180 C   0  0  0  0  0  0  0  0  0  0  0  0
  152.3973  143.5139  160.4212 C   0  0  0  0  0  0  0  0  0  0  0  0
  151.8315  144.7987  160.3131 C   0  0  0  0  0  0  0  0  0  0  0  0
  151.2178  145.1695  159.1035 C   0  0  0  0  0  0  0  0  0  0  0  0
  151.2008  144.2333  158.0534 C   0  0  0  0  0  0  0  0  0  0  0  0
  151.7421  143.0008  158.1532 N   0  0  0  0  0  0  0  0  0  0  0  0
  154.0540  142.0992  161.1245 H   0  0  0  0  0  0  0  0  0  0  0  0
  154.8387  140.8055  160.2430 H   0  0  0  0  0  0  0  0  0  0  0  0
  153.4737  140.4454  161.3092 H   0  0  0  0  0  0  0  0  0  0  0  0
  151.8231  141.5482  157.3348 H   0  0  0  0  0  0  0  0  0  0  0  0
  152.5908  139.0392  156.2221 H   0  0  0  0  0  0  0  0  0  0  0  0
  150.9629  138.9249  156.8534 H   0  0  0  0  0  0  0  0  0  0  0  0
  151.6583  141.3044  155.0806 H   0  0  0  0  0  0  0  0  0  0  0  0
  151.4324  139.7450  154.3188 H   0  0  0  0  0  0  0  0  0  0  0  0
  149.5884  140.2142  153.2262 H   0  0  0  0  0  0  0  0  0  0  0  0
  147.3565  140.4024  152.7794 H   0  0  0  0  0  0  0  0  0  0  0  0
  147.8952  142.6979  154.3663 H   0  0  0  0  0  0  0  0  0  0  0  0
  146.4123  142.3475  153.4992 H   0  0  0  0  0  0  0  0  0  0  0  0
  147.0221  141.7781  156.4058 H   0  0  0  0  0  0  0  0  0  0  0  0
  145.5718  142.5229  155.7343 H   0  0  0  0  0  0  0  0  0  0  0  0
  145.4585  139.9214  156.3852 H   0  0  0  0  0  0  0  0  0  0  0  0
  144.8313  140.4061  154.8112 H   0  0  0  0  0  0  0  0  0  0  0  0
  146.3820  138.7514  154.0985 H   0  0  0  0  0  0  0  0  0  0  0  0
  147.4673  139.0915  155.4345 H   0  0  0  0  0  0  0  0  0  0  0  0
  152.8704  143.2129  161.3447 H   0  0  0  0  0  0  0  0  0  0  0  0
  151.8684  145.4872  161.1444 H   0  0  0  0  0  0  0  0  0  0  0  0
  150.7731  146.1463  158.9829 H   0  0  0  0  0  0  0  0  0  0  0  0
  150.7409  144.4796  157.1077 H   0  0  0  0  0  0  0  0  0  0  0  0
  1  2  1  0  0  0  0
  1 22  1  0  0  0  0
  1 23  1  0  0  0  0
  1 24  1  0  0  0  0
  2  3  1  0  0  0  0
  2 16  1  0  0  0  0
  3  4  2  0  0  0  0
  3  5  1  0  0  0  0
  5  6  1  0  0  0  0
  5 25  1  0  0  0  0
  6  7  1  0  0  0  0
  6 26  1  0  0  0  0
  6 27  1  0  0  0  0
  7  8  1  0  0  0  0
  7 28  1  0  0  0  0
  7 29  1  0  0  0  0
  8  9  2  0  0  0  0
  8 10  1  0  0  0  0
 10 11  1  0  0  0  0
 10 30  1  0  0  0  0
 11 15  1  0  0  0  0
 11 12  1  0  0  0  0
 11 31  1  0  0  0  0
 12 13  1  0  0  0  0
 12 32  1  0  0  0  0
 12 33  1  0  0  0  0
 13 14  1  0  0  0  0
 13 34  1  0  0  0  0
 13 35  1  0  0  0  0
 14 15  1  0  0  0  0
 14 36  1  0  0  0  0
 14 37  1  0  0  0  0
 15 38  1  0  0  0  0
 15 39  1  0  0  0  0
 16 21  1  0  0  0  0
 16 17  2  0  0  0  0
 17 18  1  0  0  0  0
 17 40  1  0  0  0  0
 18 19  2  0  0  0  0
 18 41  1  0  0  0  0
 19 20  1  0  0  0  0
 19 42  1  0  0  0  0
 20 21  2  0  0  0  0
 20 43  1  0  0  0  0
M  END
> <s_m_source_file>
AV-unprocessed.smi

> <i_m_source_file_index>
2934

> <i_lp_mmshare_version>
43012

> <i_f3d_flags>
0

> <s_epik_input>
bjFbY0hdW2NIXVtjSF1bY0hdYzFOKFtDSDNdKUMoPU8pW05IXVtDSDJdW0NIMl1DKD1PKVtOSF1bQ0hdMltDSDJdW0NIMl1bQ0gyXVtDSDJdMg==

> <s_epik_cmdline>
J2VwaWtfcHl0aG9uJywgJy1waCcsICc3LjAnLCAnLXRuJywgJzgnLCAnLW1hJywgJzIwMCcsICctbWV0YWxfYmluZGluZycsICctaW1hZScsICc8aW5maWxlLm1hZT4nLCAnLW9tYWUnLCAnPG91dGZpbGUubWFlPic=

> <r_epik_Ionization_Penalty>
0.404648

> <r_epik_Ionization_Penalty_Charging>
0

> <r_epik_Ionization_Penalty_Neutral>
0.404648

> <r_epik_State_Penalty>
0.40421

> <r_epik_Charging_Adjusted_Penalty>
0.40421

> <i_epik_Tot_Q>
0

> <i_epik_Tot_abs_Q>
0

> <r_epik_Metal_State_Penalty>
0.238116

> <b_epik_Metal_Only>
0

> <s_lp_Force_Field>
OPLS_2005

> <r_lp_Energy>
32.7735

> <b_lp_Chiralities_Consistent>
1

> <s_lp_Variant>
AV-unprocessed.smi:2934-1

> <Gold.Version>
5.8.1

> <Gold.Id.Protein>
6NUR|6NUR_protein|mol2

> <Gold.PLP.Fitness>
48.4691

> <Gold.PLP.PLP>
-44.2909

> <Gold.PLP.part.hbond>
-1.0000

> <Gold.PLP.part.metal>
0.0000

> <Gold.PLP.part.buried>
-3.1924

> <Gold.PLP.part.nonpolar>
-40.5389

> <Gold.PLP.part.repulsive>
0.3729

> <Gold.PLP.ligand.clash>
0.0000

> <Gold.PLP.ligand.torsion>
0.7565

> <Gold.PLP.Chemscore.Hbond>
0.8247

> <Gold.PLP.Chemscore.CHOScore>
1.0000

> <Gold.PLP.Chemscore.Metal>
0.0000

> <Gold.Chemscore.Hbonds>
donor molecule, donor type, donor heavy atom, donor atom, acceptor molecule, acceptor atom, score
      L1  H    10    30       P1  7957  0.83
      L1  C    20    43       P1  8028  1.00

> <Gold.PLP.Chemscore.Internal.Correction>
0.2171

> <Gold.Rescore>
     Score         DG    S(hbond)    S(metal)    S(lipo)     H(rot)  DE(clash)    DE(int)     intcor
      9.77     -15.29       0.91        0.00      95.52       1.72       1.72       3.80       ----

> <Gold.Chemscore.Fitness>
9.7676

> <Gold.Chemscore.DG>
-15.2856

> <Gold.Chemscore.ZeroCoef>
-5.4800

> <Gold.Chemscore.Hbond>
0.9095

> <Gold.Chemscore.Metal>
0.0000

> <Gold.Chemscore.Lipo>
95.5235

> <Gold.Chemscore.Internal_Hbond>
0.0000

> <Gold.Chemscore.DEClash>
1.7183

> <Gold.Chemscore.DEInternal>
3.7997

> <Gold.Chemscore.Rot>
1.7220

> <Gold.Chemscore.Internal.Correction>
   9.000000E+99

> <Gold.Chemscore.Hbonds>
donor molecule, donor type, donor heavy atom, donor atom, acceptor molecule, acceptor atom, score
      L1  H    10    30       P1  7957  0.78

> <Gold.Chemscore.Hbond.Weighted>
-3.0376

> <Gold.Chemscore.Metal.Weighted>
-0.0000

> <Gold.Chemscore.Lipo.Weighted>
-11.1762

> <Gold.Chemscore.Internal_Hbond.Weighted>
0.0000

> <Gold.Chemscore.DEClash.Weighted>
1.7183

> <Gold.Chemscore.DEInternal.Weighted>
3.7997

> <Gold.Chemscore.Rot.Weighted>
4.4083

> <Gold.Chemscore.Internal.Correction.Weighted>
   9.000000E+99

> <Gold.Protein.RotatedTorsions>
[ 6907 6896 6895 6894 ] final   28.41 input  -60.11 | X-H torsion
[ 7974 7965 7964 7962 ] final   46.27 input  175.53 | X-H torsion
[ 8008 7997 7996 7995 ] final  -98.41 input   59.86 | X-H torsion
[ 10167 10162 10161 10158 ] final  -59.33 input  -65.29 | X-H torsion
[ 10718 10713 10712 10709 ] final  170.47 input   66.30 | X-H torsion
[ 10763 10752 10751 10750 ] final  151.30 input  -60.55 | X-H torsion
[ 11005 11000 10999 10996 ] final -123.36 input  -57.11 | X-H torsion

> <Gold.Protein.ActiveResidues>
 VAL166  LYS551  ARG553  GLY616  TRP617  ASP618  TYR619  PRO620  LYS621  CYS622 
 ASP623  PHE694  ASN695  SER759  ASP760  ASP761  ALA762  ILE779  LEU786  VAL792 
 PHE793  MET794  SER795  GLU796  ALA797  LYS798  CYS799  TRP800  GLU811  SER814 

> <Gold.Protein.RotatedAtoms>
  152.0165  134.9847  160.0569 H   0  0  0  0  0  0  0  0  0  0  0  0  # atno 6907 bound_to 6896
  152.1378  133.4441  159.4760 H   0  0  0  0  0  0  0  0  0  0  0  0  # atno 6908 bound_to 6896
  150.6862  134.2260  159.4459 H   0  0  0  0  0  0  0  0  0  0  0  0  # atno 6909 bound_to 6896
  146.0405  139.4874  142.9781 H   0  0  0  0  0  0  0  0  0  0  0  0  # atno 7974 bound_to 7965
  154.8008  140.0455  157.1271 H   0  0  0  0  0  0  0  0  0  0  0  0  # atno 8008 bound_to 7997
  154.9481  140.3061  155.5068 H   0  0  0  0  0  0  0  0  0  0  0  0  # atno 8009 bound_to 7997
  156.2961  140.2293  156.4556 H   0  0  0  0  0  0  0  0  0  0  0  0  # atno 8010 bound_to 7997
  140.6142  143.2397  151.5638 H   0  0  0  0  0  0  0  0  0  0  0  0  # atno 10167 bound_to 10162
  157.0076  131.0194  151.2813 H   0  0  0  0  0  0  0  0  0  0  0  0  # atno 10718 bound_to 10713
  154.1015  135.2845  155.3250 H   0  0  0  0  0  0  0  0  0  0  0  0  # atno 10763 bound_to 10752
  154.6552  135.5354  153.7953 H   0  0  0  0  0  0  0  0  0  0  0  0  # atno 10764 bound_to 10752
  153.0377  135.6520  154.1179 H   0  0  0  0  0  0  0  0  0  0  0  0  # atno 10765 bound_to 10752
  140.9924  134.0519  157.3638 H   0  0  0  0  0  0  0  0  0  0  0  0  # atno 11005 bound_to 11000
  145.6892  141.0169  143.1564 LP  0  0  0  0  0  0  0  0  0  0  0  0  # atno 17320 bound_to 7965
  144.7072  139.8512  143.7426 LP  0  0  0  0  0  0  0  0  0  0  0  0  # atno 17321 bound_to 7965
  139.5385  144.2714  152.1301 LP  0  0  0  0  0  0  0  0  0  0  0  0  # atno 17342 bound_to 10162
  140.1920  144.4743  150.6474 LP  0  0  0  0  0  0  0  0  0  0  0  0  # atno 17343 bound_to 10162
  157.5344  130.8079  149.7955 LP  0  0  0  0  0  0  0  0  0  0  0  0  # atno 17370 bound_to 10713
  156.0148  130.3818  150.2147 LP  0  0  0  0  0  0  0  0  0  0  0  0  # atno 17371 bound_to 10713
  139.8999  135.0160  156.7216 LP  0  0  0  0  0  0  0  0  0  0  0  0  # atno 17394 bound_to 11000
  140.7018  133.9299  155.8029 LP  0  0  0  0  0  0  0  0  0  0  0  0  # atno 17395 bound_to 11000

$$$$
