#       Name:                AV-unprocessed.smi:3274
#       Creating user name   scv26
#       Creation time:       Fri Mar 27 18:43:38 2020


#       File generated by GOLD software.
#

@<TRIPOS>MOLECULE
AV-unprocessed.smi:3274
    45    46     1
SMALL
NO_CHARGES


@<TRIPOS>ATOM
      1 ****         0.7886   2.9807  -0.2426 C.3            1 S1                 0.0000
      2 ****        -0.6001   2.4274  -0.5164 C.2            1 S1                 0.0000
      3 ****        -1.2555   2.7429  -1.6511 C.2            1 S1                 0.0000
      4 ****        -2.6613   2.2843  -1.9965 C.3            1 S1                 0.0000
      5 ****        -3.2189   1.2491  -1.0059 C.3            1 S1                 0.0000
      6 ****        -2.7816   1.5592   0.4358 C.3            1 S1                 0.0000
      7 ****        -3.5195   0.6849   1.4643 C.3            1 S1                 0.0000
      8 ****        -1.2316   1.5388   0.5646 C.3            1 S1                 0.0000
      9 ****        -0.6408   0.1050   0.5564 C.3            1 S1                 0.0000
     10 ****         0.7907   0.0741   0.9250 N.4            1 S1                 1.0000
     11 ****         1.4308  -1.2587   0.8720 C.3            1 S1                 0.0000
     12 ****         2.6771  -1.2597   1.7732 C.3            1 S1                 0.0000
     13 ****         1.7603  -1.6549  -0.5864 C.3            1 S1                 0.0000
     14 ****         2.3974  -2.9548  -0.6927 N.pl3          1 S1                 0.0000
     15 ****         3.6028  -3.2982  -1.1502 C.2            1 S1                 0.0000
     16 ****         3.8380  -4.6021  -1.1099 N.2            1 S1                 0.0000
     17 ****         2.6501  -5.0336  -0.5906 C.2            1 S1                 0.0000
     18 ****         1.7496  -4.0862  -0.3280 N.2            1 S1                 0.0000
     19 ****         0.8431   3.4019   0.7615 H              1 S1                 0.0000
     20 ****         1.0392   3.7741  -0.9476 H              1 S1                 0.0000
     21 ****         1.5514   2.2101  -0.3415 H              1 S1                 0.0000
     22 ****        -0.7857   3.3912  -2.3766 H              1 S1                 0.0000
     23 ****        -3.3001   3.1680  -2.0015 H              1 S1                 0.0000
     24 ****        -2.6748   1.8806  -3.0094 H              1 S1                 0.0000
     25 ****        -4.3068   1.2297  -1.0800 H              1 S1                 0.0000
     26 ****        -2.8804   0.2517  -1.2874 H              1 S1                 0.0000
     27 ****        -3.0969   2.5833   0.6450 H              1 S1                 0.0000
     28 ****        -3.3993  -0.3789   1.2593 H              1 S1                 0.0000
     29 ****        -4.5897   0.8931   1.4490 H              1 S1                 0.0000
     30 ****        -3.1637   0.8796   2.4764 H              1 S1                 0.0000
     31 ****        -0.9966   1.9910   1.5294 H              1 S1                 0.0000
     32 ****        -1.1600  -0.5317   1.2712 H              1 S1                 0.0000
     33 ****        -0.7807  -0.3434  -0.4264 H              1 S1                 0.0000
     34 ****         1.3022   0.7041   0.3237 H              1 S1                 0.0000
     35 ****         0.7288  -1.9828   1.2888 H              1 S1                 0.0000
     36 ****         3.1301  -2.2497   1.8318 H              1 S1                 0.0000
     37 ****         2.4241  -0.9627   2.7916 H              1 S1                 0.0000
     38 ****         3.4349  -0.5680   1.4034 H              1 S1                 0.0000
     39 ****         0.8602  -1.6796  -1.2005 H              1 S1                 0.0000
     40 ****         2.4217  -0.9122  -1.0353 H              1 S1                 0.0000
     41 ****         4.3230  -2.5826  -1.5190 H              1 S1                 0.0000
     42 ****         2.4418  -6.0767  -0.4025 H              1 S1                 0.0000
     43 ****         0.8602   0.4127   1.8741 H              1 S1                 0.0000
     44 ****         4.6494  -5.1198  -1.3809 LP             1 S1                 0.0000
     45 ****         0.8271  -4.1862   0.0449 LP             1 S1                 0.0000
@<TRIPOS>BOND
    1    1    2 1     
    2    1   19 1     
    3    1   20 1     
    4    1   21 1     
    5    2    8 1     
    6    2    3 2     
    7    3    4 1     
    8    3   22 1     
    9    4    5 1     
   10    4   23 1     
   11    4   24 1     
   12    5    6 1     
   13    5   25 1     
   14    5   26 1     
   15    6    7 1     
   16    6    8 1     
   17    6   27 1     
   18    7   28 1     
   19    7   29 1     
   20    7   30 1     
   21    8    9 1     
   22    8   31 1     
   23    9   10 1     
   24    9   32 1     
   25    9   33 1     
   26   10   11 1     
   27   10   34 1     
   28   10   43 1     
   29   11   12 1     
   30   11   13 1     
   31   11   35 1     
   32   12   36 1     
   33   12   37 1     
   34   12   38 1     
   35   13   14 1     
   36   13   39 1     
   37   13   40 1     
   38   14   18 1     
   39   14   15 1     
   40   15   16 2     
   41   15   41 1     
   42   16   17 1     
   43   17   18 2     
   44   17   42 1     
   45   16   44 1     
   46   18   45 1     
@<TRIPOS>SUBSTRUCTURE
      1 S1             1
@<TRIPOS>SET
LONE_PAIRS      STATIC     ATOMS    <user>   **** ""
2 44 45
DONOR_HYDROGENS      STATIC     ATOMS    <user>   **** ""
2 34 43
ATOM$BLUE        STATIC     ATOMS    COLORGROUP SYSTEM
2 44 45
ATOM$RED        STATIC     ATOMS    COLORGROUP SYSTEM
2 34 43
