#       Name:                AV-unprocessed.smi:11
#       Creating user name   scv26
#       Creation time:       Thu Mar 26 15:17:28 2020


#       File generated by GOLD software.
#

@<TRIPOS>MOLECULE
AV-unprocessed.smi:11
    37    39     1
SMALL
NO_CHARGES


@<TRIPOS>ATOM
      1 ****        -3.4945   1.9735  -1.0722 C.3            1 S1                 0.0000
      2 ****        -2.2633   1.0524  -1.0430 C.3            1 S1                 0.0000
      3 ****        -0.9111   1.7612  -0.7816 C.3            1 S1                 0.0000
      4 ****        -0.6892   2.7045  -1.8118 O.3            1 S1                 0.0000
      5 ****        -0.8079   2.4168   0.6043 C.3            1 S1                 0.0000
      6 ****        -0.3542   1.2668   1.5011 C.3            1 S1                 0.0000
      7 ****         0.4917   0.4453   0.6473 N.pl3          1 S1                 0.0000
      8 ****         0.9150  -0.8371   1.0513 C.ar           1 S1                 0.0000
      9 ****         0.5718  -1.2584   2.2960 N.ar           1 S1                 0.0000
     10 ****         0.9479  -2.4685   2.7190 C.ar           1 S1                 0.0000
     11 ****         1.6607  -3.3941   2.0735 N.ar           1 S1                 0.0000
     12 ****         2.0189  -2.9660   0.8305 C.ar           1 S1                 0.0000
     13 ****         2.7648  -3.6556  -0.1022 N.pl3          1 S1                 0.0000
     14 ****         2.9332  -2.8911  -1.2431 C.2            1 S1                 0.0000
     15 ****         2.2975  -1.6878  -1.0718 C.2            1 S1                 0.0000
     16 ****         1.6967  -1.7100   0.2389 C.ar           1 S1                 0.0000
     17 ****         0.2466   0.7462  -0.7567 C.3            1 S1                 0.0000
     18 ****         3.1486  -4.5830   0.0091 H              1 S1                 0.0000
     19 ****        -4.3908   1.4028  -1.3152 H              1 S1                 0.0000
     20 ****        -3.3927   2.7561  -1.8241 H              1 S1                 0.0000
     21 ****        -3.6685   2.4518  -0.1092 H              1 S1                 0.0000
     22 ****        -2.4239   0.2792  -0.2908 H              1 S1                 0.0000
     23 ****        -2.2085   0.5265  -1.9971 H              1 S1                 0.0000
     24 ****         0.1459   3.1208  -1.6619 H              1 S1                 0.0000
     25 ****        -0.0315   3.1836   0.5962 H              1 S1                 0.0000
     26 ****        -1.7252   2.8897   0.9522 H              1 S1                 0.0000
     27 ****         0.1887   1.6260   2.3757 H              1 S1                 0.0000
     28 ****        -1.2140   0.6886   1.8420 H              1 S1                 0.0000
     29 ****         0.6333  -2.7331   3.7175 H              1 S1                 0.0000
     30 ****         3.4961  -3.2658  -2.0854 H              1 S1                 0.0000
     31 ****         2.2546  -0.8770  -1.7831 H              1 S1                 0.0000
     32 ****         0.0065  -0.1456  -1.3365 H              1 S1                 0.0000
     33 ****         1.1580   1.1812  -1.1688 H              1 S1                 0.0000
     34 ****        -1.4155   3.3919  -1.8021 LP             1 S1                 0.0000
     35 ****        -0.6809   2.2409  -2.6978 LP             1 S1                 0.0000
     36 ****         0.0375  -0.6628   2.8959 LP             1 S1                 0.0000
     37 ****         1.9010  -4.2873   2.4534 LP             1 S1                 0.0000
@<TRIPOS>BOND
    1    1    2 1     
    2    1   19 1     
    3    1   20 1     
    4    1   21 1     
    5    2    3 1     
    6    2   22 1     
    7    2   23 1     
    8    3   17 1     
    9    3    4 1     
   10    3    5 1     
   11    4   24 1     
   12    5    6 1     
   13    5   25 1     
   14    5   26 1     
   15    6    7 1     
   16    6   27 1     
   17    6   28 1     
   18    7    8 1     
   19    7   17 1     
   20    8   16 ar    
   21    8    9 ar    
   22    9   10 ar    
   23   10   11 ar    
   24   10   29 1     
   25   11   12 ar    
   26   12   16 ar    
   27   12   13 1     
   28   13   18 1     
   29   13   14 1     
   30   14   15 2     
   31   14   30 1     
   32   15   16 1     
   33   15   31 1     
   34   17   32 1     
   35   17   33 1     
   36    4   34 1     
   37    4   35 1     
   38    9   36 1     
   39   11   37 1     
@<TRIPOS>SUBSTRUCTURE
      1 S1             1
@<TRIPOS>SET
LONE_PAIRS      STATIC     ATOMS    <user>   **** ""
4 34 35 36 37
DONOR_HYDROGENS      STATIC     ATOMS    <user>   **** ""
2 24 18
ATOM$BLUE        STATIC     ATOMS    COLORGROUP SYSTEM
4 34 35 36 37
ATOM$RED        STATIC     ATOMS    COLORGROUP SYSTEM
2 24 18
