AV-unprocessed.smi:500|AV-procd|sdf|2740|dock3
  -GOLD-   2262023193D 1   1.00000     0.00000
 Structure written by MMmdl.
 45 47  0  0  0  0  0  0  0  0  3 V2000
  152.7992  138.6533  154.6721 C   0  0  0  0  0  0  0  0  0  0  0  0
  152.1692  138.6245  156.0662 C   0  0  0  0  0  0  0  0  0  0  0  0
  153.0227  139.3145  156.9670 O   0  0  0  0  0  0  0  0  0  0  0  0
  152.6061  139.2628  158.3242 C   0  0  0  0  0  0  0  0  0  0  0  0
  151.1466  139.7182  158.4931 C   0  0  0  0  0  0  0  0  0  0  0  0
  150.9249  141.0555  157.9099 N   0  0  0  0  0  0  0  0  0  0  0  0
  150.1597  141.4763  156.8512 C   0  0  0  0  0  0  0  0  0  0  0  0
  149.2922  140.6529  155.9322 C   0  0  2  0  0  0  0  0  0  0  0  0
  149.9470  140.5438  154.5487 C   0  0  0  0  0  0  0  0  0  0  0  0
  147.9511  141.2220  155.7846 N   0  5  0  0  0  0  0  0  0  0  0  0
  147.2791  141.2974  154.6004 C   0  0  0  0  0  0  0  0  0  0  0  0
  147.3622  140.5745  153.6015 O   0  0  0  0  0  0  0  0  0  0  0  0
  146.3148  142.4224  154.5703 C   0  0  0  0  0  0  0  0  0  0  0  0
  145.9107  143.2076  153.5230 C   0  0  0  0  0  0  0  0  0  0  0  0
  144.9690  144.1376  154.0446 C   0  0  0  0  0  0  0  0  0  0  0  0
  144.8611  143.8557  155.3757 C   0  0  0  0  0  0  0  0  0  0  0  0
  145.6712  142.8163  155.7125 O   0  0  0  0  0  0  0  0  0  0  0  0
  150.3285  142.8269  156.7542 N   0  3  0  0  0  0  0  0  0  0  0  0
  151.1790  143.2800  157.7603 C   0  0  0  0  0  0  0  0  0  0  0  0
  151.6264  144.5613  158.0653 C   0  0  0  0  0  0  0  0  0  0  0  0
  152.4912  144.6820  159.1726 C   0  0  0  0  0  0  0  0  0  0  0  0
  152.8770  143.5558  159.9280 C   0  0  0  0  0  0  0  0  0  0  0  0
  152.4164  142.2616  159.6077 C   0  0  0  0  0  0  0  0  0  0  0  0
  151.5632  142.1500  158.5091 C   0  0  0  0  0  0  0  0  0  0  0  0
  152.1712  138.1314  153.9499 H   0  0  0  0  0  0  0  0  0  0  0  0
  153.7774  138.1718  154.6746 H   0  0  0  0  0  0  0  0  0  0  0  0
  152.9306  139.6778  154.3230 H   0  0  0  0  0  0  0  0  0  0  0  0
  151.1875  139.0994  156.0366 H   0  0  0  0  0  0  0  0  0  0  0  0
  152.0270  137.5907  156.3805 H   0  0  0  0  0  0  0  0  0  0  0  0
  152.6925  138.2256  158.6502 H   0  0  0  0  0  0  0  0  0  0  0  0
  153.2796  139.8411  158.9587 H   0  0  0  0  0  0  0  0  0  0  0  0
  150.4459  139.0202  158.0365 H   0  0  0  0  0  0  0  0  0  0  0  0
  150.8827  139.7525  159.5501 H   0  0  0  0  0  0  0  0  0  0  0  0
  149.2404  139.6451  156.3463 H   0  0  0  0  0  0  0  0  0  0  0  0
  150.9362  140.0909  154.6214 H   0  0  0  0  0  0  0  0  0  0  0  0
  150.0635  141.5230  154.0823 H   0  0  0  0  0  0  0  0  0  0  0  0
  149.3517  139.9234  153.8779 H   0  0  0  0  0  0  0  0  0  0  0  0
  146.2537  143.1223  152.5023 H   0  0  0  0  0  0  0  0  0  0  0  0
  144.4385  144.9137  153.5132 H   0  0  0  0  0  0  0  0  0  0  0  0
  144.2851  144.2737  156.1880 H   0  0  0  0  0  0  0  0  0  0  0  0
  151.3273  145.4241  157.4887 H   0  0  0  0  0  0  0  0  0  0  0  0
  152.8636  145.6578  159.4489 H   0  0  0  0  0  0  0  0  0  0  0  0
  153.5393  143.6866  160.7713 H   0  0  0  0  0  0  0  0  0  0  0  0
  152.7151  141.4073  160.1966 H   0  0  0  0  0  0  0  0  0  0  0  0
  149.8659  143.3896  156.0517 H   0  0  0  0  0  0  0  0  0  0  0  0
  1  2  1  0  0  0  0
  1 25  1  0  0  0  0
  1 26  1  0  0  0  0
  1 27  1  0  0  0  0
  2  3  1  0  0  0  0
  2 28  1  0  0  0  0
  2 29  1  0  0  0  0
  3  4  1  0  0  0  0
  4  5  1  0  0  0  0
  4 30  1  0  0  0  0
  4 31  1  0  0  0  0
  5  6  1  0  0  0  0
  5 32  1  0  0  0  0
  5 33  1  0  0  0  0
  6 24  1  0  0  0  0
  6  7  1  0  0  0  0
  7  8  1  0  0  0  0
  7 18  2  0  0  0  0
  8  9  1  0  0  0  0
  8 10  1  0  0  0  0
  8 34  1  0  0  0  0
  9 35  1  0  0  0  0
  9 36  1  0  0  0  0
  9 37  1  0  0  0  0
 10 11  1  0  0  0  0
 11 12  2  0  0  0  0
 11 13  1  0  0  0  0
 13 17  1  0  0  0  0
 13 14  2  0  0  0  0
 14 15  1  0  0  0  0
 14 38  1  0  0  0  0
 15 16  2  0  0  0  0
 15 39  1  0  0  0  0
 16 17  1  0  0  0  0
 16 40  1  0  0  0  0
 18 19  1  0  0  0  0
 18 45  1  0  0  0  0
 19 24  2  0  0  0  0
 19 20  1  0  0  0  0
 20 21  2  0  0  0  0
 20 41  1  0  0  0  0
 21 22  1  0  0  0  0
 21 42  1  0  0  0  0
 22 23  2  0  0  0  0
 22 43  1  0  0  0  0
 23 24  1  0  0  0  0
 23 44  1  0  0  0  0
M  CHG  1  10  -1
M  CHG  1  18   1
M  END
> <s_m_source_file>
AV-unprocessed.smi

> <i_m_source_file_index>
500

> <i_lp_mmshare_version>
43012

> <i_f3d_flags>
0

> <s_epik_input>
W0NIM11bQ0gyXU9bQ0gyXVtDSDJdbihjKGMxMilbY0hdW2NIXVtjSF1bY0hdMiljKG4xKVtDQEhdKFtDSDNdKVtOSF1DKD1PKWMzW2NIXVtjSF1bY0hdbzM=

> <s_epik_cmdline>
J2VwaWtfcHl0aG9uJywgJy1waCcsICc3LjAnLCAnLXRuJywgJzgnLCAnLW1hJywgJzIwMCcsICctbWV0YWxfYmluZGluZycsICctaW1hZScsICc8aW5maWxlLm1hZT4nLCAnLW9tYWUnLCAnPG91dGZpbGUubWFlPic=

> <r_epik_Ionization_Penalty>
6.22753

> <r_epik_Ionization_Penalty_Charging>
6.22753

> <r_epik_Ionization_Penalty_Neutral>
2.56065e-12

> <r_epik_State_Penalty>
7.17947

> <r_epik_Charging_Adjusted_Penalty>
13.407

> <i_epik_Tot_Q>
0

> <i_epik_Tot_abs_Q>
2

> <r_epik_Metal_State_Penalty>
3.2092

> <b_epik_Metal_Only>
1

> <s_lp_Force_Field>
OPLS_2005

> <r_lp_Energy>
11.6209

> <b_lp_Chiralities_Consistent>
1

> <s_lp_Variant>
AV-unprocessed.smi:500-7

> <Gold.Version>
5.8.1

> <Gold.Id.Protein>
6NUR|6NUR_protein|mol2

> <Gold.PLP.Fitness>
58.4128

> <Gold.PLP.PLP>
-51.4339

> <Gold.PLP.part.hbond>
-2.0000

> <Gold.PLP.part.metal>
0.0000

> <Gold.PLP.part.buried>
-6.8566

> <Gold.PLP.part.nonpolar>
-43.7142

> <Gold.PLP.part.repulsive>
0.4291

> <Gold.PLP.ligand.clash>
0.0000

> <Gold.PLP.ligand.torsion>
1.1279

> <Gold.PLP.Chemscore.Hbond>
2.9840

> <Gold.PLP.Chemscore.CHOScore>
0.0000

> <Gold.PLP.Chemscore.Metal>
0.0000

> <Gold.Chemscore.Hbonds>
donor molecule, donor type, donor heavy atom, donor atom, acceptor molecule, acceptor atom, score
      L1  H    18    45       P1  8028  1.98
      P1  H  7997  8009       L1     3  1.00

> <Gold.PLP.Chemscore.Internal.Correction>
0.2827

> <Gold.Rescore>
     Score         DG    S(hbond)    S(metal)    S(lipo)     H(rot)  DE(clash)    DE(int)     intcor
     17.69     -20.62       1.61        0.00     124.89       1.90       0.07       2.86       ----

> <Gold.Chemscore.Fitness>
17.6894

> <Gold.Chemscore.DG>
-20.6165

> <Gold.Chemscore.ZeroCoef>
-5.4800

> <Gold.Chemscore.Hbond>
1.6126

> <Gold.Chemscore.Metal>
0.0000

> <Gold.Chemscore.Lipo>
124.8947

> <Gold.Chemscore.Internal_Hbond>
0.0000

> <Gold.Chemscore.DEClash>
0.0668

> <Gold.Chemscore.DEInternal>
2.8603

> <Gold.Chemscore.Rot>
1.8993

> <Gold.Chemscore.Internal.Correction>
   9.000000E+99

> <Gold.Chemscore.Hbonds>
donor molecule, donor type, donor heavy atom, donor atom, acceptor molecule, acceptor atom, score
      L1  H    18    45       P1  8028  0.93
      P1  H  7997  8009       L1     3  0.62

> <Gold.Chemscore.Hbond.Weighted>
-5.3861

> <Gold.Chemscore.Metal.Weighted>
-0.0000

> <Gold.Chemscore.Lipo.Weighted>
-14.6127

> <Gold.Chemscore.Internal_Hbond.Weighted>
0.0000

> <Gold.Chemscore.DEClash.Weighted>
0.0668

> <Gold.Chemscore.DEInternal.Weighted>
2.8603

> <Gold.Chemscore.Rot.Weighted>
4.8622

> <Gold.Chemscore.Internal.Correction.Weighted>
   9.000000E+99

> <Gold.Protein.RotatedTorsions>
[ 6907 6896 6895 6894 ] final -150.18 input  -60.11 | X-H torsion
[ 7974 7965 7964 7962 ] final  109.51 input  175.53 | X-H torsion
[ 8008 7997 7996 7995 ] final  159.83 input   59.86 | X-H torsion
[ 10167 10162 10161 10158 ] final   93.88 input  -65.29 | X-H torsion
[ 10718 10713 10712 10709 ] final    5.10 input   66.30 | X-H torsion
[ 10763 10752 10751 10750 ] final -123.47 input  -60.55 | X-H torsion
[ 11005 11000 10999 10996 ] final  -67.08 input  -57.11 | X-H torsion

> <Gold.Protein.ActiveResidues>
 VAL166  LYS551  ARG553  GLY616  TRP617  ASP618  TYR619  PRO620  LYS621  CYS622 
 ASP623  PHE694  ASN695  SER759  ASP760  ASP761  ALA762  ILE779  LEU786  VAL792 
 PHE793  MET794  SER795  GLU796  ALA797  LYS798  CYS799  TRP800  GLU811  SER814 

> <Gold.Protein.RotatedAtoms>
  151.1948  133.4645  159.2595 H   0  0  0  0  0  0  0  0  0  0  0  0  # atno 6907 bound_to 6896
  151.1128  135.0036  159.8512 H   0  0  0  0  0  0  0  0  0  0  0  0  # atno 6908 bound_to 6896
  152.5451  134.1866  159.8710 H   0  0  0  0  0  0  0  0  0  0  0  0  # atno 6909 bound_to 6896
  145.2668  139.2681  143.3987 H   0  0  0  0  0  0  0  0  0  0  0  0  # atno 7974 bound_to 7965
  156.2213  140.1820  156.7471 H   0  0  0  0  0  0  0  0  0  0  0  0  # atno 8008 bound_to 7997
  154.5869  140.0657  156.9213 H   0  0  0  0  0  0  0  0  0  0  0  0  # atno 8009 bound_to 7997
  155.2404  140.3321  155.4295 H   0  0  0  0  0  0  0  0  0  0  0  0  # atno 8010 bound_to 7997
  139.8137  144.6762  150.9608 H   0  0  0  0  0  0  0  0  0  0  0  0  # atno 10167 bound_to 10162
  156.9025  130.5727  149.5648 H   0  0  0  0  0  0  0  0  0  0  0  0  # atno 10718 bound_to 10713
  154.8708  135.4097  154.2949 H   0  0  0  0  0  0  0  0  0  0  0  0  # atno 10763 bound_to 10752
  153.3818  135.7011  153.6565 H   0  0  0  0  0  0  0  0  0  0  0  0  # atno 10764 bound_to 10752
  153.5384  135.3653  155.2679 H   0  0  0  0  0  0  0  0  0  0  0  0  # atno 10765 bound_to 10752
  141.1499  133.6712  156.6238 H   0  0  0  0  0  0  0  0  0  0  0  0  # atno 11005 bound_to 11000
  146.3258  140.3100  142.8626 LP  0  0  0  0  0  0  0  0  0  0  0  0  # atno 17320 bound_to 7965
  144.9370  140.8037  143.5654 LP  0  0  0  0  0  0  0  0  0  0  0  0  # atno 17321 bound_to 7965
  140.7817  143.4160  151.0917 LP  0  0  0  0  0  0  0  0  0  0  0  0  # atno 17342 bound_to 10162
  139.7825  143.8335  152.3140 LP  0  0  0  0  0  0  0  0  0  0  0  0  # atno 17343 bound_to 10162
  156.0575  130.5634  150.9123 LP  0  0  0  0  0  0  0  0  0  0  0  0  # atno 17370 bound_to 10713
  157.6017  131.0941  150.8948 LP  0  0  0  0  0  0  0  0  0  0  0  0  # atno 17371 bound_to 10713
  140.3520  134.7761  157.4473 LP  0  0  0  0  0  0  0  0  0  0  0  0  # atno 17394 bound_to 11000
  140.0853  134.5675  155.8498 LP  0  0  0  0  0  0  0  0  0  0  0  0  # atno 17395 bound_to 11000

$$$$
