AV-unprocessed.smi:1278|AV-procd|sdf|5350|dock9
  -GOLD-   22720 4483D 1   1.00000     0.00000
 Structure written by MMmdl.
 39 40  0  0  0  0  0  0  0  0  2 V2000
  152.4075  138.3822  154.7121 C   0  0  0  0  0  0  0  0  0  0  0  0
  151.0287  137.7550  154.4626 C   0  0  1  0  0  0  0  0  0  0  0  0
  150.5851  136.8848  155.6505 C   0  0  0  0  0  0  0  0  0  0  0  0
  149.1951  136.2938  155.3863 C   0  0  0  0  0  0  0  0  0  0  0  0
  148.1797  137.4007  155.0623 C   0  0  0  0  0  0  0  0  0  0  0  0
  148.6311  138.2208  153.9084 N   0  3  1  0  0  0  0  0  0  0  0  0
  147.6042  139.2071  153.4884 C   0  0  0  0  0  0  0  0  0  0  0  0
  146.3036  138.5348  153.0060 C   0  0  0  0  0  0  0  0  0  0  0  0
  146.5612  137.2190  152.4320 N   0  0  0  0  0  0  0  0  0  0  0  0
  145.6150  136.3168  152.1338 C   0  0  0  0  0  0  0  0  0  0  0  0
  144.4129  136.5164  152.3121 O   0  0  0  0  0  0  0  0  0  0  0  0
  146.1507  135.1942  151.6231 N   0  0  0  0  0  0  0  0  0  0  0  0
  145.4773  134.0276  151.1743 C   0  0  0  0  0  0  0  0  0  0  0  0
  146.0585  133.0402  150.4833 N   0  0  0  0  0  0  0  0  0  0  0  0
  145.1596  132.0161  150.1748 C   0  0  0  0  0  0  0  0  0  0  0  0
  143.8891  132.2415  150.6427 C   0  0  0  0  0  0  0  0  0  0  0  0
  143.7704  133.7579  151.4951 S   0  0  0  0  0  0  0  0  0  0  0  0
  149.9651  138.8299  154.1603 C   0  0  0  0  0  0  0  0  0  0  0  0
  152.3926  139.0413  155.5808 H   0  0  0  0  0  0  0  0  0  0  0  0
  152.7337  138.9702  153.8538 H   0  0  0  0  0  0  0  0  0  0  0  0
  153.1611  137.6145  154.8902 H   0  0  0  0  0  0  0  0  0  0  0  0
  151.1153  137.1108  153.5859 H   0  0  0  0  0  0  0  0  0  0  0  0
  151.3030  136.0817  155.8212 H   0  0  0  0  0  0  0  0  0  0  0  0
  150.5617  137.4820  156.5632 H   0  0  0  0  0  0  0  0  0  0  0  0
  149.2476  135.5888  154.5554 H   0  0  0  0  0  0  0  0  0  0  0  0
  148.8616  135.7244  156.2544 H   0  0  0  0  0  0  0  0  0  0  0  0
  147.2157  136.9428  154.8373 H   0  0  0  0  0  0  0  0  0  0  0  0
  148.0310  138.0433  155.9315 H   0  0  0  0  0  0  0  0  0  0  0  0
  147.3645  139.8471  154.3385 H   0  0  0  0  0  0  0  0  0  0  0  0
  148.0117  139.8626  152.7170 H   0  0  0  0  0  0  0  0  0  0  0  0
  145.6077  138.3947  153.8322 H   0  0  0  0  0  0  0  0  0  0  0  0
  145.7955  139.1656  152.2744 H   0  0  0  0  0  0  0  0  0  0  0  0
  147.5256  136.9756  152.2578 H   0  0  0  0  0  0  0  0  0  0  0  0
  147.1565  135.1716  151.5408 H   0  0  0  0  0  0  0  0  0  0  0  0
  145.5106  131.1602  149.6174 H   0  0  0  0  0  0  0  0  0  0  0  0
  143.0198  131.6093  150.5381 H   0  0  0  0  0  0  0  0  0  0  0  0
  149.8913  139.5329  154.9919 H   0  0  0  0  0  0  0  0  0  0  0  0
  150.2836  139.4045  153.2912 H   0  0  0  0  0  0  0  0  0  0  0  0
  148.7400  137.5788  153.1363 H   0  0  0  0  0  0  0  0  0  0  0  0
  1  2  1  0  0  0  0
  1 19  1  0  0  0  0
  1 20  1  0  0  0  0
  1 21  1  0  0  0  0
  2 18  1  0  0  0  0
  2  3  1  0  0  0  0
  2 22  1  0  0  0  0
  3  4  1  0  0  0  0
  3 23  1  0  0  0  0
  3 24  1  0  0  0  0
  4  5  1  0  0  0  0
  4 25  1  0  0  0  0
  4 26  1  0  0  0  0
  5  6  1  0  0  0  0
  5 27  1  0  0  0  0
  5 28  1  0  0  0  0
  6  7  1  0  0  0  0
  6 18  1  0  0  0  0
  6 39  1  0  0  0  0
  7  8  1  0  0  0  0
  7 29  1  0  0  0  0
  7 30  1  0  0  0  0
  8  9  1  0  0  0  0
  8 31  1  0  0  0  0
  8 32  1  0  0  0  0
  9 10  1  0  0  0  0
  9 33  1  0  0  0  0
 10 11  2  0  0  0  0
 10 12  1  0  0  0  0
 12 13  1  0  0  0  0
 12 34  1  0  0  0  0
 13 17  1  0  0  0  0
 13 14  2  0  0  0  0
 14 15  1  0  0  0  0
 15 16  2  0  0  0  0
 15 35  1  0  0  0  0
 16 17  1  0  0  0  0
 16 36  1  0  0  0  0
 18 37  1  0  0  0  0
 18 38  1  0  0  0  0
M  CHG  1   6   1
M  END
> <s_m_source_file>
AV-unprocessed.smi

> <i_m_source_file_index>
1278

> <i_lp_mmshare_version>
43012

> <i_f3d_flags>
0

> <s_epik_input>
W0NIM11bQ0BASF0xW0NIMl1bQ0gyXVtDSDJdTihbQ0gyXTEpW0NIMl1bQ0gyXVtOSF1DKD1PKVtOSF1jMm5bY0hdW2NIXXMy

> <s_epik_cmdline>
J2VwaWtfcHl0aG9uJywgJy1waCcsICc3LjAnLCAnLXRuJywgJzgnLCAnLW1hJywgJzIwMCcsICctbWV0YWxfYmluZGluZycsICctaW1hZScsICc8aW5maWxlLm1hZT4nLCAnLW9tYWUnLCAnPG91dGZpbGUubWFlPic=

> <r_lp_tautomer_probability>
0.999

> <r_epik_Ionization_Penalty>
0.00222194

> <r_epik_Ionization_Penalty_Charging>
0.00208169

> <r_epik_Ionization_Penalty_Neutral>
0.000140251

> <r_epik_State_Penalty>
0.00142585

> <r_epik_Charging_Adjusted_Penalty>
0.00350754

> <i_epik_Tot_Q>
1

> <i_epik_Tot_abs_Q>
1

> <r_epik_Metal_State_Penalty>
0.0570424

> <b_epik_Metal_Only>
0

> <s_lp_Force_Field>
OPLS_2005

> <r_lp_Energy>
13.7049

> <b_lp_Chiralities_Consistent>
1

> <s_lp_Variant>
AV-unprocessed.smi:1278-4

> <Gold.Version>
5.8.1

> <Gold.Id.Protein>
6NUR|6NUR_protein|mol2

> <Gold.PLP.Fitness>
45.5521

> <Gold.PLP.PLP>
-32.6650

> <Gold.PLP.part.hbond>
-3.0000

> <Gold.PLP.part.metal>
0.0000

> <Gold.PLP.part.buried>
-5.9682

> <Gold.PLP.part.nonpolar>
-25.4331

> <Gold.PLP.part.repulsive>
0.5593

> <Gold.PLP.ligand.clash>
0.0000

> <Gold.PLP.ligand.torsion>
0.3094

> <Gold.PLP.Chemscore.Hbond>
3.9357

> <Gold.PLP.Chemscore.CHOScore>
0.5576

> <Gold.PLP.Chemscore.Metal>
0.0000

> <Gold.Chemscore.Hbonds>
donor molecule, donor type, donor heavy atom, donor atom, acceptor molecule, acceptor atom, score
      L1  H     6    39       P1  7948  2.00
      L1  H     9    33       P1  7948  1.00
      L1  H    12    34       P1  7948  0.87
      L1  C    16    36       P1 10952  0.55

> <Gold.PLP.Chemscore.Internal.Correction>
0.0258

> <Gold.Rescore>
     Score         DG    S(hbond)    S(metal)    S(lipo)     H(rot)  DE(clash)    DE(int)     intcor
     17.59     -19.44       2.85        0.00      73.01       1.60       0.33       1.52       ----

> <Gold.Chemscore.Fitness>
17.5922

> <Gold.Chemscore.DG>
-19.4433

> <Gold.Chemscore.ZeroCoef>
-5.4800

> <Gold.Chemscore.Hbond>
2.8495

> <Gold.Chemscore.Metal>
0.0000

> <Gold.Chemscore.Lipo>
73.0101

> <Gold.Chemscore.Internal_Hbond>
0.0000

> <Gold.Chemscore.DEClash>
0.3348

> <Gold.Chemscore.DEInternal>
1.5162

> <Gold.Chemscore.Rot>
1.6001

> <Gold.Chemscore.Internal.Correction>
   9.000000E+99

> <Gold.Chemscore.Hbonds>
donor molecule, donor type, donor heavy atom, donor atom, acceptor molecule, acceptor atom, score
      L1  H     6    39       P1  7948  1.00
      L1  H     9    33       P1  7948  1.00
      L1  H    12    34       P1  7948  0.73

> <Gold.Chemscore.Hbond.Weighted>
-9.5174

> <Gold.Chemscore.Metal.Weighted>
-0.0000

> <Gold.Chemscore.Lipo.Weighted>
-8.5422

> <Gold.Chemscore.Internal_Hbond.Weighted>
0.0000

> <Gold.Chemscore.DEClash.Weighted>
0.3348

> <Gold.Chemscore.DEInternal.Weighted>
1.5162

> <Gold.Chemscore.Rot.Weighted>
4.0963

> <Gold.Chemscore.Internal.Correction.Weighted>
   9.000000E+99

> <Gold.Protein.RotatedTorsions>
[ 6907 6896 6895 6894 ] final  -83.51 input  -60.11 | X-H torsion
[ 7974 7965 7964 7962 ] final  -62.27 input  175.53 | X-H torsion
[ 8008 7997 7996 7995 ] final   89.15 input   59.86 | X-H torsion
[ 10167 10162 10161 10158 ] final -118.78 input  -65.29 | X-H torsion
[ 10718 10713 10712 10709 ] final   94.20 input   66.30 | X-H torsion
[ 10763 10752 10751 10750 ] final   83.36 input  -60.55 | X-H torsion
[ 11005 11000 10999 10996 ] final   64.68 input  -57.11 | X-H torsion

> <Gold.Protein.ActiveResidues>
 VAL166  LYS551  ARG553  GLY616  TRP617  ASP618  TYR619  PRO620  LYS621  CYS622 
 ASP623  PHE694  ASN695  SER759  ASP760  ASP761  ALA762  ILE779  LEU786  VAL792 
 PHE793  MET794  SER795  GLU796  ALA797  LYS798  CYS799  TRP800  GLU811  SER814 

> <Gold.Protein.RotatedAtoms>
  150.6885  134.3501  159.4904 H   0  0  0  0  0  0  0  0  0  0  0  0  # atno 6907 bound_to 6896
  152.1343  134.9108  160.0566 H   0  0  0  0  0  0  0  0  0  0  0  0  # atno 6908 bound_to 6896
  152.0266  133.3885  159.4317 H   0  0  0  0  0  0  0  0  0  0  0  0  # atno 6909 bound_to 6896
  145.7934  140.8697  143.0269 H   0  0  0  0  0  0  0  0  0  0  0  0  # atno 7974 bound_to 7965
  155.9965  140.3364  155.6803 H   0  0  0  0  0  0  0  0  0  0  0  0  # atno 8008 bound_to 7997
  155.6350  140.0689  157.2655 H   0  0  0  0  0  0  0  0  0  0  0  0  # atno 8009 bound_to 7997
  154.4235  140.1753  156.1500 H   0  0  0  0  0  0  0  0  0  0  0  0  # atno 8010 bound_to 7997
  140.0538  143.5034  152.2068 H   0  0  0  0  0  0  0  0  0  0  0  0  # atno 10167 bound_to 10162
  157.6949  131.0504  150.4150 H   0  0  0  0  0  0  0  0  0  0  0  0  # atno 10718 bound_to 10713
  153.1284  135.4694  154.9309 H   0  0  0  0  0  0  0  0  0  0  0  0  # atno 10763 bound_to 10752
  154.7641  135.3140  154.8323 H   0  0  0  0  0  0  0  0  0  0  0  0  # atno 10764 bound_to 10752
  153.8871  135.6888  153.4817 H   0  0  0  0  0  0  0  0  0  0  0  0  # atno 10765 bound_to 10752
  139.9943  134.6542  156.0037 H   0  0  0  0  0  0  0  0  0  0  0  0  # atno 11005 bound_to 11000
  144.6778  140.0155  143.7484 LP  0  0  0  0  0  0  0  0  0  0  0  0  # atno 17320 bound_to 7965
  145.9954  139.3048  143.0960 LP  0  0  0  0  0  0  0  0  0  0  0  0  # atno 17321 bound_to 7965
  139.5936  144.7559  151.3340 LP  0  0  0  0  0  0  0  0  0  0  0  0  # atno 17342 bound_to 10162
  140.7204  143.7151  150.7739 LP  0  0  0  0  0  0  0  0  0  0  0  0  # atno 17343 bound_to 10162
  156.4530  130.4015  149.6624 LP  0  0  0  0  0  0  0  0  0  0  0  0  # atno 17370 bound_to 10713
  156.3766  130.7558  151.2546 LP  0  0  0  0  0  0  0  0  0  0  0  0  # atno 17371 bound_to 10713
  141.1592  133.6540  156.4261 LP  0  0  0  0  0  0  0  0  0  0  0  0  # atno 17394 bound_to 11000
  140.4848  134.6631  157.5186 LP  0  0  0  0  0  0  0  0  0  0  0  0  # atno 17395 bound_to 11000

$$$$
