AV-unprocessed.smi:103|AV-procd|sdf|988|dock7
  -GOLD-   2262017563D 1   1.00000     0.00000
 Structure written by MMmdl.
 53 55  0  0  0  0  0  0  0  0  1 V2000
  151.9544  140.7613  157.7748 C   0  0  0  0  0  0  0  0  0  0  0  0
  152.1981  139.3356  157.2985 C   0  0  0  0  0  0  0  0  0  0  0  0
  153.3361  138.8826  157.1749 O   0  0  0  0  0  0  0  0  0  0  0  0
  151.0561  138.6793  157.0507 O   0  0  0  0  0  0  0  0  0  0  0  0
  150.9986  137.2736  157.2279 C   0  0  0  0  0  0  0  0  0  0  0  0
  149.5877  136.8704  157.6715 C   0  0  1  0  0  0  0  0  0  0  0  0
  149.5785  135.4990  158.0351 O   0  0  0  0  0  0  0  0  0  0  0  0
  148.5321  135.2531  158.9188 C   0  0  2  0  0  0  0  0  0  0  0  0
  147.3791  134.6671  158.1461 N   0  0  0  0  0  0  0  0  0  0  0  0
  147.4019  133.6118  157.2530 C   0  0  0  0  0  0  0  0  0  0  0  0
  148.8189  132.6037  156.8260 S   0  0  0  0  0  0  0  0  0  0  0  0
  149.3665  133.3640  155.2434 C   0  0  0  0  0  0  0  0  0  0  0  0
  149.8416  132.8415  157.8569 O   0  0  0  0  0  0  0  0  0  0  0  0
  148.3238  131.2429  156.5679 O   0  0  0  0  0  0  0  0  0  0  0  0
  146.2604  133.2506  156.7353 N   0  0  0  0  0  0  0  0  0  0  0  0
  145.3762  134.1898  157.2404 C   0  0  0  0  0  0  0  0  0  0  0  0
  143.9876  134.4183  157.0684 C   0  0  0  0  0  0  0  0  0  0  0  0
  143.2123  133.6526  156.2884 N   0  0  0  0  0  0  0  0  0  0  0  0
  143.4166  135.4588  157.7173 N   0  0  0  0  0  0  0  0  0  0  0  0
  144.1697  136.2380  158.4982 C   0  0  0  0  0  0  0  0  0  0  0  0
  145.4755  136.1436  158.7582 N   0  0  0  0  0  0  0  0  0  0  0  0
  146.0588  135.0929  158.1072 C   0  0  0  0  0  0  0  0  0  0  0  0
  148.1763  136.5813  159.6113 C   0  0  1  0  0  0  0  0  0  0  0  0
  148.4643  136.5191  161.0022 O   0  0  0  0  0  0  0  0  0  0  0  0
  147.5068  136.8082  161.9012 C   0  0  0  0  0  0  0  0  0  0  0  0
  147.8066  136.2279  163.2765 C   0  0  0  0  0  0  0  0  0  0  0  0
  146.4813  137.4540  161.6842 O   0  0  0  0  0  0  0  0  0  0  0  0
  149.0958  137.5907  158.9338 C   0  0  2  0  0  0  0  0  0  0  0  0
  148.3425  138.7530  158.6099 O   0  0  0  0  0  0  0  0  0  0  0  0
  147.3193  138.6885  157.7415 C   0  0  0  0  0  0  0  0  0  0  0  0
  146.6850  140.0503  157.4938 C   0  0  0  0  0  0  0  0  0  0  0  0
  146.8975  137.6733  157.1877 O   0  0  0  0  0  0  0  0  0  0  0  0
  151.3742  141.3137  157.0355 H   0  0  0  0  0  0  0  0  0  0  0  0
  152.9003  141.2806  157.9303 H   0  0  0  0  0  0  0  0  0  0  0  0
  151.4032  140.7560  158.7153 H   0  0  0  0  0  0  0  0  0  0  0  0
  151.2433  136.7915  156.2807 H   0  0  0  0  0  0  0  0  0  0  0  0
  151.7334  136.9419  157.9632 H   0  0  0  0  0  0  0  0  0  0  0  0
  148.8895  137.0018  156.8454 H   0  0  0  0  0  0  0  0  0  0  0  0
  148.8131  134.4799  159.6298 H   0  0  0  0  0  0  0  0  0  0  0  0
  150.2518  132.8438  154.8788 H   0  0  0  0  0  0  0  0  0  0  0  0
  149.6056  134.4143  155.4093 H   0  0  0  0  0  0  0  0  0  0  0  0
  148.5717  133.2872  154.5031 H   0  0  0  0  0  0  0  0  0  0  0  0
  143.6151  132.8714  155.7909 H   0  0  0  0  0  0  0  0  0  0  0  0
  142.2280  133.8588  156.1980 H   0  0  0  0  0  0  0  0  0  0  0  0
  143.6532  137.0516  158.9859 H   0  0  0  0  0  0  0  0  0  0  0  0
  147.1263  136.8278  159.4583 H   0  0  0  0  0  0  0  0  0  0  0  0
  148.7116  136.6762  163.6870 H   0  0  0  0  0  0  0  0  0  0  0  0
  147.9524  135.1498  163.2098 H   0  0  0  0  0  0  0  0  0  0  0  0
  146.9821  136.4229  163.9625 H   0  0  0  0  0  0  0  0  0  0  0  0
  149.9407  137.8029  159.5914 H   0  0  0  0  0  0  0  0  0  0  0  0
  147.3939  140.7131  156.9974 H   0  0  0  0  0  0  0  0  0  0  0  0
  146.3861  140.5060  158.4379 H   0  0  0  0  0  0  0  0  0  0  0  0
  145.8014  139.9524  156.8626 H   0  0  0  0  0  0  0  0  0  0  0  0
  1  2  1  0  0  0  0
  1 33  1  0  0  0  0
  1 34  1  0  0  0  0
  1 35  1  0  0  0  0
  2  3  2  0  0  0  0
  2  4  1  0  0  0  0
  4  5  1  0  0  0  0
  5  6  1  0  0  0  0
  5 36  1  0  0  0  0
  5 37  1  0  0  0  0
  6 28  1  0  0  0  0
  6  7  1  0  0  0  0
  6 38  1  0  0  0  0
  7  8  1  0  0  0  0
  8  9  1  0  0  0  0
  8 23  1  0  0  0  0
  8 39  1  0  0  0  0
  9 22  1  0  0  0  0
  9 10  1  0  0  0  0
 10 11  1  0  0  0  0
 10 15  2  0  0  0  0
 11 12  1  0  0  0  0
 11 13  2  0  0  0  0
 11 14  2  0  0  0  0
 12 40  1  0  0  0  0
 12 41  1  0  0  0  0
 12 42  1  0  0  0  0
 15 16  1  0  0  0  0
 16 22  2  0  0  0  0
 16 17  1  0  0  0  0
 17 18  1  0  0  0  0
 17 19  2  0  0  0  0
 18 43  1  0  0  0  0
 18 44  1  0  0  0  0
 19 20  1  0  0  0  0
 20 21  2  0  0  0  0
 20 45  1  0  0  0  0
 21 22  1  0  0  0  0
 23 24  1  0  0  0  0
 23 28  1  0  0  0  0
 23 46  1  0  0  0  0
 24 25  1  0  0  0  0
 25 26  1  0  0  0  0
 25 27  2  0  0  0  0
 26 47  1  0  0  0  0
 26 48  1  0  0  0  0
 26 49  1  0  0  0  0
 28 29  1  0  0  0  0
 28 50  1  0  0  0  0
 29 30  1  0  0  0  0
 30 31  1  0  0  0  0
 30 32  2  0  0  0  0
 31 51  1  0  0  0  0
 31 52  1  0  0  0  0
 31 53  1  0  0  0  0
M  END
> <s_m_source_file>
AV-unprocessed.smi

> <i_m_source_file_index>
103

> <i_lp_mmshare_version>
43012

> <i_f3d_flags>
0

> <s_epik_input>
W0NIM11DKD1PKU9bQ0gyXVtDQEBIXTFPW0NASF0oW0NAQEhdKE9DKD1PKVtDSDNdKVtDQEhdMU9DKD1PKVtDSDNdKW4oYyhuMilTKD1PKSg9TylbQ0gzXSljKGMyMyluW2NIXW5jM1tOSDJd

> <s_epik_cmdline>
J2VwaWtfcHl0aG9uJywgJy1waCcsICc3LjAnLCAnLXRuJywgJzgnLCAnLW1hJywgJzIwMCcsICctbWV0YWxfYmluZGluZycsICctaW1hZScsICc8aW5maWxlLm1hZT4nLCAnLW9tYWUnLCAnPG91dGZpbGUubWFlPic=

> <r_lp_tautomer_probability>
1

> <r_epik_Ionization_Penalty>
1.51338e-05

> <r_epik_Ionization_Penalty_Charging>
0

> <r_epik_Ionization_Penalty_Neutral>
1.51338e-05

> <r_epik_State_Penalty>
-0

> <r_epik_Charging_Adjusted_Penalty>
0

> <i_epik_Tot_Q>
0

> <i_epik_Tot_abs_Q>
0

> <r_epik_Metal_State_Penalty>
-0

> <b_epik_Metal_Only>
0

> <s_epik_Chemistry_Notes>
This compound has an ester and may undergo hydrolysis at high or low pH. This compound contains an acetal/aminal-like group ( X-CH(R)-Y where X, Y are N, S, or O) that may be acid/base labile, releasing an aldehyde.

> <s_lp_Force_Field>
OPLS_2005

> <r_lp_Energy>
13.207

> <b_lp_Chiralities_Consistent>
1

> <s_lp_Variant>
AV-unprocessed.smi:103-12

> <Gold.Version>
5.8.1

> <Gold.Id.Protein>
6NUR|6NUR_protein|mol2

> <Gold.PLP.Fitness>
37.6879

> <Gold.PLP.PLP>
-27.2266

> <Gold.PLP.part.hbond>
-7.7679

> <Gold.PLP.part.metal>
0.0000

> <Gold.PLP.part.buried>
-3.5042

> <Gold.PLP.part.nonpolar>
-16.4198

> <Gold.PLP.part.repulsive>
0.0467

> <Gold.PLP.ligand.clash>
0.0000

> <Gold.PLP.ligand.torsion>
2.8322

> <Gold.PLP.Chemscore.Hbond>
4.6024

> <Gold.PLP.Chemscore.CHOScore>
0.0000

> <Gold.PLP.Chemscore.Metal>
0.0000

> <Gold.Chemscore.Hbonds>
donor molecule, donor type, donor heavy atom, donor atom, acceptor molecule, acceptor atom, score
      L1  H    18    43       P1 10957  0.46
      L1  H    18    44       P1 11000  1.00
      P1  H  6896  6907       L1     7  0.05
      P1  H  6896  6909       L1    13  1.00
      P1  H  6934  6947       L1    27  0.98
      P1  H  7997  8008       L1     3  0.96

> <Gold.PLP.Chemscore.Internal.Correction>
2.3186

> <Gold.Rescore>
     Score         DG    S(hbond)    S(metal)    S(lipo)     H(rot)  DE(clash)    DE(int)     intcor
      2.34     -11.99       3.92        0.00      36.67       4.25       1.80       7.85       ----

> <Gold.Chemscore.Fitness>
2.3401

> <Gold.Chemscore.DG>
-11.9893

> <Gold.Chemscore.ZeroCoef>
-5.4800

> <Gold.Chemscore.Hbond>
3.9185

> <Gold.Chemscore.Metal>
0.0000

> <Gold.Chemscore.Lipo>
36.6672

> <Gold.Chemscore.Internal_Hbond>
0.0000

> <Gold.Chemscore.DEClash>
1.7978

> <Gold.Chemscore.DEInternal>
7.8514

> <Gold.Chemscore.Rot>
4.2456

> <Gold.Chemscore.Internal.Correction>
   9.000000E+99

> <Gold.Chemscore.Hbonds>
donor molecule, donor type, donor heavy atom, donor atom, acceptor molecule, acceptor atom, score
      L1  H    18    43       P1 10957  0.46
      L1  H    18    44       P1 11000  0.92
      P1  H  6896  6909       L1    13  0.92
      P1  H  6934  6947       L1    27  0.32
      P1  H  7997  8008       L1     3  0.87

> <Gold.Chemscore.Hbond.Weighted>
-13.0879

> <Gold.Chemscore.Metal.Weighted>
-0.0000

> <Gold.Chemscore.Lipo.Weighted>
-4.2901

> <Gold.Chemscore.Internal_Hbond.Weighted>
0.0000

> <Gold.Chemscore.DEClash.Weighted>
1.7978

> <Gold.Chemscore.DEInternal.Weighted>
7.8514

> <Gold.Chemscore.Rot.Weighted>
10.8687

> <Gold.Chemscore.Internal.Correction.Weighted>
   9.000000E+99

> <Gold.Protein.RotatedTorsions>
[ 6907 6896 6895 6894 ] final  -32.48 input  -60.11 | X-H torsion
[ 7974 7965 7964 7962 ] final    4.88 input  175.53 | X-H torsion
[ 8008 7997 7996 7995 ] final  -88.34 input   59.86 | X-H torsion
[ 10167 10162 10161 10158 ] final   68.55 input  -65.29 | X-H torsion
[ 10718 10713 10712 10709 ] final  -20.02 input   66.30 | X-H torsion
[ 10763 10752 10751 10750 ] final -115.40 input  -60.55 | X-H torsion
[ 11005 11000 10999 10996 ] final   92.10 input  -57.11 | X-H torsion

> <Gold.Protein.ActiveResidues>
 VAL166  LYS551  ARG553  GLY616  TRP617  ASP618  TYR619  PRO620  LYS621  CYS622 
 ASP623  PHE694  ASN695  SER759  ASP760  ASP761  ALA762  ILE779  LEU786  VAL792 
 PHE793  MET794  SER795  GLU796  ALA797  LYS798  CYS799  TRP800  GLU811  SER814 

> <Gold.Protein.RotatedAtoms>
  151.0782  134.9842  159.8342 H   0  0  0  0  0  0  0  0  0  0  0  0  # atno 6907 bound_to 6896
  152.5416  134.2214  159.8799 H   0  0  0  0  0  0  0  0  0  0  0  0  # atno 6908 bound_to 6896
  151.2243  133.4442  159.2635 H   0  0  0  0  0  0  0  0  0  0  0  0  # atno 6909 bound_to 6896
  146.2442  140.0468  142.8378 H   0  0  0  0  0  0  0  0  0  0  0  0  # atno 7974 bound_to 7965
  154.6737  140.0555  157.0193 H   0  0  0  0  0  0  0  0  0  0  0  0  # atno 8008 bound_to 7997
  155.1051  140.3233  155.4518 H   0  0  0  0  0  0  0  0  0  0  0  0  # atno 8009 bound_to 7997
  156.2667  140.2024  156.6177 H   0  0  0  0  0  0  0  0  0  0  0  0  # atno 8010 bound_to 7997
  140.0775  144.5100  150.7185 H   0  0  0  0  0  0  0  0  0  0  0  0  # atno 10167 bound_to 10162
  156.5376  130.4670  149.6515 H   0  0  0  0  0  0  0  0  0  0  0  0  # atno 10718 bound_to 10713
  154.8479  135.4383  154.1657 H   0  0  0  0  0  0  0  0  0  0  0  0  # atno 10763 bound_to 10752
  153.2783  135.6951  153.7417 H   0  0  0  0  0  0  0  0  0  0  0  0  # atno 10764 bound_to 10752
  153.6631  135.3431  155.3108 H   0  0  0  0  0  0  0  0  0  0  0  0  # atno 10765 bound_to 10752
  139.8828  134.8713  156.3524 H   0  0  0  0  0  0  0  0  0  0  0  0  # atno 11005 bound_to 11000
  145.1020  140.9352  143.4707 LP  0  0  0  0  0  0  0  0  0  0  0  0  # atno 17320 bound_to 7965
  145.0663  139.3066  143.5855 LP  0  0  0  0  0  0  0  0  0  0  0  0  # atno 17321 bound_to 7965
  140.7095  143.2493  151.4626 LP  0  0  0  0  0  0  0  0  0  0  0  0  # atno 17342 bound_to 10162
  139.5799  144.1733  152.1954 LP  0  0  0  0  0  0  0  0  0  0  0  0  # atno 17343 bound_to 10162
  156.3001  130.7172  151.2042 LP  0  0  0  0  0  0  0  0  0  0  0  0  # atno 17370 bound_to 10713
  157.7411  131.0508  150.5121 LP  0  0  0  0  0  0  0  0  0  0  0  0  # atno 17371 bound_to 10713
  140.9585  133.7404  156.0368 LP  0  0  0  0  0  0  0  0  0  0  0  0  # atno 17394 bound_to 11000
  140.8019  134.3499  157.5437 LP  0  0  0  0  0  0  0  0  0  0  0  0  # atno 17395 bound_to 11000

$$$$
