AV-unprocessed.smi:2701|AV-procd|sdf|10428|dock8
  -GOLD-   2272014463D 1   1.00000     0.00000
 Structure written by MMmdl.
 31 32  0  0  0  0  0  0  0  0  2 V2000
  152.0417  144.8631  159.0881 C   0  0  0  0  0  0  0  0  0  0  0  0
  152.0001  143.3820  159.5160 C   0  0  1  0  0  0  0  0  0  0  0  0
  150.8651  142.6132  158.7954 C   0  0  0  0  0  0  0  0  0  0  0  0
  149.7045  142.7394  159.1888 O   0  0  0  0  0  0  0  0  0  0  0  0
  151.3217  141.8660  157.7608 N   0  5  0  0  0  0  0  0  0  0  0  0
  150.3810  140.8659  156.8975 S   0  0  0  0  0  0  0  0  0  0  0  0
  151.1041  139.6621  156.4576 O   0  0  0  0  0  0  0  0  0  0  0  0
  149.0832  140.6563  157.5578 O   0  0  0  0  0  0  0  0  0  0  0  0
  150.0298  141.8446  155.3625 C   0  0  0  0  0  0  0  0  0  0  0  0
  148.9198  141.2173  154.5650 C   0  0  0  0  0  0  0  0  0  0  0  0
  147.6890  141.8021  154.1571 C   0  0  0  0  0  0  0  0  0  0  0  0
  147.0739  140.8008  153.4628 C   0  0  0  0  0  0  0  0  0  0  0  0
  147.8588  139.6948  153.4283 O   0  0  0  0  0  0  0  0  0  0  0  0
  149.0381  139.9724  154.1287 N   0  0  0  0  0  0  0  0  0  0  0  0
  153.3711  142.6876  159.3776 C   0  0  0  0  0  0  0  0  0  0  0  0
  153.4035  141.7542  160.5675 C   0  0  0  0  0  0  0  0  0  0  0  0
  152.7187  142.6068  161.6256 C   0  0  0  0  0  0  0  0  0  0  0  0
  151.7304  143.3551  160.9233 O   0  0  0  0  0  0  0  0  0  0  0  0
  152.3894  144.9764  158.0606 H   0  0  0  0  0  0  0  0  0  0  0  0
  152.7174  145.4345  159.7250 H   0  0  0  0  0  0  0  0  0  0  0  0
  151.0567  145.3261  159.1606 H   0  0  0  0  0  0  0  0  0  0  0  0
  149.7960  142.8731  155.6328 H   0  0  0  0  0  0  0  0  0  0  0  0
  150.9495  141.8720  154.7784 H   0  0  0  0  0  0  0  0  0  0  0  0
  147.3168  142.7967  154.3492 H   0  0  0  0  0  0  0  0  0  0  0  0
  146.1246  140.7251  152.9537 H   0  0  0  0  0  0  0  0  0  0  0  0
  153.5174  142.1604  158.4345 H   0  0  0  0  0  0  0  0  0  0  0  0
  154.1767  143.4179  159.4647 H   0  0  0  0  0  0  0  0  0  0  0  0
  152.8173  140.8570  160.3652 H   0  0  0  0  0  0  0  0  0  0  0  0
  154.4122  141.4517  160.8490 H   0  0  0  0  0  0  0  0  0  0  0  0
  152.2767  142.0110  162.4243 H   0  0  0  0  0  0  0  0  0  0  0  0
  153.4303  143.3020  162.0728 H   0  0  0  0  0  0  0  0  0  0  0  0
  1  2  1  0  0  0  0
  1 19  1  0  0  0  0
  1 20  1  0  0  0  0
  1 21  1  0  0  0  0
  2 18  1  0  0  0  0
  2  3  1  0  0  0  0
  2 15  1  0  0  0  0
  3  4  2  0  0  0  0
  3  5  1  0  0  0  0
  5  6  1  0  0  0  0
  6  7  2  0  0  0  0
  6  8  2  0  0  0  0
  6  9  1  0  0  0  0
  9 10  1  0  0  0  0
  9 22  1  0  0  0  0
  9 23  1  0  0  0  0
 10 14  2  0  0  0  0
 10 11  1  0  0  0  0
 11 12  2  0  0  0  0
 11 24  1  0  0  0  0
 12 13  1  0  0  0  0
 12 25  1  0  0  0  0
 13 14  1  0  0  0  0
 15 16  1  0  0  0  0
 15 26  1  0  0  0  0
 15 27  1  0  0  0  0
 16 17  1  0  0  0  0
 16 28  1  0  0  0  0
 16 29  1  0  0  0  0
 17 18  1  0  0  0  0
 17 30  1  0  0  0  0
 17 31  1  0  0  0  0
M  CHG  1   5  -1
M  END
> <s_m_source_file>
AV-unprocessed.smi

> <i_m_source_file_index>
2701

> <i_lp_mmshare_version>
43012

> <i_f3d_flags>
0

> <s_epik_input>
TzFbQ0gyXVtDSDJdW0NIMl1bQ0BAXTEoW0NIM10pQyg9TylbTkhdUyg9TykoPU8pW0NIMl1jMltjSF1bY0hdb24y

> <s_epik_cmdline>
J2VwaWtfcHl0aG9uJywgJy1waCcsICc3LjAnLCAnLXRuJywgJzgnLCAnLW1hJywgJzIwMCcsICctbWV0YWxfYmluZGluZycsICctaW1hZScsICc8aW5maWxlLm1hZT4nLCAnLW9tYWUnLCAnPG91dGZpbGUubWFlPic=

> <r_lp_tautomer_probability>
1

> <r_epik_Ionization_Penalty>
0.000279175

> <r_epik_Ionization_Penalty_Charging>
0.000279174

> <r_epik_Ionization_Penalty_Neutral>
1.67252e-10

> <r_epik_State_Penalty>
-0

> <r_epik_Charging_Adjusted_Penalty>
0.000279174

> <i_epik_Tot_Q>
-1

> <i_epik_Tot_abs_Q>
1

> <r_epik_Metal_State_Penalty>
-0

> <b_epik_Metal_Only>
0

> <s_lp_Force_Field>
OPLS_2005

> <r_lp_Energy>
15.6344

> <b_lp_Chiralities_Consistent>
1

> <s_lp_Variant>
AV-unprocessed.smi:2701-1

> <Gold.Version>
5.8.1

> <Gold.Id.Protein>
6NUR|6NUR_protein|mol2

> <Gold.PLP.Fitness>
38.5455

> <Gold.PLP.PLP>
-38.2522

> <Gold.PLP.part.hbond>
-1.0701

> <Gold.PLP.part.metal>
0.0000

> <Gold.PLP.part.buried>
-6.3100

> <Gold.PLP.part.nonpolar>
-32.2705

> <Gold.PLP.part.repulsive>
0.8338

> <Gold.PLP.ligand.clash>
0.4844

> <Gold.PLP.ligand.torsion>
1.6270

> <Gold.PLP.Chemscore.Hbond>
0.0000

> <Gold.PLP.Chemscore.CHOScore>
0.9870

> <Gold.PLP.Chemscore.Metal>
0.0000

> <Gold.Chemscore.Hbonds>
donor molecule, donor type, donor heavy atom, donor atom, acceptor molecule, acceptor atom, score
      L1  C    12    25       P1 10175  1.00

> <Gold.PLP.Chemscore.Internal.Correction>
1.0709

> <Gold.Rescore>
     Score         DG    S(hbond)    S(metal)    S(lipo)     H(rot)  DE(clash)    DE(int)     intcor
      9.96     -12.23       0.00        0.00      91.78       1.56       0.00       2.27       ----

> <Gold.Chemscore.Fitness>
9.9566

> <Gold.Chemscore.DG>
-12.2272

> <Gold.Chemscore.ZeroCoef>
-5.4800

> <Gold.Chemscore.Hbond>
0.0000

> <Gold.Chemscore.Metal>
0.0000

> <Gold.Chemscore.Lipo>
91.7825

> <Gold.Chemscore.Internal_Hbond>
0.0000

> <Gold.Chemscore.DEClash>
0.0000

> <Gold.Chemscore.DEInternal>
2.2706

> <Gold.Chemscore.Rot>
1.5591

> <Gold.Chemscore.Internal.Correction>
   9.000000E+99

> <Gold.Chemscore.Hbond.Weighted>
-0.0000

> <Gold.Chemscore.Metal.Weighted>
-0.0000

> <Gold.Chemscore.Lipo.Weighted>
-10.7386

> <Gold.Chemscore.Internal_Hbond.Weighted>
0.0000

> <Gold.Chemscore.DEClash.Weighted>
0.0000

> <Gold.Chemscore.DEInternal.Weighted>
2.2706

> <Gold.Chemscore.Rot.Weighted>
3.9914

> <Gold.Chemscore.Internal.Correction.Weighted>
   9.000000E+99

> <Gold.Protein.RotatedTorsions>
[ 6907 6896 6895 6894 ] final -106.98 input  -60.11 | X-H torsion
[ 7974 7965 7964 7962 ] final   36.38 input  175.53 | X-H torsion
[ 8008 7997 7996 7995 ] final  134.68 input   59.86 | X-H torsion
[ 10167 10162 10161 10158 ] final   20.74 input  -65.29 | X-H torsion
[ 10718 10713 10712 10709 ] final  -63.78 input   66.30 | X-H torsion
[ 10763 10752 10751 10750 ] final  172.31 input  -60.55 | X-H torsion
[ 11005 11000 10999 10996 ] final   75.96 input  -57.11 | X-H torsion

> <Gold.Protein.ActiveResidues>
 VAL166  LYS551  ARG553  GLY616  TRP617  ASP618  TYR619  PRO620  LYS621  CYS622 
 ASP623  PHE694  ASN695  SER759  ASP760  ASP761  ALA762  ILE779  LEU786  VAL792 
 PHE793  MET794  SER795  GLU796  ALA797  LYS798  CYS799  TRP800  GLU811  SER814 

> <Gold.Protein.RotatedAtoms>
  150.7418  133.9896  159.3602 H   0  0  0  0  0  0  0  0  0  0  0  0  # atno 6907 bound_to 6896
  151.7842  135.0751  160.0387 H   0  0  0  0  0  0  0  0  0  0  0  0  # atno 6908 bound_to 6896
  152.3252  133.5861  159.5808 H   0  0  0  0  0  0  0  0  0  0  0  0  # atno 6909 bound_to 6896
  146.1215  139.6024  142.9286 H   0  0  0  0  0  0  0  0  0  0  0  0  # atno 7974 bound_to 7965
  156.3000  140.2490  156.3457 H   0  0  0  0  0  0  0  0  0  0  0  0  # atno 8008 bound_to 7997
  154.9013  140.0406  157.1914 H   0  0  0  0  0  0  0  0  0  0  0  0  # atno 8009 bound_to 7997
  154.8498  140.2904  155.5610 H   0  0  0  0  0  0  0  0  0  0  0  0  # atno 8010 bound_to 7997
  140.5480  143.9559  150.6560 H   0  0  0  0  0  0  0  0  0  0  0  0  # atno 10167 bound_to 10162
  156.0769  130.4225  150.1326 H   0  0  0  0  0  0  0  0  0  0  0  0  # atno 10718 bound_to 10713
  154.4242  135.2758  155.1955 H   0  0  0  0  0  0  0  0  0  0  0  0  # atno 10763 bound_to 10752
  154.3888  135.6071  153.5835 H   0  0  0  0  0  0  0  0  0  0  0  0  # atno 10764 bound_to 10752
  152.9834  135.5898  154.4543 H   0  0  0  0  0  0  0  0  0  0  0  0  # atno 10765 bound_to 10752
  139.9320  134.7561  156.1336 H   0  0  0  0  0  0  0  0  0  0  0  0  # atno 11005 bound_to 11000
  145.5456  141.0417  143.2307 LP  0  0  0  0  0  0  0  0  0  0  0  0  # atno 17320 bound_to 7965
  144.7602  139.6976  143.7237 LP  0  0  0  0  0  0  0  0  0  0  0  0  # atno 17321 bound_to 7965
  140.2977  143.3281  152.1001 LP  0  0  0  0  0  0  0  0  0  0  0  0  # atno 17342 bound_to 10162
  139.5015  144.6716  151.6229 LP  0  0  0  0  0  0  0  0  0  0  0  0  # atno 17343 bound_to 10162
  156.9366  130.9731  151.3523 LP  0  0  0  0  0  0  0  0  0  0  0  0  # atno 17370 bound_to 10713
  157.5869  130.8416  149.8602 LP  0  0  0  0  0  0  0  0  0  0  0  0  # atno 17371 bound_to 10713
  141.0913  133.6713  156.2547 LP  0  0  0  0  0  0  0  0  0  0  0  0  # atno 17394 bound_to 11000
  140.6177  134.5393  157.5543 LP  0  0  0  0  0  0  0  0  0  0  0  0  # atno 17395 bound_to 11000

$$$$
