#       Name:                AV-unprocessed.smi:43
#       Creating user name   scv26
#       Creation time:       Thu Mar 26 16:24:47 2020


#       File generated by GOLD software.
#

@<TRIPOS>MOLECULE
AV-unprocessed.smi:43
    34    35     1
SMALL
NO_CHARGES


@<TRIPOS>ATOM
      1 ****        -1.7769  -1.6791   1.7838 C.3            1 S1                 0.0000
      2 ****        -2.2062  -1.0587   0.5434 N.pl3          1 S1                 0.0000
      3 ****        -3.4738  -1.2623   0.1042 N.2            1 S1                 0.0000
      4 ****        -3.6007  -0.6060  -1.0111 N.2            1 S1                 0.0000
      5 ****        -2.4320   0.0478  -1.3420 N.2            1 S1                 0.0000
      6 ****        -1.5973  -0.2623  -0.3561 C.2            1 S1                 0.0000
      7 ****        -0.2712   0.1829  -0.2531 N.pl3          1 S1                 0.0000
      8 ****         0.6939  -0.0319   0.8284 C.3            1 S1                 0.0000
      9 ****         2.0471   0.5266   0.3874 C.3            1 S1                 0.0000
     10 ****         2.8196   0.9946   1.4731 O.3            1 S1                 0.0000
     11 ****         1.6423   1.6341  -0.5648 C.3            1 S1                 0.0000
     12 ****         0.3983   1.0431  -1.2371 C.3            1 S1                 0.0000
     13 ****         0.7405   0.2781  -2.5286 C.2            1 S1                 0.0000
     14 ****         0.4867   0.8562  -3.6075 O.co2          1 S1                 0.0000
     15 ****         1.2499  -0.8603  -2.4218 O.co2          1 S1                -1.0000
     16 ****         2.6101  -0.2373  -0.1504 H              1 S1                 0.0000
     17 ****        -0.2757   1.8586  -1.5035 H              1 S1                 0.0000
     18 ****        -1.3995  -0.9216   2.4698 H              1 S1                 0.0000
     19 ****        -0.9993  -2.4145   1.5791 H              1 S1                 0.0000
     20 ****        -2.6132  -2.1887   2.2640 H              1 S1                 0.0000
     21 ****         0.3320   0.4938   1.7130 H              1 S1                 0.0000
     22 ****         0.7925  -1.0879   1.0756 H              1 S1                 0.0000
     23 ****         3.0318   0.2592   2.0271 H              1 S1                 0.0000
     24 ****         1.3644   2.5324  -0.0113 H              1 S1                 0.0000
     25 ****         2.4361   1.9043  -1.2628 H              1 S1                 0.0000
     26 ****        -4.1774  -1.8130   0.5534 LP             1 S1                 0.0000
     27 ****        -4.4373  -0.5788  -1.5581 LP             1 S1                 0.0000
     28 ****        -2.2540   0.6229  -2.1404 LP             1 S1                 0.0000
     29 ****         2.2967   1.6696   1.9936 LP             1 S1                 0.0000
     30 ****         3.6608   1.4148   1.1328 LP             1 S1                 0.0000
     31 ****         0.6925   0.4060  -4.4764 LP             1 S1                 0.0000
     32 ****         0.0779   1.7688  -3.6016 LP             1 S1                 0.0000
     33 ****         1.4870  -1.3810  -3.2420 LP             1 S1                 0.0000
     34 ****         1.4198  -1.2492  -1.5162 LP             1 S1                 0.0000
@<TRIPOS>BOND
    1    1    2 1     
    2    1   18 1     
    3    1   19 1     
    4    1   20 1     
    5    2    6 1     
    6    2    3 1     
    7    3    4 2     
    8    4    5 1     
    9    5    6 2     
   10    6    7 1     
   11    7   12 1     
   12    7    8 1     
   13    8    9 1     
   14    8   21 1     
   15    8   22 1     
   16    9   16 1     
   17    9   10 1     
   18    9   11 1     
   19   10   23 1     
   20   11   12 1     
   21   11   24 1     
   22   11   25 1     
   23   12   17 1     
   24   12   13 1     
   25   13   14 ar    
   26   13   15 ar    
   27    3   26 1     
   28    4   27 1     
   29    5   28 1     
   30   10   29 1     
   31   10   30 1     
   32   14   31 1     
   33   14   32 1     
   34   15   33 1     
   35   15   34 1     
@<TRIPOS>SUBSTRUCTURE
      1 S1             1
@<TRIPOS>SET
LONE_PAIRS      STATIC     ATOMS    <user>   **** ""
9 26 27 28 29 30 31 32 33 34
DONOR_HYDROGENS      STATIC     ATOMS    <user>   **** ""
1 23
ATOM$BLUE        STATIC     ATOMS    COLORGROUP SYSTEM
9 26 27 28 29 30 31 32 33 34
ATOM$RED        STATIC     ATOMS    COLORGROUP SYSTEM
1 23
