AV-unprocessed.smi:2049|AV-procd|sdf|8322|dock2
  -GOLD-   2272010583D 1   1.00000     0.00000
 Structure written by MMmdl.
 51 53  0  0  0  0  0  0  0  0  2 V2000
  151.6078  135.8031  155.8538 O   0  0  0  0  0  0  0  0  0  0  0  0
  150.9896  136.4880  155.0397 C   0  0  0  0  0  0  0  0  0  0  0  0
  151.6248  137.7541  154.4561 C   0  0  0  0  0  0  0  0  0  0  0  0
  150.9180  138.9625  154.9079 N   0  0  0  0  0  0  0  0  0  0  0  0
  149.6720  139.2473  154.3245 C   0  0  0  0  0  0  0  0  0  0  0  0
  148.9824  140.3421  154.6757 C   0  0  0  0  0  0  0  0  0  0  0  0
  149.6012  141.2071  155.6889 C   0  0  0  0  0  0  0  0  0  0  0  0
  150.7374  140.9509  156.2220 N   0  0  0  0  0  0  0  0  0  0  0  0
  151.4598  139.8016  155.8513 C   0  0  0  0  0  0  0  0  0  0  0  0
  152.5556  139.5525  156.3558 O   0  0  0  0  0  0  0  0  0  0  0  0
  149.7463  136.2072  154.6244 N   0  0  0  0  0  0  0  0  0  0  0  0
  148.8909  135.1441  155.1477 C   0  0  0  0  0  0  0  0  0  0  0  0
  147.3695  135.3678  154.8444 C   0  0  0  0  0  0  0  0  0  0  0  0
  147.1002  134.9531  153.4122 N   0  3  0  0  0  0  0  0  0  0  0  0
  147.3794  133.5199  153.1080 C   0  0  0  0  0  0  0  0  0  0  0  0
  147.2861  133.2538  151.5989 C   0  0  0  0  0  0  0  0  0  0  0  0
  145.9816  133.5874  151.1511 O   0  0  0  0  0  0  0  0  0  0  0  0
  145.7102  134.9688  151.3315 C   0  0  0  0  0  0  0  0  0  0  0  0
  145.7853  135.3417  152.8238 C   0  0  0  0  0  0  0  0  0  0  0  0
  146.5150  134.5348  155.8461 C   0  0  0  0  0  0  0  0  0  0  0  0
  146.6509  134.9994  157.3099 C   0  0  0  0  0  0  0  0  0  0  0  0
  146.3153  136.4881  157.4716 C   0  0  0  0  0  0  0  0  0  0  0  0
  147.1520  137.3556  156.5221 C   0  0  0  0  0  0  0  0  0  0  0  0
  146.9991  136.8720  155.0682 C   0  0  0  0  0  0  0  0  0  0  0  0
  152.6746  137.7797  154.7522 H   0  0  0  0  0  0  0  0  0  0  0  0
  151.6323  137.7114  153.3650 H   0  0  0  0  0  0  0  0  0  0  0  0
  149.3272  138.5376  153.5865 H   0  0  0  0  0  0  0  0  0  0  0  0
  148.0233  140.6219  154.2652 H   0  0  0  0  0  0  0  0  0  0  0  0
  149.0236  142.0941  155.9618 H   0  0  0  0  0  0  0  0  0  0  0  0
  149.3392  136.8141  153.9278 H   0  0  0  0  0  0  0  0  0  0  0  0
  149.2322  134.2159  154.6912 H   0  0  0  0  0  0  0  0  0  0  0  0
  149.0892  134.9974  156.2080 H   0  0  0  0  0  0  0  0  0  0  0  0
  148.3717  133.2259  153.4445 H   0  0  0  0  0  0  0  0  0  0  0  0
  146.6627  132.8784  153.6216 H   0  0  0  0  0  0  0  0  0  0  0  0
  148.0387  133.8238  151.0513 H   0  0  0  0  0  0  0  0  0  0  0  0
  147.4700  132.1994  151.3917 H   0  0  0  0  0  0  0  0  0  0  0  0
  146.4117  135.5649  150.7462 H   0  0  0  0  0  0  0  0  0  0  0  0
  144.7150  135.1848  150.9423 H   0  0  0  0  0  0  0  0  0  0  0  0
  144.9730  134.8620  153.3706 H   0  0  0  0  0  0  0  0  0  0  0  0
  145.6273  136.4171  152.8701 H   0  0  0  0  0  0  0  0  0  0  0  0
  145.4624  134.5865  155.5667 H   0  0  0  0  0  0  0  0  0  0  0  0
  146.7863  133.4800  155.8046 H   0  0  0  0  0  0  0  0  0  0  0  0
  145.9895  134.4074  157.9434 H   0  0  0  0  0  0  0  0  0  0  0  0
  147.6609  134.8087  157.6727 H   0  0  0  0  0  0  0  0  0  0  0  0
  145.2554  136.6443  157.2661 H   0  0  0  0  0  0  0  0  0  0  0  0
  146.4783  136.7987  158.5040 H   0  0  0  0  0  0  0  0  0  0  0  0
  146.8217  138.3922  156.5958 H   0  0  0  0  0  0  0  0  0  0  0  0
  148.1959  137.3595  156.8320 H   0  0  0  0  0  0  0  0  0  0  0  0
  147.5615  137.5189  154.3954 H   0  0  0  0  0  0  0  0  0  0  0  0
  145.9487  137.0418  154.8383 H   0  0  0  0  0  0  0  0  0  0  0  0
  147.7769  135.4759  152.8742 H   0  0  0  0  0  0  0  0  0  0  0  0
  1  2  2  0  0  0  0
  2  3  1  0  0  0  0
  2 11  1  0  0  0  0
  3  4  1  0  0  0  0
  3 25  1  0  0  0  0
  3 26  1  0  0  0  0
  4  9  1  0  0  0  0
  4  5  1  0  0  0  0
  5  6  2  0  0  0  0
  5 27  1  0  0  0  0
  6  7  1  0  0  0  0
  6 28  1  0  0  0  0
  7  8  2  0  0  0  0
  7 29  1  0  0  0  0
  8  9  1  0  0  0  0
  9 10  2  0  0  0  0
 11 12  1  0  0  0  0
 11 30  1  0  0  0  0
 12 13  1  0  0  0  0
 12 31  1  0  0  0  0
 12 32  1  0  0  0  0
 13 24  1  0  0  0  0
 13 14  1  0  0  0  0
 13 20  1  0  0  0  0
 14 19  1  0  0  0  0
 14 15  1  0  0  0  0
 14 51  1  0  0  0  0
 15 16  1  0  0  0  0
 15 33  1  0  0  0  0
 15 34  1  0  0  0  0
 16 17  1  0  0  0  0
 16 35  1  0  0  0  0
 16 36  1  0  0  0  0
 17 18  1  0  0  0  0
 18 19  1  0  0  0  0
 18 37  1  0  0  0  0
 18 38  1  0  0  0  0
 19 39  1  0  0  0  0
 19 40  1  0  0  0  0
 20 21  1  0  0  0  0
 20 41  1  0  0  0  0
 20 42  1  0  0  0  0
 21 22  1  0  0  0  0
 21 43  1  0  0  0  0
 21 44  1  0  0  0  0
 22 23  1  0  0  0  0
 22 45  1  0  0  0  0
 22 46  1  0  0  0  0
 23 24  1  0  0  0  0
 23 47  1  0  0  0  0
 23 48  1  0  0  0  0
 24 49  1  0  0  0  0
 24 50  1  0  0  0  0
M  CHG  1  14   1
M  END
> <s_m_source_file>
AV-unprocessed.smi

> <i_m_source_file_index>
2049

> <i_lp_mmshare_version>
43012

> <i_f3d_flags>
0

> <s_epik_input>
Tz1jMW5bY0hdW2NIXVtjSF1uMVtDSDJdQyg9TylbTkhdW0NIMl1DMihbQ0gyXVtDSDJdW0NIMl1bQ0gyXVtDSDJdMilOM1tDSDJdW0NIMl1PW0NIMl1bQ0gyXTM=

> <s_epik_cmdline>
J2VwaWtfcHl0aG9uJywgJy1waCcsICc3LjAnLCAnLXRuJywgJzgnLCAnLW1hJywgJzIwMCcsICctbWV0YWxfYmluZGluZycsICctaW1hZScsICc8aW5maWxlLm1hZT4nLCAnLW9tYWUnLCAnPG91dGZpbGUubWFlPic=

> <r_lp_tautomer_probability>
1

> <r_epik_Ionization_Penalty>
0.40042

> <r_epik_Ionization_Penalty_Charging>
0.400415

> <r_epik_Ionization_Penalty_Neutral>
5.09538e-06

> <r_epik_State_Penalty>
0.399732

> <r_epik_Charging_Adjusted_Penalty>
0.800147

> <i_epik_Tot_Q>
1

> <i_epik_Tot_abs_Q>
1

> <r_epik_Metal_State_Penalty>
0.399734

> <b_epik_Metal_Only>
0

> <s_lp_Force_Field>
OPLS_2005

> <r_lp_Energy>
43.1449

> <b_lp_Chiralities_Consistent>
1

> <s_lp_Variant>
AV-unprocessed.smi:2049-1

> <Gold.Version>
5.8.1

> <Gold.Id.Protein>
6NUR|6NUR_protein|mol2

> <Gold.PLP.Fitness>
49.8155

> <Gold.PLP.PLP>
-32.4858

> <Gold.PLP.part.hbond>
-4.0930

> <Gold.PLP.part.metal>
0.0000

> <Gold.PLP.part.buried>
-2.0700

> <Gold.PLP.part.nonpolar>
-27.6335

> <Gold.PLP.part.repulsive>
0.2938

> <Gold.PLP.ligand.clash>
0.0000

> <Gold.PLP.ligand.torsion>
0.7505

> <Gold.PLP.Chemscore.Hbond>
4.4960

> <Gold.PLP.Chemscore.CHOScore>
1.7364

> <Gold.PLP.Chemscore.Metal>
0.0000

> <Gold.Chemscore.Hbonds>
donor molecule, donor type, donor heavy atom, donor atom, acceptor molecule, acceptor atom, score
      L1  H    11    30       P1  7948  0.33
      L1  H    14    51       P1  7948  2.00
      P1  H  7997  8008       L1    10  1.00
      P1  H 10752 10764       L1     1  1.00
      L1  C     5    27       P1  7948  0.14
      L1  C     5    27       P1  7957  0.08
      L1  C     7    29       P1  8028  0.72

> <Gold.PLP.Chemscore.Internal.Correction>
0.1335

> <Gold.Rescore>
     Score         DG    S(hbond)    S(metal)    S(lipo)     H(rot)  DE(clash)    DE(int)     intcor
     16.82     -17.96       3.38        0.00      54.23       2.02       0.16       0.98       ----

> <Gold.Chemscore.Fitness>
16.8200

> <Gold.Chemscore.DG>
-17.9613

> <Gold.Chemscore.ZeroCoef>
-5.4800

> <Gold.Chemscore.Hbond>
3.3824

> <Gold.Chemscore.Metal>
0.0000

> <Gold.Chemscore.Lipo>
54.2336

> <Gold.Chemscore.Internal_Hbond>
0.0000

> <Gold.Chemscore.DEClash>
0.1565

> <Gold.Chemscore.DEInternal>
0.9848

> <Gold.Chemscore.Rot>
2.0162

> <Gold.Chemscore.Internal.Correction>
   9.000000E+99

> <Gold.Chemscore.Hbonds>
donor molecule, donor type, donor heavy atom, donor atom, acceptor molecule, acceptor atom, score
      L1  H    11    30       P1  7948  0.32
      L1  H    14    51       P1  7948  1.00
      P1  H  7997  8008       L1    10  1.00
      P1  H 10752 10764       L1     1  0.40

> <Gold.Chemscore.Hbond.Weighted>
-11.2974

> <Gold.Chemscore.Metal.Weighted>
-0.0000

> <Gold.Chemscore.Lipo.Weighted>
-6.3453

> <Gold.Chemscore.Internal_Hbond.Weighted>
0.0000

> <Gold.Chemscore.DEClash.Weighted>
0.1565

> <Gold.Chemscore.DEInternal.Weighted>
0.9848

> <Gold.Chemscore.Rot.Weighted>
5.1614

> <Gold.Chemscore.Internal.Correction.Weighted>
   9.000000E+99

> <Gold.Protein.RotatedTorsions>
[ 6907 6896 6895 6894 ] final  -69.11 input  -60.11 | X-H torsion
[ 7974 7965 7964 7962 ] final  -14.29 input  175.53 | X-H torsion
[ 8008 7997 7996 7995 ] final  -55.19 input   59.86 | X-H torsion
[ 10167 10162 10161 10158 ] final  100.25 input  -65.29 | X-H torsion
[ 10718 10713 10712 10709 ] final -117.62 input   66.30 | X-H torsion
[ 10763 10752 10751 10750 ] final  -31.24 input  -60.55 | X-H torsion
[ 11005 11000 10999 10996 ] final  103.37 input  -57.11 | X-H torsion

> <Gold.Protein.ActiveResidues>
 VAL166  LYS551  ARG553  GLY616  TRP617  ASP618  TYR619  PRO620  LYS621  CYS622 
 ASP623  PHE694  ASN695  SER759  ASP760  ASP761  ALA762  ILE779  LEU786  VAL792 
 PHE793  MET794  SER795  GLU796  ALA797  LYS798  CYS799  TRP800  GLU811  SER814 

> <Gold.Protein.RotatedAtoms>
  150.7322  134.5643  159.5857 H   0  0  0  0  0  0  0  0  0  0  0  0  # atno 6907 bound_to 6896
  152.3098  134.7508  160.0348 H   0  0  0  0  0  0  0  0  0  0  0  0  # atno 6908 bound_to 6896
  151.8060  133.3340  159.3577 H   0  0  0  0  0  0  0  0  0  0  0  0  # atno 6909 bound_to 6896
  146.2080  140.3327  142.8400 H   0  0  0  0  0  0  0  0  0  0  0  0  # atno 7974 bound_to 7965
  154.4187  140.1159  156.5436 H   0  0  0  0  0  0  0  0  0  0  0  0  # atno 8008 bound_to 7997
  155.6482  140.3496  155.4719 H   0  0  0  0  0  0  0  0  0  0  0  0  # atno 8009 bound_to 7997
  155.9814  140.1161  157.0712 H   0  0  0  0  0  0  0  0  0  0  0  0  # atno 8010 bound_to 7997
  139.7544  144.6974  151.0384 H   0  0  0  0  0  0  0  0  0  0  0  0  # atno 10167 bound_to 10162
  156.1047  130.6200  150.9187 H   0  0  0  0  0  0  0  0  0  0  0  0  # atno 10718 bound_to 10713
  153.7941  135.6895  153.4866 H   0  0  0  0  0  0  0  0  0  0  0  0  # atno 10763 bound_to 10752
  153.1730  135.4535  154.9926 H   0  0  0  0  0  0  0  0  0  0  0  0  # atno 10764 bound_to 10752
  154.8032  135.3346  154.7435 H   0  0  0  0  0  0  0  0  0  0  0  0  # atno 10765 bound_to 10752
  139.8783  134.9260  156.5199 H   0  0  0  0  0  0  0  0  0  0  0  0  # atno 11005 bound_to 11000
  144.8841  140.7439  143.5968 LP  0  0  0  0  0  0  0  0  0  0  0  0  # atno 17320 bound_to 7965
  145.3248  139.1777  143.4568 LP  0  0  0  0  0  0  0  0  0  0  0  0  # atno 17321 bound_to 7965
  140.7801  143.4770  151.0069 LP  0  0  0  0  0  0  0  0  0  0  0  0  # atno 17342 bound_to 10162
  139.8457  143.7504  152.3179 LP  0  0  0  0  0  0  0  0  0  0  0  0  # atno 17343 bound_to 10162
  157.6222  131.0928  150.8601 LP  0  0  0  0  0  0  0  0  0  0  0  0  # atno 17370 bound_to 10713
  156.8722  130.5150  149.5296 LP  0  0  0  0  0  0  0  0  0  0  0  0  # atno 17371 bound_to 10713
  140.8458  133.8170  155.9119 LP  0  0  0  0  0  0  0  0  0  0  0  0  # atno 17394 bound_to 11000
  140.9193  134.2162  157.4937 LP  0  0  0  0  0  0  0  0  0  0  0  0  # atno 17395 bound_to 11000

$$$$
