#       Name:                AV-unprocessed.smi:264
#       Creating user name   scv26
#       Creation time:       Thu Mar 26 21:20:38 2020


#       File generated by GOLD software.
#

@<TRIPOS>MOLECULE
AV-unprocessed.smi:264
    64    68     1
SMALL
NO_CHARGES


@<TRIPOS>ATOM
      1 ****        -3.3059  -0.6536  -1.8359 C.3            1 S1                 0.0000
      2 ****        -2.6829  -1.6922  -2.7827 C.3            1 S1                 0.0000
      3 ****        -3.6912  -2.4962  -3.3776 O.3            1 S1                 0.0000
      4 ****        -3.1037  -3.1371  -4.4951 C.3            1 S1                 0.0000
      5 ****        -2.3105  -2.0127  -5.1498 C.3            1 S1                 0.0000
      6 ****        -1.8435  -1.1524  -3.9712 C.3            1 S1                 0.0000
      7 ****        -2.1543   0.2003  -4.2630 O.3            1 S1                 0.0000
      8 ****        -0.3158  -1.2602  -3.7403 C.3            1 S1                 0.0000
      9 ****         0.1470  -0.5429  -2.5613 N.pl3          1 S1                 0.0000
     10 ****         0.3935   0.8080  -2.4621 C.2            1 S1                 0.0000
     11 ****         0.7958   1.2165  -1.2902 N.2            1 S1                 0.0000
     12 ****         0.8455   0.0578  -0.5244 C.ar           1 S1                 0.0000
     13 ****         1.1918  -0.2225   0.8279 C.ar           1 S1                 0.0000
     14 ****         1.6017   0.7388   1.6939 N.3            1 S1                 0.0000
     15 ****         2.8408   1.4119   1.3254 C.3            1 S1                 0.0000
     16 ****         3.0062   2.6912   2.1571 C.3            1 S1                 0.0000
     17 ****         2.9332   2.3870   3.5495 O.3            1 S1                 0.0000
     18 ****         1.7178   1.7485   3.9533 C.3            1 S1                 0.0000
     19 ****         1.8308   1.4310   5.4412 C.3            1 S1                 0.0000
     20 ****         0.4144   1.6449   5.9527 C.3            1 S1                 0.0000
     21 ****         0.0107   2.8018   5.2447 O.3            1 S1                 0.0000
     22 ****         0.4958   2.6967   3.9112 C.3            1 S1                 0.0000
     23 ****         1.5131   0.4586   3.1243 C.3            1 S1                 0.0000
     24 ****         1.0968  -1.5149   1.2412 N.ar           1 S1                 0.0000
     25 ****         0.7046  -2.4691   0.3923 C.ar           1 S1                 0.0000
     26 ****         0.3606  -2.3534  -0.8914 N.ar           1 S1                 0.0000
     27 ****         0.4406  -1.0582  -1.3104 C.ar           1 S1                 0.0000
     28 ****        -2.5407  -0.0166  -1.3918 H              1 S1                 0.0000
     29 ****        -3.8383  -1.1458  -1.0220 H              1 S1                 0.0000
     30 ****        -4.0196  -0.0140  -2.3556 H              1 S1                 0.0000
     31 ****        -2.0717  -2.3743  -2.1911 H              1 S1                 0.0000
     32 ****        -2.4438  -3.9381  -4.1578 H              1 S1                 0.0000
     33 ****        -3.8567  -3.5642  -5.1577 H              1 S1                 0.0000
     34 ****        -1.4926  -2.3904  -5.7645 H              1 S1                 0.0000
     35 ****        -2.9772  -1.4506  -5.8063 H              1 S1                 0.0000
     36 ****        -1.7010   0.4485  -5.0539 H              1 S1                 0.0000
     37 ****        -0.0265  -2.3072  -3.6394 H              1 S1                 0.0000
     38 ****         0.2276  -0.8788  -4.6060 H              1 S1                 0.0000
     39 ****         0.2560   1.4879  -3.2904 H              1 S1                 0.0000
     40 ****         3.6780   0.7371   1.5091 H              1 S1                 0.0000
     41 ****         2.8640   1.6625   0.2656 H              1 S1                 0.0000
     42 ****         3.9739   3.1476   1.9493 H              1 S1                 0.0000
     43 ****         2.2504   3.4262   1.8801 H              1 S1                 0.0000
     44 ****         2.2128   0.4313   5.6502 H              1 S1                 0.0000
     45 ****         2.4946   2.1464   5.9294 H              1 S1                 0.0000
     46 ****        -0.2315   0.8049   5.6921 H              1 S1                 0.0000
     47 ****         0.3719   1.7964   7.0314 H              1 S1                 0.0000
     48 ****         0.7420   3.6947   3.5497 H              1 S1                 0.0000
     49 ****        -0.2949   2.3003   3.2732 H              1 S1                 0.0000
     50 ****         0.5483   0.0089   3.3638 H              1 S1                 0.0000
     51 ****         2.2806  -0.2730   3.3823 H              1 S1                 0.0000
     52 ****         0.6603  -3.4681   0.8002 H              1 S1                 0.0000
     53 ****        -4.4567  -1.9244  -3.6728 LP             1 S1                 0.0000
     54 ****        -4.0175  -3.1780  -2.7229 LP             1 S1                 0.0000
     55 ****        -1.8587   0.7848  -3.5073 LP             1 S1                 0.0000
     56 ****        -3.1407   0.2989  -4.3945 LP             1 S1                 0.0000
     57 ****         1.0177   2.1498  -1.0076 LP             1 S1                 0.0000
     58 ****         0.8648   1.4014   1.5599 LP             1 S1                 0.0000
     59 ****         3.0223   3.2415   4.0612 LP             1 S1                 0.0000
     60 ****         3.6953   1.7810   3.7774 LP             1 S1                 0.0000
     61 ****         0.3927   3.6165   5.6810 LP             1 S1                 0.0000
     62 ****        -0.9873   2.8641   5.2383 LP             1 S1                 0.0000
     63 ****         1.3219  -1.7523   2.1862 LP             1 S1                 0.0000
     64 ****         0.0802  -3.1180  -1.4717 LP             1 S1                 0.0000
@<TRIPOS>BOND
    1    1    2 1     
    2    1   28 1     
    3    1   29 1     
    4    1   30 1     
    5    2    6 1     
    6    2    3 1     
    7    2   31 1     
    8    3    4 1     
    9    4    5 1     
   10    4   32 1     
   11    4   33 1     
   12    5    6 1     
   13    5   34 1     
   14    5   35 1     
   15    6    7 1     
   16    6    8 1     
   17    7   36 1     
   18    8    9 1     
   19    8   37 1     
   20    8   38 1     
   21    9   27 1     
   22    9   10 1     
   23   10   11 2     
   24   10   39 1     
   25   11   12 1     
   26   12   27 ar    
   27   12   13 ar    
   28   13   14 1     
   29   13   24 ar    
   30   14   23 1     
   31   14   15 1     
   32   15   16 1     
   33   15   40 1     
   34   15   41 1     
   35   16   17 1     
   36   16   42 1     
   37   16   43 1     
   38   17   18 1     
   39   18   22 1     
   40   18   19 1     
   41   18   23 1     
   42   19   20 1     
   43   19   44 1     
   44   19   45 1     
   45   20   21 1     
   46   20   46 1     
   47   20   47 1     
   48   21   22 1     
   49   22   48 1     
   50   22   49 1     
   51   23   50 1     
   52   23   51 1     
   53   24   25 ar    
   54   25   26 ar    
   55   25   52 1     
   56   26   27 ar    
   57    3   53 1     
   58    3   54 1     
   59    7   55 1     
   60    7   56 1     
   61   11   57 1     
   62   14   58 1     
   63   17   59 1     
   64   17   60 1     
   65   21   61 1     
   66   21   62 1     
   67   24   63 1     
   68   26   64 1     
@<TRIPOS>SUBSTRUCTURE
      1 S1             1
@<TRIPOS>SET
LONE_PAIRS      STATIC     ATOMS    <user>   **** ""
12 53 54 55 56 57 58 59 60 61 62 63 64
DONOR_HYDROGENS      STATIC     ATOMS    <user>   **** ""
1 36
ATOM$BLUE        STATIC     ATOMS    COLORGROUP SYSTEM
12 53 54 55 56 57 58 59 60 61 62 63 64
ATOM$RED        STATIC     ATOMS    COLORGROUP SYSTEM
1 36
