#       Name:                AV-unprocessed.smi:103
#       Creating user name   scv26
#       Creation time:       Thu Mar 26 17:55:57 2020


#       File generated by GOLD software.
#

@<TRIPOS>MOLECULE
AV-unprocessed.smi:103
    64    66     1
SMALL
NO_CHARGES


@<TRIPOS>ATOM
      1 ****        -3.6634   4.6515   1.5062 C.3            1 S1                 0.0000
      2 ****        -3.2576   3.9151   0.2362 C.2            1 S1                 0.0000
      3 ****        -3.3982   4.4250  -0.8755 O.2            1 S1                 0.0000
      4 ****        -2.7512   2.6985   0.4885 O.3            1 S1                 0.0000
      5 ****        -2.3196   1.8843  -0.5892 C.3            1 S1                 0.0000
      6 ****        -1.8113   0.5402  -0.0484 C.3            1 S1                 0.0000
      7 ****        -0.5409   0.6845   0.5687 O.3            1 S1                 0.0000
      8 ****         0.0255  -0.5799   0.6760 C.3            1 S1                 0.0000
      9 ****         1.5114  -0.4277   0.7108 N.pl3          1 S1                 0.0000
     10 ****         2.4454  -1.0081   1.5452 C.2            1 S1                 0.0000
     11 ****         2.1121  -2.1317   2.8967 S.o2           1 S1                 0.0000
     12 ****         1.5188  -0.9858   4.2062 C.3            1 S1                 0.0000
     13 ****         1.0039  -3.0008   2.4732 O.2            1 S1                 0.0000
     14 ****         3.4021  -2.7104   3.3041 O.2            1 S1                 0.0000
     15 ****         3.6855  -0.6315   1.3862 N.2            1 S1                 0.0000
     16 ****         3.6145   0.2377   0.3064 C.ar           1 S1                 0.0000
     17 ****         4.5720   0.9917  -0.4177 C.ar           1 S1                 0.0000
     18 ****         5.8810   0.9802  -0.1307 N.pl3          1 S1                 0.0000
     19 ****         4.1461   1.7590  -1.4483 N.ar           1 S1                 0.0000
     20 ****         2.8449   1.7886  -1.7546 C.ar           1 S1                 0.0000
     21 ****         1.8335   1.1429  -1.1680 N.ar           1 S1                 0.0000
     22 ****         2.2647   0.3679  -0.1291 C.ar           1 S1                 0.0000
     23 ****        -0.4096  -1.3608  -0.5742 C.3            1 S1                 0.0000
     24 ****        -0.6628  -2.7460  -0.3219 O.3            1 S1                 0.0000
     25 ****        -1.6477  -3.1900   0.4906 C.2            1 S1                 0.0000
     26 ****        -1.6781  -4.7096   0.5772 C.3            1 S1                 0.0000
     27 ****        -2.4475  -2.4979   1.1193 O.2            1 S1                 0.0000
     28 ****        -1.5966  -0.5521  -1.1105 C.3            1 S1                 0.0000
     29 ****        -1.2602   0.0123  -2.3738 O.3            1 S1                 0.0000
     30 ****        -1.4294  -0.6989  -3.5017 C.2            1 S1                 0.0000
     31 ****        -1.0106   0.0766  -4.7430 C.3            1 S1                 0.0000
     32 ****        -1.8644  -1.8482  -3.5761 O.2            1 S1                 0.0000
     33 ****        -4.2046   3.9849   2.1775 H              1 S1                 0.0000
     34 ****        -4.3078   5.4982   1.2682 H              1 S1                 0.0000
     35 ****        -2.7796   5.0240   2.0243 H              1 S1                 0.0000
     36 ****        -3.1633   1.7142  -1.2598 H              1 S1                 0.0000
     37 ****        -1.5397   2.3887  -1.1616 H              1 S1                 0.0000
     38 ****        -2.5097   0.1619   0.6997 H              1 S1                 0.0000
     39 ****        -0.2661  -1.0225   1.6259 H              1 S1                 0.0000
     40 ****         1.2761  -1.5556   5.1027 H              1 S1                 0.0000
     41 ****         0.6306  -0.4592   3.8589 H              1 S1                 0.0000
     42 ****         2.3015  -0.2632   4.4368 H              1 S1                 0.0000
     43 ****         6.2244   0.4153   0.6330 H              1 S1                 0.0000
     44 ****         6.5223   1.5347  -0.6793 H              1 S1                 0.0000
     45 ****         2.5747   2.4216  -2.5868 H              1 S1                 0.0000
     46 ****         0.4024  -1.3160  -1.3008 H              1 S1                 0.0000
     47 ****        -1.7426  -5.1460  -0.4197 H              1 S1                 0.0000
     48 ****        -2.5387  -5.0436   1.1572 H              1 S1                 0.0000
     49 ****        -0.7724  -5.0771   1.0598 H              1 S1                 0.0000
     50 ****        -2.5041  -1.1501  -1.2063 H              1 S1                 0.0000
     51 ****        -1.5747   1.0064  -4.8170 H              1 S1                 0.0000
     52 ****        -1.1943  -0.5118  -5.6421 H              1 S1                 0.0000
     53 ****         0.0518   0.3170  -4.6981 H              1 S1                 0.0000
     54 ****        -3.7864   5.3428  -0.9592 LP             1 S1                 0.0000
     55 ****        -3.1241   3.9215  -1.6949 LP             1 S1                 0.0000
     56 ****        -0.6480   1.0875   1.4776 LP             1 S1                 0.0000
     57 ****         0.0438   1.2729   0.0101 LP             1 S1                 0.0000
     58 ****         4.4904  -0.9031   1.9138 LP             1 S1                 0.0000
     59 ****         4.8002   2.3001  -1.9770 LP             1 S1                 0.0000
     60 ****         0.8783   1.2177  -1.4542 LP             1 S1                 0.0000
     61 ****        -2.4045  -1.5009   1.0549 LP             1 S1                 0.0000
     62 ****        -3.1405  -2.9324   1.6946 LP             1 S1                 0.0000
     63 ****        -2.1292  -2.3373  -2.7451 LP             1 S1                 0.0000
     64 ****        -1.9528  -2.2926  -4.4676 LP             1 S1                 0.0000
@<TRIPOS>BOND
    1    1    2 1     
    2    1   33 1     
    3    1   34 1     
    4    1   35 1     
    5    2    3 2     
    6    2    4 1     
    7    4    5 1     
    8    5    6 1     
    9    5   36 1     
   10    5   37 1     
   11    6   28 1     
   12    6    7 1     
   13    6   38 1     
   14    7    8 1     
   15    8    9 1     
   16    8   23 1     
   17    8   39 1     
   18    9   22 1     
   19    9   10 1     
   20   10   11 1     
   21   10   15 2     
   22   11   12 1     
   23   11   13 2     
   24   11   14 2     
   25   12   40 1     
   26   12   41 1     
   27   12   42 1     
   28   15   16 1     
   29   16   22 ar    
   30   16   17 ar    
   31   17   18 1     
   32   17   19 ar    
   33   18   43 1     
   34   18   44 1     
   35   19   20 ar    
   36   20   21 ar    
   37   20   45 1     
   38   21   22 ar    
   39   23   24 1     
   40   23   28 1     
   41   23   46 1     
   42   24   25 1     
   43   25   26 1     
   44   25   27 2     
   45   26   47 1     
   46   26   48 1     
   47   26   49 1     
   48   28   29 1     
   49   28   50 1     
   50   29   30 1     
   51   30   31 1     
   52   30   32 2     
   53   31   51 1     
   54   31   52 1     
   55   31   53 1     
   56    3   54 1     
   57    3   55 1     
   58    7   56 1     
   59    7   57 1     
   60   15   58 1     
   61   19   59 1     
   62   21   60 1     
   63   27   61 1     
   64   27   62 1     
   65   32   63 1     
   66   32   64 1     
@<TRIPOS>SUBSTRUCTURE
      1 S1             1
@<TRIPOS>SET
LONE_PAIRS      STATIC     ATOMS    <user>   **** ""
13 54 55 56 57 13 14 58 59 60 61 62 63 64
DONOR_HYDROGENS      STATIC     ATOMS    <user>   **** ""
2 43 44
ATOM$BLUE        STATIC     ATOMS    COLORGROUP SYSTEM
13 54 55 56 57 13 14 58 59 60 61 62 63 64
ATOM$RED        STATIC     ATOMS    COLORGROUP SYSTEM
2 43 44
