AV-unprocessed.smi:2528|AV-procd|sdf|9957|dock6
  -GOLD-   2272013593D 1   1.00000     0.00000
 Structure written by MMmdl.
 43 45  0  0  0  0  0  0  0  0  1 V2000
  148.7067  133.5777  155.3435 O   0  0  0  0  0  0  0  0  0  0  0  0
  148.5216  134.3701  154.4198 C   0  0  0  0  0  0  0  0  0  0  0  0
  149.0560  135.5991  154.3780 N   0  0  0  0  0  0  0  0  0  0  0  0
  149.9437  136.1717  155.3850 C   0  0  0  0  0  0  0  0  0  0  0  0
  151.0910  136.9729  154.7334 C   0  0  1  0  0  0  0  0  0  0  0  0
  150.6484  138.3542  154.2109 C   0  0  0  0  0  0  0  0  0  0  0  0
  150.4212  139.3214  155.2782 N   0  0  0  0  0  0  0  0  0  0  0  0
  150.0324  140.6221  154.7340 C   0  0  0  0  0  0  0  0  0  0  0  0
  149.7594  141.6624  155.8314 C   0  0  0  0  0  0  0  0  0  0  0  0
  150.9893  141.8141  156.7371 C   0  0  0  0  0  0  0  0  0  0  0  0
  151.4222  140.4394  157.2683 C   0  0  0  0  0  0  0  0  0  0  0  0
  151.6200  139.4354  156.1133 C   0  0  1  0  0  0  0  0  0  0  0  0
  152.0358  138.0588  156.6656 C   0  0  0  0  0  0  0  0  0  0  0  0
  152.2152  137.1267  155.6017 O   0  0  0  0  0  0  0  0  0  0  0  0
  147.7704  134.1306  153.3304 N   0  0  0  0  0  0  0  0  0  0  0  0
  147.0380  132.9565  153.0085 C   0  0  0  0  0  0  0  0  0  0  0  0
  146.3388  133.0046  151.7810 C   0  0  0  0  0  0  0  0  0  0  0  0
  145.5800  131.8911  151.3710 C   0  0  0  0  0  0  0  0  0  0  0  0
  145.5398  130.7560  152.2002 C   0  0  0  0  0  0  0  0  0  0  0  0
  146.2641  130.7899  153.4060 C   0  0  0  0  0  0  0  0  0  0  0  0
  146.9916  131.8561  153.8007 N   0  0  0  0  0  0  0  0  0  0  0  0
  148.8468  136.1798  153.5794 H   0  0  0  0  0  0  0  0  0  0  0  0
  149.3414  136.8412  155.9994 H   0  0  0  0  0  0  0  0  0  0  0  0
  150.3213  135.4064  156.0642 H   0  0  0  0  0  0  0  0  0  0  0  0
  151.4401  136.3975  153.8751 H   0  0  0  0  0  0  0  0  0  0  0  0
  151.4201  138.7348  153.5400 H   0  0  0  0  0  0  0  0  0  0  0  0
  149.7462  138.2469  153.6074 H   0  0  0  0  0  0  0  0  0  0  0  0
  150.8149  140.9947  154.0709 H   0  0  0  0  0  0  0  0  0  0  0  0
  149.1373  140.5094  154.1212 H   0  0  0  0  0  0  0  0  0  0  0  0
  149.5007  142.6226  155.3843 H   0  0  0  0  0  0  0  0  0  0  0  0
  148.8989  141.3520  156.4257 H   0  0  0  0  0  0  0  0  0  0  0  0
  151.8074  142.2626  156.1723 H   0  0  0  0  0  0  0  0  0  0  0  0
  150.7715  142.4896  157.5647 H   0  0  0  0  0  0  0  0  0  0  0  0
  152.3438  140.5400  157.8428 H   0  0  0  0  0  0  0  0  0  0  0  0
  150.6656  140.0634  157.9586 H   0  0  0  0  0  0  0  0  0  0  0  0
  152.4398  139.8010  155.4922 H   0  0  0  0  0  0  0  0  0  0  0  0
  152.9742  138.1379  157.2145 H   0  0  0  0  0  0  0  0  0  0  0  0
  151.2939  137.6881  157.3725 H   0  0  0  0  0  0  0  0  0  0  0  0
  147.7155  134.8756  152.6522 H   0  0  0  0  0  0  0  0  0  0  0  0
  146.3806  133.8848  151.1559 H   0  0  0  0  0  0  0  0  0  0  0  0
  145.0389  131.9082  150.4368 H   0  0  0  0  0  0  0  0  0  0  0  0
  144.9690  129.8829  151.9203 H   0  0  0  0  0  0  0  0  0  0  0  0
  146.2593  129.9395  154.0715 H   0  0  0  0  0  0  0  0  0  0  0  0
  1  2  2  0  0  0  0
  2  3  1  0  0  0  0
  2 15  1  0  0  0  0
  3  4  1  0  0  0  0
  3 22  1  0  0  0  0
  4  5  1  0  0  0  0
  4 23  1  0  0  0  0
  4 24  1  0  0  0  0
  5 14  1  0  0  0  0
  5  6  1  0  0  0  0
  5 25  1  0  0  0  0
  6  7  1  0  0  0  0
  6 26  1  0  0  0  0
  6 27  1  0  0  0  0
  7 12  1  0  0  0  0
  7  8  1  0  0  0  0
  8  9  1  0  0  0  0
  8 28  1  0  0  0  0
  8 29  1  0  0  0  0
  9 10  1  0  0  0  0
  9 30  1  0  0  0  0
  9 31  1  0  0  0  0
 10 11  1  0  0  0  0
 10 32  1  0  0  0  0
 10 33  1  0  0  0  0
 11 12  1  0  0  0  0
 11 34  1  0  0  0  0
 11 35  1  0  0  0  0
 12 13  1  0  0  0  0
 12 36  1  0  0  0  0
 13 14  1  0  0  0  0
 13 37  1  0  0  0  0
 13 38  1  0  0  0  0
 15 16  1  0  0  0  0
 15 39  1  0  0  0  0
 16 21  1  0  0  0  0
 16 17  2  0  0  0  0
 17 18  1  0  0  0  0
 17 40  1  0  0  0  0
 18 19  2  0  0  0  0
 18 41  1  0  0  0  0
 19 20  1  0  0  0  0
 19 42  1  0  0  0  0
 20 21  2  0  0  0  0
 20 43  1  0  0  0  0
M  END
> <s_m_source_file>
AV-unprocessed.smi

> <i_m_source_file_index>
2528

> <i_lp_mmshare_version>
43012

> <i_f3d_flags>
0

> <s_epik_input>
bjFbY0hdW2NIXVtjSF1bY0hdYzFbTkhdQyg9TylbTkhdW0NIMl1bQ0BIXShbQ0gyXTIpT1tDSDJdW0NAQEhdKE4yMylbQ0gyXVtDSDJdW0NIMl1bQ0gyXTM=

> <s_epik_cmdline>
J2VwaWtfcHl0aG9uJywgJy1waCcsICc3LjAnLCAnLXRuJywgJzgnLCAnLW1hJywgJzIwMCcsICctbWV0YWxfYmluZGluZycsICctaW1hZScsICc8aW5maWxlLm1hZT4nLCAnLW9tYWUnLCAnPG91dGZpbGUubWFlPic=

> <r_epik_Ionization_Penalty>
1.14192

> <r_epik_Ionization_Penalty_Charging>
0

> <r_epik_Ionization_Penalty_Neutral>
1.14192

> <r_epik_State_Penalty>
1.20248

> <r_epik_Charging_Adjusted_Penalty>
1.20248

> <i_epik_Tot_Q>
0

> <i_epik_Tot_abs_Q>
0

> <r_epik_Metal_State_Penalty>
1.20248

> <b_epik_Metal_Only>
0

> <s_lp_Force_Field>
OPLS_2005

> <r_lp_Energy>
38.6775

> <b_lp_Chiralities_Consistent>
1

> <s_lp_Variant>
AV-unprocessed.smi:2528-10

> <Gold.Version>
5.8.1

> <Gold.Id.Protein>
6NUR|6NUR_protein|mol2

> <Gold.PLP.Fitness>
39.5175

> <Gold.PLP.PLP>
-33.4215

> <Gold.PLP.part.hbond>
-3.0000

> <Gold.PLP.part.metal>
0.0000

> <Gold.PLP.part.buried>
-1.6645

> <Gold.PLP.part.nonpolar>
-29.5136

> <Gold.PLP.part.repulsive>
0.2059

> <Gold.PLP.ligand.clash>
0.0000

> <Gold.PLP.ligand.torsion>
0.3066

> <Gold.PLP.Chemscore.Hbond>
2.2336

> <Gold.PLP.Chemscore.CHOScore>
0.0000

> <Gold.PLP.Chemscore.Metal>
0.0000

> <Gold.Chemscore.Hbonds>
donor molecule, donor type, donor heavy atom, donor atom, acceptor molecule, acceptor atom, score
      L1  H     3    22       P1  7948  0.83
      L1  H    15    39       P1  7948  0.74
      P1  H 10752 10764       L1    14  0.64

> <Gold.PLP.Chemscore.Internal.Correction>
0.0085

> <Gold.Rescore>
     Score         DG    S(hbond)    S(metal)    S(lipo)     H(rot)  DE(clash)    DE(int)     intcor
     15.47     -17.06       1.56        0.00      82.37       1.27       0.02       1.57       ----

> <Gold.Chemscore.Fitness>
15.4745

> <Gold.Chemscore.DG>
-17.0641

> <Gold.Chemscore.ZeroCoef>
-5.4800

> <Gold.Chemscore.Hbond>
1.5559

> <Gold.Chemscore.Metal>
0.0000

> <Gold.Chemscore.Lipo>
82.3734

> <Gold.Chemscore.Internal_Hbond>
0.0000

> <Gold.Chemscore.DEClash>
0.0172

> <Gold.Chemscore.DEInternal>
1.5724

> <Gold.Chemscore.Rot>
1.2696

> <Gold.Chemscore.Internal.Correction>
   9.000000E+99

> <Gold.Chemscore.Hbonds>
donor molecule, donor type, donor heavy atom, donor atom, acceptor molecule, acceptor atom, score
      L1  H     3    22       P1  7948  0.81
      L1  H    15    39       P1  7948  0.68
      P1  H 10752 10764       L1    14  0.09

> <Gold.Chemscore.Hbond.Weighted>
-5.1966

> <Gold.Chemscore.Metal.Weighted>
-0.0000

> <Gold.Chemscore.Lipo.Weighted>
-9.6377

> <Gold.Chemscore.Internal_Hbond.Weighted>
0.0000

> <Gold.Chemscore.DEClash.Weighted>
0.0172

> <Gold.Chemscore.DEInternal.Weighted>
1.5724

> <Gold.Chemscore.Rot.Weighted>
3.2502

> <Gold.Chemscore.Internal.Correction.Weighted>
   9.000000E+99

> <Gold.Protein.RotatedTorsions>
[ 6907 6896 6895 6894 ] final  161.31 input  -60.11 | X-H torsion
[ 7974 7965 7964 7962 ] final   -4.17 input  175.53 | X-H torsion
[ 8008 7997 7996 7995 ] final  -58.00 input   59.86 | X-H torsion
[ 10167 10162 10161 10158 ] final -151.69 input  -65.29 | X-H torsion
[ 10718 10713 10712 10709 ] final  131.94 input   66.30 | X-H torsion
[ 10763 10752 10751 10750 ] final  -30.41 input  -60.55 | X-H torsion
[ 11005 11000 10999 10996 ] final   31.97 input  -57.11 | X-H torsion

> <Gold.Protein.ActiveResidues>
 VAL166  LYS551  ARG553  GLY616  TRP617  ASP618  TYR619  PRO620  LYS621  CYS622 
 ASP623  PHE694  ASN695  SER759  ASP760  ASP761  ALA762  ILE779  LEU786  VAL792 
 PHE793  MET794  SER795  GLU796  ALA797  LYS798  CYS799  TRP800  GLU811  SER814 

> <Gold.Protein.RotatedAtoms>
  151.9575  133.3685  159.4022 H   0  0  0  0  0  0  0  0  0  0  0  0  # atno 6907 bound_to 6896
  150.6970  134.4275  159.5242 H   0  0  0  0  0  0  0  0  0  0  0  0  # atno 6908 bound_to 6896
  152.1958  134.8631  160.0563 H   0  0  0  0  0  0  0  0  0  0  0  0  # atno 6909 bound_to 6896
  146.2377  140.1830  142.8332 H   0  0  0  0  0  0  0  0  0  0  0  0  # atno 7974 bound_to 7965
  154.4291  140.1094  156.5887 H   0  0  0  0  0  0  0  0  0  0  0  0  # atno 8008 bound_to 7997
  155.6035  140.3493  155.4582 H   0  0  0  0  0  0  0  0  0  0  0  0  # atno 8009 bound_to 7997
  156.0155  140.1228  157.0400 H   0  0  0  0  0  0  0  0  0  0  0  0  # atno 8010 bound_to 7997
  139.7246  143.8904  152.2515 H   0  0  0  0  0  0  0  0  0  0  0  0  # atno 10167 bound_to 10162
  157.4919  131.1091  150.9544 H   0  0  0  0  0  0  0  0  0  0  0  0  # atno 10718 bound_to 10713
  153.7804  135.6905  153.4889 H   0  0  0  0  0  0  0  0  0  0  0  0  # atno 10763 bound_to 10752
  153.1815  135.4504  155.0032 H   0  0  0  0  0  0  0  0  0  0  0  0  # atno 10764 bound_to 10752
  154.8083  135.3366  154.7308 H   0  0  0  0  0  0  0  0  0  0  0  0  # atno 10765 bound_to 10752
  140.2783  134.3002  155.7808 H   0  0  0  0  0  0  0  0  0  0  0  0  # atno 11005 bound_to 11000
  144.9919  140.8554  143.5334 LP  0  0  0  0  0  0  0  0  0  0  0  0  # atno 17320 bound_to 7965
  145.1837  139.2338  143.5279 LP  0  0  0  0  0  0  0  0  0  0  0  0  # atno 17321 bound_to 7965
  139.8809  144.7018  150.8879 LP  0  0  0  0  0  0  0  0  0  0  0  0  # atno 17342 bound_to 10162
  140.7760  143.3662  151.1735 LP  0  0  0  0  0  0  0  0  0  0  0  0  # atno 17343 bound_to 10162
  157.0243  130.5686  149.5335 LP  0  0  0  0  0  0  0  0  0  0  0  0  # atno 17370 bound_to 10713
  156.0178  130.5273  150.8188 LP  0  0  0  0  0  0  0  0  0  0  0  0  # atno 17371 bound_to 10713
  141.2167  133.7509  156.9441 LP  0  0  0  0  0  0  0  0  0  0  0  0  # atno 17394 bound_to 11000
  140.1308  134.9357  157.2334 LP  0  0  0  0  0  0  0  0  0  0  0  0  # atno 17395 bound_to 11000

$$$$
