#       Name:                AV-unprocessed.smi:670
#       Creating user name   scv26
#       Creation time:       Fri Mar 27 00:23:05 2020


#       File generated by GOLD software.
#

@<TRIPOS>MOLECULE
AV-unprocessed.smi:670
    54    55     1
SMALL
NO_CHARGES


@<TRIPOS>ATOM
      1 ****        -1.3561   1.4852  -0.8566 C.3            1 S1                 0.0000
      2 ****        -2.4444   1.3329   0.2191 C.3            1 S1                 0.0000
      3 ****        -3.8360   1.1949  -0.4306 C.3            1 S1                 0.0000
      4 ****        -4.9431   1.0283   0.6213 C.3            1 S1                 0.0000
      5 ****        -4.6550  -0.1678   1.5393 C.3            1 S1                 0.0000
      6 ****        -3.2768  -0.0330   2.2032 C.3            1 S1                 0.0000
      7 ****        -2.1574   0.1369   1.1548 C.3            1 S1                 0.0000
      8 ****        -0.9214   0.3900   1.8108 O.3            1 S1                 0.0000
      9 ****        -0.2488  -0.7709   2.2765 C.3            1 S1                 0.0000
     10 ****         1.1273  -0.3572   2.8176 C.3            1 S1                 0.0000
     11 ****         1.9489   0.2528   1.7779 N.am           1 S1                 0.0000
     12 ****         2.5938  -0.4159   0.8105 C.2            1 S1                 0.0000
     13 ****         2.5934  -1.6449   0.7252 O.2            1 S1                 0.0000
     14 ****         3.3648   0.4436  -0.2020 C.3            1 S1                 0.0000
     15 ****         3.5820  -0.2291  -1.4909 N.am           1 S1                 0.0000
     16 ****         4.8534  -0.7606  -1.6458 N.2            1 S1                 0.0000
     17 ****         5.1621  -1.3890  -2.7296 C.2            1 S1                 0.0000
     18 ****         6.4314  -1.9019  -2.8405 O.3            1 S1                 0.0000
     19 ****         4.2029  -1.5503  -3.8004 C.2            1 S1                 0.0000
     20 ****         2.9688  -1.0236  -3.6428 C.2            1 S1                 0.0000
     21 ****         2.5860  -0.3040  -2.4266 C.2            1 S1                 0.0000
     22 ****         1.4710   0.1889  -2.2585 O.2            1 S1                 0.0000
     23 ****         6.4617  -2.3190  -3.6877 H              1 S1                 0.0000
     24 ****        -1.2982   0.5986  -1.4889 H              1 S1                 0.0000
     25 ****        -0.3726   1.6387  -0.4112 H              1 S1                 0.0000
     26 ****        -1.5581   2.3406  -1.5013 H              1 S1                 0.0000
     27 ****        -2.4455   2.2427   0.8215 H              1 S1                 0.0000
     28 ****        -4.0488   2.0698  -1.0458 H              1 S1                 0.0000
     29 ****        -3.8447   0.3364  -1.1037 H              1 S1                 0.0000
     30 ****        -5.0222   1.9382   1.2176 H              1 S1                 0.0000
     31 ****        -5.9070   0.8958   0.1292 H              1 S1                 0.0000
     32 ****        -5.4297  -0.2472   2.3024 H              1 S1                 0.0000
     33 ****        -4.6938  -1.0915   0.9607 H              1 S1                 0.0000
     34 ****        -3.2810   0.8257   2.8759 H              1 S1                 0.0000
     35 ****        -3.0909  -0.9095   2.8237 H              1 S1                 0.0000
     36 ****        -2.0856  -0.7659   0.5449 H              1 S1                 0.0000
     37 ****        -0.8256  -1.2510   3.0669 H              1 S1                 0.0000
     38 ****        -0.1333  -1.4977   1.4711 H              1 S1                 0.0000
     39 ****         1.0067   0.3612   3.6286 H              1 S1                 0.0000
     40 ****         1.6425  -1.2210   3.2408 H              1 S1                 0.0000
     41 ****         2.0039   1.2610   1.7758 H              1 S1                 0.0000
     42 ****         2.8345   1.3847  -0.3612 H              1 S1                 0.0000
     43 ****         4.3209   0.7184   0.2472 H              1 S1                 0.0000
     44 ****         4.4751  -2.0798  -4.7017 H              1 S1                 0.0000
     45 ****         2.2427  -1.1359  -4.4345 H              1 S1                 0.0000
     46 ****        -1.1010   0.9822   2.5962 LP             1 S1                 0.0000
     47 ****        -0.3185   0.8627   1.1680 LP             1 S1                 0.0000
     48 ****         2.0956  -2.1926   1.3976 LP             1 S1                 0.0000
     49 ****         3.0910  -2.0948  -0.0165 LP             1 S1                 0.0000
     50 ****         5.5310  -0.6568  -0.9177 LP             1 S1                 0.0000
     51 ****         6.6033  -2.5693  -2.1160 LP             1 S1                 0.0000
     52 ****         7.1103  -1.1695  -2.7870 LP             1 S1                 0.0000
     53 ****         1.2604   0.6706  -1.4079 LP             1 S1                 0.0000
     54 ****         0.7757   0.1078  -2.9726 LP             1 S1                 0.0000
@<TRIPOS>BOND
    1    1    2 1     
    2    1   24 1     
    3    1   25 1     
    4    1   26 1     
    5    2    7 1     
    6    2    3 1     
    7    2   27 1     
    8    3    4 1     
    9    3   28 1     
   10    3   29 1     
   11    4    5 1     
   12    4   30 1     
   13    4   31 1     
   14    5    6 1     
   15    5   32 1     
   16    5   33 1     
   17    6    7 1     
   18    6   34 1     
   19    6   35 1     
   20    7    8 1     
   21    7   36 1     
   22    8    9 1     
   23    9   10 1     
   24    9   37 1     
   25    9   38 1     
   26   10   11 1     
   27   10   39 1     
   28   10   40 1     
   29   11   12 am    
   30   11   41 1     
   31   12   13 2     
   32   12   14 1     
   33   14   42 1     
   34   14   43 1     
   35   14   15 1     
   36   15   16 1     
   37   15   21 am    
   38   16   17 2     
   39   17   18 1     
   40   17   19 1     
   41   18   23 1     
   42   19   44 1     
   43   19   20 2     
   44   20   45 1     
   45   20   21 1     
   46   21   22 2     
   47    8   46 1     
   48    8   47 1     
   49   13   48 1     
   50   13   49 1     
   51   16   50 1     
   52   18   51 1     
   53   18   52 1     
   54   22   53 1     
   55   22   54 1     
@<TRIPOS>SUBSTRUCTURE
      1 S1             1
@<TRIPOS>SET
LONE_PAIRS      STATIC     ATOMS    <user>   **** ""
9 46 47 48 49 50 51 52 53 54
DONOR_HYDROGENS      STATIC     ATOMS    <user>   **** ""
2 41 23
ATOM$BLUE        STATIC     ATOMS    COLORGROUP SYSTEM
9 46 47 48 49 50 51 52 53 54
ATOM$RED        STATIC     ATOMS    COLORGROUP SYSTEM
2 41 23
