AV-unprocessed.smi:496|AV-procd|sdf|2722|dock5
  -GOLD-   2262023163D 1   1.00000     0.00000
 Structure written by MMmdl.
 42 44  0  0  0  0  0  0  0  0  3 V2000
  149.1525  139.8362  154.6346 C   0  0  0  0  0  0  0  0  0  0  0  0
  150.5565  140.0422  154.6278 O   0  0  0  0  0  0  0  0  0  0  0  0
  151.2316  139.4480  155.7269 C   0  0  0  0  0  0  0  0  0  0  0  0
  150.5171  139.7387  157.0578 C   0  0  0  0  0  0  0  0  0  0  0  0
  151.4777  139.9050  158.1657 N   0  0  0  0  0  0  0  0  0  0  0  0
  152.1486  138.9877  158.9353 C   0  0  0  0  0  0  0  0  0  0  0  0
  152.0948  137.4822  158.8636 C   0  0  2  0  0  0  0  0  0  0  0  0
  151.8071  137.0274  157.4265 C   0  0  0  0  0  0  0  0  0  0  0  0
  151.0744  136.9300  159.7561 N   0  5  0  0  0  0  0  0  0  0  0  0
  149.7618  136.7843  159.4162 C   0  0  0  0  0  0  0  0  0  0  0  0
  149.1920  137.0426  158.3503 O   0  0  0  0  0  0  0  0  0  0  0  0
  148.9523  136.2201  160.5220 C   0  0  0  0  0  0  0  0  0  0  0  0
  148.1749  135.0928  160.5572 C   0  0  0  0  0  0  0  0  0  0  0  0
  147.6193  135.0155  161.8643 C   0  0  0  0  0  0  0  0  0  0  0  0
  148.0958  136.1022  162.5390 C   0  0  0  0  0  0  0  0  0  0  0  0
  148.9076  136.8451  161.7392 O   0  0  0  0  0  0  0  0  0  0  0  0
  152.9107  139.6952  159.8189 N   0  3  0  0  0  0  0  0  0  0  0  0
  152.7511  141.0628  159.6054 C   0  0  0  0  0  0  0  0  0  0  0  0
  153.3268  142.1569  160.2435 C   0  0  0  0  0  0  0  0  0  0  0  0
  152.9552  143.4323  159.7706 C   0  0  0  0  0  0  0  0  0  0  0  0
  152.0464  143.5825  158.7031 C   0  0  0  0  0  0  0  0  0  0  0  0
  151.4685  142.4648  158.0660 C   0  0  0  0  0  0  0  0  0  0  0  0
  151.8381  141.2062  158.5416 C   0  0  0  0  0  0  0  0  0  0  0  0
  148.7190  140.2721  153.7347 H   0  0  0  0  0  0  0  0  0  0  0  0
  148.6754  140.3096  155.4923 H   0  0  0  0  0  0  0  0  0  0  0  0
  148.9088  138.7731  154.6413 H   0  0  0  0  0  0  0  0  0  0  0  0
  151.3583  138.3753  155.5717 H   0  0  0  0  0  0  0  0  0  0  0  0
  152.2347  139.8742  155.7589 H   0  0  0  0  0  0  0  0  0  0  0  0
  149.9016  140.6347  156.9817 H   0  0  0  0  0  0  0  0  0  0  0  0
  149.8330  138.9334  157.3224 H   0  0  0  0  0  0  0  0  0  0  0  0
  153.0836  137.1055  159.1290 H   0  0  0  0  0  0  0  0  0  0  0  0
  152.5745  137.3917  156.7428 H   0  0  0  0  0  0  0  0  0  0  0  0
  150.8437  137.3970  157.0734 H   0  0  0  0  0  0  0  0  0  0  0  0
  151.7938  135.9393  157.3528 H   0  0  0  0  0  0  0  0  0  0  0  0
  148.0247  134.4053  159.7378 H   0  0  0  0  0  0  0  0  0  0  0  0
  146.9560  134.2607  162.2600 H   0  0  0  0  0  0  0  0  0  0  0  0
  147.9655  136.4802  163.5423 H   0  0  0  0  0  0  0  0  0  0  0  0
  154.0272  142.0418  161.0577 H   0  0  0  0  0  0  0  0  0  0  0  0
  153.3788  144.3119  160.2329 H   0  0  0  0  0  0  0  0  0  0  0  0
  151.7882  144.5754  158.3646 H   0  0  0  0  0  0  0  0  0  0  0  0
  150.7777  142.5932  157.2458 H   0  0  0  0  0  0  0  0  0  0  0  0
  153.5140  139.2545  160.5015 H   0  0  0  0  0  0  0  0  0  0  0  0
  1  2  1  0  0  0  0
  1 24  1  0  0  0  0
  1 25  1  0  0  0  0
  1 26  1  0  0  0  0
  2  3  1  0  0  0  0
  3  4  1  0  0  0  0
  3 27  1  0  0  0  0
  3 28  1  0  0  0  0
  4  5  1  0  0  0  0
  4 29  1  0  0  0  0
  4 30  1  0  0  0  0
  5 23  1  0  0  0  0
  5  6  1  0  0  0  0
  6  7  1  0  0  0  0
  6 17  2  0  0  0  0
  7  8  1  0  0  0  0
  7  9  1  0  0  0  0
  7 31  1  0  0  0  0
  8 32  1  0  0  0  0
  8 33  1  0  0  0  0
  8 34  1  0  0  0  0
  9 10  1  0  0  0  0
 10 11  2  0  0  0  0
 10 12  1  0  0  0  0
 12 16  1  0  0  0  0
 12 13  2  0  0  0  0
 13 14  1  0  0  0  0
 13 35  1  0  0  0  0
 14 15  2  0  0  0  0
 14 36  1  0  0  0  0
 15 16  1  0  0  0  0
 15 37  1  0  0  0  0
 17 18  1  0  0  0  0
 17 42  1  0  0  0  0
 18 23  2  0  0  0  0
 18 19  1  0  0  0  0
 19 20  2  0  0  0  0
 19 38  1  0  0  0  0
 20 21  1  0  0  0  0
 20 39  1  0  0  0  0
 21 22  2  0  0  0  0
 21 40  1  0  0  0  0
 22 23  1  0  0  0  0
 22 41  1  0  0  0  0
M  CHG  1   9  -1
M  CHG  1  17   1
M  END
> <s_m_source_file>
AV-unprocessed.smi

> <i_m_source_file_index>
496

> <i_lp_mmshare_version>
43012

> <i_f3d_flags>
0

> <s_epik_input>
W2NIXTFbY0hdW2NIXVtjSF1jKGMxMiluKFtDSDJdW0NIMl1PW0NIM10pYyhuMilbQ0BIXShbQ0gzXSlbTkhdQyg9TyljM1tjSF1bY0hdW2NIXW8z

> <s_epik_cmdline>
J2VwaWtfcHl0aG9uJywgJy1waCcsICc3LjAnLCAnLXRuJywgJzgnLCAnLW1hJywgJzIwMCcsICctbWV0YWxfYmluZGluZycsICctaW1hZScsICc8aW5maWxlLm1hZT4nLCAnLW9tYWUnLCAnPG91dGZpbGUubWFlPic=

> <r_epik_Ionization_Penalty>
6.2189

> <r_epik_Ionization_Penalty_Charging>
6.2189

> <r_epik_Ionization_Penalty_Neutral>
2.56052e-12

> <r_epik_State_Penalty>
7.14475

> <r_epik_Charging_Adjusted_Penalty>
13.3636

> <i_epik_Tot_Q>
0

> <i_epik_Tot_abs_Q>
2

> <r_epik_Metal_State_Penalty>
3.17915

> <b_epik_Metal_Only>
1

> <s_lp_Force_Field>
OPLS_2005

> <r_lp_Energy>
11.1611

> <b_lp_Chiralities_Consistent>
1

> <s_lp_Variant>
AV-unprocessed.smi:496-7

> <Gold.Version>
5.8.1

> <Gold.Id.Protein>
6NUR|6NUR_protein|mol2

> <Gold.PLP.Fitness>
52.0350

> <Gold.PLP.PLP>
-45.5014

> <Gold.PLP.part.hbond>
-3.0634

> <Gold.PLP.part.metal>
0.0000

> <Gold.PLP.part.buried>
-6.8123

> <Gold.PLP.part.nonpolar>
-36.6363

> <Gold.PLP.part.repulsive>
0.2169

> <Gold.PLP.ligand.clash>
0.0000

> <Gold.PLP.ligand.torsion>
2.7305

> <Gold.PLP.Chemscore.Hbond>
3.9750

> <Gold.PLP.Chemscore.CHOScore>
0.0000

> <Gold.PLP.Chemscore.Metal>
0.0000

> <Gold.Chemscore.Hbonds>
donor molecule, donor type, donor heavy atom, donor atom, acceptor molecule, acceptor atom, score
      P1  H  6896  6909       L1     9  1.80
      P1  H  6931  6943       L1    16  0.70
      P1  H  7989  7998       L1     2  1.00

> <Gold.PLP.Chemscore.Internal.Correction>
0.0695

> <Gold.Rescore>
     Score         DG    S(hbond)    S(metal)    S(lipo)     H(rot)  DE(clash)    DE(int)     intcor
     16.24     -20.99       2.15        0.00     111.32       1.83       0.00       4.75       ----

> <Gold.Chemscore.Fitness>
16.2395

> <Gold.Chemscore.DG>
-20.9922

> <Gold.Chemscore.ZeroCoef>
-5.4800

> <Gold.Chemscore.Hbond>
2.1508

> <Gold.Chemscore.Metal>
0.0000

> <Gold.Chemscore.Lipo>
111.3187

> <Gold.Chemscore.Internal_Hbond>
0.0000

> <Gold.Chemscore.DEClash>
0.0000

> <Gold.Chemscore.DEInternal>
4.7527

> <Gold.Chemscore.Rot>
1.8343

> <Gold.Chemscore.Internal.Correction>
   9.000000E+99

> <Gold.Chemscore.Hbonds>
donor molecule, donor type, donor heavy atom, donor atom, acceptor molecule, acceptor atom, score
      P1  H  6896  6909       L1     9  0.11
      P1  H  6931  6943       L1    16  0.68
      P1  H  7989  7998       L1     2  0.88

> <Gold.Chemscore.Hbond.Weighted>
-7.1837

> <Gold.Chemscore.Metal.Weighted>
-0.0000

> <Gold.Chemscore.Lipo.Weighted>
-13.0243

> <Gold.Chemscore.Internal_Hbond.Weighted>
0.0000

> <Gold.Chemscore.DEClash.Weighted>
0.0000

> <Gold.Chemscore.DEInternal.Weighted>
4.7527

> <Gold.Chemscore.Rot.Weighted>
4.6958

> <Gold.Chemscore.Internal.Correction.Weighted>
   9.000000E+99

> <Gold.Protein.RotatedTorsions>
[ 6907 6896 6895 6894 ] final  114.73 input  -60.11 | X-H torsion
[ 7974 7965 7964 7962 ] final -172.19 input  175.53 | X-H torsion
[ 8008 7997 7996 7995 ] final  -20.82 input   59.86 | X-H torsion
[ 10167 10162 10161 10158 ] final   64.85 input  -65.29 | X-H torsion
[ 10718 10713 10712 10709 ] final   61.47 input   66.30 | X-H torsion
[ 10763 10752 10751 10750 ] final  154.56 input  -60.55 | X-H torsion
[ 11005 11000 10999 10996 ] final   49.93 input  -57.11 | X-H torsion

> <Gold.Protein.ActiveResidues>
 VAL166  LYS551  ARG553  GLY616  TRP617  ASP618  TYR619  PRO620  LYS621  CYS622 
 ASP623  PHE694  ASN695  SER759  ASP760  ASP761  ALA762  ILE779  LEU786  VAL792 
 PHE793  MET794  SER795  GLU796  ALA797  LYS798  CYS799  TRP800  GLU811  SER814 

> <Gold.Protein.RotatedAtoms>
  152.4785  133.8196  159.7046 H   0  0  0  0  0  0  0  0  0  0  0  0  # atno 6907 bound_to 6896
  150.8818  133.7352  159.2936 H   0  0  0  0  0  0  0  0  0  0  0  0  # atno 6908 bound_to 6896
  151.4854  135.1058  159.9841 H   0  0  0  0  0  0  0  0  0  0  0  0  # atno 6909 bound_to 6896
  144.7149  140.1809  143.6358 H   0  0  0  0  0  0  0  0  0  0  0  0  # atno 7974 bound_to 7965
  154.4745  140.2051  155.9913 H   0  0  0  0  0  0  0  0  0  0  0  0  # atno 8008 bound_to 7997
  156.1066  140.3235  155.7984 H   0  0  0  0  0  0  0  0  0  0  0  0  # atno 8009 bound_to 7997
  155.4707  140.0531  157.2970 H   0  0  0  0  0  0  0  0  0  0  0  0  # atno 8010 bound_to 7997
  140.1176  144.4760  150.6939 H   0  0  0  0  0  0  0  0  0  0  0  0  # atno 10167 bound_to 10162
  157.5830  130.8996  149.9465 H   0  0  0  0  0  0  0  0  0  0  0  0  # atno 10718 bound_to 10713
  154.1543  135.2813  155.3126 H   0  0  0  0  0  0  0  0  0  0  0  0  # atno 10763 bound_to 10752
  154.6194  135.5472  153.7562 H   0  0  0  0  0  0  0  0  0  0  0  0  # atno 10764 bound_to 10752
  153.0211  135.6435  154.1687 H   0  0  0  0  0  0  0  0  0  0  0  0  # atno 10765 bound_to 10752
  140.1061  134.5017  155.8719 H   0  0  0  0  0  0  0  0  0  0  0  0  # atno 11005 bound_to 11000
  145.8857  139.2348  143.1579 LP  0  0  0  0  0  0  0  0  0  0  0  0  # atno 17320 bound_to 7965
  145.9952  140.8568  143.0046 LP  0  0  0  0  0  0  0  0  0  0  0  0  # atno 17321 bound_to 7965
  140.6890  143.2365  151.5182 LP  0  0  0  0  0  0  0  0  0  0  0  0  # atno 17342 bound_to 10162
  139.5585  144.2214  152.1653 LP  0  0  0  0  0  0  0  0  0  0  0  0  # atno 17343 bound_to 10162
  156.0877  130.3666  150.0455 LP  0  0  0  0  0  0  0  0  0  0  0  0  # atno 17370 bound_to 10713
  156.8591  130.9485  151.3619 LP  0  0  0  0  0  0  0  0  0  0  0  0  # atno 17371 bound_to 10713
  141.2118  133.6711  156.6613 LP  0  0  0  0  0  0  0  0  0  0  0  0  # atno 17394 bound_to 11000
  140.3154  134.8051  157.4210 LP  0  0  0  0  0  0  0  0  0  0  0  0  # atno 17395 bound_to 11000

$$$$
