AV-unprocessed.smi:99|AV-procd|sdf|887|dock3
  -GOLD-   2262017373D 1   1.00000     0.00000
 Structure written by MMmdl.
 52 55  0  0  0  0  0  0  0  0  2 V2000
  147.4051  137.9318  159.6546 O   0  0  0  0  0  0  0  0  0  0  0  0
  147.8263  136.9175  160.2148 C   0  0  0  0  0  0  0  0  0  0  0  0
  149.1062  136.5043  160.1436 O   0  0  0  0  0  0  0  0  0  0  0  0
  150.0925  137.3478  159.5726 C   0  0  0  0  0  0  0  0  0  0  0  0
  149.8028  137.5250  158.0792 C   0  0  2  0  0  0  0  0  0  0  0  0
  149.2177  136.3474  157.5501 O   0  0  0  0  0  0  0  0  0  0  0  0
  149.4027  136.3400  156.1697 C   0  0  2  0  0  0  0  0  0  0  0  0
  149.5320  134.9037  155.7113 N   0  0  0  0  0  0  0  0  0  0  0  0
  148.9077  134.4810  154.5502 C   0  0  0  0  0  0  0  0  0  0  0  0
  149.0050  133.2041  154.1263 C   0  0  0  0  0  0  0  0  0  0  0  0
  149.7821  132.2467  154.9088 C   0  0  0  0  0  0  0  0  0  0  0  0
  149.8762  131.0876  154.5089 O   0  0  0  0  0  0  0  0  0  0  0  0
  150.3723  132.6852  156.0586 N   0  5  0  0  0  0  0  0  0  0  0  0
  150.2686  133.9748  156.4949 C   0  0  0  0  0  0  0  0  0  0  0  0
  150.7781  134.3742  157.5425 O   0  0  0  0  0  0  0  0  0  0  0  0
  150.6476  137.2019  155.8583 C   0  0  2  0  0  0  0  0  0  0  0  0
  151.7153  136.5043  155.2420 O   0  0  0  0  0  0  0  0  0  0  0  0
  151.0680  137.6992  157.2390 C   0  0  1  0  0  0  0  0  0  0  0  0
  151.4232  139.0766  157.2100 O   0  0  0  0  0  0  0  0  0  0  0  0
  152.0414  139.6525  158.2628 C   0  0  0  0  0  0  0  0  0  0  0  0
  152.5952  139.0171  159.1621 O   0  0  0  0  0  0  0  0  0  0  0  0
  151.9869  141.1422  158.2230 C   0  0  0  0  0  0  0  0  0  0  0  0
  151.2218  141.7809  157.2193 C   0  0  0  0  0  0  0  0  0  0  0  0
  151.1527  143.1861  157.1548 C   0  0  0  0  0  0  0  0  0  0  0  0
  151.8491  143.9702  158.0928 C   0  0  0  0  0  0  0  0  0  0  0  0
  152.6142  143.3472  159.0959 C   0  0  0  0  0  0  0  0  0  0  0  0
  152.6836  141.9418  159.1627 C   0  0  0  0  0  0  0  0  0  0  0  0
  146.9706  136.0176  161.0408 C   0  0  0  0  0  0  0  0  0  0  0  0
  147.5774  134.9918  161.8028 C   0  0  0  0  0  0  0  0  0  0  0  0
  146.7955  134.1273  162.5934 C   0  0  0  0  0  0  0  0  0  0  0  0
  145.3970  134.2775  162.6308 C   0  0  0  0  0  0  0  0  0  0  0  0
  144.7813  135.2929  161.8763 C   0  0  0  0  0  0  0  0  0  0  0  0
  145.5615  136.1591  161.0858 C   0  0  0  0  0  0  0  0  0  0  0  0
  150.0575  138.3167  160.0729 H   0  0  0  0  0  0  0  0  0  0  0  0
  151.0914  136.9351  159.7219 H   0  0  0  0  0  0  0  0  0  0  0  0
  149.1235  138.3627  157.9086 H   0  0  0  0  0  0  0  0  0  0  0  0
  148.4921  136.7374  155.7185 H   0  0  0  0  0  0  0  0  0  0  0  0
  148.3226  135.1797  153.9707 H   0  0  0  0  0  0  0  0  0  0  0  0
  148.5094  132.8904  153.2194 H   0  0  0  0  0  0  0  0  0  0  0  0
  150.3302  138.0254  155.2169 H   0  0  0  0  0  0  0  0  0  0  0  0
  151.6998  136.6882  154.3151 H   0  0  0  0  0  0  0  0  0  0  0  0
  151.8606  137.0723  157.6523 H   0  0  0  0  0  0  0  0  0  0  0  0
  150.6789  141.2002  156.4873 H   0  0  0  0  0  0  0  0  0  0  0  0
  150.5648  143.6625  156.3840 H   0  0  0  0  0  0  0  0  0  0  0  0
  151.7967  145.0479  158.0429 H   0  0  0  0  0  0  0  0  0  0  0  0
  153.1501  143.9481  159.8158 H   0  0  0  0  0  0  0  0  0  0  0  0
  153.2810  141.4960  159.9445 H   0  0  0  0  0  0  0  0  0  0  0  0
  148.6496  134.8571  161.7900 H   0  0  0  0  0  0  0  0  0  0  0  0
  147.2701  133.3482  163.1716 H   0  0  0  0  0  0  0  0  0  0  0  0
  144.7975  133.6148  163.2372 H   0  0  0  0  0  0  0  0  0  0  0  0
  143.7078  135.4085  161.9029 H   0  0  0  0  0  0  0  0  0  0  0  0
  145.0566  136.9273  160.5186 H   0  0  0  0  0  0  0  0  0  0  0  0
  1  2  2  0  0  0  0
  2  3  1  0  0  0  0
  2 28  1  0  0  0  0
  3  4  1  0  0  0  0
  4  5  1  0  0  0  0
  4 34  1  0  0  0  0
  4 35  1  0  0  0  0
  5 18  1  0  0  0  0
  5  6  1  0  0  0  0
  5 36  1  0  0  0  0
  6  7  1  0  0  0  0
  7  8  1  0  0  0  0
  7 16  1  0  0  0  0
  7 37  1  0  0  0  0
  8 14  1  0  0  0  0
  8  9  1  0  0  0  0
  9 10  2  0  0  0  0
  9 38  1  0  0  0  0
 10 11  1  0  0  0  0
 10 39  1  0  0  0  0
 11 12  2  0  0  0  0
 11 13  1  0  0  0  0
 13 14  1  0  0  0  0
 14 15  2  0  0  0  0
 16 17  1  0  0  0  0
 16 18  1  0  0  0  0
 16 40  1  0  0  0  0
 17 41  1  0  0  0  0
 18 19  1  0  0  0  0
 18 42  1  0  0  0  0
 19 20  1  0  0  0  0
 20 21  2  0  0  0  0
 20 22  1  0  0  0  0
 22 27  1  0  0  0  0
 22 23  2  0  0  0  0
 23 24  1  0  0  0  0
 23 43  1  0  0  0  0
 24 25  2  0  0  0  0
 24 44  1  0  0  0  0
 25 26  1  0  0  0  0
 25 45  1  0  0  0  0
 26 27  2  0  0  0  0
 26 46  1  0  0  0  0
 27 47  1  0  0  0  0
 28 33  1  0  0  0  0
 28 29  2  0  0  0  0
 29 30  1  0  0  0  0
 29 48  1  0  0  0  0
 30 31  2  0  0  0  0
 30 49  1  0  0  0  0
 31 32  1  0  0  0  0
 31 50  1  0  0  0  0
 32 33  2  0  0  0  0
 32 51  1  0  0  0  0
 33 52  1  0  0  0  0
M  CHG  1  13  -1
M  END
> <s_m_source_file>
AV-unprocessed.smi

> <i_m_source_file_index>
99

> <i_lp_mmshare_version>
43012

> <i_f3d_flags>
0

> <s_epik_input>
W2NIXTFbY0hdW2NIXVtjSF1bY0hdYzFDKD1PKU9bQ0gyXVtDQEBIXTJPW0NAQEhdKG4zW2NIXVtjSF1jKD1PKVtuSF1jMz1PKVtDQEBIXShbT0hdKVtDQEhdMk9DKD1PKWM0W2NIXVtjSF1bY0hdW2NIXVtjSF00

> <s_epik_cmdline>
J2VwaWtfcHl0aG9uJywgJy1waCcsICc3LjAnLCAnLXRuJywgJzgnLCAnLW1hJywgJzIwMCcsICctbWV0YWxfYmluZGluZycsICctaW1hZScsICc8aW5maWxlLm1hZT4nLCAnLW9tYWUnLCAnPG91dGZpbGUubWFlPic=

> <r_lp_tautomer_probability>
1

> <r_epik_Ionization_Penalty>
2.89159

> <r_epik_Ionization_Penalty_Charging>
2.1077e-08

> <r_epik_Ionization_Penalty_Neutral>
2.89159

> <r_epik_State_Penalty>
2.88671

> <r_epik_Charging_Adjusted_Penalty>
2.88671

> <i_epik_Tot_Q>
-1

> <i_epik_Tot_abs_Q>
1

> <r_epik_Metal_State_Penalty>
0.0727308

> <b_epik_Metal_Only>
1

> <s_epik_Chemistry_Notes>
This compound has an ester and may undergo hydrolysis at high or low pH. This compound contains an acetal/aminal-like group ( X-CH(R)-Y where X, Y are N, S, or O) that may be acid/base labile, releasing an aldehyde.

> <s_lp_Force_Field>
OPLS_2005

> <r_lp_Energy>
47.3257

> <b_lp_Chiralities_Consistent>
1

> <s_lp_Variant>
AV-unprocessed.smi:99-23

> <Gold.Version>
5.8.1

> <Gold.Id.Protein>
6NUR|6NUR_protein|mol2

> <Gold.PLP.Fitness>
58.2608

> <Gold.PLP.PLP>
-52.1303

> <Gold.PLP.part.hbond>
-3.5033

> <Gold.PLP.part.metal>
0.0000

> <Gold.PLP.part.buried>
-5.4691

> <Gold.PLP.part.nonpolar>
-43.7676

> <Gold.PLP.part.repulsive>
0.0603

> <Gold.PLP.ligand.clash>
0.0000

> <Gold.PLP.ligand.torsion>
1.3794

> <Gold.PLP.Chemscore.Hbond>
1.8288

> <Gold.PLP.Chemscore.CHOScore>
0.8844

> <Gold.PLP.Chemscore.Metal>
0.0000

> <Gold.Chemscore.Hbonds>
donor molecule, donor type, donor heavy atom, donor atom, acceptor molecule, acceptor atom, score
      P1  H  6896  6908       L1    15  0.46
      P1  H  6934  6947       L1     1  0.66
      P1  H 10752 10765       L1    17  0.40
      L1  C     9    38       P1  7948  0.92

> <Gold.PLP.Chemscore.Internal.Correction>
0.7499

> <Gold.Rescore>
     Score         DG    S(hbond)    S(metal)    S(lipo)     H(rot)  DE(clash)    DE(int)     intcor
     12.42     -17.13       1.41        0.00     127.78       3.13       0.18       4.53       ----

> <Gold.Chemscore.Fitness>
12.4214

> <Gold.Chemscore.DG>
-17.1286

> <Gold.Chemscore.ZeroCoef>
-5.4800

> <Gold.Chemscore.Hbond>
1.4142

> <Gold.Chemscore.Metal>
0.0000

> <Gold.Chemscore.Lipo>
127.7765

> <Gold.Chemscore.Internal_Hbond>
0.0000

> <Gold.Chemscore.DEClash>
0.1815

> <Gold.Chemscore.DEInternal>
4.5257

> <Gold.Chemscore.Rot>
3.1346

> <Gold.Chemscore.Internal.Correction>
   9.000000E+99

> <Gold.Chemscore.Hbonds>
donor molecule, donor type, donor heavy atom, donor atom, acceptor molecule, acceptor atom, score
      P1  H  6896  6908       L1    15  0.46
      P1  H  6934  6947       L1     1  0.33
      P1  H 10752 10765       L1    17  0.01

> <Gold.Chemscore.Hbond.Weighted>
-4.7233

> <Gold.Chemscore.Metal.Weighted>
-0.0000

> <Gold.Chemscore.Lipo.Weighted>
-14.9499

> <Gold.Chemscore.Internal_Hbond.Weighted>
0.0000

> <Gold.Chemscore.DEClash.Weighted>
0.1815

> <Gold.Chemscore.DEInternal.Weighted>
4.5257

> <Gold.Chemscore.Rot.Weighted>
8.0246

> <Gold.Chemscore.Internal.Correction.Weighted>
   9.000000E+99

> <Gold.Protein.RotatedTorsions>
[ 6907 6896 6895 6894 ] final  117.19 input  -60.11 | X-H torsion
[ 7974 7965 7964 7962 ] final  -89.28 input  175.53 | X-H torsion
[ 8008 7997 7996 7995 ] final   36.77 input   59.86 | X-H torsion
[ 10167 10162 10161 10158 ] final  109.96 input  -65.29 | X-H torsion
[ 10718 10713 10712 10709 ] final  -38.10 input   66.30 | X-H torsion
[ 10763 10752 10751 10750 ] final -155.65 input  -60.55 | X-H torsion
[ 11005 11000 10999 10996 ] final -140.35 input  -57.11 | X-H torsion

> <Gold.Protein.ActiveResidues>
 VAL166  LYS551  ARG553  GLY616  TRP617  ASP618  TYR619  PRO620  LYS621  CYS622 
 ASP623  PHE694  ASN695  SER759  ASP760  ASP761  ALA762  ILE779  LEU786  VAL792 
 PHE793  MET794  SER795  GLU796  ALA797  LYS798  CYS799  TRP800  GLU811  SER814 

> <Gold.Protein.RotatedAtoms>
  152.4628  133.7859  159.6875 H   0  0  0  0  0  0  0  0  0  0  0  0  # atno 6907 bound_to 6896
  150.8579  133.7677  159.3008 H   0  0  0  0  0  0  0  0  0  0  0  0  # atno 6908 bound_to 6896
  151.5252  135.1071  159.9940 H   0  0  0  0  0  0  0  0  0  0  0  0  # atno 6909 bound_to 6896
  145.4419  140.9559  143.2070 H   0  0  0  0  0  0  0  0  0  0  0  0  # atno 7974 bound_to 7965
  155.1928  140.3309  155.4356 H   0  0  0  0  0  0  0  0  0  0  0  0  # atno 8008 bound_to 7997
  156.2436  140.1907  156.6969 H   0  0  0  0  0  0  0  0  0  0  0  0  # atno 8009 bound_to 7997
  154.6194  140.0597  156.9582 H   0  0  0  0  0  0  0  0  0  0  0  0  # atno 8010 bound_to 7997
  139.6726  144.7124  151.1661 H   0  0  0  0  0  0  0  0  0  0  0  0  # atno 10167 bound_to 10162
  156.3076  130.4248  149.8082 H   0  0  0  0  0  0  0  0  0  0  0  0  # atno 10718 bound_to 10713
  154.7771  135.3163  154.8068 H   0  0  0  0  0  0  0  0  0  0  0  0  # atno 10763 bound_to 10752
  153.8789  135.6837  153.4773 H   0  0  0  0  0  0  0  0  0  0  0  0  # atno 10764 bound_to 10752
  153.1398  135.4744  154.9414 H   0  0  0  0  0  0  0  0  0  0  0  0  # atno 10765 bound_to 10752
  140.8431  134.2378  157.4800 H   0  0  0  0  0  0  0  0  0  0  0  0  # atno 11005 bound_to 11000
  144.8116  139.5952  143.7027 LP  0  0  0  0  0  0  0  0  0  0  0  0  # atno 17320 bound_to 7965
  146.2552  139.6286  142.9400 LP  0  0  0  0  0  0  0  0  0  0  0  0  # atno 17321 bound_to 7965
  140.7623  143.5821  150.8884 LP  0  0  0  0  0  0  0  0  0  0  0  0  # atno 17342 bound_to 10162
  139.9488  143.6297  152.3034 LP  0  0  0  0  0  0  0  0  0  0  0  0  # atno 17343 bound_to 10162
  156.5437  130.8311  151.3277 LP  0  0  0  0  0  0  0  0  0  0  0  0  # atno 17370 bound_to 10713
  157.7383  130.9811  150.2245 LP  0  0  0  0  0  0  0  0  0  0  0  0  # atno 17371 bound_to 10713
  139.8703  134.9645  156.4498 LP  0  0  0  0  0  0  0  0  0  0  0  0  # atno 17394 bound_to 11000
  140.8874  133.7873  155.9533 LP  0  0  0  0  0  0  0  0  0  0  0  0  # atno 17395 bound_to 11000

$$$$
