#       Name:                AV-unprocessed.smi:2848
#       Creating user name   scv26
#       Creation time:       Fri Mar 27 15:41:12 2020


#       File generated by GOLD software.
#

@<TRIPOS>MOLECULE
AV-unprocessed.smi:2848
    31    32     1
SMALL
NO_CHARGES


@<TRIPOS>ATOM
      1 ****        -3.5534   0.1793  -0.8354 Cl             1 S1                 0.0000
      2 ****        -2.7254   1.6234  -0.3672 C.ar           1 S1                 0.0000
      3 ****        -3.4389   2.8351  -0.2637 C.ar           1 S1                 0.0000
      4 ****        -2.8705   4.0053   0.0952 N.ar           1 S1                 0.0000
      5 ****        -1.5487   4.0038   0.3660 C.ar           1 S1                 0.0000
      6 ****        -0.7427   2.8501   0.2935 C.ar           1 S1                 0.0000
      7 ****        -1.3403   1.6236  -0.0820 C.ar           1 S1                 0.0000
      8 ****        -0.6134   0.4274  -0.1809 N.pl3          1 S1                 0.0000
      9 ****         0.7429   0.3355   0.3388 C.3            1 S1                 0.0000
     10 ****         1.3372  -1.0529   0.2037 C.2            1 S1                 0.0000
     11 ****         2.2295  -1.5815   1.0663 C.2            1 S1                 0.0000
     12 ****         2.6964  -2.8685   0.9792 O.3            1 S1                 0.0000
     13 ****         1.9528  -3.7033   0.0982 C.3            1 S1                 0.0000
     14 ****         1.5957  -2.9441  -1.1900 C.3            1 S1                 0.0000
     15 ****         0.8832  -1.7465  -0.8938 O.3            1 S1                 0.0000
     16 ****        -4.4977   2.8661  -0.4751 H              1 S1                 0.0000
     17 ****        -1.1183   4.9529   0.6489 H              1 S1                 0.0000
     18 ****         0.3094   2.9265   0.5228 H              1 S1                 0.0000
     19 ****        -1.1208  -0.4329  -0.3327 H              1 S1                 0.0000
     20 ****         1.3861   1.0322  -0.1993 H              1 S1                 0.0000
     21 ****         0.7478   0.6265   1.3899 H              1 S1                 0.0000
     22 ****         2.6158  -1.0671   1.9339 H              1 S1                 0.0000
     23 ****         2.5394  -4.5926  -0.1327 H              1 S1                 0.0000
     24 ****         1.0464  -4.0395   0.6038 H              1 S1                 0.0000
     25 ****         2.5011  -2.6905  -1.7429 H              1 S1                 0.0000
     26 ****         0.9867  -3.5683  -1.8439 H              1 S1                 0.0000
     27 ****        -3.4104   4.8447   0.1582 LP             1 S1                 0.0000
     28 ****         2.6687  -3.2741   1.8928 LP             1 S1                 0.0000
     29 ****         3.6425  -2.8372   0.6569 LP             1 S1                 0.0000
     30 ****         0.9467  -1.1436  -1.6891 LP             1 S1                 0.0000
     31 ****        -0.0741  -1.9873  -0.7337 LP             1 S1                 0.0000
@<TRIPOS>BOND
    1    1    2 1     
    2    2    7 ar    
    3    2    3 ar    
    4    3    4 ar    
    5    3   16 1     
    6    4    5 ar    
    7    5    6 ar    
    8    5   17 1     
    9    6    7 ar    
   10    6   18 1     
   11    7    8 1     
   12    8    9 1     
   13    8   19 1     
   14    9   10 1     
   15    9   20 1     
   16    9   21 1     
   17   10   15 1     
   18   10   11 2     
   19   11   12 1     
   20   11   22 1     
   21   12   13 1     
   22   13   14 1     
   23   13   23 1     
   24   13   24 1     
   25   14   15 1     
   26   14   25 1     
   27   14   26 1     
   28    4   27 1     
   29   12   28 1     
   30   12   29 1     
   31   15   30 1     
   32   15   31 1     
@<TRIPOS>SUBSTRUCTURE
      1 S1             1
@<TRIPOS>SET
LONE_PAIRS      STATIC     ATOMS    <user>   **** ""
5 27 28 29 30 31
DONOR_HYDROGENS      STATIC     ATOMS    <user>   **** ""
1 19
ATOM$BLUE        STATIC     ATOMS    COLORGROUP SYSTEM
5 27 28 29 30 31
ATOM$RED        STATIC     ATOMS    COLORGROUP SYSTEM
1 19
