AV-unprocessed.smi:2895|AV-procd|sdf|11132|dock10
  -GOLD-   2272016 03D 1   1.00000     0.00000
 Structure written by MMmdl.
 54 57  0  0  0  0  0  0  0  0  3 V2000
  149.2464  141.7771  153.6128 O   0  0  0  0  0  0  0  0  0  0  0  0
  148.7970  141.0909  154.5317 C   0  0  0  0  0  0  0  0  0  0  0  0
  149.2393  141.2182  155.7945 N   0  0  0  0  0  0  0  0  0  0  0  0
  150.2664  142.1553  156.2360 C   0  0  0  0  0  0  0  0  0  0  0  0
  151.4381  141.4381  156.9283 C   0  0  0  0  0  0  0  0  0  0  0  0
  151.9877  142.2342  158.0965 C   0  0  0  0  0  0  0  0  0  0  0  0
  152.3841  141.5783  159.2829 C   0  0  0  0  0  0  0  0  0  0  0  0
  152.8939  142.3407  160.3539 C   0  0  0  0  0  0  0  0  0  0  0  0
  152.9963  143.6828  160.2353 N   0  3  0  0  0  0  0  0  0  0  0  0
  152.6282  144.3489  159.1188 C   0  0  0  0  0  0  0  0  0  0  0  0
  152.1129  143.6389  158.0149 C   0  0  0  0  0  0  0  0  0  0  0  0
  147.8080  140.1764  154.3608 N   0  0  0  0  0  0  0  0  0  0  0  0
  147.5328  139.0154  155.2228 C   0  0  0  0  0  0  0  0  0  0  0  0
  147.8382  137.7159  154.4479 C   0  0  0  0  0  0  0  0  0  0  0  0
  147.1012  137.6412  153.1530 N   0  3  0  0  0  0  0  0  0  0  0  0
  145.6739  137.2243  153.3046 C   0  0  2  0  0  0  0  0  0  0  0  0
  145.4890  135.8379  153.9703 C   0  0  0  0  0  0  0  0  0  0  0  0
  144.5268  135.1112  153.0118 C   0  0  2  0  0  0  0  0  0  0  0  0
  145.3076  134.6794  151.7587 C   0  0  0  0  0  0  0  0  0  0  0  0
  145.5661  136.0199  151.0486 C   0  0  0  0  0  0  0  0  0  0  0  0
  144.8850  137.0446  151.9821 C   0  0  1  0  0  0  0  0  0  0  0  0
  143.6760  136.2528  152.4695 C   0  0  0  0  0  0  0  0  0  0  0  0
  147.3013  138.8780  152.3447 C   0  0  0  0  0  0  0  0  0  0  0  0
  146.9777  140.1501  153.1513 C   0  0  0  0  0  0  0  0  0  0  0  0
  148.8188  140.6358  156.5041 H   0  0  0  0  0  0  0  0  0  0  0  0
  150.6216  142.7404  155.3859 H   0  0  0  0  0  0  0  0  0  0  0  0
  149.8037  142.8610  156.9266 H   0  0  0  0  0  0  0  0  0  0  0  0
  151.1199  140.4551  157.2784 H   0  0  0  0  0  0  0  0  0  0  0  0
  152.2491  141.2629  156.2204 H   0  0  0  0  0  0  0  0  0  0  0  0
  152.3005  140.5046  159.3712 H   0  0  0  0  0  0  0  0  0  0  0  0
  153.2204  141.9208  161.2940 H   0  0  0  0  0  0  0  0  0  0  0  0
  152.7562  145.4214  159.1425 H   0  0  0  0  0  0  0  0  0  0  0  0
  151.8185  144.1679  157.1200 H   0  0  0  0  0  0  0  0  0  0  0  0
  148.0954  139.0115  156.1559 H   0  0  0  0  0  0  0  0  0  0  0  0
  146.4850  139.0421  155.5243 H   0  0  0  0  0  0  0  0  0  0  0  0
  148.9058  137.6783  154.2275 H   0  0  0  0  0  0  0  0  0  0  0  0
  147.6360  136.8484  155.0751 H   0  0  0  0  0  0  0  0  0  0  0  0
  145.1545  137.9723  153.9050 H   0  0  0  0  0  0  0  0  0  0  0  0
  146.4200  135.2811  154.0825 H   0  0  0  0  0  0  0  0  0  0  0  0
  145.0469  135.9475  154.9614 H   0  0  0  0  0  0  0  0  0  0  0  0
  143.9691  134.2995  153.4797 H   0  0  0  0  0  0  0  0  0  0  0  0
  146.2298  134.1508  152.0024 H   0  0  0  0  0  0  0  0  0  0  0  0
  144.7027  134.0234  151.1312 H   0  0  0  0  0  0  0  0  0  0  0  0
  146.6287  136.2147  150.9038 H   0  0  0  0  0  0  0  0  0  0  0  0
  145.0949  136.0240  150.0650 H   0  0  0  0  0  0  0  0  0  0  0  0
  144.6233  137.9819  151.4904 H   0  0  0  0  0  0  0  0  0  0  0  0
  143.0042  135.9478  151.6649 H   0  0  0  0  0  0  0  0  0  0  0  0
  143.0991  136.7670  153.2404 H   0  0  0  0  0  0  0  0  0  0  0  0
  148.3484  138.9104  152.0402 H   0  0  0  0  0  0  0  0  0  0  0  0
  146.7336  138.8546  151.4161 H   0  0  0  0  0  0  0  0  0  0  0  0
  145.9250  140.1667  153.4362 H   0  0  0  0  0  0  0  0  0  0  0  0
  147.1212  141.0274  152.5192 H   0  0  0  0  0  0  0  0  0  0  0  0
  147.5311  136.8947  152.6254 H   0  0  0  0  0  0  0  0  0  0  0  0
  153.3674  144.2159  161.0222 H   0  0  0  0  0  0  0  0  0  0  0  0
  1  2  2  0  0  0  0
  2  3  1  0  0  0  0
  2 12  1  0  0  0  0
  3  4  1  0  0  0  0
  3 25  1  0  0  0  0
  4  5  1  0  0  0  0
  4 26  1  0  0  0  0
  4 27  1  0  0  0  0
  5  6  1  0  0  0  0
  5 28  1  0  0  0  0
  5 29  1  0  0  0  0
  6 11  1  0  0  0  0
  6  7  2  0  0  0  0
  7  8  1  0  0  0  0
  7 30  1  0  0  0  0
  8  9  2  0  0  0  0
  8 31  1  0  0  0  0
  9 10  1  0  0  0  0
  9 54  1  0  0  0  0
 10 11  2  0  0  0  0
 10 32  1  0  0  0  0
 11 33  1  0  0  0  0
 12 24  1  0  0  0  0
 12 13  1  0  0  0  0
 13 14  1  0  0  0  0
 13 34  1  0  0  0  0
 13 35  1  0  0  0  0
 14 15  1  0  0  0  0
 14 36  1  0  0  0  0
 14 37  1  0  0  0  0
 15 16  1  0  0  0  0
 15 23  1  0  0  0  0
 15 53  1  0  0  0  0
 16 21  1  0  0  0  0
 16 17  1  0  0  0  0
 16 38  1  0  0  0  0
 17 18  1  0  0  0  0
 17 39  1  0  0  0  0
 17 40  1  0  0  0  0
 18 22  1  0  0  0  0
 18 19  1  0  0  0  0
 18 41  1  0  0  0  0
 19 20  1  0  0  0  0
 19 42  1  0  0  0  0
 19 43  1  0  0  0  0
 20 21  1  0  0  0  0
 20 44  1  0  0  0  0
 20 45  1  0  0  0  0
 21 22  1  0  0  0  0
 21 46  1  0  0  0  0
 22 47  1  0  0  0  0
 22 48  1  0  0  0  0
 23 24  1  0  0  0  0
 23 49  1  0  0  0  0
 23 50  1  0  0  0  0
 24 51  1  0  0  0  0
 24 52  1  0  0  0  0
M  CHG  1   9   1
M  CHG  1  15   1
M  END
> <s_m_source_file>
AV-unprocessed.smi

> <i_m_source_file_index>
2895

> <i_lp_mmshare_version>
43012

> <i_f3d_flags>
0

> <s_epik_input>
W0NIMl0xW0NIMl1bQ0BASF0oW0NIMl0yKVtDQEBIXShbQ0gyXVtDQEhdMTIpTihbQ0gyXVtDSDJdMylbQ0gyXVtDSDJdTjNDKD1PKVtOSF1bQ0gyXVtDSDJdYzRbY0hdW2NIXW5bY0hdW2NIXTQ=

> <s_epik_cmdline>
J2VwaWtfcHl0aG9uJywgJy1waCcsICc3LjAnLCAnLXRuJywgJzgnLCAnLW1hJywgJzIwMCcsICctbWV0YWxfYmluZGluZycsICctaW1hZScsICc8aW5maWxlLm1hZT4nLCAnLW9tYWUnLCAnPG91dGZpbGUubWFlPic=

> <r_epik_Ionization_Penalty>
1.44916

> <r_epik_Ionization_Penalty_Charging>
1.44913

> <r_epik_Ionization_Penalty_Neutral>
2.64641e-05

> <r_epik_State_Penalty>
1.53218

> <r_epik_Charging_Adjusted_Penalty>
2.98131

> <i_epik_Tot_Q>
2

> <i_epik_Tot_abs_Q>
2

> <r_epik_Metal_State_Penalty>
1.58241

> <b_epik_Metal_Only>
0

> <s_lp_Force_Field>
OPLS_2005

> <r_lp_Energy>
107.451

> <b_lp_Chiralities_Consistent>
1

> <s_lp_Variant>
AV-unprocessed.smi:2895-5

> <Gold.Version>
5.8.1

> <Gold.Id.Protein>
6NUR|6NUR_protein|mol2

> <Gold.PLP.Fitness>
45.0189

> <Gold.PLP.PLP>
-38.6645

> <Gold.PLP.part.hbond>
-3.0000

> <Gold.PLP.part.metal>
0.0000

> <Gold.PLP.part.buried>
0.6448

> <Gold.PLP.part.nonpolar>
-36.1869

> <Gold.PLP.part.repulsive>
0.3252

> <Gold.PLP.ligand.clash>
0.0000

> <Gold.PLP.ligand.torsion>
0.7533

> <Gold.PLP.Chemscore.Hbond>
2.5920

> <Gold.PLP.Chemscore.CHOScore>
0.0000

> <Gold.PLP.Chemscore.Metal>
0.0000

> <Gold.Chemscore.Hbonds>
donor molecule, donor type, donor heavy atom, donor atom, acceptor molecule, acceptor atom, score
      L1  H    15    53       P1  7948  1.95
      P1  H  8011  8017       L1     1  0.63

> <Gold.PLP.Chemscore.Internal.Correction>
0.0849

> <Gold.Rescore>
     Score         DG    S(hbond)    S(metal)    S(lipo)     H(rot)  DE(clash)    DE(int)     intcor
     18.97     -20.00       1.53        0.00     112.32       1.46       0.31       0.72       ----

> <Gold.Chemscore.Fitness>
18.9679

> <Gold.Chemscore.DG>
-19.9958

> <Gold.Chemscore.ZeroCoef>
-5.4800

> <Gold.Chemscore.Hbond>
1.5283

> <Gold.Chemscore.Metal>
0.0000

> <Gold.Chemscore.Lipo>
112.3224

> <Gold.Chemscore.Internal_Hbond>
0.0000

> <Gold.Chemscore.DEClash>
0.3106

> <Gold.Chemscore.DEInternal>
0.7173

> <Gold.Chemscore.Rot>
1.4572

> <Gold.Chemscore.Internal.Correction>
   9.000000E+99

> <Gold.Chemscore.Hbonds>
donor molecule, donor type, donor heavy atom, donor atom, acceptor molecule, acceptor atom, score
      L1  H    15    53       P1  7948  0.93
      P1  H  8011  8017       L1     1  0.59

> <Gold.Chemscore.Hbond.Weighted>
-5.1047

> <Gold.Chemscore.Metal.Weighted>
-0.0000

> <Gold.Chemscore.Lipo.Weighted>
-13.1417

> <Gold.Chemscore.Internal_Hbond.Weighted>
0.0000

> <Gold.Chemscore.DEClash.Weighted>
0.3106

> <Gold.Chemscore.DEInternal.Weighted>
0.7173

> <Gold.Chemscore.Rot.Weighted>
3.7305

> <Gold.Chemscore.Internal.Correction.Weighted>
   9.000000E+99

> <Gold.Protein.RotatedTorsions>
[ 6907 6896 6895 6894 ] final  -91.02 input  -60.11 | X-H torsion
[ 7974 7965 7964 7962 ] final   85.57 input  175.53 | X-H torsion
[ 8008 7997 7996 7995 ] final -109.54 input   59.86 | X-H torsion
[ 10167 10162 10161 10158 ] final  157.55 input  -65.29 | X-H torsion
[ 10718 10713 10712 10709 ] final -120.37 input   66.30 | X-H torsion
[ 10763 10752 10751 10750 ] final -109.72 input  -60.55 | X-H torsion
[ 11005 11000 10999 10996 ] final    4.67 input  -57.11 | X-H torsion

> <Gold.Protein.ActiveResidues>
 VAL166  LYS551  ARG553  GLY616  TRP617  ASP618  TYR619  PRO620  LYS621  CYS622 
 ASP623  PHE694  ASN695  SER759  ASP760  ASP761  ALA762  ILE779  LEU786  VAL792 
 PHE793  MET794  SER795  GLU796  ALA797  LYS798  CYS799  TRP800  GLU811  SER814 

> <Gold.Protein.RotatedAtoms>
  150.6888  134.2342  159.4446 H   0  0  0  0  0  0  0  0  0  0  0  0  # atno 6907 bound_to 6896
  152.0291  134.9776  160.0581 H   0  0  0  0  0  0  0  0  0  0  0  0  # atno 6908 bound_to 6896
  152.1322  133.4380  159.4763 H   0  0  0  0  0  0  0  0  0  0  0  0  # atno 6909 bound_to 6896
  145.5838  139.2328  143.2338 H   0  0  0  0  0  0  0  0  0  0  0  0  # atno 7974 bound_to 7965
  154.9608  140.0399  157.2189 H   0  0  0  0  0  0  0  0  0  0  0  0  # atno 8008 bound_to 7997
  154.7890  140.2832  155.5983 H   0  0  0  0  0  0  0  0  0  0  0  0  # atno 8009 bound_to 7997
  156.2947  140.2577  156.2734 H   0  0  0  0  0  0  0  0  0  0  0  0  # atno 8010 bound_to 7997
  139.4823  144.4907  151.8312 H   0  0  0  0  0  0  0  0  0  0  0  0  # atno 10167 bound_to 10162
  156.1253  130.6354  150.9532 H   0  0  0  0  0  0  0  0  0  0  0  0  # atno 10718 bound_to 10713
  154.8209  135.4590  154.0775 H   0  0  0  0  0  0  0  0  0  0  0  0  # atno 10763 bound_to 10752
  153.2130  135.6884  153.8098 H   0  0  0  0  0  0  0  0  0  0  0  0  # atno 10764 bound_to 10752
  153.7542  135.3293  155.3303 H   0  0  0  0  0  0  0  0  0  0  0  0  # atno 10765 bound_to 10752
  140.5794  134.0027  155.8041 H   0  0  0  0  0  0  0  0  0  0  0  0  # atno 11005 bound_to 11000
  146.1697  140.6664  142.9239 LP  0  0  0  0  0  0  0  0  0  0  0  0  # atno 17320 bound_to 7965
  144.7382  140.4868  143.6888 LP  0  0  0  0  0  0  0  0  0  0  0  0  # atno 17321 bound_to 7965
  140.4391  144.2011  150.5890 LP  0  0  0  0  0  0  0  0  0  0  0  0  # atno 17342 bound_to 10162
  140.4701  143.2416  151.9100 LP  0  0  0  0  0  0  0  0  0  0  0  0  # atno 17343 bound_to 10162
  157.6435  131.0907  150.8203 LP  0  0  0  0  0  0  0  0  0  0  0  0  # atno 17370 bound_to 10713
  156.8294  130.5011  149.5333 LP  0  0  0  0  0  0  0  0  0  0  0  0  # atno 17371 bound_to 10713
  141.1006  133.9774  157.3085 LP  0  0  0  0  0  0  0  0  0  0  0  0  # atno 17394 bound_to 11000
  139.9324  135.0199  156.8446 LP  0  0  0  0  0  0  0  0  0  0  0  0  # atno 17395 bound_to 11000

$$$$
