#       Name:                AV-unprocessed.smi:37
#       Creating user name   scv26
#       Creation time:       Thu Mar 26 16:14:09 2020


#       File generated by GOLD software.
#

@<TRIPOS>MOLECULE
AV-unprocessed.smi:37
    54    55     1
SMALL
NO_CHARGES


@<TRIPOS>ATOM
      1 ****        -3.7642   3.5508  -0.4761 C.3            1 S1                 0.0000
      2 ****        -4.4486   2.2683   0.0160 C.3            1 S1                 0.0000
      3 ****        -3.7909   1.0105  -0.5472 C.2            1 S1                 0.0000
      4 ****        -4.3930   0.2616  -1.3170 O.2            1 S1                 0.0000
      5 ****        -2.5355   0.8396  -0.1038 O.3            1 S1                 0.0000
      6 ****        -1.7841  -0.2804  -0.5407 C.3            1 S1                 0.0000
      7 ****        -0.3571  -0.1792   0.0077 C.3            1 S1                 0.0000
      8 ****         0.3711   0.8284  -0.6965 O.3            1 S1                 0.0000
      9 ****         1.5625   0.2982  -1.1945 C.3            1 S1                 0.0000
     10 ****         2.6637   1.3305  -1.1222 N.am           1 S1                 0.0000
     11 ****         2.5280   2.4779  -0.3578 C.2            1 S1                 0.0000
     12 ****         3.5147   3.3954  -0.2958 C.2            1 S1                 0.0000
     13 ****         3.3574   4.4971   0.4581 F              1 S1                 0.0000
     14 ****         4.7499   3.1821  -1.0481 C.2            1 S1                 0.0000
     15 ****         5.6449   4.0237  -0.9901 O.2            1 S1                 0.0000
     16 ****         4.8553   2.0423  -1.7913 N.pl3          1 S1                -1.0000
     17 ****         3.8603   1.1098  -1.8555 C.2            1 S1                 0.0000
     18 ****         3.9456   0.0767  -2.5200 O.2            1 S1                 0.0000
     19 ****         1.8596  -0.9505  -0.3621 C.3            1 S1                 0.0000
     20 ****         2.6684  -0.4915   1.4102 Br             1 S1                 0.0000
     21 ****         0.4455  -1.4721  -0.1783 C.3            1 S1                 0.0000
     22 ****         0.3151  -2.3401   0.9402 O.3            1 S1                 0.0000
     23 ****         0.5725  -3.6541   0.8122 C.2            1 S1                 0.0000
     24 ****         0.9424  -4.2209  -0.2161 O.2            1 S1                 0.0000
     25 ****         0.3741  -4.4223   2.1168 C.3            1 S1                 0.0000
     26 ****        -1.0861  -4.3987   2.5886 C.3            1 S1                 0.0000
     27 ****        -4.2731   4.4314  -0.0838 H              1 S1                 0.0000
     28 ****        -3.7815   3.6170  -1.5646 H              1 S1                 0.0000
     29 ****        -2.7240   3.5999  -0.1519 H              1 S1                 0.0000
     30 ****        -4.4195   2.2236   1.1050 H              1 S1                 0.0000
     31 ****        -5.5000   2.2760  -0.2727 H              1 S1                 0.0000
     32 ****        -2.2604  -1.1885  -0.1682 H              1 S1                 0.0000
     33 ****        -1.7700  -0.3385  -1.6301 H              1 S1                 0.0000
     34 ****        -0.3710   0.0942   1.0641 H              1 S1                 0.0000
     35 ****         1.4188   0.0815  -2.2549 H              1 S1                 0.0000
     36 ****         1.6265   2.6503   0.2108 H              1 S1                 0.0000
     37 ****         2.5226  -1.6396  -0.8861 H              1 S1                 0.0000
     38 ****         0.1173  -1.9594  -1.0983 H              1 S1                 0.0000
     39 ****         0.6994  -5.4529   1.9719 H              1 S1                 0.0000
     40 ****         1.0213  -3.9909   2.8808 H              1 S1                 0.0000
     41 ****        -1.2043  -4.9860   3.4991 H              1 S1                 0.0000
     42 ****        -1.7535  -4.8190   1.8354 H              1 S1                 0.0000
     43 ****        -1.4201  -3.3837   2.8065 H              1 S1                 0.0000
     44 ****        -5.3330   0.4717  -1.5859 LP             1 S1                 0.0000
     45 ****        -3.9420  -0.5567  -1.6733 LP             1 S1                 0.0000
     46 ****         0.5793   1.5825  -0.0736 LP             1 S1                 0.0000
     47 ****        -0.1835   1.1673  -1.4565 LP             1 S1                 0.0000
     48 ****         5.5239   4.8447  -0.4320 LP             1 S1                 0.0000
     49 ****         6.4936   3.8871  -1.5010 LP             1 S1                 0.0000
     50 ****         5.6955   1.8838  -2.3099 LP             1 S1                 0.0000
     51 ****         3.1869  -0.5746  -2.5312 LP             1 S1                 0.0000
     52 ****         4.7736  -0.1109  -3.0484 LP             1 S1                 0.0000
     53 ****         1.0765  -3.6952  -1.0562 LP             1 S1                 0.0000
     54 ****         1.1087  -5.2069  -0.2113 LP             1 S1                 0.0000
@<TRIPOS>BOND
    1    1    2 1     
    2    1   27 1     
    3    1   28 1     
    4    1   29 1     
    5    2    3 1     
    6    2   30 1     
    7    2   31 1     
    8    3    4 2     
    9    3    5 1     
   10    5    6 1     
   11    6    7 1     
   12    6   32 1     
   13    6   33 1     
   14    7   21 1     
   15    7    8 1     
   16    7   34 1     
   17    8    9 1     
   18    9   10 1     
   19    9   19 1     
   20    9   35 1     
   21   10   17 am    
   22   10   11 1     
   23   11   12 2     
   24   11   36 1     
   25   12   13 1     
   26   12   14 1     
   27   14   15 2     
   28   14   16 1     
   29   16   17 1     
   30   17   18 2     
   31   19   20 1     
   32   19   21 1     
   33   19   37 1     
   34   21   22 1     
   35   21   38 1     
   36   22   23 1     
   37   23   24 2     
   38   23   25 1     
   39   25   26 1     
   40   25   39 1     
   41   25   40 1     
   42   26   41 1     
   43   26   42 1     
   44   26   43 1     
   45    4   44 1     
   46    4   45 1     
   47    8   46 1     
   48    8   47 1     
   49   15   48 1     
   50   15   49 1     
   51   16   50 1     
   52   18   51 1     
   53   18   52 1     
   54   24   53 1     
   55   24   54 1     
@<TRIPOS>SUBSTRUCTURE
      1 S1             1
@<TRIPOS>SET
LONE_PAIRS      STATIC     ATOMS    <user>   **** ""
11 44 45 46 47 48 49 50 51 52 53 54
ATOM$BLUE        STATIC     ATOMS    COLORGROUP SYSTEM
11 44 45 46 47 48 49 50 51 52 53 54
