AV-unprocessed.smi:3232|AV-procd|sdf|12345|dock10
  -GOLD-   2272018203D 1   1.00000     0.00000
 Structure written by MMmdl.
 40 41  0  0  0  0  0  0  0  0  2 V2000
  145.9377  132.7027  150.5476 C   0  0  0  0  0  0  0  0  0  0  0  0
  146.0399  131.7491  151.7462 C   0  0  0  0  0  0  0  0  0  0  0  0
  147.4125  131.6962  152.3085 N   0  3  2  0  0  0  0  0  0  0  0  0
  147.6058  130.6876  153.3751 C   0  0  0  0  0  0  0  0  0  0  0  0
  148.7440  131.2051  154.2665 C   0  0  0  0  0  0  0  0  0  0  0  0
  149.2513  132.4630  153.5630 C   0  0  0  0  0  0  0  0  0  0  0  0
  148.0317  132.9621  152.7766 C   0  0  2  0  0  0  0  0  0  0  0  0
  147.0700  133.8427  153.6181 C   0  0  0  0  0  0  0  0  0  0  0  0
  147.6373  135.1590  153.8919 N   0  0  0  0  0  0  0  0  0  0  0  0
  147.5437  135.8191  155.0580 C   0  0  0  0  0  0  0  0  0  0  0  0
  146.9044  135.3937  156.0209 O   0  0  0  0  0  0  0  0  0  0  0  0
  148.3140  137.1467  155.1483 C   0  0  1  0  0  0  0  0  0  0  0  0
  147.6992  138.1339  156.1604 C   0  0  0  0  0  0  0  0  0  0  0  0
  149.7220  136.8928  155.4296 N   0  0  0  0  0  0  0  0  0  0  0  0
  150.7831  136.9465  154.6218 C   0  0  0  0  0  0  0  0  0  0  0  0
  151.9231  136.6085  155.2077 N   0  0  0  0  0  0  0  0  0  0  0  0
  151.4626  136.3373  156.4649 C   0  0  0  0  0  0  0  0  0  0  0  0
  150.1509  136.4833  156.6499 N   0  0  0  0  0  0  0  0  0  0  0  0
  144.9358  132.6755  150.1187 H   0  0  0  0  0  0  0  0  0  0  0  0
  146.6409  132.4240  149.7620 H   0  0  0  0  0  0  0  0  0  0  0  0
  146.1433  133.7349  150.8308 H   0  0  0  0  0  0  0  0  0  0  0  0
  145.3116  132.0092  152.5145 H   0  0  0  0  0  0  0  0  0  0  0  0
  145.7751  130.7460  151.4092 H   0  0  0  0  0  0  0  0  0  0  0  0
  146.6959  130.5673  153.9655 H   0  0  0  0  0  0  0  0  0  0  0  0
  147.8455  129.7214  152.9301 H   0  0  0  0  0  0  0  0  0  0  0  0
  148.3546  131.4625  155.2523 H   0  0  0  0  0  0  0  0  0  0  0  0
  149.5341  130.4668  154.4063 H   0  0  0  0  0  0  0  0  0  0  0  0
  149.6806  133.1906  154.2509 H   0  0  0  0  0  0  0  0  0  0  0  0
  150.0405  132.1869  152.8623 H   0  0  0  0  0  0  0  0  0  0  0  0
  148.3640  133.5383  151.9119 H   0  0  0  0  0  0  0  0  0  0  0  0
  146.1430  134.0204  153.0737 H   0  0  0  0  0  0  0  0  0  0  0  0
  146.7856  133.3336  154.5406 H   0  0  0  0  0  0  0  0  0  0  0  0
  148.1771  135.5844  153.1522 H   0  0  0  0  0  0  0  0  0  0  0  0
  148.2604  137.6150  154.1641 H   0  0  0  0  0  0  0  0  0  0  0  0
  146.6615  138.3591  155.9107 H   0  0  0  0  0  0  0  0  0  0  0  0
  148.2454  139.0776  156.1618 H   0  0  0  0  0  0  0  0  0  0  0  0
  147.7174  137.7417  157.1781 H   0  0  0  0  0  0  0  0  0  0  0  0
  150.7199  137.2335  153.5823 H   0  0  0  0  0  0  0  0  0  0  0  0
  152.1120  136.0159  157.2656 H   0  0  0  0  0  0  0  0  0  0  0  0
  148.0074  131.3843  151.5541 H   0  0  0  0  0  0  0  0  0  0  0  0
  1  2  1  0  0  0  0
  1 19  1  0  0  0  0
  1 20  1  0  0  0  0
  1 21  1  0  0  0  0
  2  3  1  0  0  0  0
  2 22  1  0  0  0  0
  2 23  1  0  0  0  0
  3  7  1  0  0  0  0
  3  4  1  0  0  0  0
  3 40  1  0  0  0  0
  4  5  1  0  0  0  0
  4 24  1  0  0  0  0
  4 25  1  0  0  0  0
  5  6  1  0  0  0  0
  5 26  1  0  0  0  0
  5 27  1  0  0  0  0
  6  7  1  0  0  0  0
  6 28  1  0  0  0  0
  6 29  1  0  0  0  0
  7  8  1  0  0  0  0
  7 30  1  0  0  0  0
  8  9  1  0  0  0  0
  8 31  1  0  0  0  0
  8 32  1  0  0  0  0
  9 10  1  0  0  0  0
  9 33  1  0  0  0  0
 10 11  2  0  0  0  0
 10 12  1  0  0  0  0
 12 13  1  0  0  0  0
 12 14  1  0  0  0  0
 12 34  1  0  0  0  0
 13 35  1  0  0  0  0
 13 36  1  0  0  0  0
 13 37  1  0  0  0  0
 14 18  1  0  0  0  0
 14 15  1  0  0  0  0
 15 16  2  0  0  0  0
 15 38  1  0  0  0  0
 16 17  1  0  0  0  0
 17 18  2  0  0  0  0
 17 39  1  0  0  0  0
M  CHG  1   3   1
M  END
> <s_m_source_file>
AV-unprocessed.smi

> <i_m_source_file_index>
3232

> <i_lp_mmshare_version>
43012

> <i_f3d_flags>
0

> <s_epik_input>
W0NIM11bQ0gyXU4xW0NIMl1bQ0gyXVtDSDJdW0NASF0xW0NIMl1bTkhdQyg9TylbQ0BIXShbQ0gzXSluMltjSF1uW2NIXW4y

> <s_epik_cmdline>
J2VwaWtfcHl0aG9uJywgJy1waCcsICc3LjAnLCAnLXRuJywgJzgnLCAnLW1hJywgJzIwMCcsICctbWV0YWxfYmluZGluZycsICctaW1hZScsICc8aW5maWxlLm1hZT4nLCAnLW9tYWUnLCAnPG91dGZpbGUubWFlPic=

> <r_lp_tautomer_probability>
1

> <r_epik_Ionization_Penalty>
0.00177695

> <r_epik_Ionization_Penalty_Charging>
0.00176881

> <r_epik_Ionization_Penalty_Neutral>
8.13528e-06

> <r_epik_State_Penalty>
0.00119827

> <r_epik_Charging_Adjusted_Penalty>
0.00296709

> <i_epik_Tot_Q>
1

> <i_epik_Tot_abs_Q>
1

> <r_epik_Metal_State_Penalty>
-0

> <b_epik_Metal_Only>
0

> <s_lp_Force_Field>
OPLS_2005

> <r_lp_Energy>
36.5981

> <b_lp_Chiralities_Consistent>
1

> <s_lp_Variant>
AV-unprocessed.smi:3232-7

> <Gold.Version>
5.8.1

> <Gold.Id.Protein>
6NUR|6NUR_protein|mol2

> <Gold.PLP.Fitness>
34.0287

> <Gold.PLP.PLP>
-23.9240

> <Gold.PLP.part.hbond>
-3.0000

> <Gold.PLP.part.metal>
0.0000

> <Gold.PLP.part.buried>
-4.0812

> <Gold.PLP.part.nonpolar>
-17.5485

> <Gold.PLP.part.repulsive>
0.0946

> <Gold.PLP.ligand.clash>
0.0000

> <Gold.PLP.ligand.torsion>
1.1122

> <Gold.PLP.Chemscore.Hbond>
3.0000

> <Gold.PLP.Chemscore.CHOScore>
1.0671

> <Gold.PLP.Chemscore.Metal>
0.0000

> <Gold.Chemscore.Hbonds>
donor molecule, donor type, donor heavy atom, donor atom, acceptor molecule, acceptor atom, score
      L1  H     3    40       P1 10747  1.00
      L1  H     9    33       P1  7948  1.00
      P1  H 10752 10763       L1    16  1.00
      L1  C    15    38       P1  7948  0.33
      L1  C    15    38       P1  7949  0.76

> <Gold.PLP.Chemscore.Internal.Correction>
0.1277

> <Gold.Rescore>
     Score         DG    S(hbond)    S(metal)    S(lipo)     H(rot)  DE(clash)    DE(int)     intcor
     13.64     -14.42       2.97        0.00      45.96       2.49       0.00       0.79       ----

> <Gold.Chemscore.Fitness>
13.6364

> <Gold.Chemscore.DG>
-14.4236

> <Gold.Chemscore.ZeroCoef>
-5.4800

> <Gold.Chemscore.Hbond>
2.9749

> <Gold.Chemscore.Metal>
0.0000

> <Gold.Chemscore.Lipo>
45.9580

> <Gold.Chemscore.Internal_Hbond>
0.0000

> <Gold.Chemscore.DEClash>
0.0000

> <Gold.Chemscore.DEInternal>
0.7872

> <Gold.Chemscore.Rot>
2.4882

> <Gold.Chemscore.Internal.Correction>
   9.000000E+99

> <Gold.Chemscore.Hbonds>
donor molecule, donor type, donor heavy atom, donor atom, acceptor molecule, acceptor atom, score
      L1  H     3    40       P1 10747  1.00
      L1  H     9    33       P1  7948  0.99
      P1  H 10752 10763       L1    16  0.83

> <Gold.Chemscore.Hbond.Weighted>
-9.9363

> <Gold.Chemscore.Metal.Weighted>
-0.0000

> <Gold.Chemscore.Lipo.Weighted>
-5.3771

> <Gold.Chemscore.Internal_Hbond.Weighted>
0.0000

> <Gold.Chemscore.DEClash.Weighted>
0.0000

> <Gold.Chemscore.DEInternal.Weighted>
0.7872

> <Gold.Chemscore.Rot.Weighted>
6.3697

> <Gold.Chemscore.Internal.Correction.Weighted>
   9.000000E+99

> <Gold.Protein.RotatedTorsions>
[ 6907 6896 6895 6894 ] final   24.67 input  -60.11 | X-H torsion
[ 7974 7965 7964 7962 ] final  -61.00 input  175.53 | X-H torsion
[ 8008 7997 7996 7995 ] final -124.78 input   59.86 | X-H torsion
[ 10167 10162 10161 10158 ] final  -10.25 input  -65.29 | X-H torsion
[ 10718 10713 10712 10709 ] final  -47.21 input   66.30 | X-H torsion
[ 10763 10752 10751 10750 ] final   65.10 input  -60.55 | X-H torsion
[ 11005 11000 10999 10996 ] final  -39.47 input  -57.11 | X-H torsion

> <Gold.Protein.ActiveResidues>
 VAL166  LYS551  ARG553  GLY616  TRP617  ASP618  TYR619  PRO620  LYS621  CYS622 
 ASP623  PHE694  ASN695  SER759  ASP760  ASP761  ALA762  ILE779  LEU786  VAL792 
 PHE793  MET794  SER795  GLU796  ALA797  LYS798  CYS799  TRP800  GLU811  SER814 

> <Gold.Protein.RotatedAtoms>
  151.9609  135.0124  160.0547 H   0  0  0  0  0  0  0  0  0  0  0  0  # atno 6907 bound_to 6896
  152.1869  133.4741  159.4996 H   0  0  0  0  0  0  0  0  0  0  0  0  # atno 6908 bound_to 6896
  150.6927  134.1679  159.4244 H   0  0  0  0  0  0  0  0  0  0  0  0  # atno 6909 bound_to 6896
  145.8087  140.8612  143.0193 H   0  0  0  0  0  0  0  0  0  0  0  0  # atno 7974 bound_to 7965
  155.2025  140.0416  157.2920 H   0  0  0  0  0  0  0  0  0  0  0  0  # atno 8008 bound_to 7997
  154.6065  140.2465  155.7696 H   0  0  0  0  0  0  0  0  0  0  0  0  # atno 8009 bound_to 7997
  156.2353  140.2923  156.0306 H   0  0  0  0  0  0  0  0  0  0  0  0  # atno 8010 bound_to 7997
  140.7109  143.5769  150.9033 H   0  0  0  0  0  0  0  0  0  0  0  0  # atno 10167 bound_to 10162
  156.2107  130.4160  149.9118 H   0  0  0  0  0  0  0  0  0  0  0  0  # atno 10718 bound_to 10713
  153.0082  135.5369  154.6615 H   0  0  0  0  0  0  0  0  0  0  0  0  # atno 10763 bound_to 10752
  154.5822  135.2851  155.0723 H   0  0  0  0  0  0  0  0  0  0  0  0  # atno 10764 bound_to 10752
  154.1848  135.6510  153.5096 H   0  0  0  0  0  0  0  0  0  0  0  0  # atno 10765 bound_to 10752
  141.0104  133.6911  156.2191 H   0  0  0  0  0  0  0  0  0  0  0  0  # atno 11005 bound_to 11000
  144.6760  140.0364  143.7481 LP  0  0  0  0  0  0  0  0  0  0  0  0  # atno 17320 bound_to 7965
  145.9800  139.2934  143.1047 LP  0  0  0  0  0  0  0  0  0  0  0  0  # atno 17321 bound_to 7965
  139.9495  143.6289  152.3033 LP  0  0  0  0  0  0  0  0  0  0  0  0  # atno 17342 bound_to 10162
  139.6802  144.7656  151.1622 LP  0  0  0  0  0  0  0  0  0  0  0  0  # atno 17343 bound_to 10162
  156.6797  130.8853  151.3574 LP  0  0  0  0  0  0  0  0  0  0  0  0  # atno 17370 bound_to 10713
  157.7037  130.9361  150.0863 LP  0  0  0  0  0  0  0  0  0  0  0  0  # atno 17371 bound_to 10713
  140.6743  134.4835  157.5588 LP  0  0  0  0  0  0  0  0  0  0  0  0  # atno 17394 bound_to 11000
  139.9087  134.8393  156.1610 LP  0  0  0  0  0  0  0  0  0  0  0  0  # atno 17395 bound_to 11000

$$$$
