AV-unprocessed.smi:1893|AV-procd|sdf|7674|dock9
  -GOLD-   22720 9413D 1   1.00000     0.00000
 Structure written by MMmdl.
 43 44  0  0  0  0  0  0  0  0  2 V2000
  145.7203  136.7682  152.6490 C   0  0  0  0  0  0  0  0  0  0  0  0
  145.5859  135.2326  152.6601 C   0  0  1  0  0  0  0  0  0  0  0  0
  145.3152  134.7404  151.2212 C   0  0  0  0  0  0  0  0  0  0  0  0
  145.1886  133.2158  151.1494 C   0  0  0  0  0  0  0  0  0  0  0  0
  146.4449  132.5719  151.7387 C   0  0  0  0  0  0  0  0  0  0  0  0
  146.6799  133.0668  153.1724 C   0  0  0  0  0  0  0  0  0  0  0  0
  146.7873  134.5503  153.2389 N   0  3  2  0  0  0  0  0  0  0  0  0
  147.1493  135.0036  154.6101 C   0  0  0  0  0  0  0  0  0  0  0  0
  148.6483  134.7975  154.8966 C   0  0  0  0  0  0  0  0  0  0  0  0
  149.4605  135.7983  154.2161 N   0  0  0  0  0  0  0  0  0  0  0  0
  150.1430  136.7798  154.8274 C   0  0  0  0  0  0  0  0  0  0  0  0
  150.1730  136.9102  156.0518 O   0  0  0  0  0  0  0  0  0  0  0  0
  150.8899  137.7624  153.9109 C   0  0  2  0  0  0  0  0  0  0  0  0
  152.2727  138.1647  154.4628 C   0  0  0  0  0  0  0  0  0  0  0  0
  150.0542  138.9237  153.6314 N   0  0  0  0  0  0  0  0  0  0  0  0
  148.7847  138.9898  153.2242 C   0  0  0  0  0  0  0  0  0  0  0  0
  148.3181  140.2254  153.1136 N   0  0  0  0  0  0  0  0  0  0  0  0
  149.4273  140.9237  153.4983 C   0  0  0  0  0  0  0  0  0  0  0  0
  150.4905  140.1925  153.8319 N   0  0  0  0  0  0  0  0  0  0  0  0
  144.8536  137.2293  152.1746 H   0  0  0  0  0  0  0  0  0  0  0  0
  146.6036  137.0850  152.0934 H   0  0  0  0  0  0  0  0  0  0  0  0
  145.7842  137.1880  153.6524 H   0  0  0  0  0  0  0  0  0  0  0  0
  144.7245  134.9716  153.2774 H   0  0  0  0  0  0  0  0  0  0  0  0
  144.4022  135.1957  150.8355 H   0  0  0  0  0  0  0  0  0  0  0  0
  146.1214  135.0662  150.5620 H   0  0  0  0  0  0  0  0  0  0  0  0
  144.3069  132.8884  151.7018 H   0  0  0  0  0  0  0  0  0  0  0  0
  145.0494  132.8964  150.1162 H   0  0  0  0  0  0  0  0  0  0  0  0
  146.3454  131.4860  151.7305 H   0  0  0  0  0  0  0  0  0  0  0  0
  147.3104  132.8098  151.1187 H   0  0  0  0  0  0  0  0  0  0  0  0
  145.8693  132.7310  153.8215 H   0  0  0  0  0  0  0  0  0  0  0  0
  147.5985  132.6173  153.5525 H   0  0  0  0  0  0  0  0  0  0  0  0
  146.8611  136.0444  154.7641 H   0  0  0  0  0  0  0  0  0  0  0  0
  146.5795  134.4423  155.3524 H   0  0  0  0  0  0  0  0  0  0  0  0
  148.8396  134.8296  155.9707 H   0  0  0  0  0  0  0  0  0  0  0  0
  148.9773  133.8165  154.5565 H   0  0  0  0  0  0  0  0  0  0  0  0
  149.4906  135.7558  153.2076 H   0  0  0  0  0  0  0  0  0  0  0  0
  151.0580  137.2521  152.9609 H   0  0  0  0  0  0  0  0  0  0  0  0
  152.9040  137.2894  154.6193 H   0  0  0  0  0  0  0  0  0  0  0  0
  152.1977  138.6921  155.4147 H   0  0  0  0  0  0  0  0  0  0  0  0
  152.7932  138.8201  153.7641 H   0  0  0  0  0  0  0  0  0  0  0  0
  148.1872  138.1158  153.0093 H   0  0  0  0  0  0  0  0  0  0  0  0
  149.4493  142.0028  153.5420 H   0  0  0  0  0  0  0  0  0  0  0  0
  147.5687  134.7939  152.6470 H   0  0  0  0  0  0  0  0  0  0  0  0
  1  2  1  0  0  0  0
  1 20  1  0  0  0  0
  1 21  1  0  0  0  0
  1 22  1  0  0  0  0
  2  7  1  0  0  0  0
  2  3  1  0  0  0  0
  2 23  1  0  0  0  0
  3  4  1  0  0  0  0
  3 24  1  0  0  0  0
  3 25  1  0  0  0  0
  4  5  1  0  0  0  0
  4 26  1  0  0  0  0
  4 27  1  0  0  0  0
  5  6  1  0  0  0  0
  5 28  1  0  0  0  0
  5 29  1  0  0  0  0
  6  7  1  0  0  0  0
  6 30  1  0  0  0  0
  6 31  1  0  0  0  0
  7  8  1  0  0  0  0
  7 43  1  0  0  0  0
  8  9  1  0  0  0  0
  8 32  1  0  0  0  0
  8 33  1  0  0  0  0
  9 10  1  0  0  0  0
  9 34  1  0  0  0  0
  9 35  1  0  0  0  0
 10 11  1  0  0  0  0
 10 36  1  0  0  0  0
 11 12  2  0  0  0  0
 11 13  1  0  0  0  0
 13 14  1  0  0  0  0
 13 15  1  0  0  0  0
 13 37  1  0  0  0  0
 14 38  1  0  0  0  0
 14 39  1  0  0  0  0
 14 40  1  0  0  0  0
 15 19  1  0  0  0  0
 15 16  1  0  0  0  0
 16 17  2  0  0  0  0
 16 41  1  0  0  0  0
 17 18  1  0  0  0  0
 18 19  2  0  0  0  0
 18 42  1  0  0  0  0
M  CHG  1   7   1
M  END
> <s_m_source_file>
AV-unprocessed.smi

> <i_m_source_file_index>
1893

> <i_lp_mmshare_version>
43012

> <i_f3d_flags>
0

> <s_epik_input>
W0NIM11bQ0BASF0xW0NIMl1bQ0gyXVtDSDJdW0NIMl1OMVtDSDJdW0NIMl1bTkhdQyg9TylbQ0BIXShbQ0gzXSluMltjSF1uW2NIXW4y

> <s_epik_cmdline>
J2VwaWtfcHl0aG9uJywgJy1waCcsICc3LjAnLCAnLXRuJywgJzgnLCAnLW1hJywgJzIwMCcsICctbWV0YWxfYmluZGluZycsICctaW1hZScsICc8aW5maWxlLm1hZT4nLCAnLW9tYWUnLCAnPG91dGZpbGUubWFlPic=

> <r_lp_tautomer_probability>
1

> <r_epik_Ionization_Penalty>
0.00266409

> <r_epik_Ionization_Penalty_Charging>
0.00265606

> <r_epik_Ionization_Penalty_Neutral>
8.02794e-06

> <r_epik_State_Penalty>
0.00184955

> <r_epik_Charging_Adjusted_Penalty>
0.00450561

> <i_epik_Tot_Q>
1

> <i_epik_Tot_abs_Q>
1

> <r_epik_Metal_State_Penalty>
-0

> <b_epik_Metal_Only>
0

> <s_lp_Force_Field>
OPLS_2005

> <r_lp_Energy>
24.4169

> <b_lp_Chiralities_Consistent>
1

> <s_lp_Variant>
AV-unprocessed.smi:1893-4

> <Gold.Version>
5.8.1

> <Gold.Id.Protein>
6NUR|6NUR_protein|mol2

> <Gold.PLP.Fitness>
44.1077

> <Gold.PLP.PLP>
-31.6473

> <Gold.PLP.part.hbond>
-3.1606

> <Gold.PLP.part.metal>
0.0000

> <Gold.PLP.part.buried>
-3.3469

> <Gold.PLP.part.nonpolar>
-26.4607

> <Gold.PLP.part.repulsive>
0.2523

> <Gold.PLP.ligand.clash>
0.0000

> <Gold.PLP.ligand.torsion>
1.0530

> <Gold.PLP.Chemscore.Hbond>
4.0000

> <Gold.PLP.Chemscore.CHOScore>
0.8142

> <Gold.PLP.Chemscore.Metal>
0.0000

> <Gold.Chemscore.Hbonds>
donor molecule, donor type, donor heavy atom, donor atom, acceptor molecule, acceptor atom, score
      L1  H     7    43       P1  7948  1.59
      L1  H    10    36       P1  7948  0.70
      P1  H  7989  7998       L1    19  0.53
      L1  C    16    41       P1  7948  0.88

> <Gold.PLP.Chemscore.Internal.Correction>
0.1237

> <Gold.Rescore>
     Score         DG    S(hbond)    S(metal)    S(lipo)     H(rot)  DE(clash)    DE(int)     intcor
     10.62     -11.33       1.92        0.00      50.66       2.54       0.01       0.70       ----

> <Gold.Chemscore.Fitness>
10.6152

> <Gold.Chemscore.DG>
-11.3325

> <Gold.Chemscore.ZeroCoef>
-5.4800

> <Gold.Chemscore.Hbond>
1.9228

> <Gold.Chemscore.Metal>
0.0000

> <Gold.Chemscore.Lipo>
50.6578

> <Gold.Chemscore.Internal_Hbond>
0.0000

> <Gold.Chemscore.DEClash>
0.0126

> <Gold.Chemscore.DEInternal>
0.7046

> <Gold.Chemscore.Rot>
2.5377

> <Gold.Chemscore.Internal.Correction>
   9.000000E+99

> <Gold.Chemscore.Hbonds>
donor molecule, donor type, donor heavy atom, donor atom, acceptor molecule, acceptor atom, score
      L1  H     7    43       P1  7948  0.73
      L1  H    10    36       P1  7948  0.10
      P1  H  7989  7998       L1    19  0.33

> <Gold.Chemscore.Hbond.Weighted>
-6.4221

> <Gold.Chemscore.Metal.Weighted>
-0.0000

> <Gold.Chemscore.Lipo.Weighted>
-5.9270

> <Gold.Chemscore.Internal_Hbond.Weighted>
0.0000

> <Gold.Chemscore.DEClash.Weighted>
0.0126

> <Gold.Chemscore.DEInternal.Weighted>
0.7046

> <Gold.Chemscore.Rot.Weighted>
6.4966

> <Gold.Chemscore.Internal.Correction.Weighted>
   9.000000E+99

> <Gold.Protein.RotatedTorsions>
[ 6907 6896 6895 6894 ] final   20.88 input  -60.11 | X-H torsion
[ 7974 7965 7964 7962 ] final   32.99 input  175.53 | X-H torsion
[ 8008 7997 7996 7995 ] final   62.66 input   59.86 | X-H torsion
[ 10167 10162 10161 10158 ] final  172.12 input  -65.29 | X-H torsion
[ 10718 10713 10712 10709 ] final -168.09 input   66.30 | X-H torsion
[ 10763 10752 10751 10750 ] final -148.76 input  -60.55 | X-H torsion
[ 11005 11000 10999 10996 ] final -178.49 input  -57.11 | X-H torsion

> <Gold.Protein.ActiveResidues>
 VAL166  LYS551  ARG553  GLY616  TRP617  ASP618  TYR619  PRO620  LYS621  CYS622 
 ASP623  PHE694  ASN695  SER759  ASP760  ASP761  ALA762  ILE779  LEU786  VAL792 
 PHE793  MET794  SER795  GLU796  ALA797  LYS798  CYS799  TRP800  GLU811  SER814 

> <Gold.Protein.RotatedAtoms>
  151.9031  135.0370  160.0507 H   0  0  0  0  0  0  0  0  0  0  0  0  # atno 6907 bound_to 6896
  152.2341  133.5077  159.5241 H   0  0  0  0  0  0  0  0  0  0  0  0  # atno 6908 bound_to 6896
  150.7034  134.1093  159.4037 H   0  0  0  0  0  0  0  0  0  0  0  0  # atno 6909 bound_to 6896
  146.1450  139.6455  142.9137 H   0  0  0  0  0  0  0  0  0  0  0  0  # atno 7974 bound_to 7965
  155.6178  140.3495  155.4642 H   0  0  0  0  0  0  0  0  0  0  0  0  # atno 8008 bound_to 7997
  156.0103  140.1232  157.0484 H   0  0  0  0  0  0  0  0  0  0  0  0  # atno 8009 bound_to 7997
  154.4278  140.1083  156.5806 H   0  0  0  0  0  0  0  0  0  0  0  0  # atno 8010 bound_to 7997
  139.5067  144.3409  152.0019 H   0  0  0  0  0  0  0  0  0  0  0  0  # atno 10167 bound_to 10162
  156.6919  130.9163  151.3070 H   0  0  0  0  0  0  0  0  0  0  0  0  # atno 10718 bound_to 10713
  154.8215  135.3326  154.7024 H   0  0  0  0  0  0  0  0  0  0  0  0  # atno 10763 bound_to 10752
  153.7656  135.6929  153.4921 H   0  0  0  0  0  0  0  0  0  0  0  0  # atno 10764 bound_to 10752
  153.2080  135.4492  155.0294 H   0  0  0  0  0  0  0  0  0  0  0  0  # atno 10765 bound_to 10752
  140.4292  134.6534  157.4703 H   0  0  0  0  0  0  0  0  0  0  0  0  # atno 11005 bound_to 11000
  145.4958  141.0438  143.2568 LP  0  0  0  0  0  0  0  0  0  0  0  0  # atno 17320 bound_to 7965
  144.7836  139.6473  143.7143 LP  0  0  0  0  0  0  0  0  0  0  0  0  # atno 17321 bound_to 7965
  140.2847  144.3820  150.6107 LP  0  0  0  0  0  0  0  0  0  0  0  0  # atno 17342 bound_to 10162
  140.5992  143.2167  151.7106 LP  0  0  0  0  0  0  0  0  0  0  0  0  # atno 17343 bound_to 10162
  157.7005  130.9328  150.0773 LP  0  0  0  0  0  0  0  0  0  0  0  0  # atno 17370 bound_to 10713
  156.1791  130.3649  149.9059 LP  0  0  0  0  0  0  0  0  0  0  0  0  # atno 17371 bound_to 10713
  140.0146  134.6639  155.9329 LP  0  0  0  0  0  0  0  0  0  0  0  0  # atno 17394 bound_to 11000
  141.1752  133.6540  156.4803 LP  0  0  0  0  0  0  0  0  0  0  0  0  # atno 17395 bound_to 11000

$$$$
