AV-unprocessed.smi:602|AV-procd|sdf|3035|dock3
  -GOLD-   2262023553D 1   1.00000     0.00000
 Structure written by MMmdl.
 47 48  0  0  0  0  0  0  0  0  1 V2000
  151.3392  140.2503  155.4377 C   0  0  0  0  0  0  0  0  0  0  0  0
  151.2502  138.8173  154.9044 C   0  0  0  0  0  0  0  0  0  0  0  0
  149.8221  138.2525  154.9834 C   0  0  0  0  0  0  0  0  0  0  0  0
  149.7472  137.0443  155.7801 N   0  0  0  0  0  0  0  0  0  0  0  0
  148.8938  136.8940  156.8768 C   0  0  0  0  0  0  0  0  0  0  0  0
  148.0757  137.9620  157.2162 N   0  0  0  0  0  0  0  0  0  0  0  0
  148.8287  135.7244  157.5804 C   0  0  0  0  0  0  0  0  0  0  0  0
  147.9769  135.5787  158.6914 N   0  0  0  0  0  0  0  0  0  0  0  0
  146.8325  134.6648  158.5358 C   0  0  0  0  0  0  0  0  0  0  0  0
  145.8992  135.0905  157.3845 C   0  0  0  0  0  0  0  0  0  0  0  0
  144.6220  134.4722  157.4568 O   0  0  0  0  0  0  0  0  0  0  0  0
  144.6676  133.0540  157.4479 C   0  0  0  0  0  0  0  0  0  0  0  0
  148.2385  136.1821  159.8817 C   0  0  0  0  0  0  0  0  0  0  0  0
  149.2318  136.8908  160.0491 O   0  0  0  0  0  0  0  0  0  0  0  0
  147.2643  135.9717  161.0627 C   0  0  0  0  0  0  0  0  0  0  0  0
  147.7978  136.4697  162.4173 C   0  0  0  0  0  0  0  0  0  0  0  0
  147.2192  135.2078  163.0621 C   0  0  0  0  0  0  0  0  0  0  0  0
  147.2368  134.5567  161.6767 C   0  0  0  0  0  0  0  0  0  0  0  0
  149.6851  134.5864  157.2193 C   0  0  0  0  0  0  0  0  0  0  0  0
  149.7271  133.5052  157.8048 O   0  0  0  0  0  0  0  0  0  0  0  0
  150.4949  134.7933  156.1059 N   0  0  0  0  0  0  0  0  0  0  0  0
  150.5565  135.9627  155.3563 C   0  0  0  0  0  0  0  0  0  0  0  0
  151.2962  136.0101  154.3728 O   0  0  0  0  0  0  0  0  0  0  0  0
  151.0824  134.0257  155.8136 H   0  0  0  0  0  0  0  0  0  0  0  0
  152.3594  140.6283  155.3689 H   0  0  0  0  0  0  0  0  0  0  0  0
  151.0354  140.2998  156.4837 H   0  0  0  0  0  0  0  0  0  0  0  0
  150.6958  140.9220  154.8690 H   0  0  0  0  0  0  0  0  0  0  0  0
  151.5971  138.7961  153.8706 H   0  0  0  0  0  0  0  0  0  0  0  0
  151.9323  138.1817  155.4701 H   0  0  0  0  0  0  0  0  0  0  0  0
  149.1147  138.9769  155.3914 H   0  0  0  0  0  0  0  0  0  0  0  0
  149.4332  138.0065  153.9956 H   0  0  0  0  0  0  0  0  0  0  0  0
  148.0868  138.8271  156.6949 H   0  0  0  0  0  0  0  0  0  0  0  0
  147.4820  137.9392  158.0329 H   0  0  0  0  0  0  0  0  0  0  0  0
  147.2037  133.6628  158.3160 H   0  0  0  0  0  0  0  0  0  0  0  0
  146.2789  134.5543  159.4687 H   0  0  0  0  0  0  0  0  0  0  0  0
  145.7508  136.1696  157.4183 H   0  0  0  0  0  0  0  0  0  0  0  0
  146.3650  134.8843  156.4196 H   0  0  0  0  0  0  0  0  0  0  0  0
  143.6537  132.6590  157.5099 H   0  0  0  0  0  0  0  0  0  0  0  0
  145.2298  132.6581  158.2934 H   0  0  0  0  0  0  0  0  0  0  0  0
  145.1156  132.6815  156.5260 H   0  0  0  0  0  0  0  0  0  0  0  0
  146.2506  136.3188  160.8602 H   0  0  0  0  0  0  0  0  0  0  0  0
  148.8873  136.5136  162.4708 H   0  0  0  0  0  0  0  0  0  0  0  0
  147.3430  137.3964  162.7686 H   0  0  0  0  0  0  0  0  0  0  0  0
  147.8683  134.7327  163.7982 H   0  0  0  0  0  0  0  0  0  0  0  0
  146.2088  135.3558  163.4464 H   0  0  0  0  0  0  0  0  0  0  0  0
  146.3387  133.9829  161.4460 H   0  0  0  0  0  0  0  0  0  0  0  0
  148.1386  133.9640  161.5157 H   0  0  0  0  0  0  0  0  0  0  0  0
  1  2  1  0  0  0  0
  1 25  1  0  0  0  0
  1 26  1  0  0  0  0
  1 27  1  0  0  0  0
  2  3  1  0  0  0  0
  2 28  1  0  0  0  0
  2 29  1  0  0  0  0
  3  4  1  0  0  0  0
  3 30  1  0  0  0  0
  3 31  1  0  0  0  0
  4 22  1  0  0  0  0
  4  5  1  0  0  0  0
  5  6  1  0  0  0  0
  5  7  2  0  0  0  0
  6 32  1  0  0  0  0
  6 33  1  0  0  0  0
  7  8  1  0  0  0  0
  7 19  1  0  0  0  0
  8  9  1  0  0  0  0
  8 13  1  0  0  0  0
  9 10  1  0  0  0  0
  9 34  1  0  0  0  0
  9 35  1  0  0  0  0
 10 11  1  0  0  0  0
 10 36  1  0  0  0  0
 10 37  1  0  0  0  0
 11 12  1  0  0  0  0
 12 38  1  0  0  0  0
 12 39  1  0  0  0  0
 12 40  1  0  0  0  0
 13 14  2  0  0  0  0
 13 15  1  0  0  0  0
 15 18  1  0  0  0  0
 15 16  1  0  0  0  0
 15 41  1  0  0  0  0
 16 17  1  0  0  0  0
 16 42  1  0  0  0  0
 16 43  1  0  0  0  0
 17 18  1  0  0  0  0
 17 44  1  0  0  0  0
 17 45  1  0  0  0  0
 18 46  1  0  0  0  0
 18 47  1  0  0  0  0
 19 20  2  0  0  0  0
 19 21  1  0  0  0  0
 21 24  1  0  0  0  0
 21 22  1  0  0  0  0
 22 23  2  0  0  0  0
M  END
> <s_m_source_file>
AV-unprocessed.smi

> <i_m_source_file_index>
602

> <i_lp_mmshare_version>
43012

> <i_f3d_flags>
0

> <s_epik_input>
W0NIM11bQ0gyXVtDSDJdbjFjKFtOSDJdKWMoYyg9TylbbkhdYzE9TylOKFtDSDJdW0NIMl1PW0NIM10pQyg9TylbQ0hdMltDSDJdW0NIMl1bQ0gyXTI=

> <s_epik_cmdline>
J2VwaWtfcHl0aG9uJywgJy1waCcsICc3LjAnLCAnLXRuJywgJzgnLCAnLW1hJywgJzIwMCcsICctbWV0YWxfYmluZGluZycsICctaW1hZScsICc8aW5maWxlLm1hZT4nLCAnLW9tYWUnLCAnPG91dGZpbGUubWFlPic=

> <r_lp_tautomer_probability>
1

> <r_epik_Ionization_Penalty>
1.77098e-05

> <r_epik_Ionization_Penalty_Charging>
5.46221e-06

> <r_epik_Ionization_Penalty_Neutral>
1.22476e-05

> <r_epik_State_Penalty>
-0

> <r_epik_Charging_Adjusted_Penalty>
5.46221e-06

> <i_epik_Tot_Q>
0

> <i_epik_Tot_abs_Q>
0

> <r_epik_Metal_State_Penalty>
-0

> <b_epik_Metal_Only>
0

> <s_epik_Chemistry_Notes>
This compound has an imine and may undergo hydrolysis.

> <s_lp_Force_Field>
OPLS_2005

> <r_lp_Energy>
36.0285

> <b_lp_Chiralities_Consistent>
1

> <s_lp_Variant>
AV-unprocessed.smi:602-1

> <Gold.Version>
5.8.1

> <Gold.Id.Protein>
6NUR|6NUR_protein|mol2

> <Gold.PLP.Fitness>
36.6696

> <Gold.PLP.PLP>
-30.1789

> <Gold.PLP.part.hbond>
-3.0000

> <Gold.PLP.part.metal>
0.0000

> <Gold.PLP.part.buried>
-4.8467

> <Gold.PLP.part.nonpolar>
-23.9381

> <Gold.PLP.part.repulsive>
0.6032

> <Gold.PLP.ligand.clash>
0.0000

> <Gold.PLP.ligand.torsion>
2.0173

> <Gold.PLP.Chemscore.Hbond>
2.5460

> <Gold.PLP.Chemscore.CHOScore>
0.0000

> <Gold.PLP.Chemscore.Metal>
0.0000

> <Gold.Chemscore.Hbonds>
donor molecule, donor type, donor heavy atom, donor atom, acceptor molecule, acceptor atom, score
      P1  H  6896  6909       L1    20  1.00
      P1  H  6931  6943       L1    14  0.19
      P1  H 10752 10765       L1    23  0.99

> <Gold.PLP.Chemscore.Internal.Correction>
2.8873

> <Gold.Rescore>
     Score         DG    S(hbond)    S(metal)    S(lipo)     H(rot)  DE(clash)    DE(int)     intcor
     11.98     -15.35       2.58        0.00      57.06       2.12       0.05       3.32       ----

> <Gold.Chemscore.Fitness>
11.9847

> <Gold.Chemscore.DG>
-15.3508

> <Gold.Chemscore.ZeroCoef>
-5.4800

> <Gold.Chemscore.Hbond>
2.5834

> <Gold.Chemscore.Metal>
0.0000

> <Gold.Chemscore.Lipo>
57.0602

> <Gold.Chemscore.Internal_Hbond>
0.0000

> <Gold.Chemscore.DEClash>
0.0504

> <Gold.Chemscore.DEInternal>
3.3157

> <Gold.Chemscore.Rot>
2.1226

> <Gold.Chemscore.Internal.Correction>
   9.000000E+99

> <Gold.Chemscore.Hbonds>
donor molecule, donor type, donor heavy atom, donor atom, acceptor molecule, acceptor atom, score
      P1  H  6896  6909       L1    20  0.50
      P1  H  6931  6943       L1    14  0.18
      P1  H 10752 10765       L1    23  0.85

> <Gold.Chemscore.Hbond.Weighted>
-8.6285

> <Gold.Chemscore.Metal.Weighted>
-0.0000

> <Gold.Chemscore.Lipo.Weighted>
-6.6760

> <Gold.Chemscore.Internal_Hbond.Weighted>
0.0000

> <Gold.Chemscore.DEClash.Weighted>
0.0504

> <Gold.Chemscore.DEInternal.Weighted>
3.3157

> <Gold.Chemscore.Rot.Weighted>
5.4338

> <Gold.Chemscore.Internal.Correction.Weighted>
   9.000000E+99

> <Gold.Protein.RotatedTorsions>
[ 6907 6896 6895 6894 ] final    0.41 input  -60.11 | X-H torsion
[ 7974 7965 7964 7962 ] final -176.76 input  175.53 | X-H torsion
[ 8008 7997 7996 7995 ] final -141.41 input   59.86 | X-H torsion
[ 10167 10162 10161 10158 ] final   87.04 input  -65.29 | X-H torsion
[ 10718 10713 10712 10709 ] final   16.17 input   66.30 | X-H torsion
[ 10763 10752 10751 10750 ] final -173.20 input  -60.55 | X-H torsion
[ 11005 11000 10999 10996 ] final  153.68 input  -57.11 | X-H torsion

> <Gold.Protein.ActiveResidues>
 VAL166  LYS551  ARG553  GLY616  TRP617  ASP618  TYR619  PRO620  LYS621  CYS622 
 ASP623  PHE694  ASN695  SER759  ASP760  ASP761  ALA762  ILE779  LEU786  VAL792 
 PHE793  MET794  SER795  GLU796  ALA797  LYS798  CYS799  TRP800  GLU811  SER814 

> <Gold.Protein.RotatedAtoms>
  151.5760  135.1060  160.0005 H   0  0  0  0  0  0  0  0  0  0  0  0  # atno 6907 bound_to 6896
  152.4377  133.7387  159.6639 H   0  0  0  0  0  0  0  0  0  0  0  0  # atno 6908 bound_to 6896
  150.8278  133.8073  159.3134 H   0  0  0  0  0  0  0  0  0  0  0  0  # atno 6909 bound_to 6896
  144.7127  140.1122  143.6410 H   0  0  0  0  0  0  0  0  0  0  0  0  # atno 7974 bound_to 7965
  155.4774  140.0557  157.2971 H   0  0  0  0  0  0  0  0  0  0  0  0  # atno 8008 bound_to 7997
  154.4674  140.2025  156.0036 H   0  0  0  0  0  0  0  0  0  0  0  0  # atno 8009 bound_to 7997
  156.0998  140.3221  155.7930 H   0  0  0  0  0  0  0  0  0  0  0  0  # atno 8010 bound_to 7997
  139.8814  144.6437  150.8838 H   0  0  0  0  0  0  0  0  0  0  0  0  # atno 10167 bound_to 10162
  157.0641  130.6321  149.5792 H   0  0  0  0  0  0  0  0  0  0  0  0  # atno 10718 bound_to 10713
  154.6106  135.2864  155.0436 H   0  0  0  0  0  0  0  0  0  0  0  0  # atno 10763 bound_to 10752
  154.1667  135.6479  153.5003 H   0  0  0  0  0  0  0  0  0  0  0  0  # atno 10764 bound_to 10752
  153.0193  135.5391  154.6858 H   0  0  0  0  0  0  0  0  0  0  0  0  # atno 10765 bound_to 10752
  140.1419  134.8733  157.2343 H   0  0  0  0  0  0  0  0  0  0  0  0  # atno 11005 bound_to 11000
  145.9445  139.2691  143.1249 LP  0  0  0  0  0  0  0  0  0  0  0  0  # atno 17320 bound_to 7965
  145.9389  140.8994  143.0318 LP  0  0  0  0  0  0  0  0  0  0  0  0  # atno 17321 bound_to 7965
  140.7744  143.3582  151.1879 LP  0  0  0  0  0  0  0  0  0  0  0  0  # atno 17342 bound_to 10162
  139.7192  143.9251  152.2979 LP  0  0  0  0  0  0  0  0  0  0  0  0  # atno 17343 bound_to 10162
  155.9970  130.5040  150.7517 LP  0  0  0  0  0  0  0  0  0  0  0  0  # atno 17370 bound_to 10713
  157.4931  131.0912  151.0403 LP  0  0  0  0  0  0  0  0  0  0  0  0  # atno 17371 bound_to 10713
  140.2711  134.3459  155.7373 LP  0  0  0  0  0  0  0  0  0  0  0  0  # atno 17394 bound_to 11000
  141.2187  133.7424  156.9224 LP  0  0  0  0  0  0  0  0  0  0  0  0  # atno 17395 bound_to 11000

$$$$
