AV-unprocessed.smi:2026|AV-procd|sdf|8205|dock7
  -GOLD-   2272010463D 1   1.00000     0.00000
 Structure written by MMmdl.
 45 47  0  0  0  0  0  0  0  0  2 V2000
  152.6835  142.8216  161.4488 C   0  0  0  0  0  0  0  0  0  0  0  0
  152.1098  142.4547  160.0917 C   0  0  0  0  0  0  0  0  0  0  0  0
  152.5370  141.2619  159.4641 C   0  0  0  0  0  0  0  0  0  0  0  0
  152.0272  140.8853  158.2016 C   0  0  0  0  0  0  0  0  0  0  0  0
  152.2964  139.7786  157.4132 N   0  0  0  0  0  0  0  0  0  0  0  0
  151.5108  140.0002  156.3622 C   0  0  0  0  0  0  0  0  0  0  0  0
  150.7652  141.1213  156.3778 N   0  0  0  0  0  0  0  0  0  0  0  0
  149.8416  141.5888  155.3627 C   0  0  0  0  0  0  0  0  0  0  0  0
  149.1860  140.4196  154.5998 C   0  0  2  0  0  0  0  0  0  0  0  0
  150.0922  139.9239  153.6350 O   0  0  0  0  0  0  0  0  0  0  0  0
  147.8686  140.7961  153.8907 C   0  0  0  0  0  0  0  0  0  0  0  0
  146.8105  141.1664  154.8400 N   0  0  0  0  0  0  0  0  0  0  0  0
  146.3954  140.4164  155.8792 C   0  0  0  0  0  0  0  0  0  0  0  0
  146.8936  139.3225  156.1426 O   0  0  0  0  0  0  0  0  0  0  0  0
  145.3861  141.0252  156.5453 N   0  5  0  0  0  0  0  0  0  0  0  0
  145.0899  142.2868  155.8967 C   0  0  0  0  0  0  0  0  0  0  0  0
  143.6468  142.2795  155.3570 C   0  0  0  0  0  0  0  0  0  0  0  0
  145.3262  143.4544  156.8728 C   0  0  0  0  0  0  0  0  0  0  0  0
  146.1018  142.2983  154.7654 C   0  0  0  0  0  0  0  0  0  0  0  0
  146.2143  143.2034  153.9372 O   0  0  0  0  0  0  0  0  0  0  0  0
  151.0735  141.7430  157.5811 C   0  0  0  0  0  0  0  0  0  0  0  0
  150.6405  142.9311  158.1945 C   0  0  0  0  0  0  0  0  0  0  0  0
  151.1582  143.2920  159.4553 C   0  0  0  0  0  0  0  0  0  0  0  0
  150.6809  144.5771  160.1083 C   0  0  0  0  0  0  0  0  0  0  0  0
  153.3578  142.0484  161.8184 H   0  0  0  0  0  0  0  0  0  0  0  0
  151.8859  142.9456  162.1813 H   0  0  0  0  0  0  0  0  0  0  0  0
  153.2447  143.7541  161.3852 H   0  0  0  0  0  0  0  0  0  0  0  0
  153.2613  140.6239  159.9487 H   0  0  0  0  0  0  0  0  0  0  0  0
  151.4733  139.3080  155.5338 H   0  0  0  0  0  0  0  0  0  0  0  0
  149.0877  142.1920  155.8684 H   0  0  0  0  0  0  0  0  0  0  0  0
  150.3657  142.2566  154.6775 H   0  0  0  0  0  0  0  0  0  0  0  0
  148.9877  139.6038  155.2960 H   0  0  0  0  0  0  0  0  0  0  0  0
  149.6871  139.9907  152.7840 H   0  0  0  0  0  0  0  0  0  0  0  0
  148.0478  141.5989  153.1737 H   0  0  0  0  0  0  0  0  0  0  0  0
  147.5167  139.9499  153.2979 H   0  0  0  0  0  0  0  0  0  0  0  0
  143.4065  143.2190  154.8580 H   0  0  0  0  0  0  0  0  0  0  0  0
  142.9251  142.1449  156.1634 H   0  0  0  0  0  0  0  0  0  0  0  0
  143.4867  141.4754  154.6372 H   0  0  0  0  0  0  0  0  0  0  0  0
  145.1004  144.4130  156.4040 H   0  0  0  0  0  0  0  0  0  0  0  0
  146.3614  143.4927  157.2161 H   0  0  0  0  0  0  0  0  0  0  0  0
  144.6914  143.3644  157.7550 H   0  0  0  0  0  0  0  0  0  0  0  0
  149.9131  143.5564  157.6977 H   0  0  0  0  0  0  0  0  0  0  0  0
  149.9770  145.1099  159.4678 H   0  0  0  0  0  0  0  0  0  0  0  0
  151.5218  145.2417  160.3063 H   0  0  0  0  0  0  0  0  0  0  0  0
  150.1783  144.3617  161.0513 H   0  0  0  0  0  0  0  0  0  0  0  0
  1  2  1  0  0  0  0
  1 25  1  0  0  0  0
  1 26  1  0  0  0  0
  1 27  1  0  0  0  0
  2 23  1  0  0  0  0
  2  3  2  0  0  0  0
  3  4  1  0  0  0  0
  3 28  1  0  0  0  0
  4 21  2  0  0  0  0
  4  5  1  0  0  0  0
  5  6  2  0  0  0  0
  6  7  1  0  0  0  0
  6 29  1  0  0  0  0
  7  8  1  0  0  0  0
  7 21  1  0  0  0  0
  8  9  1  0  0  0  0
  8 30  1  0  0  0  0
  8 31  1  0  0  0  0
  9 10  1  0  0  0  0
  9 11  1  0  0  0  0
  9 32  1  0  0  0  0
 10 33  1  0  0  0  0
 11 12  1  0  0  0  0
 11 34  1  0  0  0  0
 11 35  1  0  0  0  0
 12 19  1  0  0  0  0
 12 13  1  0  0  0  0
 13 14  2  0  0  0  0
 13 15  1  0  0  0  0
 15 16  1  0  0  0  0
 16 17  1  0  0  0  0
 16 18  1  0  0  0  0
 16 19  1  0  0  0  0
 17 36  1  0  0  0  0
 17 37  1  0  0  0  0
 17 38  1  0  0  0  0
 18 39  1  0  0  0  0
 18 40  1  0  0  0  0
 18 41  1  0  0  0  0
 19 20  2  0  0  0  0
 21 22  1  0  0  0  0
 22 23  2  0  0  0  0
 22 42  1  0  0  0  0
 23 24  1  0  0  0  0
 24 43  1  0  0  0  0
 24 44  1  0  0  0  0
 24 45  1  0  0  0  0
M  CHG  1  15  -1
M  END
> <s_m_source_file>
AV-unprocessed.smi

> <i_m_source_file_index>
2026

> <i_lp_mmshare_version>
43012

> <i_f3d_flags>
0

> <s_epik_input>
W0NIM11jKFtjSF0xKWMoW0NIM10pW2NIXWMoYzEyKW4oW2NIXW4yKVtDSDJdW0NASF0oW09IXSlbQ0gyXU4oQzM9TylDKD1PKVtOSF1DMyhbQ0gzXSlbQ0gzXQ==

> <s_epik_cmdline>
J2VwaWtfcHl0aG9uJywgJy1waCcsICc3LjAnLCAnLXRuJywgJzgnLCAnLW1hJywgJzIwMCcsICctbWV0YWxfYmluZGluZycsICctaW1hZScsICc8aW5maWxlLm1hZT4nLCAnLW9tYWUnLCAnPG91dGZpbGUubWFlPic=

> <r_lp_tautomer_probability>
1

> <r_epik_Ionization_Penalty>
5.78785

> <r_epik_Ionization_Penalty_Charging>
5.68049

> <r_epik_Ionization_Penalty_Neutral>
0.107354

> <r_epik_State_Penalty>
5.7743

> <r_epik_Charging_Adjusted_Penalty>
11.4548

> <i_epik_Tot_Q>
-1

> <i_epik_Tot_abs_Q>
1

> <r_epik_Metal_State_Penalty>
1.83778

> <b_epik_Metal_Only>
1

> <s_lp_Force_Field>
OPLS_2005

> <r_lp_Energy>
16.8856

> <b_lp_Chiralities_Consistent>
1

> <s_lp_Variant>
AV-unprocessed.smi:2026-5

> <Gold.Version>
5.8.1

> <Gold.Id.Protein>
6NUR|6NUR_protein|mol2

> <Gold.PLP.Fitness>
51.0947

> <Gold.PLP.PLP>
-44.0784

> <Gold.PLP.part.hbond>
-2.8565

> <Gold.PLP.part.metal>
0.0000

> <Gold.PLP.part.buried>
-5.5326

> <Gold.PLP.part.nonpolar>
-35.9158

> <Gold.PLP.part.repulsive>
0.2265

> <Gold.PLP.ligand.clash>
0.0000

> <Gold.PLP.ligand.torsion>
0.6282

> <Gold.PLP.Chemscore.Hbond>
2.7520

> <Gold.PLP.Chemscore.CHOScore>
0.0000

> <Gold.PLP.Chemscore.Metal>
0.0000

> <Gold.Chemscore.Hbonds>
donor molecule, donor type, donor heavy atom, donor atom, acceptor molecule, acceptor atom, score
      L1  H    10    33       P1  7957  1.00
      P1  H  7989  7998       L1    10  0.78
      P1  H  7997  8008       L1     5  0.49

> <Gold.PLP.Chemscore.Internal.Correction>
0.0167

> <Gold.Rescore>
     Score         DG    S(hbond)    S(metal)    S(lipo)     H(rot)  DE(clash)    DE(int)     intcor
     17.05     -17.90       2.04        0.00      99.93       2.38       0.28       0.57       ----

> <Gold.Chemscore.Fitness>
17.0498

> <Gold.Chemscore.DG>
-17.8962

> <Gold.Chemscore.ZeroCoef>
-5.4800

> <Gold.Chemscore.Hbond>
2.0398

> <Gold.Chemscore.Metal>
0.0000

> <Gold.Chemscore.Lipo>
99.9277

> <Gold.Chemscore.Internal_Hbond>
0.0000

> <Gold.Chemscore.DEClash>
0.2760

> <Gold.Chemscore.DEInternal>
0.5704

> <Gold.Chemscore.Rot>
2.3783

> <Gold.Chemscore.Internal.Correction>
   9.000000E+99

> <Gold.Chemscore.Hbonds>
donor molecule, donor type, donor heavy atom, donor atom, acceptor molecule, acceptor atom, score
      L1  H    10    33       P1  7957  0.98
      P1  H  7989  7998       L1    10  0.32
      P1  H  7997  8008       L1     5  0.14

> <Gold.Chemscore.Hbond.Weighted>
-6.8130

> <Gold.Chemscore.Metal.Weighted>
-0.0000

> <Gold.Chemscore.Lipo.Weighted>
-11.6915

> <Gold.Chemscore.Internal_Hbond.Weighted>
0.0000

> <Gold.Chemscore.DEClash.Weighted>
0.2760

> <Gold.Chemscore.DEInternal.Weighted>
0.5704

> <Gold.Chemscore.Rot.Weighted>
6.0884

> <Gold.Chemscore.Internal.Correction.Weighted>
   9.000000E+99

> <Gold.Protein.RotatedTorsions>
[ 6907 6896 6895 6894 ] final  127.49 input  -60.11 | X-H torsion
[ 7974 7965 7964 7962 ] final -160.02 input  175.53 | X-H torsion
[ 8008 7997 7996 7995 ] final  -67.28 input   59.86 | X-H torsion
[ 10167 10162 10161 10158 ] final  170.40 input  -65.29 | X-H torsion
[ 10718 10713 10712 10709 ] final   56.74 input   66.30 | X-H torsion
[ 10763 10752 10751 10750 ] final   17.35 input  -60.55 | X-H torsion
[ 11005 11000 10999 10996 ] final   -8.85 input  -57.11 | X-H torsion

> <Gold.Protein.ActiveResidues>
 VAL166  LYS551  ARG553  GLY616  TRP617  ASP618  TYR619  PRO620  LYS621  CYS622 
 ASP623  PHE694  ASN695  SER759  ASP760  ASP761  ALA762  ILE779  LEU786  VAL792 
 PHE793  MET794  SER795  GLU796  ALA797  LYS798  CYS799  TRP800  GLU811  SER814 

> <Gold.Protein.RotatedAtoms>
  152.3808  133.6543  159.6159 H   0  0  0  0  0  0  0  0  0  0  0  0  # atno 6907 bound_to 6896
  150.7739  133.9118  159.3380 H   0  0  0  0  0  0  0  0  0  0  0  0  # atno 6908 bound_to 6896
  151.6924  135.0945  160.0287 H   0  0  0  0  0  0  0  0  0  0  0  0  # atno 6909 bound_to 6896
  144.7443  140.3601  143.6098 H   0  0  0  0  0  0  0  0  0  0  0  0  # atno 7974 bound_to 7965
  154.4789  140.0896  156.7330 H   0  0  0  0  0  0  0  0  0  0  0  0  # atno 8008 bound_to 7997
  155.4522  140.3458  155.4284 H   0  0  0  0  0  0  0  0  0  0  0  0  # atno 8009 bound_to 7997
  156.1161  140.1461  156.9259 H   0  0  0  0  0  0  0  0  0  0  0  0  # atno 8010 bound_to 7997
  139.5017  144.3600  151.9834 H   0  0  0  0  0  0  0  0  0  0  0  0  # atno 10167 bound_to 10162
  157.5456  130.8729  149.8887 H   0  0  0  0  0  0  0  0  0  0  0  0  # atno 10718 bound_to 10713
  153.1347  135.6747  153.9121 H   0  0  0  0  0  0  0  0  0  0  0  0  # atno 10763 bound_to 10752
  153.8597  135.3083  155.3438 H   0  0  0  0  0  0  0  0  0  0  0  0  # atno 10764 bound_to 10752
  154.7738  135.4925  153.9784 H   0  0  0  0  0  0  0  0  0  0  0  0  # atno 10765 bound_to 10752
  140.7279  133.8773  155.8870 H   0  0  0  0  0  0  0  0  0  0  0  0  # atno 11005 bound_to 11000
  145.7186  139.1703  143.2497 LP  0  0  0  0  0  0  0  0  0  0  0  0  # atno 17320 bound_to 7965
  146.1294  140.7205  142.9419 LP  0  0  0  0  0  0  0  0  0  0  0  0  # atno 17321 bound_to 7965
  140.3037  144.3618  150.6053 LP  0  0  0  0  0  0  0  0  0  0  0  0  # atno 17342 bound_to 10162
  140.5853  143.2170  151.7353 LP  0  0  0  0  0  0  0  0  0  0  0  0  # atno 17343 bound_to 10162
  156.0533  130.3713  150.1150 LP  0  0  0  0  0  0  0  0  0  0  0  0  # atno 17370 bound_to 10713
  156.9326  130.9719  151.3530 LP  0  0  0  0  0  0  0  0  0  0  0  0  # atno 17371 bound_to 10713
  140.9947  134.1232  157.4375 LP  0  0  0  0  0  0  0  0  0  0  0  0  # atno 17394 bound_to 11000
  139.8833  135.0051  156.6290 LP  0  0  0  0  0  0  0  0  0  0  0  0  # atno 17395 bound_to 11000

$$$$
