AV-unprocessed.smi:3172|AV-procd|sdf|12114|dock5
  -GOLD-   2272017553D 1   1.00000     0.00000
 Structure written by MMmdl.
 44 45  0  0  0  0  0  0  0  0  3 V2000
  146.7160  139.0056  152.0905 C   0  0  0  0  0  0  0  0  0  0  0  0
  147.7583  139.4611  153.0563 C   0  0  0  0  0  0  0  0  0  0  0  0
  148.8419  138.6884  153.3801 N   0  3  0  0  0  0  0  0  0  0  0  0
  149.6225  139.3198  154.2580 C   0  0  0  0  0  0  0  0  0  0  0  0
  149.0439  140.4995  154.5126 N   0  0  0  0  0  0  0  0  0  0  0  0
  149.6406  141.4696  155.4442 C   0  0  0  0  0  0  0  0  0  0  0  0
  148.9312  141.5296  156.8135 C   0  0  1  0  0  0  0  0  0  0  0  0
  149.1370  140.2562  157.6519 C   0  0  0  0  0  0  0  0  0  0  0  0
  149.4093  142.7123  157.5664 N   0  3  0  0  0  0  0  0  0  0  0  0
  150.8736  142.8096  157.7660 C   0  0  0  0  0  0  0  0  0  0  0  0
  151.2999  141.9001  158.9342 C   0  0  0  0  0  0  0  0  0  0  0  0
  152.8134  141.9809  159.1903 C   0  0  0  0  0  0  0  0  0  0  0  0
  153.2588  143.4297  159.4416 C   0  0  0  0  0  0  0  0  0  0  0  0
  152.8363  144.3473  158.2844 C   0  0  0  0  0  0  0  0  0  0  0  0
  151.3228  144.2638  158.0281 C   0  0  0  0  0  0  0  0  0  0  0  0
  147.8842  140.6255  153.7792 C   0  0  0  0  0  0  0  0  0  0  0  0
  147.0053  141.8334  153.8309 C   0  0  0  0  0  0  0  0  0  0  0  0
  146.4185  139.8280  151.4397 H   0  0  0  0  0  0  0  0  0  0  0  0
  145.8365  138.6512  152.6279 H   0  0  0  0  0  0  0  0  0  0  0  0
  147.0945  138.1942  151.4679 H   0  0  0  0  0  0  0  0  0  0  0  0
  150.5385  138.9457  154.6800 H   0  0  0  0  0  0  0  0  0  0  0  0
  150.6932  141.2114  155.5744 H   0  0  0  0  0  0  0  0  0  0  0  0
  149.6217  142.4470  154.9611 H   0  0  0  0  0  0  0  0  0  0  0  0
  147.8623  141.6365  156.6281 H   0  0  0  0  0  0  0  0  0  0  0  0
  148.7104  139.3810  157.1615 H   0  0  0  0  0  0  0  0  0  0  0  0
  148.6572  140.3414  158.6271 H   0  0  0  0  0  0  0  0  0  0  0  0
  150.1963  140.0609  157.8213 H   0  0  0  0  0  0  0  0  0  0  0  0
  149.0834  143.5515  157.1079 H   0  0  0  0  0  0  0  0  0  0  0  0
  151.3614  142.4426  156.8611 H   0  0  0  0  0  0  0  0  0  0  0  0
  150.7644  142.1858  159.8410 H   0  0  0  0  0  0  0  0  0  0  0  0
  151.0215  140.8666  158.7245 H   0  0  0  0  0  0  0  0  0  0  0  0
  153.0796  141.3579  160.0448 H   0  0  0  0  0  0  0  0  0  0  0  0
  153.3519  141.5757  158.3328 H   0  0  0  0  0  0  0  0  0  0  0  0
  152.8213  143.7914  160.3731 H   0  0  0  0  0  0  0  0  0  0  0  0
  154.3406  143.4694  159.5727 H   0  0  0  0  0  0  0  0  0  0  0  0
  153.1201  145.3768  158.5051 H   0  0  0  0  0  0  0  0  0  0  0  0
  153.3761  144.0659  157.3794 H   0  0  0  0  0  0  0  0  0  0  0  0
  151.0726  144.9028  157.1811 H   0  0  0  0  0  0  0  0  0  0  0  0
  150.7871  144.6672  158.8888 H   0  0  0  0  0  0  0  0  0  0  0  0
  146.2521  141.7891  153.0441 H   0  0  0  0  0  0  0  0  0  0  0  0
  147.5909  142.7420  153.6900 H   0  0  0  0  0  0  0  0  0  0  0  0
  146.4914  141.8886  154.7902 H   0  0  0  0  0  0  0  0  0  0  0  0
  148.9890  142.6726  158.4841 H   0  0  0  0  0  0  0  0  0  0  0  0
  149.0290  137.7672  153.0038 H   0  0  0  0  0  0  0  0  0  0  0  0
  1  2  1  0  0  0  0
  1 18  1  0  0  0  0
  1 19  1  0  0  0  0
  1 20  1  0  0  0  0
  2 16  2  0  0  0  0
  2  3  1  0  0  0  0
  3  4  2  0  0  0  0
  3 44  1  0  0  0  0
  4  5  1  0  0  0  0
  4 21  1  0  0  0  0
  5  6  1  0  0  0  0
  5 16  1  0  0  0  0
  6  7  1  0  0  0  0
  6 22  1  0  0  0  0
  6 23  1  0  0  0  0
  7  8  1  0  0  0  0
  7  9  1  0  0  0  0
  7 24  1  0  0  0  0
  8 25  1  0  0  0  0
  8 26  1  0  0  0  0
  8 27  1  0  0  0  0
  9 10  1  0  0  0  0
  9 28  1  0  0  0  0
  9 43  1  0  0  0  0
 10 15  1  0  0  0  0
 10 11  1  0  0  0  0
 10 29  1  0  0  0  0
 11 12  1  0  0  0  0
 11 30  1  0  0  0  0
 11 31  1  0  0  0  0
 12 13  1  0  0  0  0
 12 32  1  0  0  0  0
 12 33  1  0  0  0  0
 13 14  1  0  0  0  0
 13 34  1  0  0  0  0
 13 35  1  0  0  0  0
 14 15  1  0  0  0  0
 14 36  1  0  0  0  0
 14 37  1  0  0  0  0
 15 38  1  0  0  0  0
 15 39  1  0  0  0  0
 16 17  1  0  0  0  0
 17 40  1  0  0  0  0
 17 41  1  0  0  0  0
 17 42  1  0  0  0  0
M  CHG  1   3   1
M  CHG  1   9   1
M  END
> <s_m_source_file>
AV-unprocessed.smi

> <i_m_source_file_index>
3172

> <i_lp_mmshare_version>
43012

> <i_f3d_flags>
0

> <s_epik_input>
W0NIM11jMW5bY0hdbihjMVtDSDNdKVtDSDJdW0NASF0oW0NIM10pW05IXVtDSF0yW0NIMl1bQ0gyXVtDSDJdW0NIMl1bQ0gyXTI=

> <s_epik_cmdline>
J2VwaWtfcHl0aG9uJywgJy1waCcsICc3LjAnLCAnLXRuJywgJzgnLCAnLW1hJywgJzIwMCcsICctbWV0YWxfYmluZGluZycsICctaW1hZScsICc8aW5maWxlLm1hZT4nLCAnLW9tYWUnLCAnPG91dGZpbGUubWFlPic=

> <r_lp_tautomer_probability>
1

> <r_epik_Ionization_Penalty>
0.509043

> <r_epik_Ionization_Penalty_Charging>
0.00159961

> <r_epik_Ionization_Penalty_Neutral>
0.507444

> <r_epik_State_Penalty>
0.272352

> <r_epik_Charging_Adjusted_Penalty>
0.273952

> <i_epik_Tot_Q>
2

> <i_epik_Tot_abs_Q>
2

> <r_epik_Metal_State_Penalty>
3.76994

> <b_epik_Metal_Only>
0

> <s_lp_Force_Field>
OPLS_2005

> <r_lp_Energy>
25.4391

> <b_lp_Chiralities_Consistent>
1

> <s_lp_Variant>
AV-unprocessed.smi:3172-2

> <Gold.Version>
5.8.1

> <Gold.Id.Protein>
6NUR|6NUR_protein|mol2

> <Gold.PLP.Fitness>
52.8087

> <Gold.PLP.PLP>
-41.7747

> <Gold.PLP.part.hbond>
-3.0000

> <Gold.PLP.part.metal>
0.0000

> <Gold.PLP.part.buried>
0.3654

> <Gold.PLP.part.nonpolar>
-39.7243

> <Gold.PLP.part.repulsive>
0.1156

> <Gold.PLP.ligand.clash>
0.0000

> <Gold.PLP.ligand.torsion>
0.5087

> <Gold.PLP.Chemscore.Hbond>
4.0000

> <Gold.PLP.Chemscore.CHOScore>
0.0000

> <Gold.PLP.Chemscore.Metal>
0.0000

> <Gold.Chemscore.Hbonds>
donor molecule, donor type, donor heavy atom, donor atom, acceptor molecule, acceptor atom, score
      L1  H     3    44       P1  7948  2.00
      L1  H     9    28       P1  8028  2.00

> <Gold.PLP.Chemscore.Internal.Correction>
0.0514

> <Gold.Rescore>
     Score         DG    S(hbond)    S(metal)    S(lipo)     H(rot)  DE(clash)    DE(int)     intcor
     18.01     -20.42       1.68        0.00     113.89       1.56       0.88       1.52       ----

> <Gold.Chemscore.Fitness>
18.0134

> <Gold.Chemscore.DG>
-20.4168

> <Gold.Chemscore.ZeroCoef>
-5.4800

> <Gold.Chemscore.Hbond>
1.6758

> <Gold.Chemscore.Metal>
0.0000

> <Gold.Chemscore.Lipo>
113.8885

> <Gold.Chemscore.Internal_Hbond>
0.0000

> <Gold.Chemscore.DEClash>
0.8813

> <Gold.Chemscore.DEInternal>
1.5221

> <Gold.Chemscore.Rot>
1.5567

> <Gold.Chemscore.Internal.Correction>
   9.000000E+99

> <Gold.Chemscore.Hbonds>
donor molecule, donor type, donor heavy atom, donor atom, acceptor molecule, acceptor atom, score
      L1  H     3    44       P1  7948  0.99
      L1  H     9    28       P1  8028  0.59

> <Gold.Chemscore.Hbond.Weighted>
-5.5970

> <Gold.Chemscore.Metal.Weighted>
-0.0000

> <Gold.Chemscore.Lipo.Weighted>
-13.3250

> <Gold.Chemscore.Internal_Hbond.Weighted>
0.0000

> <Gold.Chemscore.DEClash.Weighted>
0.8813

> <Gold.Chemscore.DEInternal.Weighted>
1.5221

> <Gold.Chemscore.Rot.Weighted>
3.9852

> <Gold.Chemscore.Internal.Correction.Weighted>
   9.000000E+99

> <Gold.Protein.RotatedTorsions>
[ 6907 6896 6895 6894 ] final  -54.45 input  -60.11 | X-H torsion
[ 7974 7965 7964 7962 ] final  -79.71 input  175.53 | X-H torsion
[ 8008 7997 7996 7995 ] final  -38.37 input   59.86 | X-H torsion
[ 10167 10162 10161 10158 ] final -168.92 input  -65.29 | X-H torsion
[ 10718 10713 10712 10709 ] final   -3.91 input   66.30 | X-H torsion
[ 10763 10752 10751 10750 ] final  176.03 input  -60.55 | X-H torsion
[ 11005 11000 10999 10996 ] final    7.26 input  -57.11 | X-H torsion

> <Gold.Protein.ActiveResidues>
 VAL166  LYS551  ARG553  GLY616  TRP617  ASP618  TYR619  PRO620  LYS621  CYS622 
 ASP623  PHE694  ASN695  SER759  ASP760  ASP761  ALA762  ILE779  LEU786  VAL792 
 PHE793  MET794  SER795  GLU796  ALA797  LYS798  CYS799  TRP800  GLU811  SER814 

> <Gold.Protein.RotatedAtoms>
  150.8337  134.7601  159.6874 H   0  0  0  0  0  0  0  0  0  0  0  0  # atno 6907 bound_to 6896
  152.4437  134.5534  159.9883 H   0  0  0  0  0  0  0  0  0  0  0  0  # atno 6908 bound_to 6896
  151.5689  133.3355  159.3021 H   0  0  0  0  0  0  0  0  0  0  0  0  # atno 6909 bound_to 6896
  145.5695  140.9468  143.1403 H   0  0  0  0  0  0  0  0  0  0  0  0  # atno 7974 bound_to 7965
  154.4038  140.1579  156.2689 H   0  0  0  0  0  0  0  0  0  0  0  0  # atno 8008 bound_to 7997
  155.8970  140.3435  155.5976 H   0  0  0  0  0  0  0  0  0  0  0  0  # atno 8009 bound_to 7997
  155.7492  140.0802  157.2200 H   0  0  0  0  0  0  0  0  0  0  0  0  # atno 8010 bound_to 7997
  139.5955  144.1122  152.1684 H   0  0  0  0  0  0  0  0  0  0  0  0  # atno 10167 bound_to 10162
  156.7691  130.5294  149.5770 H   0  0  0  0  0  0  0  0  0  0  0  0  # atno 10718 bound_to 10713
  154.4756  135.2773  155.1609 H   0  0  0  0  0  0  0  0  0  0  0  0  # atno 10763 bound_to 10752
  154.3340  135.6184  153.5568 H   0  0  0  0  0  0  0  0  0  0  0  0  # atno 10764 bound_to 10752
  152.9869  135.5772  154.5146 H   0  0  0  0  0  0  0  0  0  0  0  0  # atno 10765 bound_to 10752
  140.5503  134.0290  155.7934 H   0  0  0  0  0  0  0  0  0  0  0  0  # atno 11005 bound_to 11000
  144.7444  139.7360  143.7298 LP  0  0  0  0  0  0  0  0  0  0  0  0  # atno 17320 bound_to 7965
  146.1794  139.4979  142.9876 LP  0  0  0  0  0  0  0  0  0  0  0  0  # atno 17321 bound_to 7965
  140.0706  144.5782  150.7194 LP  0  0  0  0  0  0  0  0  0  0  0  0  # atno 17342 bound_to 10162
  140.7208  143.2587  151.4285 LP  0  0  0  0  0  0  0  0  0  0  0  0  # atno 17343 bound_to 10162
  156.1289  130.6164  151.0305 LP  0  0  0  0  0  0  0  0  0  0  0  0  # atno 17370 bound_to 10713
  157.6699  131.0863  150.7637 LP  0  0  0  0  0  0  0  0  0  0  0  0  # atno 17371 bound_to 10713
  141.1175  133.9515  157.2793 LP  0  0  0  0  0  0  0  0  0  0  0  0  # atno 17394 bound_to 11000
  139.9459  135.0184  156.8849 LP  0  0  0  0  0  0  0  0  0  0  0  0  # atno 17395 bound_to 11000

$$$$
