AV-unprocessed.smi:1821|AV-procd|sdf|7386|dock4
  -GOLD-   22720 9 53D 1   1.00000     0.00000
 Structure written by MMmdl.
 35 37  0  0  0  0  0  0  0  0  1 V2000
  150.5020  145.0702  159.0640 C   0  0  0  0  0  0  0  0  0  0  0  0
  151.4089  144.1752  159.8476 C   0  0  0  0  0  0  0  0  0  0  0  0
  151.6426  144.3624  161.1469 N   0  0  0  0  0  0  0  0  0  0  0  0
  152.5123  143.3324  161.4493 C   0  0  0  0  0  0  0  0  0  0  0  0
  153.1322  142.9817  162.6700 C   0  0  0  0  0  0  0  0  0  0  0  0
  153.9967  141.8693  162.7381 C   0  0  0  0  0  0  0  0  0  0  0  0
  154.2530  141.0929  161.5892 C   0  0  0  0  0  0  0  0  0  0  0  0
  153.6448  141.4240  160.3631 C   0  0  0  0  0  0  0  0  0  0  0  0
  152.7832  142.5356  160.3009 C   0  0  0  0  0  0  0  0  0  0  0  0
  152.0434  143.1204  159.2785 N   0  0  0  0  0  0  0  0  0  0  0  0
  151.9828  142.6685  157.8951 C   0  0  0  0  0  0  0  0  0  0  0  0
  150.6929  141.8825  157.5829 C   0  0  2  0  0  0  0  0  0  0  0  0
  150.0702  141.4621  158.7823 O   0  0  0  0  0  0  0  0  0  0  0  0
  150.9643  140.7240  156.6290 C   0  0  0  0  0  0  0  0  0  0  0  0
  151.8655  139.6908  156.9822 C   0  0  0  0  0  0  0  0  0  0  0  0
  152.5081  139.7138  158.1748 F   0  0  0  0  0  0  0  0  0  0  0  0
  152.1103  138.6266  156.0931 C   0  0  0  0  0  0  0  0  0  0  0  0
  151.4650  138.5861  154.8435 C   0  0  0  0  0  0  0  0  0  0  0  0
  150.5761  139.6145  154.4807 C   0  0  0  0  0  0  0  0  0  0  0  0
  150.3269  140.6806  155.3668 C   0  0  0  0  0  0  0  0  0  0  0  0
  149.4726  141.6634  154.9926 F   0  0  0  0  0  0  0  0  0  0  0  0
  150.1695  145.9089  159.6765 H   0  0  0  0  0  0  0  0  0  0  0  0
  149.6232  144.5173  158.7316 H   0  0  0  0  0  0  0  0  0  0  0  0
  151.0205  145.4682  158.1917 H   0  0  0  0  0  0  0  0  0  0  0  0
  152.9421  143.5697  163.5557 H   0  0  0  0  0  0  0  0  0  0  0  0
  154.4647  141.6105  163.6766 H   0  0  0  0  0  0  0  0  0  0  0  0
  154.9166  140.2427  161.6499 H   0  0  0  0  0  0  0  0  0  0  0  0
  153.8384  140.8319  159.4811 H   0  0  0  0  0  0  0  0  0  0  0  0
  152.0426  143.5486  157.2536 H   0  0  0  0  0  0  0  0  0  0  0  0
  152.8649  142.0704  157.6679 H   0  0  0  0  0  0  0  0  0  0  0  0
  149.9841  142.5630  157.1111 H   0  0  0  0  0  0  0  0  0  0  0  0
  149.5586  140.6888  158.6000 H   0  0  0  0  0  0  0  0  0  0  0  0
  152.7971  137.8404  156.3703 H   0  0  0  0  0  0  0  0  0  0  0  0
  151.6547  137.7695  154.1628 H   0  0  0  0  0  0  0  0  0  0  0  0
  150.0844  139.5865  153.5195 H   0  0  0  0  0  0  0  0  0  0  0  0
  1  2  1  0  0  0  0
  1 22  1  0  0  0  0
  1 23  1  0  0  0  0
  1 24  1  0  0  0  0
  2 10  1  0  0  0  0
  2  3  2  0  0  0  0
  3  4  1  0  0  0  0
  4  9  2  0  0  0  0
  4  5  1  0  0  0  0
  5  6  2  0  0  0  0
  5 25  1  0  0  0  0
  6  7  1  0  0  0  0
  6 26  1  0  0  0  0
  7  8  2  0  0  0  0
  7 27  1  0  0  0  0
  8  9  1  0  0  0  0
  8 28  1  0  0  0  0
  9 10  1  0  0  0  0
 10 11  1  0  0  0  0
 11 12  1  0  0  0  0
 11 29  1  0  0  0  0
 11 30  1  0  0  0  0
 12 13  1  0  0  0  0
 12 14  1  0  0  0  0
 12 31  1  0  0  0  0
 13 32  1  0  0  0  0
 14 20  1  0  0  0  0
 14 15  2  0  0  0  0
 15 16  1  0  0  0  0
 15 17  1  0  0  0  0
 17 18  2  0  0  0  0
 17 33  1  0  0  0  0
 18 19  1  0  0  0  0
 18 34  1  0  0  0  0
 19 20  2  0  0  0  0
 19 35  1  0  0  0  0
 20 21  1  0  0  0  0
M  END
> <s_m_source_file>
AV-unprocessed.smi

> <i_m_source_file_index>
1821

> <i_lp_mmshare_version>
43012

> <i_f3d_flags>
0

> <s_epik_input>
W2NIXTFbY0hdW2NIXVtjSF1jKGMxMiluKGMobjIpW0NIM10pW0NIMl1bQ0BIXShbT0hdKWMzYyhGKVtjSF1bY0hdW2NIXWMzRg==

> <s_epik_cmdline>
J2VwaWtfcHl0aG9uJywgJy1waCcsICc3LjAnLCAnLXRuJywgJzgnLCAnLW1hJywgJzIwMCcsICctbWV0YWxfYmluZGluZycsICctaW1hZScsICc8aW5maWxlLm1hZT4nLCAnLW9tYWUnLCAnPG91dGZpbGUubWFlPic=

> <r_epik_Ionization_Penalty>
0.129663

> <r_epik_Ionization_Penalty_Charging>
0

> <r_epik_Ionization_Penalty_Neutral>
0.129663

> <r_epik_State_Penalty>
0.119073

> <r_epik_Charging_Adjusted_Penalty>
0.119073

> <i_epik_Tot_Q>
0

> <i_epik_Tot_abs_Q>
0

> <r_epik_Metal_State_Penalty>
0.000131867

> <b_epik_Metal_Only>
0

> <s_lp_Force_Field>
OPLS_2005

> <r_lp_Energy>
13.297

> <b_lp_Chiralities_Consistent>
1

> <s_lp_Variant>
AV-unprocessed.smi:1821-1

> <Gold.Version>
5.8.1

> <Gold.Id.Protein>
6NUR|6NUR_protein|mol2

> <Gold.PLP.Fitness>
48.7799

> <Gold.PLP.PLP>
-50.4048

> <Gold.PLP.part.hbond>
-0.7597

> <Gold.PLP.part.metal>
0.0000

> <Gold.PLP.part.buried>
-1.0047

> <Gold.PLP.part.nonpolar>
-48.9178

> <Gold.PLP.part.repulsive>
0.1751

> <Gold.PLP.ligand.clash>
0.0000

> <Gold.PLP.ligand.torsion>
0.8293

> <Gold.PLP.Chemscore.Hbond>
0.0000

> <Gold.PLP.Chemscore.CHOScore>
0.0000

> <Gold.PLP.Chemscore.Metal>
0.0000

> <Gold.PLP.Chemscore.Internal.Correction>
0.0338

> <Gold.Rescore>
     Score         DG    S(hbond)    S(metal)    S(lipo)     H(rot)  DE(clash)    DE(int)     intcor
     13.45     -15.60       0.00        0.00     127.69       1.88       0.21       1.94       ----

> <Gold.Chemscore.Fitness>
13.4478

> <Gold.Chemscore.DG>
-15.5964

> <Gold.Chemscore.ZeroCoef>
-5.4800

> <Gold.Chemscore.Hbond>
0.0000

> <Gold.Chemscore.Metal>
0.0000

> <Gold.Chemscore.Lipo>
127.6852

> <Gold.Chemscore.Internal_Hbond>
0.0000

> <Gold.Chemscore.DEClash>
0.2129

> <Gold.Chemscore.DEInternal>
1.9357

> <Gold.Chemscore.Rot>
1.8839

> <Gold.Chemscore.Internal.Correction>
   9.000000E+99

> <Gold.Chemscore.Hbond.Weighted>
-0.0000

> <Gold.Chemscore.Metal.Weighted>
-0.0000

> <Gold.Chemscore.Lipo.Weighted>
-14.9392

> <Gold.Chemscore.Internal_Hbond.Weighted>
0.0000

> <Gold.Chemscore.DEClash.Weighted>
0.2129

> <Gold.Chemscore.DEInternal.Weighted>
1.9357

> <Gold.Chemscore.Rot.Weighted>
4.8227

> <Gold.Chemscore.Internal.Correction.Weighted>
   9.000000E+99

> <Gold.Protein.RotatedTorsions>
[ 6907 6896 6895 6894 ] final  -36.82 input  -60.11 | X-H torsion
[ 7974 7965 7964 7962 ] final   45.92 input  175.53 | X-H torsion
[ 8008 7997 7996 7995 ] final  -36.07 input   59.86 | X-H torsion
[ 10167 10162 10161 10158 ] final   59.76 input  -65.29 | X-H torsion
[ 10718 10713 10712 10709 ] final  -71.98 input   66.30 | X-H torsion
[ 10763 10752 10751 10750 ] final  -83.31 input  -60.55 | X-H torsion
[ 11005 11000 10999 10996 ] final   87.28 input  -57.11 | X-H torsion

> <Gold.Protein.ActiveResidues>
 VAL166  LYS551  ARG553  GLY616  TRP617  ASP618  TYR619  PRO620  LYS621  CYS622 
 ASP623  PHE694  ASN695  SER759  ASP760  ASP761  ALA762  ILE779  LEU786  VAL792 
 PHE793  MET794  SER795  GLU796  ALA797  LYS798  CYS799  TRP800  GLU811  SER814 

> <Gold.Protein.RotatedAtoms>
  151.0224  134.9479  159.8066 H   0  0  0  0  0  0  0  0  0  0  0  0  # atno 6907 bound_to 6896
  152.5328  134.2886  159.9044 H   0  0  0  0  0  0  0  0  0  0  0  0  # atno 6908 bound_to 6896
  151.2893  133.4130  159.2666 H   0  0  0  0  0  0  0  0  0  0  0  0  # atno 6909 bound_to 6896
  146.0436  139.4911  142.9762 H   0  0  0  0  0  0  0  0  0  0  0  0  # atno 7974 bound_to 7965
  154.4081  140.1640  156.2314 H   0  0  0  0  0  0  0  0  0  0  0  0  # atno 8008 bound_to 7997
  155.9279  140.3417  155.6202 H   0  0  0  0  0  0  0  0  0  0  0  0  # atno 8009 bound_to 7997
  155.7142  140.0760  157.2349 H   0  0  0  0  0  0  0  0  0  0  0  0  # atno 8010 bound_to 7997
  140.1729  144.4258  150.6652 H   0  0  0  0  0  0  0  0  0  0  0  0  # atno 10167 bound_to 10162
  156.0339  130.4362  150.2524 H   0  0  0  0  0  0  0  0  0  0  0  0  # atno 10718 bound_to 10713
  154.5862  135.5560  153.7233 H   0  0  0  0  0  0  0  0  0  0  0  0  # atno 10763 bound_to 10752
  153.0099  135.6332  154.1913 H   0  0  0  0  0  0  0  0  0  0  0  0  # atno 10764 bound_to 10752
  154.1854  135.2885  155.3019 H   0  0  0  0  0  0  0  0  0  0  0  0  # atno 10765 bound_to 10752
  139.8923  134.8412  156.2838 H   0  0  0  0  0  0  0  0  0  0  0  0  # atno 11005 bound_to 11000
  145.6843  141.0182  143.1590 LP  0  0  0  0  0  0  0  0  0  0  0  0  # atno 17320 bound_to 7965
  144.7087  139.8457  143.7422 LP  0  0  0  0  0  0  0  0  0  0  0  0  # atno 17321 bound_to 7965
  140.6570  143.2240  151.5945 LP  0  0  0  0  0  0  0  0  0  0  0  0  # atno 17342 bound_to 10162
  139.5330  144.2862  152.1189 LP  0  0  0  0  0  0  0  0  0  0  0  0  # atno 17343 bound_to 10162
  157.0625  131.0094  151.3218 LP  0  0  0  0  0  0  0  0  0  0  0  0  # atno 17370 bound_to 10713
  157.5060  130.7909  149.7654 LP  0  0  0  0  0  0  0  0  0  0  0  0  # atno 17371 bound_to 10713
  141.0021  133.7145  156.0977 LP  0  0  0  0  0  0  0  0  0  0  0  0  # atno 17394 bound_to 11000
  140.7483  134.4073  157.5545 LP  0  0  0  0  0  0  0  0  0  0  0  0  # atno 17395 bound_to 11000

$$$$
