AV-unprocessed.smi:265|AV-procd|sdf|2022|dock7
  -GOLD-   2262021223D 1   1.00000     0.00000
 Structure written by MMmdl.
 52 56  0  0  0  0  0  0  0  0  1 V2000
  147.6693  133.5108  155.4089 C   0  0  0  0  0  0  0  0  0  0  0  0
  148.9288  133.3614  156.2765 C   0  0  1  0  0  0  0  0  0  0  0  0
  149.9419  132.7856  155.4543 O   0  0  0  0  0  0  0  0  0  0  0  0
  151.2048  133.2920  155.8490 C   0  0  0  0  0  0  0  0  0  0  0  0
  150.8946  134.7499  156.1509 C   0  0  0  0  0  0  0  0  0  0  0  0
  149.5408  134.6711  156.8498 C   0  0  2  0  0  0  0  0  0  0  0  0
  149.7782  134.4643  158.2326 O   0  0  0  0  0  0  0  0  0  0  0  0
  148.6835  135.9558  156.7020 C   0  0  0  0  0  0  0  0  0  0  0  0
  149.3821  137.1683  157.1022 N   0  0  0  0  0  0  0  0  0  0  0  0
  149.8102  137.4911  158.3702 C   0  0  0  0  0  0  0  0  0  0  0  0
  150.4149  138.6425  158.4774 N   0  0  0  0  0  0  0  0  0  0  0  0
  150.3995  139.1569  157.1860 C   0  0  0  0  0  0  0  0  0  0  0  0
  150.8737  140.3616  156.5927 C   0  0  0  0  0  0  0  0  0  0  0  0
  151.5250  141.3211  157.2986 N   0  0  0  0  0  0  0  0  0  0  0  0
  150.7553  142.5424  157.5243 C   0  0  0  0  0  0  0  0  0  0  0  0
  151.6818  143.7042  157.9124 C   0  0  0  0  0  0  0  0  0  0  0  0
  152.5783  143.3453  159.1087 C   0  0  1  0  0  0  0  0  0  0  0  0
  151.7956  143.2119  160.2882 O   0  0  0  0  0  0  0  0  0  0  0  0
  152.5696  143.0581  161.4793 C   0  0  0  0  0  0  0  0  0  0  0  0
  153.6585  141.9784  161.3353 C   0  0  0  0  0  0  0  0  0  0  0  0
  154.2088  141.5259  162.3367 O   0  0  0  0  0  0  0  0  0  0  0  0
  154.0059  141.5912  160.0974 N   0  0  0  0  0  0  0  0  0  0  0  0
  153.3130  142.0061  158.8819 C   0  0  1  0  0  0  0  0  0  0  0  0
  152.3422  140.8937  158.4349 C   0  0  0  0  0  0  0  0  0  0  0  0
  150.6493  140.5319  155.2619 N   0  0  0  0  0  0  0  0  0  0  0  0
  150.0139  139.5911  154.5574 C   0  0  0  0  0  0  0  0  0  0  0  0
  149.5252  138.4229  154.9768 N   0  0  0  0  0  0  0  0  0  0  0  0
  149.7421  138.2459  156.3112 C   0  0  0  0  0  0  0  0  0  0  0  0
  153.2997  144.1515  159.2555 H   0  0  0  0  0  0  0  0  0  0  0  0
  154.0617  142.1472  158.1015 H   0  0  0  0  0  0  0  0  0  0  0  0
  146.8413  133.9369  155.9757 H   0  0  0  0  0  0  0  0  0  0  0  0
  147.3420  132.5395  155.0376 H   0  0  0  0  0  0  0  0  0  0  0  0
  147.8543  134.1456  154.5420 H   0  0  0  0  0  0  0  0  0  0  0  0
  148.7104  132.6574  157.0817 H   0  0  0  0  0  0  0  0  0  0  0  0
  151.5506  132.7684  156.7416 H   0  0  0  0  0  0  0  0  0  0  0  0
  151.9510  133.1712  155.0637 H   0  0  0  0  0  0  0  0  0  0  0  0
  151.6699  135.2430  156.7390 H   0  0  0  0  0  0  0  0  0  0  0  0
  150.7991  135.2884  155.2075 H   0  0  0  0  0  0  0  0  0  0  0  0
  148.9467  134.3342  158.6620 H   0  0  0  0  0  0  0  0  0  0  0  0
  148.3609  136.0851  155.6686 H   0  0  0  0  0  0  0  0  0  0  0  0
  147.7753  135.8767  157.3011 H   0  0  0  0  0  0  0  0  0  0  0  0
  149.6612  136.8391  159.2188 H   0  0  0  0  0  0  0  0  0  0  0  0
  150.1770  142.8222  156.6445 H   0  0  0  0  0  0  0  0  0  0  0  0
  150.0351  142.3586  158.3229 H   0  0  0  0  0  0  0  0  0  0  0  0
  152.3108  143.9568  157.0578 H   0  0  0  0  0  0  0  0  0  0  0  0
  151.0941  144.5949  158.1362 H   0  0  0  0  0  0  0  0  0  0  0  0
  153.0447  144.0076  161.7288 H   0  0  0  0  0  0  0  0  0  0  0  0
  151.9042  142.8035  162.3045 H   0  0  0  0  0  0  0  0  0  0  0  0
  154.7455  140.9110  159.9989 H   0  0  0  0  0  0  0  0  0  0  0  0
  151.6809  140.6192  159.2586 H   0  0  0  0  0  0  0  0  0  0  0  0
  152.9127  140.0018  158.1708 H   0  0  0  0  0  0  0  0  0  0  0  0
  149.8783  139.8050  153.5074 H   0  0  0  0  0  0  0  0  0  0  0  0
  1  2  1  0  0  0  0
  1 31  1  0  0  0  0
  1 32  1  0  0  0  0
  1 33  1  0  0  0  0
  2  6  1  0  0  0  0
  2  3  1  0  0  0  0
  2 34  1  0  0  0  0
  3  4  1  0  0  0  0
  4  5  1  0  0  0  0
  4 35  1  0  0  0  0
  4 36  1  0  0  0  0
  5  6  1  0  0  0  0
  5 37  1  0  0  0  0
  5 38  1  0  0  0  0
  6  7  1  0  0  0  0
  6  8  1  0  0  0  0
  7 39  1  0  0  0  0
  8  9  1  0  0  0  0
  8 40  1  0  0  0  0
  8 41  1  0  0  0  0
  9 28  1  0  0  0  0
  9 10  1  0  0  0  0
 10 11  2  0  0  0  0
 10 42  1  0  0  0  0
 11 12  1  0  0  0  0
 12 28  2  0  0  0  0
 12 13  1  0  0  0  0
 13 14  1  0  0  0  0
 13 25  2  0  0  0  0
 14 24  1  0  0  0  0
 14 15  1  0  0  0  0
 15 16  1  0  0  0  0
 15 43  1  0  0  0  0
 15 44  1  0  0  0  0
 16 17  1  0  0  0  0
 16 45  1  0  0  0  0
 16 46  1  0  0  0  0
 17 29  1  0  0  0  0
 17 23  1  0  0  0  0
 17 18  1  0  0  0  0
 18 19  1  0  0  0  0
 19 20  1  0  0  0  0
 19 47  1  0  0  0  0
 19 48  1  0  0  0  0
 20 21  2  0  0  0  0
 20 22  1  0  0  0  0
 22 23  1  0  0  0  0
 22 49  1  0  0  0  0
 23 30  1  0  0  0  0
 23 24  1  0  0  0  0
 24 50  1  0  0  0  0
 24 51  1  0  0  0  0
 25 26  1  0  0  0  0
 26 27  2  0  0  0  0
 26 52  1  0  0  0  0
 27 28  1  0  0  0  0
M  END
> <s_m_source_file>
AV-unprocessed.smi

> <i_m_source_file_index>
265

> <i_lp_mmshare_version>
43012

> <i_f3d_flags>
0

> <s_epik_input>
W0NIMl0xW0NIMl1PW0NAQEhdKFtDSDNdKVtDQEBdMShbT0hdKVtDSDJdbihbY0hdbjIpYyhjMjMpbltjSF1uYzNOKFtDSDJdW0NIMl00KVtDSDJdW0NAQEhdKFtDQEhdNDUpW05IXUMoPU8pW0NIMl1PNQ==

> <s_epik_cmdline>
J2VwaWtfcHl0aG9uJywgJy1waCcsICc3LjAnLCAnLXRuJywgJzgnLCAnLW1hJywgJzIwMCcsICctbWV0YWxfYmluZGluZycsICctaW1hZScsICc8aW5maWxlLm1hZT4nLCAnLW9tYWUnLCAnPG91dGZpbGUubWFlPic=

> <r_lp_tautomer_probability>
1

> <r_epik_Ionization_Penalty>
0.00221504

> <r_epik_Ionization_Penalty_Charging>
0

> <r_epik_Ionization_Penalty_Neutral>
0.00221504

> <r_epik_State_Penalty>
-0

> <r_epik_Charging_Adjusted_Penalty>
0

> <i_epik_Tot_Q>
0

> <i_epik_Tot_abs_Q>
0

> <r_epik_Metal_State_Penalty>
-0

> <b_epik_Metal_Only>
0

> <s_lp_Force_Field>
OPLS_2005

> <r_lp_Energy>
44.6863

> <b_lp_Chiralities_Consistent>
1

> <s_lp_Variant>
AV-unprocessed.smi:265-8

> <Gold.Version>
5.8.1

> <Gold.Id.Protein>
6NUR|6NUR_protein|mol2

> <Gold.PLP.Fitness>
42.7117

> <Gold.PLP.PLP>
-36.7484

> <Gold.PLP.part.hbond>
-2.6959

> <Gold.PLP.part.metal>
0.0000

> <Gold.PLP.part.buried>
-8.3702

> <Gold.PLP.part.nonpolar>
-26.4372

> <Gold.PLP.part.repulsive>
0.3021

> <Gold.PLP.ligand.clash>
0.0000

> <Gold.PLP.ligand.torsion>
0.5578

> <Gold.PLP.Chemscore.Hbond>
1.2379

> <Gold.PLP.Chemscore.CHOScore>
1.0000

> <Gold.PLP.Chemscore.Metal>
0.0000

> <Gold.Chemscore.Hbonds>
donor molecule, donor type, donor heavy atom, donor atom, acceptor molecule, acceptor atom, score
      P1  H  6896  6909       L1     7  0.93
      P1  H  7989  7998       L1    25  0.19
      L1  C    26    52       P1  7957  1.00

> <Gold.PLP.Chemscore.Internal.Correction>
0.3651

> <Gold.Rescore>
     Score         DG    S(hbond)    S(metal)    S(lipo)     H(rot)  DE(clash)    DE(int)     intcor
     10.48     -13.01       0.96        0.00      85.94       2.25       0.01       2.51       ----

> <Gold.Chemscore.Fitness>
10.4829

> <Gold.Chemscore.DG>
-13.0059

> <Gold.Chemscore.ZeroCoef>
-5.4800

> <Gold.Chemscore.Hbond>
0.9637

> <Gold.Chemscore.Metal>
0.0000

> <Gold.Chemscore.Lipo>
85.9399

> <Gold.Chemscore.Internal_Hbond>
0.0000

> <Gold.Chemscore.DEClash>
0.0121

> <Gold.Chemscore.DEInternal>
2.5109

> <Gold.Chemscore.Rot>
2.2453

> <Gold.Chemscore.Internal.Correction>
   9.000000E+99

> <Gold.Chemscore.Hbonds>
donor molecule, donor type, donor heavy atom, donor atom, acceptor molecule, acceptor atom, score
      P1  H  6896  6909       L1     7  0.22

> <Gold.Chemscore.Hbond.Weighted>
-3.2189

> <Gold.Chemscore.Metal.Weighted>
-0.0000

> <Gold.Chemscore.Lipo.Weighted>
-10.0550

> <Gold.Chemscore.Internal_Hbond.Weighted>
0.0000

> <Gold.Chemscore.DEClash.Weighted>
0.0121

> <Gold.Chemscore.DEInternal.Weighted>
2.5109

> <Gold.Chemscore.Rot.Weighted>
5.7479

> <Gold.Chemscore.Internal.Correction.Weighted>
   9.000000E+99

> <Gold.Protein.RotatedTorsions>
[ 6907 6896 6895 6894 ] final    9.52 input  -60.11 | X-H torsion
[ 7974 7965 7964 7962 ] final    3.13 input  175.53 | X-H torsion
[ 8008 7997 7996 7995 ] final   77.70 input   59.86 | X-H torsion
[ 10167 10162 10161 10158 ] final   65.93 input  -65.29 | X-H torsion
[ 10718 10713 10712 10709 ] final -140.98 input   66.30 | X-H torsion
[ 10763 10752 10751 10750 ] final  179.91 input  -60.55 | X-H torsion
[ 11005 11000 10999 10996 ] final  -74.04 input  -57.11 | X-H torsion

> <Gold.Protein.ActiveResidues>
 VAL166  LYS551  ARG553  GLY616  TRP617  ASP618  TYR619  PRO620  LYS621  CYS622 
 ASP623  PHE694  ASN695  SER759  ASP760  ASP761  ALA762  ILE779  LEU786  VAL792 
 PHE793  MET794  SER795  GLU796  ALA797  LYS798  CYS799  TRP800  GLU811  SER814 

> <Gold.Protein.RotatedAtoms>
  151.7236  135.0889  160.0287 H   0  0  0  0  0  0  0  0  0  0  0  0  # atno 6907 bound_to 6896
  152.3586  133.6264  159.6006 H   0  0  0  0  0  0  0  0  0  0  0  0  # atno 6908 bound_to 6896
  150.7589  133.9376  159.3487 H   0  0  0  0  0  0  0  0  0  0  0  0  # atno 6909 bound_to 6896
  146.2445  140.0731  142.8361 H   0  0  0  0  0  0  0  0  0  0  0  0  # atno 7974 bound_to 7965
  155.8453  140.3460  155.5658 H   0  0  0  0  0  0  0  0  0  0  0  0  # atno 8008 bound_to 7997
  155.8096  140.0897  157.1931 H   0  0  0  0  0  0  0  0  0  0  0  0  # atno 8009 bound_to 7997
  154.4006  140.1450  156.3359 H   0  0  0  0  0  0  0  0  0  0  0  0  # atno 8010 bound_to 7997
  140.1059  144.4862  150.7008 H   0  0  0  0  0  0  0  0  0  0  0  0  # atno 10167 bound_to 10162
  156.3287  130.7574  151.1687 H   0  0  0  0  0  0  0  0  0  0  0  0  # atno 10718 bound_to 10713
  154.5267  135.2797  155.1215 H   0  0  0  0  0  0  0  0  0  0  0  0  # atno 10763 bound_to 10752
  154.2751  135.6296  153.5329 H   0  0  0  0  0  0  0  0  0  0  0  0  # atno 10764 bound_to 10752
  152.9948  135.5638  154.5770 H   0  0  0  0  0  0  0  0  0  0  0  0  # atno 10765 bound_to 10752
  141.1630  133.6898  156.7303 H   0  0  0  0  0  0  0  0  0  0  0  0  # atno 11005 bound_to 11000
  145.0799  140.9213  143.4832 LP  0  0  0  0  0  0  0  0  0  0  0  0  # atno 17320 bound_to 7965
  145.0882  139.2910  143.5749 LP  0  0  0  0  0  0  0  0  0  0  0  0  # atno 17321 bound_to 7965
  140.6952  143.2399  151.5020 LP  0  0  0  0  0  0  0  0  0  0  0  0  # atno 17342 bound_to 10162
  139.5645  144.2075  152.1744 LP  0  0  0  0  0  0  0  0  0  0  0  0  # atno 17343 bound_to 10162
  157.7426  131.0487  150.5010 LP  0  0  0  0  0  0  0  0  0  0  0  0  # atno 17370 bound_to 10713
  156.5173  130.4153  149.6269 LP  0  0  0  0  0  0  0  0  0  0  0  0  # atno 17371 bound_to 10713
  140.2750  134.8362  157.3881 LP  0  0  0  0  0  0  0  0  0  0  0  0  # atno 17394 bound_to 11000
  140.1486  134.4879  155.7978 LP  0  0  0  0  0  0  0  0  0  0  0  0  # atno 17395 bound_to 11000

$$$$
