AV-unprocessed.smi:219|AV-procd|sdf|1681|dock6
  -GOLD-   2262020113D 1   1.00000     0.00000
 Structure written by MMmdl.
 50 53  0  0  0  0  0  0  0  0  1 V2000
  149.9147  138.1193  153.2791 N   0  0  0  0  0  0  0  0  0  0  0  0
  150.7432  137.9530  154.3129 C   0  0  0  0  0  0  0  0  0  0  0  0
  151.2037  136.8533  154.6126 O   0  0  0  0  0  0  0  0  0  0  0  0
  151.0742  139.1953  155.1496 C   0  0  0  0  0  0  0  0  0  0  0  0
  149.8452  140.0486  155.5840 C   0  0  1  0  0  0  0  0  0  0  0  0
  149.3713  140.8905  154.3760 C   0  0  0  0  0  0  0  0  0  0  0  0
  148.1424  141.7460  154.7104 C   0  0  0  0  0  0  0  0  0  0  0  0
  147.0207  140.8537  155.2498 C   0  0  0  0  0  0  0  0  0  0  0  0
  147.5201  140.0534  156.4586 C   0  0  0  0  0  0  0  0  0  0  0  0
  148.7124  139.2713  156.1250 N   0  0  0  0  0  0  0  0  0  0  0  0
  149.0065  138.3926  157.1091 C   0  0  0  0  0  0  0  0  0  0  0  0
  150.2062  138.4596  157.7454 N   0  0  0  0  0  0  0  0  0  0  0  0
  150.5048  137.5689  158.6959 C   0  0  0  0  0  0  0  0  0  0  0  0
  149.7694  136.5497  159.1461 N   0  0  0  0  0  0  0  0  0  0  0  0
  148.5665  136.4833  158.5053 C   0  0  0  0  0  0  0  0  0  0  0  0
  148.1039  137.3675  157.4922 C   0  0  0  0  0  0  0  0  0  0  0  0
  146.8311  136.9998  157.0775 N   0  0  0  0  0  0  0  0  0  0  0  0
  146.5609  135.9444  157.7962 C   0  0  0  0  0  0  0  0  0  0  0  0
  147.5542  135.5540  158.6673 N   0  0  0  0  0  0  0  0  0  0  0  0
  147.5275  134.4077  159.5623 C   0  0  0  0  0  0  0  0  0  0  0  0
  146.4342  134.5068  160.6527 C   0  0  2  0  0  0  0  0  0  0  0  0
  145.1693  134.2727  160.0571 O   0  0  0  0  0  0  0  0  0  0  0  0
  146.3957  135.8681  161.3343 C   0  0  0  0  0  0  0  0  0  0  0  0
  145.8469  135.5353  162.7151 C   0  0  0  0  0  0  0  0  0  0  0  0
  146.4863  134.3088  163.0256 O   0  0  0  0  0  0  0  0  0  0  0  0
  146.6042  133.5316  161.8371 C   0  0  0  0  0  0  0  0  0  0  0  0
  149.6742  137.3284  152.6993 H   0  0  0  0  0  0  0  0  0  0  0  0
  149.5357  139.0330  153.0772 H   0  0  0  0  0  0  0  0  0  0  0  0
  151.5990  138.8304  156.0337 H   0  0  0  0  0  0  0  0  0  0  0  0
  151.7981  139.8166  154.6205 H   0  0  0  0  0  0  0  0  0  0  0  0
  150.1601  140.7444  156.3635 H   0  0  0  0  0  0  0  0  0  0  0  0
  150.1766  141.5403  154.0312 H   0  0  0  0  0  0  0  0  0  0  0  0
  149.1309  140.2291  153.5423 H   0  0  0  0  0  0  0  0  0  0  0  0
  148.4070  142.4996  155.4535 H   0  0  0  0  0  0  0  0  0  0  0  0
  147.8036  142.2832  153.8244 H   0  0  0  0  0  0  0  0  0  0  0  0
  146.1590  141.4591  155.5311 H   0  0  0  0  0  0  0  0  0  0  0  0
  146.6829  140.1703  154.4695 H   0  0  0  0  0  0  0  0  0  0  0  0
  147.7486  140.7378  157.2770 H   0  0  0  0  0  0  0  0  0  0  0  0
  146.7271  139.3904  156.8086 H   0  0  0  0  0  0  0  0  0  0  0  0
  151.4752  137.6845  159.1557 H   0  0  0  0  0  0  0  0  0  0  0  0
  145.6274  135.4093  157.7003 H   0  0  0  0  0  0  0  0  0  0  0  0
  147.3776  133.5098  158.9616 H   0  0  0  0  0  0  0  0  0  0  0  0
  148.5120  134.3075  160.0208 H   0  0  0  0  0  0  0  0  0  0  0  0
  145.3026  133.8028  159.2482 H   0  0  0  0  0  0  0  0  0  0  0  0
  147.4053  136.2674  161.4407 H   0  0  0  0  0  0  0  0  0  0  0  0
  145.7998  136.6106  160.8015 H   0  0  0  0  0  0  0  0  0  0  0  0
  146.0689  136.3040  163.4554 H   0  0  0  0  0  0  0  0  0  0  0  0
  144.7664  135.3869  162.6830 H   0  0  0  0  0  0  0  0  0  0  0  0
  145.8592  132.7346  161.8293 H   0  0  0  0  0  0  0  0  0  0  0  0
  147.5851  133.0584  161.8467 H   0  0  0  0  0  0  0  0  0  0  0  0
  1  2  1  0  0  0  0
  1 27  1  0  0  0  0
  1 28  1  0  0  0  0
  2  3  2  0  0  0  0
  2  4  1  0  0  0  0
  4  5  1  0  0  0  0
  4 29  1  0  0  0  0
  4 30  1  0  0  0  0
  5 10  1  0  0  0  0
  5  6  1  0  0  0  0
  5 31  1  0  0  0  0
  6  7  1  0  0  0  0
  6 32  1  0  0  0  0
  6 33  1  0  0  0  0
  7  8  1  0  0  0  0
  7 34  1  0  0  0  0
  7 35  1  0  0  0  0
  8  9  1  0  0  0  0
  8 36  1  0  0  0  0
  8 37  1  0  0  0  0
  9 10  1  0  0  0  0
  9 38  1  0  0  0  0
  9 39  1  0  0  0  0
 10 11  1  0  0  0  0
 11 16  1  0  0  0  0
 11 12  2  0  0  0  0
 12 13  1  0  0  0  0
 13 14  2  0  0  0  0
 13 40  1  0  0  0  0
 14 15  1  0  0  0  0
 15 19  1  0  0  0  0
 15 16  2  0  0  0  0
 16 17  1  0  0  0  0
 17 18  2  0  0  0  0
 18 19  1  0  0  0  0
 18 41  1  0  0  0  0
 19 20  1  0  0  0  0
 20 21  1  0  0  0  0
 20 42  1  0  0  0  0
 20 43  1  0  0  0  0
 21 26  1  0  0  0  0
 21 22  1  0  0  0  0
 21 23  1  0  0  0  0
 22 44  1  0  0  0  0
 23 24  1  0  0  0  0
 23 45  1  0  0  0  0
 23 46  1  0  0  0  0
 24 25  1  0  0  0  0
 24 47  1  0  0  0  0
 24 48  1  0  0  0  0
 25 26  1  0  0  0  0
 26 49  1  0  0  0  0
 26 50  1  0  0  0  0
M  END
> <s_m_source_file>
AV-unprocessed.smi

> <i_m_source_file_index>
219

> <i_lp_mmshare_version>
43012

> <i_f3d_flags>
0

> <s_epik_input>
W05IMl1DKD1PKVtDSDJdW0NAQEhdMVtDSDJdW0NIMl1bQ0gyXVtDSDJdTjFjKG5bY0hdbjIpYyhjMjMpbltjSF1uM1tDSDJdW0NAQF00KFtPSF0pW0NIMl1bQ0gyXU9bQ0gyXTQ=

> <s_epik_cmdline>
J2VwaWtfcHl0aG9uJywgJy1waCcsICc3LjAnLCAnLXRuJywgJzgnLCAnLW1hJywgJzIwMCcsICctbWV0YWxfYmluZGluZycsICctaW1hZScsICc8aW5maWxlLm1hZT4nLCAnLW9tYWUnLCAnPG91dGZpbGUubWFlPic=

> <r_lp_tautomer_probability>
1

> <r_epik_Ionization_Penalty>
0.00228532

> <r_epik_Ionization_Penalty_Charging>
0

> <r_epik_Ionization_Penalty_Neutral>
0.00228532

> <r_epik_State_Penalty>
0.00140978

> <r_epik_Charging_Adjusted_Penalty>
0.00140978

> <i_epik_Tot_Q>
0

> <i_epik_Tot_abs_Q>
0

> <r_epik_Metal_State_Penalty>
-0

> <b_epik_Metal_Only>
0

> <s_lp_Force_Field>
OPLS_2005

> <r_lp_Energy>
35.4504

> <b_lp_Chiralities_Consistent>
1

> <s_lp_Variant>
AV-unprocessed.smi:219-4

> <Gold.Version>
5.8.1

> <Gold.Id.Protein>
6NUR|6NUR_protein|mol2

> <Gold.PLP.Fitness>
46.2496

> <Gold.PLP.PLP>
-37.3756

> <Gold.PLP.part.hbond>
-6.5120

> <Gold.PLP.part.metal>
0.0000

> <Gold.PLP.part.buried>
-2.0660

> <Gold.PLP.part.nonpolar>
-28.4905

> <Gold.PLP.part.repulsive>
0.2642

> <Gold.PLP.ligand.clash>
0.0000

> <Gold.PLP.ligand.torsion>
0.5857

> <Gold.PLP.Chemscore.Hbond>
3.2482

> <Gold.PLP.Chemscore.CHOScore>
0.0000

> <Gold.PLP.Chemscore.Metal>
0.0000

> <Gold.Chemscore.Hbonds>
donor molecule, donor type, donor heavy atom, donor atom, acceptor molecule, acceptor atom, score
      L1  H     1    27       P1  7948  0.94
      L1  H     1    28       P1  7957  0.34
      P1  H  6896  6908       L1    14  0.84
      P1  H 10752 10763       L1     3  0.75

> <Gold.PLP.Chemscore.Internal.Correction>
0.3008

> <Gold.Rescore>
     Score         DG    S(hbond)    S(metal)    S(lipo)     H(rot)  DE(clash)    DE(int)     intcor
     11.46     -14.13       2.74        0.00      69.37       3.37       0.35       2.32       ----

> <Gold.Chemscore.Fitness>
11.4591

> <Gold.Chemscore.DG>
-14.1294

> <Gold.Chemscore.ZeroCoef>
-5.4800

> <Gold.Chemscore.Hbond>
2.7423

> <Gold.Chemscore.Metal>
0.0000

> <Gold.Chemscore.Lipo>
69.3725

> <Gold.Chemscore.Internal_Hbond>
0.0000

> <Gold.Chemscore.DEClash>
0.3524

> <Gold.Chemscore.DEInternal>
2.3178

> <Gold.Chemscore.Rot>
3.3697

> <Gold.Chemscore.Internal.Correction>
   9.000000E+99

> <Gold.Chemscore.Hbonds>
donor molecule, donor type, donor heavy atom, donor atom, acceptor molecule, acceptor atom, score
      L1  H     1    27       P1  7948  0.36
      L1  H     1    28       P1  7957  0.34
      P1  H  6896  6908       L1    14  0.59
      P1  H 10752 10763       L1     3  0.73

> <Gold.Chemscore.Hbond.Weighted>
-9.1592

> <Gold.Chemscore.Metal.Weighted>
-0.0000

> <Gold.Chemscore.Lipo.Weighted>
-8.1166

> <Gold.Chemscore.Internal_Hbond.Weighted>
0.0000

> <Gold.Chemscore.DEClash.Weighted>
0.3524

> <Gold.Chemscore.DEInternal.Weighted>
2.3178

> <Gold.Chemscore.Rot.Weighted>
8.6264

> <Gold.Chemscore.Internal.Correction.Weighted>
   9.000000E+99

> <Gold.Protein.RotatedTorsions>
[ 6907 6896 6895 6894 ] final -151.53 input  -60.11 | X-H torsion
[ 7974 7965 7964 7962 ] final  163.99 input  175.53 | X-H torsion
[ 8008 7997 7996 7995 ] final  -57.04 input   59.86 | X-H torsion
[ 10167 10162 10161 10158 ] final   24.02 input  -65.29 | X-H torsion
[ 10718 10713 10712 10709 ] final   66.24 input   66.30 | X-H torsion
[ 10763 10752 10751 10750 ] final   58.27 input  -60.55 | X-H torsion
[ 11005 11000 10999 10996 ] final  -52.16 input  -57.11 | X-H torsion

> <Gold.Protein.ActiveResidues>
 VAL166  LYS551  ARG553  GLY616  TRP617  ASP618  TYR619  PRO620  LYS621  CYS622 
 ASP623  PHE694  ASN695  SER759  ASP760  ASP761  ALA762  ILE779  LEU786  VAL792 
 PHE793  MET794  SER795  GLU796  ALA797  LYS798  CYS799  TRP800  GLU811  SER814 

> <Gold.Protein.RotatedAtoms>
  151.2145  133.4537  159.2598 H   0  0  0  0  0  0  0  0  0  0  0  0  # atno 6907 bound_to 6896
  151.0945  134.9936  159.8429 H   0  0  0  0  0  0  0  0  0  0  0  0  # atno 6908 bound_to 6896
  152.5438  134.2076  159.8790 H   0  0  0  0  0  0  0  0  0  0  0  0  # atno 6909 bound_to 6896
  144.7565  139.8262  143.6348 H   0  0  0  0  0  0  0  0  0  0  0  0  # atno 7974 bound_to 7965
  154.4253  140.1116  156.5734 H   0  0  0  0  0  0  0  0  0  0  0  0  # atno 8008 bound_to 7997
  155.6188  140.3495  155.4626 H   0  0  0  0  0  0  0  0  0  0  0  0  # atno 8009 bound_to 7997
  156.0040  140.1205  157.0509 H   0  0  0  0  0  0  0  0  0  0  0  0  # atno 8010 bound_to 7997
  140.5222  143.9983  150.6422 H   0  0  0  0  0  0  0  0  0  0  0  0  # atno 10167 bound_to 10162
  157.6156  130.9257  150.0082 H   0  0  0  0  0  0  0  0  0  0  0  0  # atno 10718 bound_to 10713
  152.9867  135.5612  154.5525 H   0  0  0  0  0  0  0  0  0  0  0  0  # atno 10763 bound_to 10752
  154.4959  135.2795  155.1462 H   0  0  0  0  0  0  0  0  0  0  0  0  # atno 10764 bound_to 10752
  154.2912  135.6326  153.5439 H   0  0  0  0  0  0  0  0  0  0  0  0  # atno 10765 bound_to 10752
  141.0910  133.6633  156.3983 H   0  0  0  0  0  0  0  0  0  0  0  0  # atno 11005 bound_to 11000
  146.1580  139.4685  143.0006 LP  0  0  0  0  0  0  0  0  0  0  0  0  # atno 17320 bound_to 7965
  145.6763  141.0203  143.1631 LP  0  0  0  0  0  0  0  0  0  0  0  0  # atno 17321 bound_to 7965
  140.3335  143.3063  152.0662 LP  0  0  0  0  0  0  0  0  0  0  0  0  # atno 17342 bound_to 10162
  139.4927  144.6492  151.6712 LP  0  0  0  0  0  0  0  0  0  0  0  0  # atno 17343 bound_to 10162
  156.1277  130.3644  149.9782 LP  0  0  0  0  0  0  0  0  0  0  0  0  # atno 17370 bound_to 10713
  156.7849  130.9235  151.3646 LP  0  0  0  0  0  0  0  0  0  0  0  0  # atno 17371 bound_to 10713
  140.5253  134.6265  157.5332 LP  0  0  0  0  0  0  0  0  0  0  0  0  # atno 17394 bound_to 11000
  139.9735  134.7253  155.9994 LP  0  0  0  0  0  0  0  0  0  0  0  0  # atno 17395 bound_to 11000

$$$$
