AV-unprocessed.smi:76|AV-procd|sdf|768|dock1
  -GOLD-   2262017113D 1   1.00000     0.00000
 Structure written by MMmdl.
 55 58  0  0  0  0  0  0  0  0  1 V2000
  152.2805  139.1294  158.5135 C   0  0  0  0  0  0  0  0  0  0  0  0
  151.4124  140.3911  158.3258 C   0  0  1  0  0  0  0  0  0  0  0  0
  152.1074  141.6059  158.9761 C   0  0  0  0  0  0  0  0  0  0  0  0
  151.2939  142.9025  158.7946 C   0  0  1  0  0  0  0  0  0  0  0  0
  151.9805  144.1202  159.4451 C   0  0  0  0  0  0  0  0  0  0  0  0
  152.4998  143.7970  160.6300 F   0  0  0  0  0  0  0  0  0  0  0  0
  152.9558  144.5680  158.6546 F   0  0  0  0  0  0  0  0  0  0  0  0
  151.0978  145.1044  159.6151 F   0  0  0  0  0  0  0  0  0  0  0  0
  151.0263  143.1172  157.2935 C   0  0  0  0  0  0  0  0  0  0  0  0
  150.3395  141.8900  156.6780 C   0  0  0  0  0  0  0  0  0  0  0  0
  151.1178  140.6759  156.9141 N   0  0  0  0  0  0  0  0  0  0  0  0
  150.6275  139.6409  156.1962 C   0  0  0  0  0  0  0  0  0  0  0  0
  150.8187  139.6734  154.8549 N   0  0  0  0  0  0  0  0  0  0  0  0
  150.3689  138.6719  154.0930 C   0  0  0  0  0  0  0  0  0  0  0  0
  149.7117  137.5710  154.4644 N   0  0  0  0  0  0  0  0  0  0  0  0
  149.5050  137.5437  155.8125 C   0  0  0  0  0  0  0  0  0  0  0  0
  149.9303  138.5288  156.7471 C   0  0  0  0  0  0  0  0  0  0  0  0
  149.5533  138.1584  158.0317 N   0  0  0  0  0  0  0  0  0  0  0  0
  148.9436  137.0168  157.8661 C   0  0  0  0  0  0  0  0  0  0  0  0
  148.8518  136.5803  156.5628 N   0  0  0  0  0  0  0  0  0  0  0  0
  148.2322  135.3466  156.0982 C   0  0  0  0  0  0  0  0  0  0  0  0
  149.0607  134.0484  156.3609 C   0  0  0  0  0  0  0  0  0  0  0  0
  149.5668  134.0017  157.8271 C   0  0  0  0  0  0  0  0  0  0  0  0
  150.3619  132.8618  158.0851 O   0  0  0  0  0  0  0  0  0  0  0  0
  148.1943  132.7957  156.0767 C   0  0  0  0  0  0  0  0  0  0  0  0
  147.9233  132.5818  154.5753 C   0  0  0  0  0  0  0  0  0  0  0  0
  149.1502  132.5136  153.8596 O   0  0  0  0  0  0  0  0  0  0  0  0
  149.9196  133.7049  153.9633 C   0  0  0  0  0  0  0  0  0  0  0  0
  150.2989  133.9500  155.4342 C   0  0  0  0  0  0  0  0  0  0  0  0
  152.5225  138.9762  159.5654 H   0  0  0  0  0  0  0  0  0  0  0  0
  153.2200  139.2107  157.9657 H   0  0  0  0  0  0  0  0  0  0  0  0
  151.7715  138.2279  158.1721 H   0  0  0  0  0  0  0  0  0  0  0  0
  150.4664  140.2336  158.8447 H   0  0  0  0  0  0  0  0  0  0  0  0
  152.2611  141.4125  160.0383 H   0  0  0  0  0  0  0  0  0  0  0  0
  153.0996  141.7348  158.5412 H   0  0  0  0  0  0  0  0  0  0  0  0
  150.3312  142.7642  159.2894 H   0  0  0  0  0  0  0  0  0  0  0  0
  150.4018  143.9978  157.1419 H   0  0  0  0  0  0  0  0  0  0  0  0
  151.9650  143.3086  156.7718 H   0  0  0  0  0  0  0  0  0  0  0  0
  149.3429  141.7744  157.1067 H   0  0  0  0  0  0  0  0  0  0  0  0
  150.2081  142.0450  155.6058 H   0  0  0  0  0  0  0  0  0  0  0  0
  150.5639  138.7660  153.0347 H   0  0  0  0  0  0  0  0  0  0  0  0
  148.5351  136.4609  158.6975 H   0  0  0  0  0  0  0  0  0  0  0  0
  147.2514  135.2656  156.5679 H   0  0  0  0  0  0  0  0  0  0  0  0
  148.0265  135.4717  155.0361 H   0  0  0  0  0  0  0  0  0  0  0  0
  150.1707  134.8819  158.0512 H   0  0  0  0  0  0  0  0  0  0  0  0
  148.7352  134.0161  158.5318 H   0  0  0  0  0  0  0  0  0  0  0  0
  150.0665  132.1587  157.5258 H   0  0  0  0  0  0  0  0  0  0  0  0
  148.7019  131.9085  156.4581 H   0  0  0  0  0  0  0  0  0  0  0  0
  147.2474  132.8540  156.6145 H   0  0  0  0  0  0  0  0  0  0  0  0
  147.3853  131.6451  154.4282 H   0  0  0  0  0  0  0  0  0  0  0  0
  147.2911  133.3690  154.1640 H   0  0  0  0  0  0  0  0  0  0  0  0
  150.8223  133.5883  153.3636 H   0  0  0  0  0  0  0  0  0  0  0  0
  149.3718  134.5477  153.5412 H   0  0  0  0  0  0  0  0  0  0  0  0
  150.9296  134.8339  155.5202 H   0  0  0  0  0  0  0  0  0  0  0  0
  150.9257  133.1170  155.7561 H   0  0  0  0  0  0  0  0  0  0  0  0
  1  2  1  0  0  0  0
  1 30  1  0  0  0  0
  1 31  1  0  0  0  0
  1 32  1  0  0  0  0
  2 11  1  0  0  0  0
  2  3  1  0  0  0  0
  2 33  1  0  0  0  0
  3  4  1  0  0  0  0
  3 34  1  0  0  0  0
  3 35  1  0  0  0  0
  4  5  1  0  0  0  0
  4  9  1  0  0  0  0
  4 36  1  0  0  0  0
  5  6  1  0  0  0  0
  5  7  1  0  0  0  0
  5  8  1  0  0  0  0
  9 10  1  0  0  0  0
  9 37  1  0  0  0  0
  9 38  1  0  0  0  0
 10 11  1  0  0  0  0
 10 39  1  0  0  0  0
 10 40  1  0  0  0  0
 11 12  1  0  0  0  0
 12 17  1  0  0  0  0
 12 13  2  0  0  0  0
 13 14  1  0  0  0  0
 14 15  2  0  0  0  0
 14 41  1  0  0  0  0
 15 16  1  0  0  0  0
 16 20  1  0  0  0  0
 16 17  2  0  0  0  0
 17 18  1  0  0  0  0
 18 19  2  0  0  0  0
 19 20  1  0  0  0  0
 19 42  1  0  0  0  0
 20 21  1  0  0  0  0
 21 22  1  0  0  0  0
 21 43  1  0  0  0  0
 21 44  1  0  0  0  0
 22 29  1  0  0  0  0
 22 23  1  0  0  0  0
 22 25  1  0  0  0  0
 23 24  1  0  0  0  0
 23 45  1  0  0  0  0
 23 46  1  0  0  0  0
 24 47  1  0  0  0  0
 25 26  1  0  0  0  0
 25 48  1  0  0  0  0
 25 49  1  0  0  0  0
 26 27  1  0  0  0  0
 26 50  1  0  0  0  0
 26 51  1  0  0  0  0
 27 28  1  0  0  0  0
 28 29  1  0  0  0  0
 28 52  1  0  0  0  0
 28 53  1  0  0  0  0
 29 54  1  0  0  0  0
 29 55  1  0  0  0  0
M  END
> <s_m_source_file>
AV-unprocessed.smi

> <i_m_source_file_index>
76

> <i_lp_mmshare_version>
43012

> <i_f3d_flags>
0

> <s_epik_input>
W0NIM11bQ0BASF0xW0NIMl1bQ0BASF0oQyhGKShGKUYpW0NIMl1bQ0gyXU4xYyhuW2NIXW4yKWMoYzIzKW5bY0hdbjNbQ0gyXUM0KFtDSDJdW09IXSlbQ0gyXVtDSDJdT1tDSDJdW0NIMl00

> <s_epik_cmdline>
J2VwaWtfcHl0aG9uJywgJy1waCcsICc3LjAnLCAnLXRuJywgJzgnLCAnLW1hJywgJzIwMCcsICctbWV0YWxfYmluZGluZycsICctaW1hZScsICc8aW5maWxlLm1hZT4nLCAnLW9tYWUnLCAnPG91dGZpbGUubWFlPic=

> <r_lp_tautomer_probability>
1

> <r_epik_Ionization_Penalty>
0.00244097

> <r_epik_Ionization_Penalty_Charging>
0

> <r_epik_Ionization_Penalty_Neutral>
0.00244097

> <r_epik_State_Penalty>
0.00151846

> <r_epik_Charging_Adjusted_Penalty>
0.00151846

> <i_epik_Tot_Q>
0

> <i_epik_Tot_abs_Q>
0

> <r_epik_Metal_State_Penalty>
-0

> <b_epik_Metal_Only>
0

> <s_lp_Force_Field>
OPLS_2005

> <r_lp_Energy>
36.6064

> <b_lp_Chiralities_Consistent>
1

> <s_lp_Variant>
AV-unprocessed.smi:76-2

> <Gold.Version>
5.8.1

> <Gold.Id.Protein>
6NUR|6NUR_protein|mol2

> <Gold.PLP.Fitness>
45.9569

> <Gold.PLP.PLP>
-39.2253

> <Gold.PLP.part.hbond>
-2.0000

> <Gold.PLP.part.metal>
0.0000

> <Gold.PLP.part.buried>
-6.9651

> <Gold.PLP.part.nonpolar>
-32.1683

> <Gold.PLP.part.repulsive>
1.4322

> <Gold.PLP.ligand.clash>
0.0000

> <Gold.PLP.ligand.torsion>
1.2078

> <Gold.PLP.Chemscore.Hbond>
2.0000

> <Gold.PLP.Chemscore.CHOScore>
0.9722

> <Gold.PLP.Chemscore.Metal>
0.0000

> <Gold.Chemscore.Hbonds>
donor molecule, donor type, donor heavy atom, donor atom, acceptor molecule, acceptor atom, score
      P1  H  6896  6909       L1    24  0.46
      P1  H  7989  7998       L1    13  1.00
      L1  C    14    41       P1  7957  1.00

> <Gold.PLP.Chemscore.Internal.Correction>
0.2305

> <Gold.Rescore>
     Score         DG    S(hbond)    S(metal)    S(lipo)     H(rot)  DE(clash)    DE(int)     intcor
     10.29     -13.01       1.36        0.00      79.38       2.47       0.25       2.47       ----

> <Gold.Chemscore.Fitness>
10.2858

> <Gold.Chemscore.DG>
-13.0072

> <Gold.Chemscore.ZeroCoef>
-5.4800

> <Gold.Chemscore.Hbond>
1.3633

> <Gold.Chemscore.Metal>
0.0000

> <Gold.Chemscore.Lipo>
79.3831

> <Gold.Chemscore.Internal_Hbond>
0.0000

> <Gold.Chemscore.DEClash>
0.2503

> <Gold.Chemscore.DEInternal>
2.4710

> <Gold.Chemscore.Rot>
2.4665

> <Gold.Chemscore.Internal.Correction>
   9.000000E+99

> <Gold.Chemscore.Hbonds>
donor molecule, donor type, donor heavy atom, donor atom, acceptor molecule, acceptor atom, score
      P1  H  6896  6909       L1    24  0.03
      P1  H  7989  7998       L1    13  0.29

> <Gold.Chemscore.Hbond.Weighted>
-4.5535

> <Gold.Chemscore.Metal.Weighted>
-0.0000

> <Gold.Chemscore.Lipo.Weighted>
-9.2878

> <Gold.Chemscore.Internal_Hbond.Weighted>
0.0000

> <Gold.Chemscore.DEClash.Weighted>
0.2503

> <Gold.Chemscore.DEInternal.Weighted>
2.4710

> <Gold.Chemscore.Rot.Weighted>
6.3142

> <Gold.Chemscore.Internal.Correction.Weighted>
   9.000000E+99

> <Gold.Protein.RotatedTorsions>
[ 6907 6896 6895 6894 ] final  -18.81 input  -60.11 | X-H torsion
[ 7974 7965 7964 7962 ] final    1.02 input  175.53 | X-H torsion
[ 8008 7997 7996 7995 ] final   23.12 input   59.86 | X-H torsion
[ 10167 10162 10161 10158 ] final  -31.38 input  -65.29 | X-H torsion
[ 10718 10713 10712 10709 ] final  -78.74 input   66.30 | X-H torsion
[ 10763 10752 10751 10750 ] final   40.54 input  -60.55 | X-H torsion
[ 11005 11000 10999 10996 ] final   48.10 input  -57.11 | X-H torsion

> <Gold.Protein.ActiveResidues>
 VAL166  LYS551  ARG553  GLY616  TRP617  ASP618  TYR619  PRO620  LYS621  CYS622 
 ASP623  PHE694  ASN695  SER759  ASP760  ASP761  ALA762  ILE779  LEU786  VAL792 
 PHE793  MET794  SER795  GLU796  ALA797  LYS798  CYS799  TRP800  GLU811  SER814 

> <Gold.Protein.RotatedAtoms>
  151.2726  135.0689  159.9139 H   0  0  0  0  0  0  0  0  0  0  0  0  # atno 6907 bound_to 6896
  152.5348  134.0115  159.7950 H   0  0  0  0  0  0  0  0  0  0  0  0  # atno 6908 bound_to 6896
  151.0355  133.5702  159.2687 H   0  0  0  0  0  0  0  0  0  0  0  0  # atno 6909 bound_to 6896
  146.2438  140.1051  142.8346 H   0  0  0  0  0  0  0  0  0  0  0  0  # atno 7974 bound_to 7965
  154.9761  140.3096  155.4966 H   0  0  0  0  0  0  0  0  0  0  0  0  # atno 8008 bound_to 7997
  156.2959  140.2275  156.4796 H   0  0  0  0  0  0  0  0  0  0  0  0  # atno 8009 bound_to 7997
  154.7832  140.0444  157.1132 H   0  0  0  0  0  0  0  0  0  0  0  0  # atno 8010 bound_to 7997
  140.7237  143.3775  151.1662 H   0  0  0  0  0  0  0  0  0  0  0  0  # atno 10167 bound_to 10162
  156.0110  130.4526  150.3542 H   0  0  0  0  0  0  0  0  0  0  0  0  # atno 10718 bound_to 10713
  152.9933  135.6188  154.2643 H   0  0  0  0  0  0  0  0  0  0  0  0  # atno 10763 bound_to 10752
  154.2378  135.2789  155.2867 H   0  0  0  0  0  0  0  0  0  0  0  0  # atno 10764 bound_to 10752
  154.5395  135.5765  153.6885 H   0  0  0  0  0  0  0  0  0  0  0  0  # atno 10765 bound_to 10752
  140.1220  134.4817  155.8590 H   0  0  0  0  0  0  0  0  0  0  0  0  # atno 11005 bound_to 11000
  145.0535  140.9035  143.4981 LP  0  0  0  0  0  0  0  0  0  0  0  0  # atno 17320 bound_to 7965
  145.1153  139.2730  143.5616 LP  0  0  0  0  0  0  0  0  0  0  0  0  # atno 17321 bound_to 7965
  139.7358  143.9001  152.3034 LP  0  0  0  0  0  0  0  0  0  0  0  0  # atno 17342 bound_to 10162
  139.8806  144.7020  150.8882 LP  0  0  0  0  0  0  0  0  0  0  0  0  # atno 17343 bound_to 10162
  157.1633  131.0350  151.2830 LP  0  0  0  0  0  0  0  0  0  0  0  0  # atno 17370 bound_to 10713
  157.4292  130.7481  149.6976 LP  0  0  0  0  0  0  0  0  0  0  0  0  # atno 17371 bound_to 10713
  141.2153  133.6764  156.6906 LP  0  0  0  0  0  0  0  0  0  0  0  0  # atno 17394 bound_to 11000
  140.2953  134.8208  157.4051 LP  0  0  0  0  0  0  0  0  0  0  0  0  # atno 17395 bound_to 11000

$$$$
