#       Name:                AV-unprocessed.smi:505
#       Creating user name   scv26
#       Creation time:       Thu Mar 26 23:21:19 2020


#       File generated by GOLD software.
#

@<TRIPOS>MOLECULE
AV-unprocessed.smi:505
    46    47     1
SMALL
NO_CHARGES


@<TRIPOS>ATOM
      1 ****        -2.7623   2.7093   0.3220 C.3            1 S1                 0.0000
      2 ****        -2.1819   1.4204   0.4073 O.3            1 S1                 0.0000
      3 ****        -2.5761   0.5730  -0.6597 C.3            1 S1                 0.0000
      4 ****        -1.9012  -0.7971  -0.5067 C.3            1 S1                 0.0000
      5 ****        -0.4450  -0.6975  -0.5203 N.pl3          1 S1                 0.0000
      6 ****         0.3950  -0.6015   0.5401 C.2            1 S1                 0.0000
      7 ****        -0.1069  -0.5689   1.8340 N.pl3          1 S1                 0.0000
      8 ****        -1.4616  -0.6199   2.3489 C.3            1 S1                 0.0000
      9 ****        -1.4863  -0.6176   3.8827 C.3            1 S1                 0.0000
     10 ****        -1.2345  -1.9177   4.3721 O.3            1 S1                 0.0000
     11 ****         1.6918  -0.5312   0.2290 N.2            1 S1                 0.0000
     12 ****         1.6754  -0.5739  -1.1586 C.2            1 S1                 0.0000
     13 ****         0.4034  -0.6651  -1.6256 C.2            1 S1                 0.0000
     14 ****         0.0877  -0.7071  -3.0582 C.2            1 S1                 0.0000
     15 ****        -1.0583  -0.7805  -3.4969 O.2            1 S1                 0.0000
     16 ****         1.1893  -0.6503  -3.8456 N.am           1 S1                 0.0000
     17 ****         2.4945  -0.5612  -3.4440 C.2            1 S1                 0.0000
     18 ****         3.3938  -0.5139  -4.2831 O.2            1 S1                 0.0000
     19 ****         2.7468  -0.5273  -2.0959 N.am           1 S1                 0.0000
     20 ****         4.1253  -0.4363  -1.6109 C.3            1 S1                 0.0000
     21 ****         1.0288  -0.6733  -4.8420 H              1 S1                 0.0000
     22 ****        -2.4253   3.3183   1.1609 H              1 S1                 0.0000
     23 ****        -3.8509   2.6545   0.3612 H              1 S1                 0.0000
     24 ****        -2.4692   3.2136  -0.5997 H              1 S1                 0.0000
     25 ****        -3.6602   0.4514  -0.6579 H              1 S1                 0.0000
     26 ****        -2.3000   1.0218  -1.6151 H              1 S1                 0.0000
     27 ****        -2.2226  -1.2703   0.4214 H              1 S1                 0.0000
     28 ****        -2.2189  -1.4693  -1.3031 H              1 S1                 0.0000
     29 ****         0.5981  -0.5644   2.5568 H              1 S1                 0.0000
     30 ****        -1.9832   0.2626   1.9780 H              1 S1                 0.0000
     31 ****        -1.9851  -1.4883   1.9474 H              1 S1                 0.0000
     32 ****        -0.7709   0.0933   4.2979 H              1 S1                 0.0000
     33 ****        -2.4752  -0.3198   4.2320 H              1 S1                 0.0000
     34 ****        -1.2845  -1.8992   5.3156 H              1 S1                 0.0000
     35 ****         4.7311  -1.2475  -2.0176 H              1 S1                 0.0000
     36 ****         4.1919  -0.4982  -0.5247 H              1 S1                 0.0000
     37 ****         4.5739   0.5107  -1.9140 H              1 S1                 0.0000
     38 ****        -2.4614   0.9998   1.2704 LP             1 S1                 0.0000
     39 ****        -1.1866   1.5155   0.3898 LP             1 S1                 0.0000
     40 ****        -0.3223  -2.2137   4.0887 LP             1 S1                 0.0000
     41 ****        -1.9180  -2.5520   4.0108 LP             1 S1                 0.0000
     42 ****         2.4786  -0.4644   0.8426 LP             1 S1                 0.0000
     43 ****        -1.8338  -0.8148  -2.8665 LP             1 S1                 0.0000
     44 ****        -1.2151  -0.8059  -4.4842 LP             1 S1                 0.0000
     45 ****         3.1704  -0.5406  -5.2575 LP             1 S1                 0.0000
     46 ****         4.3478  -0.4488  -3.9905 LP             1 S1                 0.0000
@<TRIPOS>BOND
    1    1    2 1     
    2    1   22 1     
    3    1   23 1     
    4    1   24 1     
    5    2    3 1     
    6    3    4 1     
    7    3   25 1     
    8    3   26 1     
    9    4    5 1     
   10    4   27 1     
   11    4   28 1     
   12    5   13 1     
   13    5    6 1     
   14    6    7 1     
   15    6   11 2     
   16    7    8 1     
   17    7   29 1     
   18    8    9 1     
   19    8   30 1     
   20    8   31 1     
   21    9   10 1     
   22    9   32 1     
   23    9   33 1     
   24   10   34 1     
   25   11   12 1     
   26   12   19 1     
   27   12   13 2     
   28   13   14 1     
   29   14   15 2     
   30   14   16 1     
   31   16   21 1     
   32   16   17 1     
   33   17   18 2     
   34   17   19 1     
   35   19   20 1     
   36   20   35 1     
   37   20   36 1     
   38   20   37 1     
   39    2   38 1     
   40    2   39 1     
   41   10   40 1     
   42   10   41 1     
   43   11   42 1     
   44   15   43 1     
   45   15   44 1     
   46   18   45 1     
   47   18   46 1     
@<TRIPOS>SUBSTRUCTURE
      1 S1             1
@<TRIPOS>SET
LONE_PAIRS      STATIC     ATOMS    <user>   **** ""
9 38 39 40 41 42 43 44 45 46
DONOR_HYDROGENS      STATIC     ATOMS    <user>   **** ""
3 29 34 21
ATOM$BLUE        STATIC     ATOMS    COLORGROUP SYSTEM
9 38 39 40 41 42 43 44 45 46
ATOM$RED        STATIC     ATOMS    COLORGROUP SYSTEM
3 29 34 21
