AV-unprocessed.smi:3117|AV-procd|sdf|11880|dock1
  -GOLD-   2272017263D 1   1.00000     0.00000
 Structure written by MMmdl.
 37 37  0  0  0  0  0  0  0  0  2 V2000
  149.2951  142.8111  158.2485 C   0  0  0  0  0  0  0  0  0  0  0  0
  150.4365  142.3723  157.3131 C   0  0  2  0  0  0  0  0  0  0  0  0
  149.8993  142.2272  155.9420 N   0  3  0  0  0  0  0  0  0  0  0  0
  149.0172  141.0582  155.7355 C   0  0  0  0  0  0  0  0  0  0  0  0
  148.4068  141.0311  154.3181 C   0  0  0  0  0  0  0  0  0  0  0  0
  147.6483  139.7131  154.0886 C   0  0  0  0  0  0  0  0  0  0  0  0
  147.4782  142.2329  154.0629 C   0  0  0  0  0  0  0  0  0  0  0  0
  149.4616  141.0667  153.3762 O   0  0  0  0  0  0  0  0  0  0  0  0
  151.1244  141.0557  157.7605 C   0  0  1  0  0  0  0  0  0  0  0  0
  151.7923  140.3020  156.5955 C   0  0  0  0  0  0  0  0  0  0  0  0
  152.0954  141.2854  158.8233 N   0  0  0  0  0  0  0  0  0  0  0  0
  152.4910  142.4810  159.3904 C   0  0  0  0  0  0  0  0  0  0  0  0
  153.4112  142.1904  160.3562 C   0  0  0  0  0  0  0  0  0  0  0  0
  153.5127  140.7721  160.3103 C   0  0  0  0  0  0  0  0  0  0  0  0
  152.7237  140.2343  159.3944 N   0  0  0  0  0  0  0  0  0  0  0  0
  149.6553  143.0336  159.2532 H   0  0  0  0  0  0  0  0  0  0  0  0
  148.5317  142.0368  158.3330 H   0  0  0  0  0  0  0  0  0  0  0  0
  148.8114  143.7151  157.8769 H   0  0  0  0  0  0  0  0  0  0  0  0
  151.1809  143.1706  157.3238 H   0  0  0  0  0  0  0  0  0  0  0  0
  149.3844  143.0647  155.7110 H   0  0  0  0  0  0  0  0  0  0  0  0
  149.5949  140.1504  155.9166 H   0  0  0  0  0  0  0  0  0  0  0  0
  148.2180  141.0773  156.4777 H   0  0  0  0  0  0  0  0  0  0  0  0
  146.8151  139.6114  154.7850 H   0  0  0  0  0  0  0  0  0  0  0  0
  148.2992  138.8486  154.2273 H   0  0  0  0  0  0  0  0  0  0  0  0
  147.2401  139.6574  153.0787 H   0  0  0  0  0  0  0  0  0  0  0  0
  146.6551  142.2513  154.7781 H   0  0  0  0  0  0  0  0  0  0  0  0
  147.0429  142.1929  153.0636 H   0  0  0  0  0  0  0  0  0  0  0  0
  148.0080  143.1822  154.1471 H   0  0  0  0  0  0  0  0  0  0  0  0
  149.3333  140.3679  152.7521 H   0  0  0  0  0  0  0  0  0  0  0  0
  150.3518  140.3995  158.1670 H   0  0  0  0  0  0  0  0  0  0  0  0
  151.0626  139.9958  155.8460 H   0  0  0  0  0  0  0  0  0  0  0  0
  152.2872  139.3969  156.9492 H   0  0  0  0  0  0  0  0  0  0  0  0
  152.5421  140.9172  156.0970 H   0  0  0  0  0  0  0  0  0  0  0  0
  152.0894  143.4287  159.0636 H   0  0  0  0  0  0  0  0  0  0  0  0
  153.9315  142.8853  160.9988 H   0  0  0  0  0  0  0  0  0  0  0  0
  154.1308  140.1217  160.9116 H   0  0  0  0  0  0  0  0  0  0  0  0
  150.6748  142.1454  155.2999 H   0  0  0  0  0  0  0  0  0  0  0  0
  1  2  1  0  0  0  0
  1 16  1  0  0  0  0
  1 17  1  0  0  0  0
  1 18  1  0  0  0  0
  2  3  1  0  0  0  0
  2  9  1  0  0  0  0
  2 19  1  0  0  0  0
  3  4  1  0  0  0  0
  3 20  1  0  0  0  0
  3 37  1  0  0  0  0
  4  5  1  0  0  0  0
  4 21  1  0  0  0  0
  4 22  1  0  0  0  0
  5  6  1  0  0  0  0
  5  7  1  0  0  0  0
  5  8  1  0  0  0  0
  6 23  1  0  0  0  0
  6 24  1  0  0  0  0
  6 25  1  0  0  0  0
  7 26  1  0  0  0  0
  7 27  1  0  0  0  0
  7 28  1  0  0  0  0
  8 29  1  0  0  0  0
  9 10  1  0  0  0  0
  9 11  1  0  0  0  0
  9 30  1  0  0  0  0
 10 31  1  0  0  0  0
 10 32  1  0  0  0  0
 10 33  1  0  0  0  0
 11 15  1  0  0  0  0
 11 12  1  0  0  0  0
 12 13  2  0  0  0  0
 12 34  1  0  0  0  0
 13 14  1  0  0  0  0
 13 35  1  0  0  0  0
 14 15  2  0  0  0  0
 14 36  1  0  0  0  0
M  CHG  1   3   1
M  END
> <s_m_source_file>
AV-unprocessed.smi

> <i_m_source_file_index>
3117

> <i_lp_mmshare_version>
43012

> <i_f3d_flags>
0

> <s_epik_input>
W0NIM11DKFtDSDNdKShbT0hdKVtDSDJdW05IXVtDQEBIXShbQ0gzXSlbQ0BIXShbQ0gzXSluMVtjSF1bY0hdW2NIXW4x

> <s_epik_cmdline>
J2VwaWtfcHl0aG9uJywgJy1waCcsICc3LjAnLCAnLXRuJywgJzgnLCAnLW1hJywgJzIwMCcsICctbWV0YWxfYmluZGluZycsICctaW1hZScsICc8aW5maWxlLm1hZT4nLCAnLW9tYWUnLCAnPG91dGZpbGUubWFlPic=

> <r_lp_tautomer_probability>
1

> <r_epik_Ionization_Penalty>
0.0164263

> <r_epik_Ionization_Penalty_Charging>
0.0164138

> <r_epik_Ionization_Penalty_Neutral>
1.24697e-05

> <r_epik_State_Penalty>
0.0129543

> <r_epik_Charging_Adjusted_Penalty>
0.0293681

> <i_epik_Tot_Q>
1

> <i_epik_Tot_abs_Q>
1

> <r_epik_Metal_State_Penalty>
0.0129806

> <b_epik_Metal_Only>
0

> <s_lp_Force_Field>
OPLS_2005

> <r_lp_Energy>
14.6887

> <b_lp_Chiralities_Consistent>
1

> <s_lp_Variant>
AV-unprocessed.smi:3117-3

> <Gold.Version>
5.8.1

> <Gold.Id.Protein>
6NUR|6NUR_protein|mol2

> <Gold.PLP.Fitness>
44.5436

> <Gold.PLP.PLP>
-33.7542

> <Gold.PLP.part.hbond>
-3.6377

> <Gold.PLP.part.metal>
0.0000

> <Gold.PLP.part.buried>
-4.8969

> <Gold.PLP.part.nonpolar>
-25.0591

> <Gold.PLP.part.repulsive>
0.1272

> <Gold.PLP.ligand.clash>
0.0000

> <Gold.PLP.ligand.torsion>
0.6092

> <Gold.PLP.Chemscore.Hbond>
3.9721

> <Gold.PLP.Chemscore.CHOScore>
0.0000

> <Gold.PLP.Chemscore.Metal>
0.0000

> <Gold.Chemscore.Hbonds>
donor molecule, donor type, donor heavy atom, donor atom, acceptor molecule, acceptor atom, score
      L1  H     3    20       P1  8028  2.00
      L1  H     8    29       P1  7957  0.78
      P1  H  7989  7998       L1     8  0.11
      P1  H  8011  8017       L1     8  1.00

> <Gold.PLP.Chemscore.Internal.Correction>
0.0914

> <Gold.Rescore>
     Score         DG    S(hbond)    S(metal)    S(lipo)     H(rot)  DE(clash)    DE(int)     intcor
     16.46     -17.01       2.41        0.00      79.43       2.27       0.10       0.45       ----

> <Gold.Chemscore.Fitness>
16.4556

> <Gold.Chemscore.DG>
-17.0060

> <Gold.Chemscore.ZeroCoef>
-5.4800

> <Gold.Chemscore.Hbond>
2.4101

> <Gold.Chemscore.Metal>
0.0000

> <Gold.Chemscore.Lipo>
79.4349

> <Gold.Chemscore.Internal_Hbond>
0.0000

> <Gold.Chemscore.DEClash>
0.0987

> <Gold.Chemscore.DEInternal>
0.4516

> <Gold.Chemscore.Rot>
2.2725

> <Gold.Chemscore.Internal.Correction>
   9.000000E+99

> <Gold.Chemscore.Hbonds>
donor molecule, donor type, donor heavy atom, donor atom, acceptor molecule, acceptor atom, score
      L1  H     3    20       P1  8028  1.00
      L1  H     8    29       P1  7957  0.77
      P1  H  7989  7998       L1     8  0.02
      P1  H  8011  8017       L1     8  0.29

> <Gold.Chemscore.Hbond.Weighted>
-8.0497

> <Gold.Chemscore.Metal.Weighted>
-0.0000

> <Gold.Chemscore.Lipo.Weighted>
-9.2939

> <Gold.Chemscore.Internal_Hbond.Weighted>
0.0000

> <Gold.Chemscore.DEClash.Weighted>
0.0987

> <Gold.Chemscore.DEInternal.Weighted>
0.4516

> <Gold.Chemscore.Rot.Weighted>
5.8176

> <Gold.Chemscore.Internal.Correction.Weighted>
   9.000000E+99

> <Gold.Protein.RotatedTorsions>
[ 6907 6896 6895 6894 ] final  102.29 input  -60.11 | X-H torsion
[ 7974 7965 7964 7962 ] final  -87.19 input  175.53 | X-H torsion
[ 8008 7997 7996 7995 ] final   38.92 input   59.86 | X-H torsion
[ 10167 10162 10161 10158 ] final -133.66 input  -65.29 | X-H torsion
[ 10718 10713 10712 10709 ] final  -51.67 input   66.30 | X-H torsion
[ 10763 10752 10751 10750 ] final  139.90 input  -60.55 | X-H torsion
[ 11005 11000 10999 10996 ] final  131.43 input  -57.11 | X-H torsion

> <Gold.Protein.ActiveResidues>
 VAL166  LYS551  ARG553  GLY616  TRP617  ASP618  TYR619  PRO620  LYS621  CYS622 
 ASP623  PHE694  ASN695  SER759  ASP760  ASP761  ALA762  ILE779  LEU786  VAL792 
 PHE793  MET794  SER795  GLU796  ALA797  LYS798  CYS799  TRP800  GLU811  SER814 

> <Gold.Protein.RotatedAtoms>
  152.5327  133.9997  159.7888 H   0  0  0  0  0  0  0  0  0  0  0  0  # atno 6907 bound_to 6896
  151.0218  133.5862  159.2677 H   0  0  0  0  0  0  0  0  0  0  0  0  # atno 6908 bound_to 6896
  151.2898  135.0745  159.9253 H   0  0  0  0  0  0  0  0  0  0  0  0  # atno 6909 bound_to 6896
  145.4698  140.9560  143.1923 H   0  0  0  0  0  0  0  0  0  0  0  0  # atno 7974 bound_to 7965
  155.2281  140.3336  155.4307 H   0  0  0  0  0  0  0  0  0  0  0  0  # atno 8008 bound_to 7997
  156.2306  140.1849  156.7298 H   0  0  0  0  0  0  0  0  0  0  0  0  # atno 8009 bound_to 7997
  154.5971  140.0629  156.9304 H   0  0  0  0  0  0  0  0  0  0  0  0  # atno 8010 bound_to 7997
  139.8960  143.6665  152.2604 H   0  0  0  0  0  0  0  0  0  0  0  0  # atno 10167 bound_to 10162
  156.1689  130.4149  149.9677 H   0  0  0  0  0  0  0  0  0  0  0  0  # atno 10718 bound_to 10713
  153.9138  135.3008  155.3448 H   0  0  0  0  0  0  0  0  0  0  0  0  # atno 10763 bound_to 10752
  154.7610  135.4934  153.9467 H   0  0  0  0  0  0  0  0  0  0  0  0  # atno 10764 bound_to 10752
  153.1178  135.6775  153.9489 H   0  0  0  0  0  0  0  0  0  0  0  0  # atno 10765 bound_to 10752
  139.9730  134.9572  156.9437 H   0  0  0  0  0  0  0  0  0  0  0  0  # atno 11005 bound_to 11000
  144.7952  139.6249  143.7096 LP  0  0  0  0  0  0  0  0  0  0  0  0  # atno 17320 bound_to 7965
  146.2403  139.5988  142.9496 LP  0  0  0  0  0  0  0  0  0  0  0  0  # atno 17321 bound_to 7965
  139.7068  144.7627  151.1180 LP  0  0  0  0  0  0  0  0  0  0  0  0  # atno 17342 bound_to 10162
  140.7717  143.5384  150.9341 LP  0  0  0  0  0  0  0  0  0  0  0  0  # atno 17343 bound_to 10162
  156.7484  130.9106  151.3636 LP  0  0  0  0  0  0  0  0  0  0  0  0  # atno 17370 bound_to 10713
  157.6788  130.9120  150.0216 LP  0  0  0  0  0  0  0  0  0  0  0  0  # atno 17371 bound_to 10713
  140.5254  134.0866  155.7302 LP  0  0  0  0  0  0  0  0  0  0  0  0  # atno 17394 bound_to 11000
  141.1409  133.9140  157.2329 LP  0  0  0  0  0  0  0  0  0  0  0  0  # atno 17395 bound_to 11000

$$$$
