#       Name:                AV-unprocessed.smi:1306
#       Creating user name   scv26
#       Creation time:       Fri Mar 27 04:59:58 2020


#       File generated by GOLD software.
#

@<TRIPOS>MOLECULE
AV-unprocessed.smi:1306
    45    46     1
SMALL
NO_CHARGES


@<TRIPOS>ATOM
      1 ****        -0.1506   3.2753  -1.3423 O.2            1 S1                 0.0000
      2 ****        -0.6239   2.3650  -0.6604 C.2            1 S1                 0.0000
      3 ****        -2.1398   2.2469  -0.4517 C.3            1 S1                 0.0000
      4 ****        -2.9155   2.6956  -1.6191 N.am           1 S1                 0.0000
      5 ****        -3.4349   4.0019  -1.5972 C.2            1 S1                 0.0000
      6 ****        -4.1516   4.4988  -2.6233 C.2            1 S1                 0.0000
      7 ****        -4.3853   3.6434  -3.7802 C.2            1 S1                 0.0000
      8 ****        -5.0403   4.0793  -4.7249 O.2            1 S1                 0.0000
      9 ****        -3.8581   2.3844  -3.7554 N.pl3          1 S1                -1.0000
     10 ****        -3.1291   1.8931  -2.7056 C.2            1 S1                 0.0000
     11 ****        -2.6607   0.7540  -2.7047 O.2            1 S1                 0.0000
     12 ****         0.1297   1.4469  -0.0400 N.am           1 S1                 0.0000
     13 ****         1.5827   1.3797  -0.1221 C.3            1 S1                 0.0000
     14 ****         2.1222   0.1750   0.6601 C.3            1 S1                 0.0000
     15 ****         1.6019  -1.4027  -0.0744 S.3            1 S1                 0.0000
     16 ****         2.3937  -2.5732   1.0655 C.3            1 S1                 0.0000
     17 ****         2.2807  -4.0198   0.5870 C.3            1 S1                 0.0000
     18 ****         2.5248  -4.8553   1.8454 C.3            1 S1                 0.0000
     19 ****         2.0475  -3.9930   3.0236 C.3            1 S1                 0.0000
     20 ****         1.7421  -2.6014   2.4514 C.3            1 S1                 0.0000
     21 ****        -2.4016   1.2164  -0.2034 H              1 S1                 0.0000
     22 ****        -2.4064   2.8304   0.4304 H              1 S1                 0.0000
     23 ****        -3.2117   4.5711  -0.7068 H              1 S1                 0.0000
     24 ****        -4.5412   5.5056  -2.5922 H              1 S1                 0.0000
     25 ****        -0.3351   0.7311   0.4994 H              1 S1                 0.0000
     26 ****         1.8931   1.3204  -1.1665 H              1 S1                 0.0000
     27 ****         2.0040   2.2999   0.2853 H              1 S1                 0.0000
     28 ****         3.2118   0.2045   0.6734 H              1 S1                 0.0000
     29 ****         1.7898   0.2214   1.6973 H              1 S1                 0.0000
     30 ****         3.4494  -2.3154   1.1634 H              1 S1                 0.0000
     31 ****         1.2739  -4.2117   0.2132 H              1 S1                 0.0000
     32 ****         2.9830  -4.2534  -0.2137 H              1 S1                 0.0000
     33 ****         2.0134  -5.8173   1.8021 H              1 S1                 0.0000
     34 ****         3.5916  -5.0567   1.9502 H              1 S1                 0.0000
     35 ****         1.1595  -4.4179   3.4927 H              1 S1                 0.0000
     36 ****         2.8237  -3.9373   3.7875 H              1 S1                 0.0000
     37 ****         2.1049  -1.8015   3.0974 H              1 S1                 0.0000
     38 ****         0.6618  -2.4819   2.3570 H              1 S1                 0.0000
     39 ****        -0.7559   3.9482  -1.7674 LP             1 S1                 0.0000
     40 ****         0.8389   3.3412  -1.4707 LP             1 S1                 0.0000
     41 ****        -5.4051   5.0098  -4.6933 LP             1 S1                 0.0000
     42 ****        -5.2082   3.5033  -5.5249 LP             1 S1                 0.0000
     43 ****        -4.0123   1.7902  -4.5448 LP             1 S1                 0.0000
     44 ****        -2.1345   0.4303  -1.9183 LP             1 S1                 0.0000
     45 ****        -2.8065   0.1527  -3.4903 LP             1 S1                 0.0000
@<TRIPOS>BOND
    1    1    2 2     
    2    2    3 1     
    3    2   12 am    
    4    3    4 1     
    5    3   21 1     
    6    3   22 1     
    7    4   10 am    
    8    4    5 1     
    9    5    6 2     
   10    5   23 1     
   11    6    7 1     
   12    6   24 1     
   13    7    8 2     
   14    7    9 1     
   15    9   10 1     
   16   10   11 2     
   17   12   13 1     
   18   12   25 1     
   19   13   14 1     
   20   13   26 1     
   21   13   27 1     
   22   14   15 1     
   23   14   28 1     
   24   14   29 1     
   25   15   16 1     
   26   16   20 1     
   27   16   17 1     
   28   16   30 1     
   29   17   18 1     
   30   17   31 1     
   31   17   32 1     
   32   18   19 1     
   33   18   33 1     
   34   18   34 1     
   35   19   20 1     
   36   19   35 1     
   37   19   36 1     
   38   20   37 1     
   39   20   38 1     
   40    1   39 1     
   41    1   40 1     
   42    8   41 1     
   43    8   42 1     
   44    9   43 1     
   45   11   44 1     
   46   11   45 1     
@<TRIPOS>SUBSTRUCTURE
      1 S1             1
@<TRIPOS>SET
LONE_PAIRS      STATIC     ATOMS    <user>   **** ""
7 39 40 41 42 43 44 45
DONOR_HYDROGENS      STATIC     ATOMS    <user>   **** ""
1 25
ATOM$BLUE        STATIC     ATOMS    COLORGROUP SYSTEM
7 39 40 41 42 43 44 45
ATOM$RED        STATIC     ATOMS    COLORGROUP SYSTEM
1 25
