AV-unprocessed.smi:2368|AV-procd|sdf|9428|dock2
  -GOLD-   2272013 63D 1   1.00000     0.00000
 Structure written by MMmdl.
 35 36  0  0  0  0  0  0  0  0  1 V2000
  151.4561  140.4092  155.8462 C   0  0  0  0  0  0  0  0  0  0  0  0
  150.1259  140.4486  155.1180 C   0  0  0  0  0  0  0  0  0  0  0  0
  149.4952  141.6433  155.1164 N   0  0  0  0  0  0  0  0  0  0  0  0
  148.3045  141.7311  154.4894 C   0  0  0  0  0  0  0  0  0  0  0  0
  147.6917  140.6459  153.8344 C   0  0  0  0  0  0  0  0  0  0  0  0
  148.3574  139.3967  153.8192 C   0  0  0  0  0  0  0  0  0  0  0  0
  147.8217  138.2305  153.2040 N   0  0  0  0  0  0  0  0  0  0  0  0
  146.5457  137.8099  153.1645 C   0  0  0  0  0  0  0  0  0  0  0  0
  145.5865  138.3882  153.6754 O   0  0  0  0  0  0  0  0  0  0  0  0
  146.4344  136.6683  152.4710 N   0  0  0  0  0  0  0  0  0  0  0  0
  145.1831  135.9584  152.2309 C   0  0  1  0  0  0  0  0  0  0  0  0
  144.9986  135.6954  150.7618 C   0  0  0  0  0  0  0  0  0  0  0  0
  144.7974  134.4077  150.4916 C   0  0  0  0  0  0  0  0  0  0  0  0
  144.8111  133.5416  151.7237 C   0  0  1  0  0  0  0  0  0  0  0  0
  145.7951  132.3671  151.5950 C   0  0  0  0  0  0  0  0  0  0  0  0
  147.0859  132.8447  151.2805 O   0  0  0  0  0  0  0  0  0  0  0  0
  145.1663  134.5393  152.8574 C   0  0  0  0  0  0  0  0  0  0  0  0
  149.5992  139.2954  154.4899 C   0  0  0  0  0  0  0  0  0  0  0  0
  150.4614  137.7936  154.5358 Cl  0  0  0  0  0  0  0  0  0  0  0  0
  144.3362  136.5506  152.5816 H   0  0  0  0  0  0  0  0  0  0  0  0
  143.7984  133.1614  151.8645 H   0  0  0  0  0  0  0  0  0  0  0  0
  152.2569  140.1372  155.1582 H   0  0  0  0  0  0  0  0  0  0  0  0
  151.4265  139.6734  156.6499 H   0  0  0  0  0  0  0  0  0  0  0  0
  151.7029  141.3769  156.2846 H   0  0  0  0  0  0  0  0  0  0  0  0
  147.8199  142.6958  154.5162 H   0  0  0  0  0  0  0  0  0  0  0  0
  146.7272  140.7906  153.3729 H   0  0  0  0  0  0  0  0  0  0  0  0
  148.4822  137.6889  152.6660 H   0  0  0  0  0  0  0  0  0  0  0  0
  147.2718  136.2610  152.0812 H   0  0  0  0  0  0  0  0  0  0  0  0
  145.0151  136.4880  150.0279 H   0  0  0  0  0  0  0  0  0  0  0  0
  144.6280  134.0003  149.5056 H   0  0  0  0  0  0  0  0  0  0  0  0
  145.8517  131.8128  152.5322 H   0  0  0  0  0  0  0  0  0  0  0  0
  145.4703  131.6670  150.8243 H   0  0  0  0  0  0  0  0  0  0  0  0
  147.5517  132.1681  150.8133 H   0  0  0  0  0  0  0  0  0  0  0  0
  146.1384  134.2953  153.2892 H   0  0  0  0  0  0  0  0  0  0  0  0
  144.4426  134.4802  153.6710 H   0  0  0  0  0  0  0  0  0  0  0  0
  1  2  1  0  0  0  0
  1 22  1  0  0  0  0
  1 23  1  0  0  0  0
  1 24  1  0  0  0  0
  2 18  1  0  0  0  0
  2  3  2  0  0  0  0
  3  4  1  0  0  0  0
  4  5  2  0  0  0  0
  4 25  1  0  0  0  0
  5  6  1  0  0  0  0
  5 26  1  0  0  0  0
  6  7  1  0  0  0  0
  6 18  2  0  0  0  0
  7  8  1  0  0  0  0
  7 27  1  0  0  0  0
  8  9  2  0  0  0  0
  8 10  1  0  0  0  0
 10 11  1  0  0  0  0
 10 28  1  0  0  0  0
 11 20  1  0  0  0  0
 11 17  1  0  0  0  0
 11 12  1  0  0  0  0
 12 13  2  0  0  0  0
 12 29  1  0  0  0  0
 13 14  1  0  0  0  0
 13 30  1  0  0  0  0
 14 21  1  0  0  0  0
 14 15  1  0  0  0  0
 14 17  1  0  0  0  0
 15 16  1  0  0  0  0
 15 31  1  0  0  0  0
 15 32  1  0  0  0  0
 16 33  1  0  0  0  0
 17 34  1  0  0  0  0
 17 35  1  0  0  0  0
 18 19  1  0  0  0  0
M  END
> <s_m_source_file>
AV-unprocessed.smi

> <i_m_source_file_index>
2368

> <i_lp_mmshare_version>
43012

> <i_f3d_flags>
0

> <s_epik_input>
W0NIM11jMW5bY0hdW2NIXWMoYzFDbClbTkhdQyg9TylbTkhdW0NAQEhdMltDSF09W0NIXVtDQEBIXShbQ0gyXTIpW0NIMl1bT0hd

> <s_epik_cmdline>
J2VwaWtfcHl0aG9uJywgJy1waCcsICc3LjAnLCAnLXRuJywgJzgnLCAnLW1hJywgJzIwMCcsICctbWV0YWxfYmluZGluZycsICctaW1hZScsICc8aW5maWxlLm1hZT4nLCAnLW9tYWUnLCAnPG91dGZpbGUubWFlPic=

> <r_epik_Ionization_Penalty>
0.00964582

> <r_epik_Ionization_Penalty_Charging>
0

> <r_epik_Ionization_Penalty_Neutral>
0.00964582

> <r_epik_State_Penalty>
0.00730775

> <r_epik_Charging_Adjusted_Penalty>
0.00730775

> <i_epik_Tot_Q>
0

> <i_epik_Tot_abs_Q>
0

> <r_epik_Metal_State_Penalty>
0.00719079

> <b_epik_Metal_Only>
0

> <s_lp_Force_Field>
OPLS_2005

> <r_lp_Energy>
21.5673

> <b_lp_Chiralities_Consistent>
1

> <s_lp_Variant>
AV-unprocessed.smi:2368-4

> <Gold.Version>
5.8.1

> <Gold.Id.Protein>
6NUR|6NUR_protein|mol2

> <Gold.PLP.Fitness>
43.8599

> <Gold.PLP.PLP>
-32.8900

> <Gold.PLP.part.hbond>
-3.3590

> <Gold.PLP.part.metal>
0.0000

> <Gold.PLP.part.buried>
-0.6740

> <Gold.PLP.part.nonpolar>
-28.9511

> <Gold.PLP.part.repulsive>
0.7621

> <Gold.PLP.ligand.clash>
0.0000

> <Gold.PLP.ligand.torsion>
0.3288

> <Gold.PLP.Chemscore.Hbond>
3.0000

> <Gold.PLP.Chemscore.CHOScore>
0.8683

> <Gold.PLP.Chemscore.Metal>
0.0000

> <Gold.Chemscore.Hbonds>
donor molecule, donor type, donor heavy atom, donor atom, acceptor molecule, acceptor atom, score
      L1  H     7    27       P1  7948  1.00
      L1  H    10    28       P1  7948  1.00
      L1  H    16    33       P1 10747  1.00
      L1  C     4    25       P1  8028  0.87

> <Gold.PLP.Chemscore.Internal.Correction>
0.0228

> <Gold.Rescore>
     Score         DG    S(hbond)    S(metal)    S(lipo)     H(rot)  DE(clash)    DE(int)     intcor
     18.28     -19.81       2.90        0.00      78.68       1.78       0.58       0.95       ----

> <Gold.Chemscore.Fitness>
18.2842

> <Gold.Chemscore.DG>
-19.8103

> <Gold.Chemscore.ZeroCoef>
-5.4800

> <Gold.Chemscore.Hbond>
2.8986

> <Gold.Chemscore.Metal>
0.0000

> <Gold.Chemscore.Lipo>
78.6750

> <Gold.Chemscore.Internal_Hbond>
0.0000

> <Gold.Chemscore.DEClash>
0.5780

> <Gold.Chemscore.DEInternal>
0.9481

> <Gold.Chemscore.Rot>
1.7796

> <Gold.Chemscore.Internal.Correction>
   9.000000E+99

> <Gold.Chemscore.Hbonds>
donor molecule, donor type, donor heavy atom, donor atom, acceptor molecule, acceptor atom, score
      L1  H     7    27       P1  7948  0.97
      L1  H    10    28       P1  7948  0.97
      L1  H    16    33       P1 10747  0.95

> <Gold.Chemscore.Hbond.Weighted>
-9.6812

> <Gold.Chemscore.Metal.Weighted>
-0.0000

> <Gold.Chemscore.Lipo.Weighted>
-9.2050

> <Gold.Chemscore.Internal_Hbond.Weighted>
0.0000

> <Gold.Chemscore.DEClash.Weighted>
0.5780

> <Gold.Chemscore.DEInternal.Weighted>
0.9481

> <Gold.Chemscore.Rot.Weighted>
4.5558

> <Gold.Chemscore.Internal.Correction.Weighted>
   9.000000E+99

> <Gold.Protein.RotatedTorsions>
[ 6907 6896 6895 6894 ] final  144.27 input  -60.11 | X-H torsion
[ 7974 7965 7964 7962 ] final  -73.74 input  175.53 | X-H torsion
[ 8008 7997 7996 7995 ] final -141.10 input   59.86 | X-H torsion
[ 10167 10162 10161 10158 ] final  135.46 input  -65.29 | X-H torsion
[ 10718 10713 10712 10709 ] final -122.20 input   66.30 | X-H torsion
[ 10763 10752 10751 10750 ] final   19.03 input  -60.55 | X-H torsion
[ 11005 11000 10999 10996 ] final   30.55 input  -57.11 | X-H torsion

> <Gold.Protein.ActiveResidues>
 VAL166  LYS551  ARG553  GLY616  TRP617  ASP618  TYR619  PRO620  LYS621  CYS622 
 ASP623  PHE694  ASN695  SER759  ASP760  ASP761  ALA762  ILE779  LEU786  VAL792 
 PHE793  MET794  SER795  GLU796  ALA797  LYS798  CYS799  TRP800  GLU811  SER814 

> <Gold.Protein.RotatedAtoms>
  152.1958  133.4805  159.5031 H   0  0  0  0  0  0  0  0  0  0  0  0  # atno 6907 bound_to 6896
  150.6960  134.1655  159.4201 H   0  0  0  0  0  0  0  0  0  0  0  0  # atno 6908 bound_to 6896
  151.9571  135.0141  160.0596 H   0  0  0  0  0  0  0  0  0  0  0  0  # atno 6909 bound_to 6896
  145.6482  140.9291  143.0999 H   0  0  0  0  0  0  0  0  0  0  0  0  # atno 7974 bound_to 7965
  155.4723  140.0554  157.2978 H   0  0  0  0  0  0  0  0  0  0  0  0  # atno 8008 bound_to 7997
  154.4693  140.2033  155.9988 H   0  0  0  0  0  0  0  0  0  0  0  0  # atno 8009 bound_to 7997
  156.1029  140.3216  155.7971 H   0  0  0  0  0  0  0  0  0  0  0  0  # atno 8010 bound_to 7997
  139.5216  144.6515  151.5287 H   0  0  0  0  0  0  0  0  0  0  0  0  # atno 10167 bound_to 10162
  156.1399  130.6458  150.9754 H   0  0  0  0  0  0  0  0  0  0  0  0  # atno 10718 bound_to 10713
  153.1198  135.6716  153.9356 H   0  0  0  0  0  0  0  0  0  0  0  0  # atno 10763 bound_to 10752
  153.8875  135.3051  155.3448 H   0  0  0  0  0  0  0  0  0  0  0  0  # atno 10764 bound_to 10752
  154.7610  135.4988  153.9544 H   0  0  0  0  0  0  0  0  0  0  0  0  # atno 10765 bound_to 10752
  140.2932  134.2841  155.7771 H   0  0  0  0  0  0  0  0  0  0  0  0  # atno 11005 bound_to 11000
  144.7132  139.8292  143.7407 LP  0  0  0  0  0  0  0  0  0  0  0  0  # atno 17320 bound_to 7965
  146.1226  139.4246  143.0219 LP  0  0  0  0  0  0  0  0  0  0  0  0  # atno 17321 bound_to 7965
  140.6322  143.9053  150.6616 LP  0  0  0  0  0  0  0  0  0  0  0  0  # atno 17342 bound_to 10162
  140.2361  143.3699  152.1525 LP  0  0  0  0  0  0  0  0  0  0  0  0  # atno 17343 bound_to 10162
  157.6566  131.0888  150.7933 LP  0  0  0  0  0  0  0  0  0  0  0  0  # atno 17370 bound_to 10713
  156.8009  130.4921  149.5370 LP  0  0  0  0  0  0  0  0  0  0  0  0  # atno 17371 bound_to 10713
  141.2142  133.7598  156.9655 LP  0  0  0  0  0  0  0  0  0  0  0  0  # atno 17394 bound_to 11000
  140.1177  134.9437  157.2158 LP  0  0  0  0  0  0  0  0  0  0  0  0  # atno 17395 bound_to 11000

$$$$
