AV-unprocessed.smi:2170|AV-procd|sdf|8825|dock7
  -GOLD-   2272012 23D 1   1.00000     0.00000
 Structure written by MMmdl.
 45 46  0  0  0  0  0  0  0  0  2 V2000
  145.1813  137.0844  161.9638 C   0  0  0  0  0  0  0  0  0  0  0  0
  146.2617  136.0030  162.1434 C   0  0  0  0  0  0  0  0  0  0  0  0
  147.4070  136.4923  163.0484 C   0  0  0  0  0  0  0  0  0  0  0  0
  146.7524  135.5060  160.8336 N   0  0  0  0  0  0  0  0  0  0  0  0
  147.1018  134.0720  160.7780 C   0  0  0  0  0  0  0  0  0  0  0  0
  147.6983  136.5946  159.8543 S   0  0  0  0  0  0  0  0  0  0  0  0
  146.8191  137.7204  159.4974 O   0  0  0  0  0  0  0  0  0  0  0  0
  148.9093  136.8911  160.6373 O   0  0  0  0  0  0  0  0  0  0  0  0
  147.9549  135.5863  158.6107 N   0  5  0  0  0  0  0  0  0  0  0  0
  149.0121  135.8930  157.6654 C   0  0  0  0  0  0  0  0  0  0  0  0
  149.7296  137.1865  158.0239 C   0  0  0  0  0  0  0  0  0  0  0  0
  150.9586  137.1694  158.7183 C   0  0  0  0  0  0  0  0  0  0  0  0
  151.5855  138.3919  159.0302 C   0  0  0  0  0  0  0  0  0  0  0  0
  150.9703  139.6045  158.6385 C   0  0  0  0  0  0  0  0  0  0  0  0
  151.5856  140.8403  158.9358 N   0  0  0  0  0  0  0  0  0  0  0  0
  152.3226  140.9531  160.1933 C   0  0  0  0  0  0  0  0  0  0  0  0
  153.1474  142.2507  160.2161 C   0  0  0  0  0  0  0  0  0  0  0  0
  152.2928  143.3647  159.9808 O   0  0  0  0  0  0  0  0  0  0  0  0
  151.6675  143.2915  158.7038 C   0  0  0  0  0  0  0  0  0  0  0  0
  150.7945  142.0274  158.6208 C   0  0  0  0  0  0  0  0  0  0  0  0
  149.7853  139.6181  157.9797 N   0  0  0  0  0  0  0  0  0  0  0  0
  149.1877  138.4445  157.6791 C   0  0  0  0  0  0  0  0  0  0  0  0
  144.7760  137.3888  162.9290 H   0  0  0  0  0  0  0  0  0  0  0  0
  144.3475  136.7196  161.3639 H   0  0  0  0  0  0  0  0  0  0  0  0
  145.5760  137.9775  161.4795 H   0  0  0  0  0  0  0  0  0  0  0  0
  145.8058  135.1620  162.6650 H   0  0  0  0  0  0  0  0  0  0  0  0
  147.0431  136.6796  164.0590 H   0  0  0  0  0  0  0  0  0  0  0  0
  147.8458  137.4234  162.6894 H   0  0  0  0  0  0  0  0  0  0  0  0
  148.1995  135.7466  163.1200 H   0  0  0  0  0  0  0  0  0  0  0  0
  147.9157  133.8475  161.4664 H   0  0  0  0  0  0  0  0  0  0  0  0
  147.4286  133.7866  159.7788 H   0  0  0  0  0  0  0  0  0  0  0  0
  146.2450  133.4455  161.0210 H   0  0  0  0  0  0  0  0  0  0  0  0
  149.7501  135.0916  157.6133 H   0  0  0  0  0  0  0  0  0  0  0  0
  148.6256  135.9996  156.6512 H   0  0  0  0  0  0  0  0  0  0  0  0
  151.4281  136.2419  159.0165 H   0  0  0  0  0  0  0  0  0  0  0  0
  152.5183  138.3834  159.5733 H   0  0  0  0  0  0  0  0  0  0  0  0
  151.6191  140.9439  161.0271 H   0  0  0  0  0  0  0  0  0  0  0  0
  152.9894  140.0990  160.3184 H   0  0  0  0  0  0  0  0  0  0  0  0
  153.6302  142.3717  161.1860 H   0  0  0  0  0  0  0  0  0  0  0  0
  153.9406  142.2214  159.4670 H   0  0  0  0  0  0  0  0  0  0  0  0
  151.0535  144.1804  158.5584 H   0  0  0  0  0  0  0  0  0  0  0  0
  152.4228  143.2941  157.9163 H   0  0  0  0  0  0  0  0  0  0  0  0
  150.3535  141.9677  157.6269 H   0  0  0  0  0  0  0  0  0  0  0  0
  149.9689  142.0976  159.3302 H   0  0  0  0  0  0  0  0  0  0  0  0
  148.2494  138.5317  157.1485 H   0  0  0  0  0  0  0  0  0  0  0  0
  1  2  1  0  0  0  0
  1 23  1  0  0  0  0
  1 24  1  0  0  0  0
  1 25  1  0  0  0  0
  2  3  1  0  0  0  0
  2  4  1  0  0  0  0
  2 26  1  0  0  0  0
  3 27  1  0  0  0  0
  3 28  1  0  0  0  0
  3 29  1  0  0  0  0
  4  5  1  0  0  0  0
  4  6  1  0  0  0  0
  5 30  1  0  0  0  0
  5 31  1  0  0  0  0
  5 32  1  0  0  0  0
  6  7  2  0  0  0  0
  6  8  2  0  0  0  0
  6  9  1  0  0  0  0
  9 10  1  0  0  0  0
 10 11  1  0  0  0  0
 10 33  1  0  0  0  0
 10 34  1  0  0  0  0
 11 22  1  0  0  0  0
 11 12  2  0  0  0  0
 12 13  1  0  0  0  0
 12 35  1  0  0  0  0
 13 14  2  0  0  0  0
 13 36  1  0  0  0  0
 14 15  1  0  0  0  0
 14 21  1  0  0  0  0
 15 20  1  0  0  0  0
 15 16  1  0  0  0  0
 16 17  1  0  0  0  0
 16 37  1  0  0  0  0
 16 38  1  0  0  0  0
 17 18  1  0  0  0  0
 17 39  1  0  0  0  0
 17 40  1  0  0  0  0
 18 19  1  0  0  0  0
 19 20  1  0  0  0  0
 19 41  1  0  0  0  0
 19 42  1  0  0  0  0
 20 43  1  0  0  0  0
 20 44  1  0  0  0  0
 21 22  2  0  0  0  0
 22 45  1  0  0  0  0
M  CHG  1   9  -1
M  END
> <s_m_source_file>
AV-unprocessed.smi

> <i_m_source_file_index>
2170

> <i_lp_mmshare_version>
43012

> <i_f3d_flags>
0

> <s_epik_input>
W0NIM11bQ0hdKFtDSDNdKU4oW0NIM10pUyg9TykoPU8pW05IXVtDSDJdYzFbY0hdW2NIXWMobltjSF0xKU4yW0NIMl1bQ0gyXU9bQ0gyXVtDSDJdMg==

> <s_epik_cmdline>
J2VwaWtfcHl0aG9uJywgJy1waCcsICc3LjAnLCAnLXRuJywgJzgnLCAnLW1hJywgJzIwMCcsICctbWV0YWxfYmluZGluZycsICctaW1hZScsICc8aW5maWxlLm1hZT4nLCAnLW9tYWUnLCAnPG91dGZpbGUubWFlPic=

> <r_lp_tautomer_probability>
1

> <r_epik_Ionization_Penalty>
3.3971

> <r_epik_Ionization_Penalty_Charging>
3.31706

> <r_epik_Ionization_Penalty_Neutral>
0.0800436

> <r_epik_State_Penalty>
3.32044

> <r_epik_Charging_Adjusted_Penalty>
6.63751

> <i_epik_Tot_Q>
-1

> <i_epik_Tot_abs_Q>
1

> <r_epik_Metal_State_Penalty>
0.488406

> <b_epik_Metal_Only>
1

> <s_lp_Force_Field>
OPLS_2005

> <r_lp_Energy>
16.8192

> <b_lp_Chiralities_Consistent>
1

> <s_lp_Variant>
AV-unprocessed.smi:2170-2

> <Gold.Version>
5.8.1

> <Gold.Id.Protein>
6NUR|6NUR_protein|mol2

> <Gold.PLP.Fitness>
38.3686

> <Gold.PLP.PLP>
-35.8197

> <Gold.PLP.part.hbond>
-1.8827

> <Gold.PLP.part.metal>
0.0000

> <Gold.PLP.part.buried>
-5.8934

> <Gold.PLP.part.nonpolar>
-28.5346

> <Gold.PLP.part.repulsive>
0.0085

> <Gold.PLP.ligand.clash>
0.0000

> <Gold.PLP.ligand.torsion>
2.9098

> <Gold.PLP.Chemscore.Hbond>
1.4400

> <Gold.PLP.Chemscore.CHOScore>
0.0000

> <Gold.PLP.Chemscore.Metal>
0.0000

> <Gold.Chemscore.Hbonds>
donor molecule, donor type, donor heavy atom, donor atom, acceptor molecule, acceptor atom, score
      P1  H  6931  6943       L1     8  0.82
      P1  H  6934  6947       L1     7  0.85

> <Gold.PLP.Chemscore.Internal.Correction>
4.0484

> <Gold.Rescore>
     Score         DG    S(hbond)    S(metal)    S(lipo)     H(rot)  DE(clash)    DE(int)     intcor
      7.63     -15.42       1.30        0.00      81.45       1.54       0.06       7.72       ----

> <Gold.Chemscore.Fitness>
7.6337

> <Gold.Chemscore.DG>
-15.4187

> <Gold.Chemscore.ZeroCoef>
-5.4800

> <Gold.Chemscore.Hbond>
1.3038

> <Gold.Chemscore.Metal>
0.0000

> <Gold.Chemscore.Lipo>
81.4536

> <Gold.Chemscore.Internal_Hbond>
0.0000

> <Gold.Chemscore.DEClash>
0.0641

> <Gold.Chemscore.DEInternal>
7.7208

> <Gold.Chemscore.Rot>
1.5415

> <Gold.Chemscore.Internal.Correction>
   9.000000E+99

> <Gold.Chemscore.Hbonds>
donor molecule, donor type, donor heavy atom, donor atom, acceptor molecule, acceptor atom, score
      P1  H  6931  6943       L1     8  0.81
      P1  H  6934  6947       L1     7  0.37

> <Gold.Chemscore.Hbond.Weighted>
-4.3548

> <Gold.Chemscore.Metal.Weighted>
-0.0000

> <Gold.Chemscore.Lipo.Weighted>
-9.5301

> <Gold.Chemscore.Internal_Hbond.Weighted>
0.0000

> <Gold.Chemscore.DEClash.Weighted>
0.0641

> <Gold.Chemscore.DEInternal.Weighted>
7.7208

> <Gold.Chemscore.Rot.Weighted>
3.9462

> <Gold.Chemscore.Internal.Correction.Weighted>
   9.000000E+99

> <Gold.Protein.RotatedTorsions>
[ 6907 6896 6895 6894 ] final   96.71 input  -60.11 | X-H torsion
[ 7974 7965 7964 7962 ] final   33.93 input  175.53 | X-H torsion
[ 8008 7997 7996 7995 ] final   25.82 input   59.86 | X-H torsion
[ 10167 10162 10161 10158 ] final  146.81 input  -65.29 | X-H torsion
[ 10718 10713 10712 10709 ] final -166.58 input   66.30 | X-H torsion
[ 10763 10752 10751 10750 ] final  157.00 input  -60.55 | X-H torsion
[ 11005 11000 10999 10996 ] final  142.24 input  -57.11 | X-H torsion

> <Gold.Protein.ActiveResidues>
 VAL166  LYS551  ARG553  GLY616  TRP617  ASP618  TYR619  PRO620  LYS621  CYS622 
 ASP623  PHE694  ASN695  SER759  ASP760  ASP761  ALA762  ILE779  LEU786  VAL792 
 PHE793  MET794  SER795  GLU796  ALA797  LYS798  CYS799  TRP800  GLU811  SER814 

> <Gold.Protein.RotatedAtoms>
  152.5432  134.0844  159.8249 H   0  0  0  0  0  0  0  0  0  0  0  0  # atno 6907 bound_to 6896
  151.0941  133.5286  159.2620 H   0  0  0  0  0  0  0  0  0  0  0  0  # atno 6908 bound_to 6896
  151.2065  135.0473  159.8948 H   0  0  0  0  0  0  0  0  0  0  0  0  # atno 6909 bound_to 6896
  146.1387  139.6334  142.9177 H   0  0  0  0  0  0  0  0  0  0  0  0  # atno 7974 bound_to 7965
  155.0176  140.3144  155.4806 H   0  0  0  0  0  0  0  0  0  0  0  0  # atno 8008 bound_to 7997
  156.2898  140.2203  156.5235 H   0  0  0  0  0  0  0  0  0  0  0  0  # atno 8009 bound_to 7997
  154.7480  140.0468  157.0857 H   0  0  0  0  0  0  0  0  0  0  0  0  # atno 8010 bound_to 7997
  139.4901  144.5802  151.6886 H   0  0  0  0  0  0  0  0  0  0  0  0  # atno 10167 bound_to 10162
  156.6699  130.9080  151.3042 H   0  0  0  0  0  0  0  0  0  0  0  0  # atno 10718 bound_to 10713
  154.1933  135.2794  155.3015 H   0  0  0  0  0  0  0  0  0  0  0  0  # atno 10763 bound_to 10752
  154.5912  135.5559  153.7283 H   0  0  0  0  0  0  0  0  0  0  0  0  # atno 10764 bound_to 10752
  153.0106  135.6368  154.2072 H   0  0  0  0  0  0  0  0  0  0  0  0  # atno 10765 bound_to 10752
  140.0462  134.9279  157.0934 H   0  0  0  0  0  0  0  0  0  0  0  0  # atno 11005 bound_to 11000
  145.5096  141.0436  143.2495 LP  0  0  0  0  0  0  0  0  0  0  0  0  # atno 17320 bound_to 7965
  144.7768  139.6611  143.7171 LP  0  0  0  0  0  0  0  0  0  0  0  0  # atno 17321 bound_to 7965
  140.5407  144.0584  150.6087 LP  0  0  0  0  0  0  0  0  0  0  0  0  # atno 17342 bound_to 10162
  140.3605  143.2911  152.0389 LP  0  0  0  0  0  0  0  0  0  0  0  0  # atno 17343 bound_to 10162
  157.7081  130.9408  150.0997 LP  0  0  0  0  0  0  0  0  0  0  0  0  # atno 17370 bound_to 10713
  156.1947  130.3656  149.8865 LP  0  0  0  0  0  0  0  0  0  0  0  0  # atno 17371 bound_to 10713
  140.3990  134.2103  155.7164 LP  0  0  0  0  0  0  0  0  0  0  0  0  # atno 17394 bound_to 11000
  141.1908  133.8209  157.0904 LP  0  0  0  0  0  0  0  0  0  0  0  0  # atno 17395 bound_to 11000

$$$$
