AV-unprocessed.smi:3012|AV-procd|sdf|11461|dock4
  -GOLD-   2272016393D 1   1.00000     0.00000
 Structure written by MMmdl.
 17 17  0  0  0  0  0  0  0  0  2 V2000
  146.2414  137.4554  161.4961 O   0  0  0  0  0  0  0  0  0  0  0  0
  147.0818  136.6560  161.9632 C   0  0  0  0  0  0  0  0  0  0  0  0
  148.3129  136.8585  162.0485 O   0  5  0  0  0  0  0  0  0  0  0  0
  146.5574  135.3131  162.4728 C   0  0  0  0  0  0  0  0  0  0  0  0
  146.9941  134.1421  161.6078 C   0  0  0  0  0  0  0  0  0  0  0  0
  147.7851  134.2743  160.5120 C   0  0  0  0  0  0  0  0  0  0  0  0
  148.1846  133.1020  159.7338 C   0  0  0  0  0  0  0  0  0  0  0  0
  148.8927  133.1267  158.7291 O   0  0  0  0  0  0  0  0  0  0  0  0
  147.6955  131.8827  160.2190 N   0  0  0  0  0  0  0  0  0  0  0  0
  146.8891  131.7347  161.3485 C   0  0  0  0  0  0  0  0  0  0  0  0
  146.4958  130.6318  161.7205 O   0  0  0  0  0  0  0  0  0  0  0  0
  146.5527  132.9037  162.0347 N   0  0  0  0  0  0  0  0  0  0  0  0
  147.9461  131.0462  159.7124 H   0  0  0  0  0  0  0  0  0  0  0  0
  145.9662  132.8229  162.8528 H   0  0  0  0  0  0  0  0  0  0  0  0
  146.9119  135.1522  163.4916 H   0  0  0  0  0  0  0  0  0  0  0  0
  145.4685  135.3550  162.5314 H   0  0  0  0  0  0  0  0  0  0  0  0
  148.1252  135.2534  160.2058 H   0  0  0  0  0  0  0  0  0  0  0  0
  1  2  2  0  0  0  0
  2  3  1  0  0  0  0
  2  4  1  0  0  0  0
  4  5  1  0  0  0  0
  4 15  1  0  0  0  0
  4 16  1  0  0  0  0
  5 12  1  0  0  0  0
  5  6  2  0  0  0  0
  6  7  1  0  0  0  0
  6 17  1  0  0  0  0
  7  8  2  0  0  0  0
  7  9  1  0  0  0  0
  9 13  1  0  0  0  0
  9 10  1  0  0  0  0
 10 11  2  0  0  0  0
 10 12  1  0  0  0  0
 12 14  1  0  0  0  0
M  CHG  1   3  -1
M  END
> <s_m_source_file>
AV-unprocessed.smi

> <i_m_source_file_index>
3012

> <i_lp_mmshare_version>
43012

> <i_f3d_flags>
0

> <s_epik_input>
Tz1DKFtPSF0pW0NIMl1jMVtjSF1jKD1PKVtuSF1jKD1PKVtuSF0x

> <s_epik_cmdline>
J2VwaWtfcHl0aG9uJywgJy1waCcsICc3LjAnLCAnLXRuJywgJzgnLCAnLW1hJywgJzIwMCcsICctbWV0YWxfYmluZGluZycsICctaW1hZScsICc8aW5maWxlLm1hZT4nLCAnLW9tYWUnLCAnPG91dGZpbGUubWFlPic=

> <r_lp_tautomer_probability>
1

> <r_epik_Ionization_Penalty>
0.00187741

> <r_epik_Ionization_Penalty_Charging>
0.00187741

> <r_epik_Ionization_Penalty_Neutral>
1.02484e-13

> <r_epik_State_Penalty>
-0

> <r_epik_Charging_Adjusted_Penalty>
0.00187741

> <i_epik_Tot_Q>
-1

> <i_epik_Tot_abs_Q>
1

> <r_epik_Metal_State_Penalty>
0.67268

> <b_epik_Metal_Only>
0

> <s_lp_Force_Field>
OPLS_2005

> <r_lp_Energy>
0.757272

> <b_lp_Chiralities_Consistent>
1

> <s_lp_Variant>
AV-unprocessed.smi:3012-1

> <Gold.Version>
5.8.1

> <Gold.Id.Protein>
6NUR|6NUR_protein|mol2

> <Gold.PLP.Fitness>
32.7940

> <Gold.PLP.PLP>
-17.9419

> <Gold.PLP.part.hbond>
-3.0000

> <Gold.PLP.part.metal>
0.0000

> <Gold.PLP.part.buried>
-3.4553

> <Gold.PLP.part.nonpolar>
-11.7042

> <Gold.PLP.part.repulsive>
0.1299

> <Gold.PLP.ligand.clash>
0.0000

> <Gold.PLP.ligand.torsion>
0.0746

> <Gold.PLP.Chemscore.Hbond>
5.0000

> <Gold.PLP.Chemscore.CHOScore>
0.0000

> <Gold.PLP.Chemscore.Metal>
0.0000

> <Gold.Chemscore.Hbonds>
donor molecule, donor type, donor heavy atom, donor atom, acceptor molecule, acceptor atom, score
      P1  H  6896  6909       L1     8  0.94
      P1  H  6931  6943       L1     3  2.00
      P1  H  6934  6947       L1     1  2.00

> <Gold.PLP.Chemscore.Internal.Correction>
0.0012

> <Gold.Rescore>
     Score         DG    S(hbond)    S(metal)    S(lipo)     H(rot)  DE(clash)    DE(int)     intcor
     12.85     -13.04       2.83        0.00      21.04       1.70       0.04       0.15       ----

> <Gold.Chemscore.Fitness>
12.8510

> <Gold.Chemscore.DG>
-13.0376

> <Gold.Chemscore.ZeroCoef>
-5.4800

> <Gold.Chemscore.Hbond>
2.8286

> <Gold.Chemscore.Metal>
0.0000

> <Gold.Chemscore.Lipo>
21.0368

> <Gold.Chemscore.Internal_Hbond>
0.0000

> <Gold.Chemscore.DEClash>
0.0354

> <Gold.Chemscore.DEInternal>
0.1513

> <Gold.Chemscore.Rot>
1.6997

> <Gold.Chemscore.Internal.Correction>
   9.000000E+99

> <Gold.Chemscore.Hbonds>
donor molecule, donor type, donor heavy atom, donor atom, acceptor molecule, acceptor atom, score
      P1  H  6896  6909       L1     8  0.49
      P1  H  6931  6943       L1     3  0.97
      P1  H  6934  6947       L1     1  0.63

> <Gold.Chemscore.Hbond.Weighted>
-9.4475

> <Gold.Chemscore.Metal.Weighted>
-0.0000

> <Gold.Chemscore.Lipo.Weighted>
-2.4613

> <Gold.Chemscore.Internal_Hbond.Weighted>
0.0000

> <Gold.Chemscore.DEClash.Weighted>
0.0354

> <Gold.Chemscore.DEInternal.Weighted>
0.1513

> <Gold.Chemscore.Rot.Weighted>
4.3512

> <Gold.Chemscore.Internal.Correction.Weighted>
   9.000000E+99

> <Gold.Protein.RotatedTorsions>
[ 6907 6896 6895 6894 ] final    7.90 input  -60.11 | X-H torsion
[ 7974 7965 7964 7962 ] final  121.77 input  175.53 | X-H torsion
[ 8008 7997 7996 7995 ] final -110.84 input   59.86 | X-H torsion
[ 10167 10162 10161 10158 ] final   88.17 input  -65.29 | X-H torsion
[ 10718 10713 10712 10709 ] final  -47.83 input   66.30 | X-H torsion
[ 10763 10752 10751 10750 ] final   98.05 input  -60.55 | X-H torsion
[ 11005 11000 10999 10996 ] final   15.57 input  -57.11 | X-H torsion

> <Gold.Protein.ActiveResidues>
 VAL166  LYS551  ARG553  GLY616  TRP617  ASP618  TYR619  PRO620  LYS621  CYS622 
 ASP623  PHE694  ASN695  SER759  ASP760  ASP761  ALA762  ILE779  LEU786  VAL792 
 PHE793  MET794  SER795  GLU796  ALA797  LYS798  CYS799  TRP800  GLU811  SER814 

> <Gold.Protein.RotatedAtoms>
  151.6974  135.0936  160.0244 H   0  0  0  0  0  0  0  0  0  0  0  0  # atno 6907 bound_to 6896
  152.3741  133.6454  159.6119 H   0  0  0  0  0  0  0  0  0  0  0  0  # atno 6908 bound_to 6896
  150.7696  133.9138  159.3418 H   0  0  0  0  0  0  0  0  0  0  0  0  # atno 6909 bound_to 6896
  145.1154  139.3424  143.4742 H   0  0  0  0  0  0  0  0  0  0  0  0  # atno 7974 bound_to 7965
  154.9807  140.0396  157.2276 H   0  0  0  0  0  0  0  0  0  0  0  0  # atno 8008 bound_to 7997
  154.7716  140.2803  155.6110 H   0  0  0  0  0  0  0  0  0  0  0  0  # atno 8009 bound_to 7997
  156.2922  140.2609  156.2520 H   0  0  0  0  0  0  0  0  0  0  0  0  # atno 8010 bound_to 7997
  139.8700  144.6498  150.8960 H   0  0  0  0  0  0  0  0  0  0  0  0  # atno 10167 bound_to 10162
  156.2046  130.4158  149.9195 H   0  0  0  0  0  0  0  0  0  0  0  0  # atno 10718 bound_to 10713
  153.2843  135.4162  155.1108 H   0  0  0  0  0  0  0  0  0  0  0  0  # atno 10763 bound_to 10752
  154.8500  135.3503  154.6069 H   0  0  0  0  0  0  0  0  0  0  0  0  # atno 10764 bound_to 10752
  153.6490  135.7053  153.5273 H   0  0  0  0  0  0  0  0  0  0  0  0  # atno 10765 bound_to 10752
  140.4568  134.1168  155.7710 H   0  0  0  0  0  0  0  0  0  0  0  0  # atno 11005 bound_to 11000
  146.3524  140.1091  142.8604 LP  0  0  0  0  0  0  0  0  0  0  0  0  # atno 17320 bound_to 7965
  145.0800  140.9214  143.4831 LP  0  0  0  0  0  0  0  0  0  0  0  0  # atno 17321 bound_to 7965
  140.7762  143.3672  151.1717 LP  0  0  0  0  0  0  0  0  0  0  0  0  # atno 17342 bound_to 10162
  139.7293  143.9098  152.3014 LP  0  0  0  0  0  0  0  0  0  0  0  0  # atno 17343 bound_to 10162
  156.6893  130.8889  151.3586 LP  0  0  0  0  0  0  0  0  0  0  0  0  # atno 17370 bound_to 10713
  157.7005  130.9328  150.0772 LP  0  0  0  0  0  0  0  0  0  0  0  0  # atno 17371 bound_to 10713
  141.1639  133.8740  157.1770 LP  0  0  0  0  0  0  0  0  0  0  0  0  # atno 17394 bound_to 11000
  139.9971  135.0042  157.0107 LP  0  0  0  0  0  0  0  0  0  0  0  0  # atno 17395 bound_to 11000

$$$$
