AV-unprocessed.smi:2988|AV-procd|sdf|11390|dock2
  -GOLD-   2272016313D 1   1.00000     0.00000
 Structure written by MMmdl.
 37 38  0  0  0  0  0  0  0  0  1 V2000
  153.2908  143.1516  162.3699 C   0  0  0  0  0  0  0  0  0  0  0  0
  152.4602  143.3120  161.0835 C   0  0  1  0  0  0  0  0  0  0  0  0
  152.3942  144.7944  160.6625 C   0  0  0  0  0  0  0  0  0  0  0  0
  151.5638  144.9904  159.3853 C   0  0  0  0  0  0  0  0  0  0  0  0
  152.1109  144.1335  158.2359 C   0  0  0  0  0  0  0  0  0  0  0  0
  152.1707  142.6514  158.6331 C   0  0  0  0  0  0  0  0  0  0  0  0
  152.9930  142.4381  159.9206 C   0  0  2  0  0  0  0  0  0  0  0  0
  152.9612  141.0251  160.2916 N   0  0  0  0  0  0  0  0  0  0  0  0
  153.0971  139.9933  159.4452 C   0  0  0  0  0  0  0  0  0  0  0  0
  153.2340  140.1278  158.2286 O   0  0  0  0  0  0  0  0  0  0  0  0
  153.0495  138.5937  160.0741 C   0  0  0  0  0  0  0  0  0  0  0  0
  154.1320  138.3660  161.0420 N   0  0  0  0  0  0  0  0  0  0  0  0
  154.5880  139.5159  161.6625 N   0  0  0  0  0  0  0  0  0  0  0  0
  155.5242  139.4320  162.5439 C   0  0  0  0  0  0  0  0  0  0  0  0
  156.1276  138.1695  162.9095 C   0  0  0  0  0  0  0  0  0  0  0  0
  157.3801  138.1193  164.0995 Cl  0  0  0  0  0  0  0  0  0  0  0  0
  155.6778  137.0491  162.2903 C   0  0  0  0  0  0  0  0  0  0  0  0
  156.3504  135.5018  162.6747 Cl  0  0  0  0  0  0  0  0  0  0  0  0
  154.6123  137.1064  161.2799 C   0  0  0  0  0  0  0  0  0  0  0  0
  154.1797  136.1138  160.6921 O   0  0  0  0  0  0  0  0  0  0  0  0
  154.3305  143.4369  162.2070 H   0  0  0  0  0  0  0  0  0  0  0  0
  153.2817  142.1234  162.7322 H   0  0  0  0  0  0  0  0  0  0  0  0
  152.8968  143.7785  163.1703 H   0  0  0  0  0  0  0  0  0  0  0  0
  151.4426  142.9898  161.3100 H   0  0  0  0  0  0  0  0  0  0  0  0
  151.9663  145.3919  161.4680 H   0  0  0  0  0  0  0  0  0  0  0  0
  153.4031  145.1760  160.4996 H   0  0  0  0  0  0  0  0  0  0  0  0
  150.5240  144.7246  159.5796 H   0  0  0  0  0  0  0  0  0  0  0  0
  151.5662  146.0423  159.0981 H   0  0  0  0  0  0  0  0  0  0  0  0
  151.4864  144.2559  157.3507 H   0  0  0  0  0  0  0  0  0  0  0  0
  153.1083  144.4799  157.9625 H   0  0  0  0  0  0  0  0  0  0  0  0
  151.1563  142.2761  158.7760 H   0  0  0  0  0  0  0  0  0  0  0  0
  152.6001  142.0730  157.8142 H   0  0  0  0  0  0  0  0  0  0  0  0
  154.0246  142.7378  159.7245 H   0  0  0  0  0  0  0  0  0  0  0  0
  152.8457  140.8180  161.2731 H   0  0  0  0  0  0  0  0  0  0  0  0
  152.0819  138.4318  160.5537 H   0  0  0  0  0  0  0  0  0  0  0  0
  153.1010  137.8607  159.2671 H   0  0  0  0  0  0  0  0  0  0  0  0
  155.9119  140.3095  163.0618 H   0  0  0  0  0  0  0  0  0  0  0  0
  1  2  1  0  0  0  0
  1 21  1  0  0  0  0
  1 22  1  0  0  0  0
  1 23  1  0  0  0  0
  2  7  1  0  0  0  0
  2  3  1  0  0  0  0
  2 24  1  0  0  0  0
  3  4  1  0  0  0  0
  3 25  1  0  0  0  0
  3 26  1  0  0  0  0
  4  5  1  0  0  0  0
  4 27  1  0  0  0  0
  4 28  1  0  0  0  0
  5  6  1  0  0  0  0
  5 29  1  0  0  0  0
  5 30  1  0  0  0  0
  6  7  1  0  0  0  0
  6 31  1  0  0  0  0
  6 32  1  0  0  0  0
  7  8  1  0  0  0  0
  7 33  1  0  0  0  0
  8  9  1  0  0  0  0
  8 34  1  0  0  0  0
  9 10  2  0  0  0  0
  9 11  1  0  0  0  0
 11 12  1  0  0  0  0
 11 35  1  0  0  0  0
 11 36  1  0  0  0  0
 12 19  1  0  0  0  0
 12 13  1  0  0  0  0
 13 14  2  0  0  0  0
 14 15  1  0  0  0  0
 14 37  1  0  0  0  0
 15 16  1  0  0  0  0
 15 17  2  0  0  0  0
 17 18  1  0  0  0  0
 17 19  1  0  0  0  0
 19 20  2  0  0  0  0
M  END
> <s_m_source_file>
AV-unprocessed.smi

> <i_m_source_file_index>
2988

> <i_lp_mmshare_version>
43012

> <i_f3d_flags>
0

> <s_epik_input>
W0NIM11bQ0BASF0xW0NIMl1bQ0gyXVtDSDJdW0NIMl1bQ0BIXTFbTkhdQyg9TylbQ0gyXW4ybltjSF1jKENsKWMoQ2wpYzI9Tw==

> <s_epik_cmdline>
J2VwaWtfcHl0aG9uJywgJy1waCcsICc3LjAnLCAnLXRuJywgJzgnLCAnLW1hJywgJzIwMCcsICctbWV0YWxfYmluZGluZycsICctaW1hZScsICc8aW5maWxlLm1hZT4nLCAnLW9tYWUnLCAnPG91dGZpbGUubWFlPic=

> <r_lp_tautomer_probability>
1

> <r_epik_Ionization_Penalty>
1.90782e-08

> <r_epik_Ionization_Penalty_Charging>
3.13143e-11

> <r_epik_Ionization_Penalty_Neutral>
1.90469e-08

> <r_epik_State_Penalty>
-0

> <r_epik_Charging_Adjusted_Penalty>
3.13143e-11

> <i_epik_Tot_Q>
0

> <i_epik_Tot_abs_Q>
0

> <r_epik_Metal_State_Penalty>
-0

> <b_epik_Metal_Only>
0

> <s_lp_Force_Field>
OPLS_2005

> <r_lp_Energy>
24.109

> <b_lp_Chiralities_Consistent>
1

> <s_lp_Variant>
AV-unprocessed.smi:2988-4

> <Gold.Version>
5.8.1

> <Gold.Id.Protein>
6NUR|6NUR_protein|mol2

> <Gold.PLP.Fitness>
45.2908

> <Gold.PLP.PLP>
-40.5405

> <Gold.PLP.part.hbond>
-2.0000

> <Gold.PLP.part.metal>
0.0000

> <Gold.PLP.part.buried>
-3.2375

> <Gold.PLP.part.nonpolar>
-34.4351

> <Gold.PLP.part.repulsive>
0.1292

> <Gold.PLP.ligand.clash>
0.0000

> <Gold.PLP.ligand.torsion>
0.5677

> <Gold.PLP.Chemscore.Hbond>
1.9600

> <Gold.PLP.Chemscore.CHOScore>
0.0000

> <Gold.PLP.Chemscore.Metal>
0.0000

> <Gold.Chemscore.Hbonds>
donor molecule, donor type, donor heavy atom, donor atom, acceptor molecule, acceptor atom, score
      P1  H  6896  6907       L1    20  0.18
      P1  H  7997  8009       L1    10  0.93

> <Gold.PLP.Chemscore.Internal.Correction>
0.0057

> <Gold.Rescore>
     Score         DG    S(hbond)    S(metal)    S(lipo)     H(rot)  DE(clash)    DE(int)     intcor
     18.28     -21.00       1.99        0.00     108.51       1.50       0.01       2.71       ----

> <Gold.Chemscore.Fitness>
18.2824

> <Gold.Chemscore.DG>
-20.9990

> <Gold.Chemscore.ZeroCoef>
-5.4800

> <Gold.Chemscore.Hbond>
1.9934

> <Gold.Chemscore.Metal>
0.0000

> <Gold.Chemscore.Lipo>
108.5062

> <Gold.Chemscore.Internal_Hbond>
0.0000

> <Gold.Chemscore.DEClash>
0.0089

> <Gold.Chemscore.DEInternal>
2.7077

> <Gold.Chemscore.Rot>
1.4977

> <Gold.Chemscore.Internal.Correction>
   9.000000E+99

> <Gold.Chemscore.Hbonds>
donor molecule, donor type, donor heavy atom, donor atom, acceptor molecule, acceptor atom, score
      P1  H  6896  6907       L1    20  0.19
      P1  H  7997  8009       L1    10  0.91

> <Gold.Chemscore.Hbond.Weighted>
-6.6579

> <Gold.Chemscore.Metal.Weighted>
-0.0000

> <Gold.Chemscore.Lipo.Weighted>
-12.6952

> <Gold.Chemscore.Internal_Hbond.Weighted>
0.0000

> <Gold.Chemscore.DEClash.Weighted>
0.0089

> <Gold.Chemscore.DEInternal.Weighted>
2.7077

> <Gold.Chemscore.Rot.Weighted>
3.8341

> <Gold.Chemscore.Internal.Correction.Weighted>
   9.000000E+99

> <Gold.Protein.RotatedTorsions>
[ 6907 6896 6895 6894 ] final   63.08 input  -60.11 | X-H torsion
[ 7974 7965 7964 7962 ] final  179.48 input  175.53 | X-H torsion
[ 8008 7997 7996 7995 ] final  165.36 input   59.86 | X-H torsion
[ 10167 10162 10161 10158 ] final -132.27 input  -65.29 | X-H torsion
[ 10718 10713 10712 10709 ] final   93.10 input   66.30 | X-H torsion
[ 10763 10752 10751 10750 ] final  106.27 input  -60.55 | X-H torsion
[ 11005 11000 10999 10996 ] final  -82.84 input  -57.11 | X-H torsion

> <Gold.Protein.ActiveResidues>
 VAL166  LYS551  ARG553  GLY616  TRP617  ASP618  TYR619  PRO620  LYS621  CYS622 
 ASP623  PHE694  ASN695  SER759  ASP760  ASP761  ALA762  ILE779  LEU786  VAL792 
 PHE793  MET794  SER795  GLU796  ALA797  LYS798  CYS799  TRP800  GLU811  SER814 

> <Gold.Protein.RotatedAtoms>
  152.4225  134.5930  159.9979 H   0  0  0  0  0  0  0  0  0  0  0  0  # atno 6907 bound_to 6896
  151.6076  133.3344  159.3068 H   0  0  0  0  0  0  0  0  0  0  0  0  # atno 6908 bound_to 6896
  150.8113  134.7307  159.6756 H   0  0  0  0  0  0  0  0  0  0  0  0  # atno 6909 bound_to 6896
  144.7145  140.0554  143.6434 H   0  0  0  0  0  0  0  0  0  0  0  0  # atno 7974 bound_to 7965
  156.1807  140.1672  156.8280 H   0  0  0  0  0  0  0  0  0  0  0  0  # atno 8008 bound_to 7997
  154.5356  140.0747  156.8455 H   0  0  0  0  0  0  0  0  0  0  0  0  # atno 8009 bound_to 7997
  155.3317  140.3379  155.4242 H   0  0  0  0  0  0  0  0  0  0  0  0  # atno 8010 bound_to 7997
  139.9102  143.6503  152.2577 H   0  0  0  0  0  0  0  0  0  0  0  0  # atno 10167 bound_to 10162
  157.6956  131.0466  150.3983 H   0  0  0  0  0  0  0  0  0  0  0  0  # atno 10718 bound_to 10713
  153.3907  135.3882  155.1921 H   0  0  0  0  0  0  0  0  0  0  0  0  # atno 10763 bound_to 10752
  154.8719  135.3747  154.4741 H   0  0  0  0  0  0  0  0  0  0  0  0  # atno 10764 bound_to 10752
  153.5228  135.7086  153.5784 H   0  0  0  0  0  0  0  0  0  0  0  0  # atno 10765 bound_to 10752
  141.1661  133.7264  156.8632 H   0  0  0  0  0  0  0  0  0  0  0  0  # atno 11005 bound_to 11000
  145.9909  139.3014  143.0985 LP  0  0  0  0  0  0  0  0  0  0  0  0  # atno 17320 bound_to 7965
  145.8904  140.9307  143.0555 LP  0  0  0  0  0  0  0  0  0  0  0  0  # atno 17321 bound_to 7965
  139.6949  144.7642  151.1374 LP  0  0  0  0  0  0  0  0  0  0  0  0  # atno 17342 bound_to 10162
  140.7687  143.5538  150.9175 LP  0  0  0  0  0  0  0  0  0  0  0  0  # atno 17343 bound_to 10162
  156.4379  130.3985  149.6717 LP  0  0  0  0  0  0  0  0  0  0  0  0  # atno 17370 bound_to 10713
  156.3911  130.7627  151.2628 LP  0  0  0  0  0  0  0  0  0  0  0  0  # atno 17371 bound_to 10713
  140.1834  134.9017  157.2975 LP  0  0  0  0  0  0  0  0  0  0  0  0  # atno 17394 bound_to 11000
  140.2370  134.3841  155.7497 LP  0  0  0  0  0  0  0  0  0  0  0  0  # atno 17395 bound_to 11000

$$$$
