AV-unprocessed.smi:960|AV-procd|sdf|4271|dock10
  -GOLD-   22720 2183D 1   1.00000     0.00000
 Structure written by MMmdl.
 46 47  0  0  0  0  0  0  0  0  2 V2000
  146.7222  131.2931  152.6005 C   0  0  0  0  0  0  0  0  0  0  0  0
  146.4393  132.2489  151.6998 C   0  0  0  0  0  0  0  0  0  0  0  0
  145.3015  132.1022  150.7055 C   0  0  0  0  0  0  0  0  0  0  0  0
  147.2229  133.5512  151.6434 C   0  0  0  0  0  0  0  0  0  0  0  0
  146.3835  134.7438  151.9319 N   0  3  2  0  0  0  0  0  0  0  0  0
  145.6622  134.6026  153.2232 C   0  0  0  0  0  0  0  0  0  0  0  0
  144.9189  135.8948  153.5966 C   0  0  0  0  0  0  0  0  0  0  0  0
  143.9409  136.3129  152.4838 C   0  0  1  0  0  0  0  0  0  0  0  0
  143.3063  137.5902  152.7965 N   0  0  0  0  0  0  0  0  0  0  0  0
  142.0721  137.7353  153.2997 C   0  0  0  0  0  0  0  0  0  0  0  0
  141.3249  136.7909  153.5530 O   0  0  0  0  0  0  0  0  0  0  0  0
  141.7597  139.0291  153.4674 N   0  0  0  0  0  0  0  0  0  0  0  0
  140.5473  139.5506  153.9846 C   0  0  0  0  0  0  0  0  0  0  0  0
  139.2372  138.9872  153.9704 C   0  0  0  0  0  0  0  0  0  0  0  0
  138.7277  137.6854  153.4179 C   0  0  0  0  0  0  0  0  0  0  0  0
  138.3943  139.7920  154.6008 N   0  0  0  0  0  0  0  0  0  0  0  0
  139.1476  140.8802  155.0674 O   0  0  0  0  0  0  0  0  0  0  0  0
  140.4442  140.7057  154.7020 C   0  0  0  0  0  0  0  0  0  0  0  0
  141.4153  141.7547  155.1269 C   0  0  0  0  0  0  0  0  0  0  0  0
  144.7014  136.4212  151.1534 C   0  0  0  0  0  0  0  0  0  0  0  0
  145.4606  135.1232  150.8287 C   0  0  0  0  0  0  0  0  0  0  0  0
  146.1540  130.3752  152.6426 H   0  0  0  0  0  0  0  0  0  0  0  0
  147.5276  131.4142  153.3104 H   0  0  0  0  0  0  0  0  0  0  0  0
  144.5323  132.8473  150.9091 H   0  0  0  0  0  0  0  0  0  0  0  0
  144.8403  131.1165  150.7736 H   0  0  0  0  0  0  0  0  0  0  0  0
  145.6431  132.2441  149.6814 H   0  0  0  0  0  0  0  0  0  0  0  0
  148.0764  133.5111  152.3222 H   0  0  0  0  0  0  0  0  0  0  0  0
  147.6334  133.6416  150.6364 H   0  0  0  0  0  0  0  0  0  0  0  0
  144.9587  133.7709  153.1586 H   0  0  0  0  0  0  0  0  0  0  0  0
  146.3700  134.3569  154.0159 H   0  0  0  0  0  0  0  0  0  0  0  0
  144.3836  135.7475  154.5354 H   0  0  0  0  0  0  0  0  0  0  0  0
  145.6424  136.6916  153.7754 H   0  0  0  0  0  0  0  0  0  0  0  0
  143.1683  135.5486  152.3784 H   0  0  0  0  0  0  0  0  0  0  0  0
  143.8439  138.4247  152.6126 H   0  0  0  0  0  0  0  0  0  0  0  0
  142.4140  139.7073  153.1055 H   0  0  0  0  0  0  0  0  0  0  0  0
  139.4776  136.8993  153.5067 H   0  0  0  0  0  0  0  0  0  0  0  0
  138.4636  137.7831  152.3649 H   0  0  0  0  0  0  0  0  0  0  0  0
  137.8384  137.3459  153.9500 H   0  0  0  0  0  0  0  0  0  0  0  0
  142.4419  141.4352  154.9474 H   0  0  0  0  0  0  0  0  0  0  0  0
  141.3108  141.9706  156.1901 H   0  0  0  0  0  0  0  0  0  0  0  0
  141.2482  142.6796  154.5752 H   0  0  0  0  0  0  0  0  0  0  0  0
  144.0079  136.6527  150.3440 H   0  0  0  0  0  0  0  0  0  0  0  0
  145.4104  137.2496  151.1984 H   0  0  0  0  0  0  0  0  0  0  0  0
  146.0202  135.2849  149.9090 H   0  0  0  0  0  0  0  0  0  0  0  0
  144.7583  134.3094  150.6409 H   0  0  0  0  0  0  0  0  0  0  0  0
  147.0241  135.5159  152.0490 H   0  0  0  0  0  0  0  0  0  0  0  0
  1  2  2  0  0  0  0
  1 22  1  0  0  0  0
  1 23  1  0  0  0  0
  2  3  1  0  0  0  0
  2  4  1  0  0  0  0
  3 24  1  0  0  0  0
  3 25  1  0  0  0  0
  3 26  1  0  0  0  0
  4  5  1  0  0  0  0
  4 27  1  0  0  0  0
  4 28  1  0  0  0  0
  5 21  1  0  0  0  0
  5  6  1  0  0  0  0
  5 46  1  0  0  0  0
  6  7  1  0  0  0  0
  6 29  1  0  0  0  0
  6 30  1  0  0  0  0
  7  8  1  0  0  0  0
  7 31  1  0  0  0  0
  7 32  1  0  0  0  0
  8  9  1  0  0  0  0
  8 20  1  0  0  0  0
  8 33  1  0  0  0  0
  9 10  1  0  0  0  0
  9 34  1  0  0  0  0
 10 11  2  0  0  0  0
 10 12  1  0  0  0  0
 12 13  1  0  0  0  0
 12 35  1  0  0  0  0
 13 18  2  0  0  0  0
 13 14  1  0  0  0  0
 14 15  1  0  0  0  0
 14 16  2  0  0  0  0
 15 36  1  0  0  0  0
 15 37  1  0  0  0  0
 15 38  1  0  0  0  0
 16 17  1  0  0  0  0
 17 18  1  0  0  0  0
 18 19  1  0  0  0  0
 19 39  1  0  0  0  0
 19 40  1  0  0  0  0
 19 41  1  0  0  0  0
 20 21  1  0  0  0  0
 20 42  1  0  0  0  0
 20 43  1  0  0  0  0
 21 44  1  0  0  0  0
 21 45  1  0  0  0  0
M  CHG  1   5   1
M  END
> <s_m_source_file>
AV-unprocessed.smi

> <i_m_source_file_index>
960

> <i_lp_mmshare_version>
43012

> <i_f3d_flags>
0

> <s_epik_input>
W0NIMl09QyhbQ0gzXSlbQ0gyXU4xW0NIMl1bQ0gyXVtDSF0oW0NIMl1bQ0gyXTEpW05IXUMoPU8pW05IXWMyYyhbQ0gzXSlub2MyW0NIM10=

> <s_epik_cmdline>
J2VwaWtfcHl0aG9uJywgJy1waCcsICc3LjAnLCAnLXRuJywgJzgnLCAnLW1hJywgJzIwMCcsICctbWV0YWxfYmluZGluZycsICctaW1hZScsICc8aW5maWxlLm1hZT4nLCAnLW9tYWUnLCAnPG91dGZpbGUubWFlPic=

> <r_epik_Ionization_Penalty>
0.01938

> <r_epik_Ionization_Penalty_Charging>
0.0193505

> <r_epik_Ionization_Penalty_Neutral>
2.94909e-05

> <r_epik_State_Penalty>
0.0154499

> <r_epik_Charging_Adjusted_Penalty>
0.0348004

> <i_epik_Tot_Q>
1

> <i_epik_Tot_abs_Q>
1

> <r_epik_Metal_State_Penalty>
0.0154499

> <b_epik_Metal_Only>
0

> <s_lp_Force_Field>
OPLS_2005

> <r_lp_Energy>
20.2595

> <b_lp_Chiralities_Consistent>
1

> <s_lp_Variant>
AV-unprocessed.smi:960-1

> <Gold.Version>
5.8.1

> <Gold.Id.Protein>
6NUR|6NUR_protein|mol2

> <Gold.PLP.Fitness>
39.5199

> <Gold.PLP.PLP>
-29.4259

> <Gold.PLP.part.hbond>
-4.2000

> <Gold.PLP.part.metal>
0.0000

> <Gold.PLP.part.buried>
1.3669

> <Gold.PLP.part.nonpolar>
-24.9368

> <Gold.PLP.part.repulsive>
0.3145

> <Gold.PLP.ligand.clash>
0.0000

> <Gold.PLP.ligand.torsion>
0.5106

> <Gold.PLP.Chemscore.Hbond>
3.6004

> <Gold.PLP.Chemscore.CHOScore>
0.0000

> <Gold.PLP.Chemscore.Metal>
0.0000

> <Gold.Chemscore.Hbonds>
donor molecule, donor type, donor heavy atom, donor atom, acceptor molecule, acceptor atom, score
      L1  H     5    46       P1  7948  1.84
      L1  H     9    34       P1 10175  0.82
      L1  H    12    35       P1 10175  0.98

> <Gold.PLP.Chemscore.Internal.Correction>
0.3141

> <Gold.Rescore>
     Score         DG    S(hbond)    S(metal)    S(lipo)     H(rot)  DE(clash)    DE(int)     intcor
     15.78     -19.26       2.56        0.00      74.25       1.35       1.52       1.96       ----

> <Gold.Chemscore.Fitness>
15.7751

> <Gold.Chemscore.DG>
-19.2600

> <Gold.Chemscore.ZeroCoef>
-5.4800

> <Gold.Chemscore.Hbond>
2.5581

> <Gold.Chemscore.Metal>
0.0000

> <Gold.Chemscore.Lipo>
74.2472

> <Gold.Chemscore.Internal_Hbond>
0.0000

> <Gold.Chemscore.DEClash>
1.5215

> <Gold.Chemscore.DEInternal>
1.9634

> <Gold.Chemscore.Rot>
1.3480

> <Gold.Chemscore.Internal.Correction>
   9.000000E+99

> <Gold.Chemscore.Hbonds>
donor molecule, donor type, donor heavy atom, donor atom, acceptor molecule, acceptor atom, score
      L1  H     5    46       P1  7948  0.84
      L1  H     9    34       P1 10175  0.76
      L1  H    12    35       P1 10175  0.87

> <Gold.Chemscore.Hbond.Weighted>
-8.5439

> <Gold.Chemscore.Metal.Weighted>
-0.0000

> <Gold.Chemscore.Lipo.Weighted>
-8.6869

> <Gold.Chemscore.Internal_Hbond.Weighted>
0.0000

> <Gold.Chemscore.DEClash.Weighted>
1.5215

> <Gold.Chemscore.DEInternal.Weighted>
1.9634

> <Gold.Chemscore.Rot.Weighted>
3.4509

> <Gold.Chemscore.Internal.Correction.Weighted>
   9.000000E+99

> <Gold.Protein.RotatedTorsions>
[ 6907 6896 6895 6894 ] final    0.50 input  -60.11 | X-H torsion
[ 7974 7965 7964 7962 ] final  -31.44 input  175.53 | X-H torsion
[ 8008 7997 7996 7995 ] final   14.51 input   59.86 | X-H torsion
[ 10167 10162 10161 10158 ] final  152.90 input  -65.29 | X-H torsion
[ 10718 10713 10712 10709 ] final  103.96 input   66.30 | X-H torsion
[ 10763 10752 10751 10750 ] final -151.48 input  -60.55 | X-H torsion
[ 11005 11000 10999 10996 ] final  -38.52 input  -57.11 | X-H torsion

> <Gold.Protein.ActiveResidues>
 VAL166  LYS551  ARG553  GLY616  TRP617  ASP618  TYR619  PRO620  LYS621  CYS622 
 ASP623  PHE694  ASN695  SER759  ASP760  ASP761  ALA762  ILE779  LEU786  VAL792 
 PHE793  MET794  SER795  GLU796  ALA797  LYS798  CYS799  TRP800  GLU811  SER814 

> <Gold.Protein.RotatedAtoms>
  151.5774  135.1060  160.0008 H   0  0  0  0  0  0  0  0  0  0  0  0  # atno 6907 bound_to 6896
  152.4371  133.7376  159.6633 H   0  0  0  0  0  0  0  0  0  0  0  0  # atno 6908 bound_to 6896
  150.8270  133.8085  159.3137 H   0  0  0  0  0  0  0  0  0  0  0  0  # atno 6909 bound_to 6896
  146.1067  140.5667  142.8796 H   0  0  0  0  0  0  0  0  0  0  0  0  # atno 7974 bound_to 7965
  154.8495  140.2927  155.5608 H   0  0  0  0  0  0  0  0  0  0  0  0  # atno 8008 bound_to 7997
  156.3016  140.2499  156.3383 H   0  0  0  0  0  0  0  0  0  0  0  0  # atno 8009 bound_to 7997
  154.9037  140.0390  157.1897 H   0  0  0  0  0  0  0  0  0  0  0  0  # atno 8010 bound_to 7997
  139.4830  144.5319  151.7709 H   0  0  0  0  0  0  0  0  0  0  0  0  # atno 10167 bound_to 10162
  157.6756  131.0792  150.5635 H   0  0  0  0  0  0  0  0  0  0  0  0  # atno 10718 bound_to 10713
  154.8055  135.3259  154.7441 H   0  0  0  0  0  0  0  0  0  0  0  0  # atno 10763 bound_to 10752
  153.8101  135.6896  153.4846 H   0  0  0  0  0  0  0  0  0  0  0  0  # atno 10764 bound_to 10752
  153.1798  135.4591  154.9957 H   0  0  0  0  0  0  0  0  0  0  0  0  # atno 10765 bound_to 10752
  141.0033  133.6944  156.2064 H   0  0  0  0  0  0  0  0  0  0  0  0  # atno 11005 bound_to 11000
  144.7477  140.5110  143.6824 LP  0  0  0  0  0  0  0  0  0  0  0  0  # atno 17320 bound_to 7965
  145.5746  139.1485  143.3269 LP  0  0  0  0  0  0  0  0  0  0  0  0  # atno 17321 bound_to 7965
  140.4846  144.1400  150.5938 LP  0  0  0  0  0  0  0  0  0  0  0  0  # atno 17342 bound_to 10162
  140.4240  143.2598  151.9680 LP  0  0  0  0  0  0  0  0  0  0  0  0  # atno 17343 bound_to 10162
  156.5937  130.4336  149.5926 LP  0  0  0  0  0  0  0  0  0  0  0  0  # atno 17370 bound_to 10713
  156.2562  130.6936  151.1690 LP  0  0  0  0  0  0  0  0  0  0  0  0  # atno 17371 bound_to 10713
  140.6853  134.4724  157.5589 LP  0  0  0  0  0  0  0  0  0  0  0  0  # atno 17394 bound_to 11000
  139.9050  134.8469  156.1741 LP  0  0  0  0  0  0  0  0  0  0  0  0  # atno 17395 bound_to 11000

$$$$
