AV-unprocessed.smi:1760|AV-procd|sdf|7090|dock9
  -GOLD-   22720 8303D 1   1.00000     0.00000
 Structure written by MMmdl.
 44 46  0  0  0  0  0  0  0  0  2 V2000
  154.1293  139.9747  160.7324 O   0  0  0  0  0  0  0  0  0  0  0  0
  153.3872  139.0769  160.3352 C   0  0  0  0  0  0  0  0  0  0  0  0
  152.4219  139.2063  159.4064 N   0  0  0  0  0  0  0  0  0  0  0  0
  152.0144  140.3503  158.6994 C   0  0  0  0  0  0  0  0  0  0  0  0
  152.1367  141.6270  159.1479 C   0  0  0  0  0  0  0  0  0  0  0  0
  151.6859  142.7661  158.3655 C   0  0  0  0  0  0  0  0  0  0  0  0
  151.9073  144.1944  158.8386 C   0  0  0  0  0  0  0  0  0  0  0  0
  152.6892  144.8683  157.9940 F   0  0  0  0  0  0  0  0  0  0  0  0
  150.7395  144.8302  158.9198 F   0  0  0  0  0  0  0  0  0  0  0  0
  152.4766  144.2165  160.0438 F   0  0  0  0  0  0  0  0  0  0  0  0
  151.1422  142.4923  157.1652 C   0  0  0  0  0  0  0  0  0  0  0  0
  150.9900  141.1816  156.7078 N   0  0  0  0  0  0  0  0  0  0  0  0
  151.3887  140.0866  157.3930 C   0  0  0  0  0  0  0  0  0  0  0  0
  151.2211  138.9628  156.9202 O   0  0  0  0  0  0  0  0  0  0  0  0
  153.4613  137.8107  160.7709 N   0  0  0  0  0  0  0  0  0  0  0  0
  154.4158  137.2969  161.7501 C   0  0  2  0  0  0  0  0  0  0  0  0
  155.0157  135.9717  161.2516 C   0  0  0  0  0  0  0  0  0  0  0  0
  155.9451  135.3485  162.3103 C   0  0  0  0  0  0  0  0  0  0  0  0
  155.2608  135.1650  163.6163 N   0  3  2  0  0  0  0  0  0  0  0  0
  154.3037  134.0335  163.6232 C   0  0  0  0  0  0  0  0  0  0  0  0
  154.0066  133.4993  165.0049 C   0  0  0  0  0  0  0  0  0  0  0  0
  154.9141  132.7269  164.0736 C   0  0  0  0  0  0  0  0  0  0  0  0
  154.6767  136.4333  164.1241 C   0  0  0  0  0  0  0  0  0  0  0  0
  153.7203  137.0813  163.1047 C   0  0  0  0  0  0  0  0  0  0  0  0
  150.5557  141.0580  155.8044 H   0  0  0  0  0  0  0  0  0  0  0  0
  151.9426  138.3591  159.1380 H   0  0  0  0  0  0  0  0  0  0  0  0
  152.5582  141.8378  160.1170 H   0  0  0  0  0  0  0  0  0  0  0  0
  150.7933  143.2418  156.4701 H   0  0  0  0  0  0  0  0  0  0  0  0
  152.8099  137.1439  160.3829 H   0  0  0  0  0  0  0  0  0  0  0  0
  155.2338  138.0050  161.8960 H   0  0  0  0  0  0  0  0  0  0  0  0
  154.2182  135.2707  161.0017 H   0  0  0  0  0  0  0  0  0  0  0  0
  155.5733  136.1398  160.3294 H   0  0  0  0  0  0  0  0  0  0  0  0
  156.3383  134.3943  161.9579 H   0  0  0  0  0  0  0  0  0  0  0  0
  156.8079  135.9981  162.4628 H   0  0  0  0  0  0  0  0  0  0  0  0
  153.5274  134.0408  162.8609 H   0  0  0  0  0  0  0  0  0  0  0  0
  154.4665  133.9927  165.8594 H   0  0  0  0  0  0  0  0  0  0  0  0
  153.0130  133.0928  165.1827 H   0  0  0  0  0  0  0  0  0  0  0  0
  154.5184  131.8117  163.6377 H   0  0  0  0  0  0  0  0  0  0  0  0
  155.9766  132.7072  164.3098 H   0  0  0  0  0  0  0  0  0  0  0  0
  154.1625  136.2548  165.0690 H   0  0  0  0  0  0  0  0  0  0  0  0
  155.4927  137.1228  164.3449 H   0  0  0  0  0  0  0  0  0  0  0  0
  153.3623  138.0349  163.4944 H   0  0  0  0  0  0  0  0  0  0  0  0
  152.8373  136.4539  162.9762 H   0  0  0  0  0  0  0  0  0  0  0  0
  155.9812  134.9056  164.2751 H   0  0  0  0  0  0  0  0  0  0  0  0
  1  2  2  0  0  0  0
  2  3  1  0  0  0  0
  2 15  1  0  0  0  0
  3  4  1  0  0  0  0
  3 26  1  0  0  0  0
  4 13  1  0  0  0  0
  4  5  2  0  0  0  0
  5  6  1  0  0  0  0
  5 27  1  0  0  0  0
  6  7  1  0  0  0  0
  6 11  2  0  0  0  0
  7  8  1  0  0  0  0
  7  9  1  0  0  0  0
  7 10  1  0  0  0  0
 11 12  1  0  0  0  0
 11 28  1  0  0  0  0
 12 25  1  0  0  0  0
 12 13  1  0  0  0  0
 13 14  2  0  0  0  0
 15 16  1  0  0  0  0
 15 29  1  0  0  0  0
 16 24  1  0  0  0  0
 16 17  1  0  0  0  0
 16 30  1  0  0  0  0
 17 18  1  0  0  0  0
 17 31  1  0  0  0  0
 17 32  1  0  0  0  0
 18 19  1  0  0  0  0
 18 33  1  0  0  0  0
 18 34  1  0  0  0  0
 19 20  1  0  0  0  0
 19 23  1  0  0  0  0
 19 44  1  0  0  0  0
 20 22  1  0  0  0  0
 20 21  1  0  0  0  0
 20 35  1  0  0  0  0
 21 22  1  0  0  0  0
 21 36  1  0  0  0  0
 21 37  1  0  0  0  0
 22 38  1  0  0  0  0
 22 39  1  0  0  0  0
 23 24  1  0  0  0  0
 23 40  1  0  0  0  0
 23 41  1  0  0  0  0
 24 42  1  0  0  0  0
 24 43  1  0  0  0  0
M  CHG  1  19   1
M  END
> <s_m_source_file>
AV-unprocessed.smi

> <i_m_source_file_index>
1760

> <i_lp_mmshare_version>
43012

> <i_f3d_flags>
0

> <s_epik_input>
W0NIMl0xW0NIMl1bQ0hdMU4oW0NIMl1bQ0gyXTIpW0NIMl1bQ0gyXVtDSF0yW05IXUMoPU8pW05IXWMzW2NIXWMoQyhGKShGKUYpW2NIXVtuSF1jMz1P

> <s_epik_cmdline>
J2VwaWtfcHl0aG9uJywgJy1waCcsICc3LjAnLCAnLXRuJywgJzgnLCAnLW1hJywgJzIwMCcsICctbWV0YWxfYmluZGluZycsICctaW1hZScsICc8aW5maWxlLm1hZT4nLCAnLW9tYWUnLCAnPG91dGZpbGUubWFlPic=

> <r_lp_tautomer_probability>
0.999

> <r_epik_Ionization_Penalty>
0.131122

> <r_epik_Ionization_Penalty_Charging>
0.131104

> <r_epik_Ionization_Penalty_Neutral>
1.84439e-05

> <r_epik_State_Penalty>
0.116042

> <r_epik_Charging_Adjusted_Penalty>
0.247146

> <i_epik_Tot_Q>
1

> <i_epik_Tot_abs_Q>
1

> <r_epik_Metal_State_Penalty>
0.492282

> <b_epik_Metal_Only>
0

> <s_lp_Force_Field>
OPLS_2005

> <r_lp_Energy>
39.2626

> <b_lp_Chiralities_Consistent>
1

> <s_lp_Variant>
AV-unprocessed.smi:1760-2

> <Gold.Version>
5.8.1

> <Gold.Id.Protein>
6NUR|6NUR_protein|mol2

> <Gold.PLP.Fitness>
47.5281

> <Gold.PLP.PLP>
-45.2435

> <Gold.PLP.part.hbond>
0.0000

> <Gold.PLP.part.metal>
0.0000

> <Gold.PLP.part.buried>
-7.2446

> <Gold.PLP.part.nonpolar>
-38.3313

> <Gold.PLP.part.repulsive>
0.2672

> <Gold.PLP.ligand.clash>
0.0000

> <Gold.PLP.ligand.torsion>
0.9941

> <Gold.PLP.Chemscore.Hbond>
0.0000

> <Gold.PLP.Chemscore.CHOScore>
0.9889

> <Gold.PLP.Chemscore.Metal>
0.0000

> <Gold.Chemscore.Hbonds>
donor molecule, donor type, donor heavy atom, donor atom, acceptor molecule, acceptor atom, score
      L1  C    11    28       P1  8028  0.99

> <Gold.PLP.Chemscore.Internal.Correction>
1.3061

> <Gold.Rescore>
     Score         DG    S(hbond)    S(metal)    S(lipo)     H(rot)  DE(clash)    DE(int)     intcor
     11.84     -13.86       0.00        0.00      99.81       1.29       0.03       1.98       ----

> <Gold.Chemscore.Fitness>
11.8433

> <Gold.Chemscore.DG>
-13.8616

> <Gold.Chemscore.ZeroCoef>
-5.4800

> <Gold.Chemscore.Hbond>
0.0000

> <Gold.Chemscore.Metal>
0.0000

> <Gold.Chemscore.Lipo>
99.8083

> <Gold.Chemscore.Internal_Hbond>
0.0000

> <Gold.Chemscore.DEClash>
0.0339

> <Gold.Chemscore.DEInternal>
1.9844

> <Gold.Chemscore.Rot>
1.2875

> <Gold.Chemscore.Internal.Correction>
   9.000000E+99

> <Gold.Chemscore.Hbond.Weighted>
-0.0000

> <Gold.Chemscore.Metal.Weighted>
-0.0000

> <Gold.Chemscore.Lipo.Weighted>
-11.6776

> <Gold.Chemscore.Internal_Hbond.Weighted>
0.0000

> <Gold.Chemscore.DEClash.Weighted>
0.0339

> <Gold.Chemscore.DEInternal.Weighted>
1.9844

> <Gold.Chemscore.Rot.Weighted>
3.2960

> <Gold.Chemscore.Internal.Correction.Weighted>
   9.000000E+99

> <Gold.Protein.RotatedTorsions>
[ 6907 6896 6895 6894 ] final   -3.45 input  -60.11 | X-H torsion
[ 7974 7965 7964 7962 ] final -159.12 input  175.53 | X-H torsion
[ 8008 7997 7996 7995 ] final -139.59 input   59.86 | X-H torsion
[ 10167 10162 10161 10158 ] final   65.51 input  -65.29 | X-H torsion
[ 10718 10713 10712 10709 ] final  138.00 input   66.30 | X-H torsion
[ 10763 10752 10751 10750 ] final   68.98 input  -60.55 | X-H torsion
[ 11005 11000 10999 10996 ] final  -34.95 input  -57.11 | X-H torsion

> <Gold.Protein.ActiveResidues>
 VAL166  LYS551  ARG553  GLY616  TRP617  ASP618  TYR619  PRO620  LYS621  CYS622 
 ASP623  PHE694  ASN695  SER759  ASP760  ASP761  ALA762  ILE779  LEU786  VAL792 
 PHE793  MET794  SER795  GLU796  ALA797  LYS798  CYS799  TRP800  GLU811  SER814 

> <Gold.Protein.RotatedAtoms>
  151.5136  135.1065  159.9859 H   0  0  0  0  0  0  0  0  0  0  0  0  # atno 6907 bound_to 6896
  152.4651  133.7901  159.6908 H   0  0  0  0  0  0  0  0  0  0  0  0  # atno 6908 bound_to 6896
  150.8631  133.7551  159.3011 H   0  0  0  0  0  0  0  0  0  0  0  0  # atno 6909 bound_to 6896
  144.7478  140.3730  143.6071 H   0  0  0  0  0  0  0  0  0  0  0  0  # atno 7974 bound_to 7965
  155.4474  140.0536  157.3004 H   0  0  0  0  0  0  0  0  0  0  0  0  # atno 8008 bound_to 7997
  154.4792  140.2074  155.9761 H   0  0  0  0  0  0  0  0  0  0  0  0  # atno 8009 bound_to 7997
  156.1179  140.3193  155.8170 H   0  0  0  0  0  0  0  0  0  0  0  0  # atno 8010 bound_to 7997
  140.1105  144.4823  150.6981 H   0  0  0  0  0  0  0  0  0  0  0  0  # atno 10167 bound_to 10162
  157.4300  131.1047  151.0260 H   0  0  0  0  0  0  0  0  0  0  0  0  # atno 10718 bound_to 10713
  153.0263  135.5227  154.7218 H   0  0  0  0  0  0  0  0  0  0  0  0  # atno 10763 bound_to 10752
  154.6271  135.2896  155.0262 H   0  0  0  0  0  0  0  0  0  0  0  0  # atno 10764 bound_to 10752
  154.1227  135.6605  153.4959 H   0  0  0  0  0  0  0  0  0  0  0  0  # atno 10765 bound_to 10752
  140.9757  133.7084  156.1598 H   0  0  0  0  0  0  0  0  0  0  0  0  # atno 11005 bound_to 11000
  145.7057  139.1672  143.2567 LP  0  0  0  0  0  0  0  0  0  0  0  0  # atno 17320 bound_to 7965
  146.1383  140.7092  142.9379 LP  0  0  0  0  0  0  0  0  0  0  0  0  # atno 17321 bound_to 7965
  140.6928  143.2386  151.5083 LP  0  0  0  0  0  0  0  0  0  0  0  0  # atno 17342 bound_to 10162
  139.5622  144.2129  152.1709 LP  0  0  0  0  0  0  0  0  0  0  0  0  # atno 17343 bound_to 10162
  157.1160  130.6041  149.5493 LP  0  0  0  0  0  0  0  0  0  0  0  0  # atno 17370 bound_to 10713
  155.9910  130.4963  150.7280 LP  0  0  0  0  0  0  0  0  0  0  0  0  # atno 17371 bound_to 10713
  140.7262  134.4304  157.5570 LP  0  0  0  0  0  0  0  0  0  0  0  0  # atno 17394 bound_to 11000
  139.8930  134.8742  156.2246 LP  0  0  0  0  0  0  0  0  0  0  0  0  # atno 17395 bound_to 11000

$$$$
