AV-unprocessed.smi:918|AV-procd|sdf|4163|dock6
  -GOLD-   22720 2 73D 1   1.00000     0.00000
 Structure written by MMmdl.
 31 32  0  0  0  0  0  0  0  0  2 V2000
  152.4293  138.2700  154.0067 O   0  0  0  0  0  0  0  0  0  0  0  0
  152.4577  139.0199  155.0083 C   0  0  0  0  0  0  0  0  0  0  0  0
  153.4742  139.2091  155.7081 O   0  5  0  0  0  0  0  0  0  0  0  0
  151.0699  139.7547  155.3629 C   0  0  0  0  0  0  0  0  0  0  0  0
  150.2886  140.1308  154.3263 C   0  0  0  0  0  0  0  0  0  0  0  0
  149.0371  140.7907  154.5529 C   0  0  0  0  0  0  0  0  0  0  0  0
  148.6322  141.0400  155.8026 C   0  0  0  0  0  0  0  0  0  0  0  0
  149.4322  140.6580  156.9642 C   0  0  0  0  0  0  0  0  0  0  0  0
  148.9952  140.9201  158.0829 O   0  0  0  0  0  0  0  0  0  0  0  0
  150.6378  140.0216  156.7216 N   0  0  0  0  0  0  0  0  0  0  0  0
  151.5263  139.5923  157.8444 C   0  0  0  0  0  0  0  0  0  0  0  0
  152.7506  140.4239  158.2846 C   0  0  0  0  0  0  0  0  0  0  0  0
  152.6104  140.7227  159.6669 O   0  0  0  0  0  0  0  0  0  0  0  0
  152.2680  142.0090  160.0296 C   0  0  0  0  0  0  0  0  0  0  0  0
  151.8080  142.9915  159.1154 C   0  0  0  0  0  0  0  0  0  0  0  0
  151.4772  144.2855  159.5618 C   0  0  0  0  0  0  0  0  0  0  0  0
  151.6005  144.6163  160.9234 C   0  0  0  0  0  0  0  0  0  0  0  0
  152.0556  143.6500  161.8388 C   0  0  0  0  0  0  0  0  0  0  0  0
  152.3872  142.3547  161.3948 C   0  0  0  0  0  0  0  0  0  0  0  0
  152.9434  141.1891  162.5419 Cl  0  0  0  0  0  0  0  0  0  0  0  0
  150.5801  139.9475  153.3025 H   0  0  0  0  0  0  0  0  0  0  0  0
  148.4227  141.0857  153.7151 H   0  0  0  0  0  0  0  0  0  0  0  0
  147.6863  141.5382  155.9580 H   0  0  0  0  0  0  0  0  0  0  0  0
  150.9066  139.4986  158.7365 H   0  0  0  0  0  0  0  0  0  0  0  0
  151.9227  138.6084  157.5921 H   0  0  0  0  0  0  0  0  0  0  0  0
  153.6705  139.8560  158.1358 H   0  0  0  0  0  0  0  0  0  0  0  0
  152.7986  141.3583  157.7227 H   0  0  0  0  0  0  0  0  0  0  0  0
  151.6997  142.7774  158.0631 H   0  0  0  0  0  0  0  0  0  0  0  0
  151.1280  145.0253  158.8567 H   0  0  0  0  0  0  0  0  0  0  0  0
  151.3465  145.6090  161.2650 H   0  0  0  0  0  0  0  0  0  0  0  0
  152.1504  143.9037  162.8845 H   0  0  0  0  0  0  0  0  0  0  0  0
  1  2  2  0  0  0  0
  2  3  1  0  0  0  0
  2  4  1  0  0  0  0
  4 10  1  0  0  0  0
  4  5  2  0  0  0  0
  5  6  1  0  0  0  0
  5 21  1  0  0  0  0
  6  7  2  0  0  0  0
  6 22  1  0  0  0  0
  7  8  1  0  0  0  0
  7 23  1  0  0  0  0
  8  9  2  0  0  0  0
  8 10  1  0  0  0  0
 10 11  1  0  0  0  0
 11 12  1  0  0  0  0
 11 24  1  0  0  0  0
 11 25  1  0  0  0  0
 12 13  1  0  0  0  0
 12 26  1  0  0  0  0
 12 27  1  0  0  0  0
 13 14  1  0  0  0  0
 14 19  1  0  0  0  0
 14 15  2  0  0  0  0
 15 16  1  0  0  0  0
 15 28  1  0  0  0  0
 16 17  2  0  0  0  0
 16 29  1  0  0  0  0
 17 18  1  0  0  0  0
 17 30  1  0  0  0  0
 18 19  2  0  0  0  0
 18 31  1  0  0  0  0
 19 20  1  0  0  0  0
M  CHG  1   3  -1
M  END
> <s_m_source_file>
AV-unprocessed.smi

> <i_m_source_file_index>
918

> <i_lp_mmshare_version>
43012

> <i_f3d_flags>
0

> <s_epik_input>
Tz1DKFtPSF0pYzFbY0hdW2NIXVtjSF1jKD1PKW4xW0NIMl1bQ0gyXU9jMltjSF1bY0hdW2NIXVtjSF1jMkNs

> <s_epik_cmdline>
J2VwaWtfcHl0aG9uJywgJy1waCcsICc3LjAnLCAnLXRuJywgJzgnLCAnLW1hJywgJzIwMCcsICctbWV0YWxfYmluZGluZycsICctaW1hZScsICc8aW5maWxlLm1hZT4nLCAnLW9tYWUnLCAnPG91dGZpbGUubWFlPic=

> <r_lp_tautomer_probability>
1

> <r_epik_Ionization_Penalty>
4.91901e-05

> <r_epik_Ionization_Penalty_Charging>
4.91901e-05

> <r_epik_Ionization_Penalty_Neutral>
0

> <r_epik_State_Penalty>
-0

> <r_epik_Charging_Adjusted_Penalty>
4.91901e-05

> <i_epik_Tot_Q>
-1

> <i_epik_Tot_abs_Q>
1

> <r_epik_Metal_State_Penalty>
-0

> <b_epik_Metal_Only>
0

> <s_lp_Force_Field>
OPLS_2005

> <r_lp_Energy>
37.328

> <b_lp_Chiralities_Consistent>
1

> <s_lp_Variant>
AV-unprocessed.smi:918-1

> <Gold.Version>
5.8.1

> <Gold.Id.Protein>
6NUR|6NUR_protein|mol2

> <Gold.PLP.Fitness>
53.9679

> <Gold.PLP.PLP>
-45.7856

> <Gold.PLP.part.hbond>
-2.0000

> <Gold.PLP.part.metal>
0.0000

> <Gold.PLP.part.buried>
-4.8289

> <Gold.PLP.part.nonpolar>
-39.0146

> <Gold.PLP.part.repulsive>
0.2031

> <Gold.PLP.ligand.clash>
0.0000

> <Gold.PLP.ligand.torsion>
1.6182

> <Gold.PLP.Chemscore.Hbond>
3.7600

> <Gold.PLP.Chemscore.CHOScore>
0.0000

> <Gold.PLP.Chemscore.Metal>
0.0000

> <Gold.Chemscore.Hbonds>
donor molecule, donor type, donor heavy atom, donor atom, acceptor molecule, acceptor atom, score
      P1  H  7997  8008       L1     3  1.17

> <Gold.PLP.Chemscore.Internal.Correction>
0.1387

> <Gold.Rescore>
     Score         DG    S(hbond)    S(metal)    S(lipo)     H(rot)  DE(clash)    DE(int)     intcor
     17.77     -21.48       1.85        0.00     119.77       1.64       0.13       3.59       ----

> <Gold.Chemscore.Fitness>
17.7671

> <Gold.Chemscore.DG>
-21.4838

> <Gold.Chemscore.ZeroCoef>
-5.4800

> <Gold.Chemscore.Hbond>
1.8535

> <Gold.Chemscore.Metal>
0.0000

> <Gold.Chemscore.Lipo>
119.7671

> <Gold.Chemscore.Internal_Hbond>
0.0000

> <Gold.Chemscore.DEClash>
0.1277

> <Gold.Chemscore.DEInternal>
3.5890

> <Gold.Chemscore.Rot>
1.6405

> <Gold.Chemscore.Internal.Correction>
   9.000000E+99

> <Gold.Chemscore.Hbonds>
donor molecule, donor type, donor heavy atom, donor atom, acceptor molecule, acceptor atom, score
      P1  H  7997  8008       L1     3  0.57

> <Gold.Chemscore.Hbond.Weighted>
-6.1907

> <Gold.Chemscore.Metal.Weighted>
-0.0000

> <Gold.Chemscore.Lipo.Weighted>
-14.0128

> <Gold.Chemscore.Internal_Hbond.Weighted>
0.0000

> <Gold.Chemscore.DEClash.Weighted>
0.1277

> <Gold.Chemscore.DEInternal.Weighted>
3.5890

> <Gold.Chemscore.Rot.Weighted>
4.1996

> <Gold.Chemscore.Internal.Correction.Weighted>
   9.000000E+99

> <Gold.Protein.RotatedTorsions>
[ 6907 6896 6895 6894 ] final  175.04 input  -60.11 | X-H torsion
[ 7974 7965 7964 7962 ] final  -32.10 input  175.53 | X-H torsion
[ 8008 7997 7996 7995 ] final  -36.60 input   59.86 | X-H torsion
[ 10167 10162 10161 10158 ] final   78.45 input  -65.29 | X-H torsion
[ 10718 10713 10712 10709 ] final   25.24 input   66.30 | X-H torsion
[ 10763 10752 10751 10750 ] final  -77.35 input  -60.55 | X-H torsion
[ 11005 11000 10999 10996 ] final -140.78 input  -57.11 | X-H torsion

> <Gold.Protein.ActiveResidues>
 VAL166  LYS551  ARG553  GLY616  TRP617  ASP618  TYR619  PRO620  LYS621  CYS622 
 ASP623  PHE694  ASN695  SER759  ASP760  ASP761  ALA762  ILE779  LEU786  VAL792 
 PHE793  MET794  SER795  GLU796  ALA797  LYS798  CYS799  TRP800  GLU811  SER814 

> <Gold.Protein.RotatedAtoms>
  151.7427  133.3323  159.3369 H   0  0  0  0  0  0  0  0  0  0  0  0  # atno 6907 bound_to 6896
  150.7567  134.6264  159.6172 H   0  0  0  0  0  0  0  0  0  0  0  0  # atno 6908 bound_to 6896
  152.3520  134.6994  160.0285 H   0  0  0  0  0  0  0  0  0  0  0  0  # atno 6909 bound_to 6896
  146.1016  140.5750  142.8818 H   0  0  0  0  0  0  0  0  0  0  0  0  # atno 7974 bound_to 7965
  154.4070  140.1626  156.2400 H   0  0  0  0  0  0  0  0  0  0  0  0  # atno 8008 bound_to 7997
  155.9209  140.3421  155.6149 H   0  0  0  0  0  0  0  0  0  0  0  0  # atno 8009 bound_to 7997
  155.7223  140.0770  157.2316 H   0  0  0  0  0  0  0  0  0  0  0  0  # atno 8010 bound_to 7997
  139.9708  144.5896  150.7987 H   0  0  0  0  0  0  0  0  0  0  0  0  # atno 10167 bound_to 10162
  157.1907  130.6845  149.6149 H   0  0  0  0  0  0  0  0  0  0  0  0  # atno 10718 bound_to 10713
  154.5118  135.5767  153.6610 H   0  0  0  0  0  0  0  0  0  0  0  0  # atno 10763 bound_to 10752
  152.9898  135.6160  154.2869 H   0  0  0  0  0  0  0  0  0  0  0  0  # atno 10764 bound_to 10752
  154.2784  135.2851  155.2687 H   0  0  0  0  0  0  0  0  0  0  0  0  # atno 10765 bound_to 10752
  140.8389  134.2426  157.4820 H   0  0  0  0  0  0  0  0  0  0  0  0  # atno 11005 bound_to 11000
  144.7437  140.5012  143.6851 LP  0  0  0  0  0  0  0  0  0  0  0  0  # atno 17320 bound_to 7965
  145.5843  139.1491  143.3218 LP  0  0  0  0  0  0  0  0  0  0  0  0  # atno 17321 bound_to 7965
  140.7522  143.2987  151.3137 LP  0  0  0  0  0  0  0  0  0  0  0  0  # atno 17342 bound_to 10162
  139.6483  144.0410  152.2607 LP  0  0  0  0  0  0  0  0  0  0  0  0  # atno 17343 bound_to 10162
  155.9712  130.4615  150.6113 LP  0  0  0  0  0  0  0  0  0  0  0  0  # atno 17370 bound_to 10713
  157.3863  131.0789  151.1433 LP  0  0  0  0  0  0  0  0  0  0  0  0  # atno 17371 bound_to 10713
  139.8703  134.9625  156.4431 LP  0  0  0  0  0  0  0  0  0  0  0  0  # atno 17394 bound_to 11000
  140.8917  133.7843  155.9579 LP  0  0  0  0  0  0  0  0  0  0  0  0  # atno 17395 bound_to 11000

$$$$
