AV-unprocessed.smi:2041|AV-procd|sdf|8293|dock2
  -GOLD-   2272010563D 1   1.00000     0.00000
 Structure written by MMmdl.
 30 31  0  0  0  0  0  0  0  0  2 V2000
  150.9965  140.8613  157.1882 O   0  0  0  0  0  0  0  0  0  0  0  0
  150.7026  141.9926  156.7948 C   0  0  0  0  0  0  0  0  0  0  0  0
  151.2794  143.1522  157.1857 N   0  5  0  0  0  0  0  0  0  0  0  0
  151.7297  143.2873  158.4437 C   0  0  0  0  0  0  0  0  0  0  0  0
  152.0797  142.2474  159.2096 N   0  0  0  0  0  0  0  0  0  0  0  0
  152.5134  142.6176  160.4839 C   0  0  0  0  0  0  0  0  0  0  0  0
  152.4837  143.9702  160.6970 C   0  0  0  0  0  0  0  0  0  0  0  0
  151.9073  144.8249  159.2945 S   0  0  0  0  0  0  0  0  0  0  0  0
  149.7271  142.1532  155.8872 N   0  0  0  0  0  0  0  0  0  0  0  0
  148.9355  141.0864  155.2674 C   0  0  1  0  0  0  0  0  0  0  0  0
  148.1405  141.7126  154.0985 C   0  0  0  0  0  0  0  0  0  0  0  0
  146.8910  140.9099  153.6949 C   0  0  0  0  0  0  0  0  0  0  0  0
  147.1722  139.5113  153.1244 C   0  0  0  0  0  0  0  0  0  0  0  0
  147.8621  138.5643  154.1210 C   0  0  0  0  0  0  0  0  0  0  0  0
  149.2865  138.8435  154.2441 N   0  0  0  0  0  0  0  0  0  0  0  0
  149.8494  139.9654  154.7181 C   0  0  0  0  0  0  0  0  0  0  0  0
  151.0732  140.0967  154.7064 O   0  0  0  0  0  0  0  0  0  0  0  0
  152.8246  141.8505  161.1771 H   0  0  0  0  0  0  0  0  0  0  0  0
  152.7626  144.5133  161.5873 H   0  0  0  0  0  0  0  0  0  0  0  0
  149.5271  143.0965  155.5897 H   0  0  0  0  0  0  0  0  0  0  0  0
  148.2487  140.6798  156.0117 H   0  0  0  0  0  0  0  0  0  0  0  0
  147.7982  142.7058  154.3941 H   0  0  0  0  0  0  0  0  0  0  0  0
  148.7830  141.8733  153.2308 H   0  0  0  0  0  0  0  0  0  0  0  0
  146.2251  140.8232  154.5543 H   0  0  0  0  0  0  0  0  0  0  0  0
  146.3381  141.4819  152.9489 H   0  0  0  0  0  0  0  0  0  0  0  0
  146.2202  139.0683  152.8307 H   0  0  0  0  0  0  0  0  0  0  0  0
  147.7604  139.5882  152.2089 H   0  0  0  0  0  0  0  0  0  0  0  0
  147.3788  138.5970  155.0985 H   0  0  0  0  0  0  0  0  0  0  0  0
  147.7669  137.5380  153.7656 H   0  0  0  0  0  0  0  0  0  0  0  0
  149.9123  138.1272  153.9056 H   0  0  0  0  0  0  0  0  0  0  0  0
  1  2  2  0  0  0  0
  2  3  1  0  0  0  0
  2  9  1  0  0  0  0
  3  4  1  0  0  0  0
  4  8  1  0  0  0  0
  4  5  2  0  0  0  0
  5  6  1  0  0  0  0
  6  7  2  0  0  0  0
  6 18  1  0  0  0  0
  7  8  1  0  0  0  0
  7 19  1  0  0  0  0
  9 10  1  0  0  0  0
  9 20  1  0  0  0  0
 10 16  1  0  0  0  0
 10 11  1  0  0  0  0
 10 21  1  0  0  0  0
 11 12  1  0  0  0  0
 11 22  1  0  0  0  0
 11 23  1  0  0  0  0
 12 13  1  0  0  0  0
 12 24  1  0  0  0  0
 12 25  1  0  0  0  0
 13 14  1  0  0  0  0
 13 26  1  0  0  0  0
 13 27  1  0  0  0  0
 14 15  1  0  0  0  0
 14 28  1  0  0  0  0
 14 29  1  0  0  0  0
 15 16  1  0  0  0  0
 15 30  1  0  0  0  0
 16 17  2  0  0  0  0
M  CHG  1   3  -1
M  END
> <s_m_source_file>
AV-unprocessed.smi

> <i_m_source_file_index>
2041

> <i_lp_mmshare_version>
43012

> <i_f3d_flags>
0

> <s_epik_input>
czFbY0hdW2NIXW5jMVtOSF1DKD1PKVtOSF1bQ0BASF0yW0NIMl1bQ0gyXVtDSDJdW0NIMl1bTkhdQzI9Tw==

> <s_epik_cmdline>
J2VwaWtfcHl0aG9uJywgJy1waCcsICc3LjAnLCAnLXRuJywgJzgnLCAnLW1hJywgJzIwMCcsICctbWV0YWxfYmluZGluZycsICctaW1hZScsICc8aW5maWxlLm1hZT4nLCAnLW9tYWUnLCAnPG91dGZpbGUubWFlPic=

> <r_lp_tautomer_probability>
1

> <r_epik_Ionization_Penalty>
7.83857

> <r_epik_Ionization_Penalty_Charging>
6.39911

> <r_epik_Ionization_Penalty_Neutral>
1.43945

> <r_epik_State_Penalty>
6.3991

> <r_epik_Charging_Adjusted_Penalty>
12.7982

> <i_epik_Tot_Q>
-1

> <i_epik_Tot_abs_Q>
1

> <r_epik_Metal_State_Penalty>
2.33024

> <b_epik_Metal_Only>
1

> <s_lp_Force_Field>
OPLS_2005

> <r_lp_Energy>
7.07092

> <b_lp_Chiralities_Consistent>
1

> <s_lp_Variant>
AV-unprocessed.smi:2041-4

> <Gold.Version>
5.8.1

> <Gold.Id.Protein>
6NUR|6NUR_protein|mol2

> <Gold.PLP.Fitness>
40.0253

> <Gold.PLP.PLP>
-34.9459

> <Gold.PLP.part.hbond>
-2.0411

> <Gold.PLP.part.metal>
0.0000

> <Gold.PLP.part.buried>
-5.2584

> <Gold.PLP.part.nonpolar>
-27.8250

> <Gold.PLP.part.repulsive>
0.3946

> <Gold.PLP.ligand.clash>
0.0000

> <Gold.PLP.ligand.torsion>
0.4647

> <Gold.PLP.Chemscore.Hbond>
2.0000

> <Gold.PLP.Chemscore.CHOScore>
0.0000

> <Gold.PLP.Chemscore.Metal>
0.0000

> <Gold.Chemscore.Hbonds>
donor molecule, donor type, donor heavy atom, donor atom, acceptor molecule, acceptor atom, score
      L1  H     9    20       P1  8028  1.00
      P1  H  7989  7998       L1    17  1.00

> <Gold.PLP.Chemscore.Internal.Correction>
0.0088

> <Gold.Rescore>
     Score         DG    S(hbond)    S(metal)    S(lipo)     H(rot)  DE(clash)    DE(int)     intcor
     14.76     -16.72       1.94        0.00      62.44       1.00       0.00       1.96       ----

> <Gold.Chemscore.Fitness>
14.7558

> <Gold.Chemscore.DG>
-16.7162

> <Gold.Chemscore.ZeroCoef>
-5.4800

> <Gold.Chemscore.Hbond>
1.9435

> <Gold.Chemscore.Metal>
0.0000

> <Gold.Chemscore.Lipo>
62.4361

> <Gold.Chemscore.Internal_Hbond>
0.0000

> <Gold.Chemscore.DEClash>
0.0042

> <Gold.Chemscore.DEInternal>
1.9561

> <Gold.Chemscore.Rot>
1.0000

> <Gold.Chemscore.Internal.Correction>
   9.000000E+99

> <Gold.Chemscore.Hbonds>
donor molecule, donor type, donor heavy atom, donor atom, acceptor molecule, acceptor atom, score
      L1  H     9    20       P1  8028  0.99
      P1  H  7989  7998       L1    17  0.86

> <Gold.Chemscore.Hbond.Weighted>
-6.4911

> <Gold.Chemscore.Metal.Weighted>
-0.0000

> <Gold.Chemscore.Lipo.Weighted>
-7.3050

> <Gold.Chemscore.Internal_Hbond.Weighted>
0.0000

> <Gold.Chemscore.DEClash.Weighted>
0.0042

> <Gold.Chemscore.DEInternal.Weighted>
1.9561

> <Gold.Chemscore.Rot.Weighted>
2.5600

> <Gold.Chemscore.Internal.Correction.Weighted>
   9.000000E+99

> <Gold.Protein.RotatedTorsions>
[ 6907 6896 6895 6894 ] final   97.86 input  -60.11 | X-H torsion
[ 7974 7965 7964 7962 ] final -176.22 input  175.53 | X-H torsion
[ 8008 7997 7996 7995 ] final   53.85 input   59.86 | X-H torsion
[ 10167 10162 10161 10158 ] final  104.01 input  -65.29 | X-H torsion
[ 10718 10713 10712 10709 ] final   10.73 input   66.30 | X-H torsion
[ 10763 10752 10751 10750 ] final   62.80 input  -60.55 | X-H torsion
[ 11005 11000 10999 10996 ] final -138.13 input  -57.11 | X-H torsion

> <Gold.Protein.ActiveResidues>
 VAL166  LYS551  ARG553  GLY616  TRP617  ASP618  TYR619  PRO620  LYS621  CYS622 
 ASP623  PHE694  ASN695  SER759  ASP760  ASP761  ALA762  ILE779  LEU786  VAL792 
 PHE793  MET794  SER795  GLU796  ALA797  LYS798  CYS799  TRP800  GLU811  SER814 

> <Gold.Protein.RotatedAtoms>
  152.5418  134.0669  159.8176 H   0  0  0  0  0  0  0  0  0  0  0  0  # atno 6907 bound_to 6896
  151.0789  133.5398  159.2629 H   0  0  0  0  0  0  0  0  0  0  0  0  # atno 6908 bound_to 6896
  151.2233  135.0535  159.9012 H   0  0  0  0  0  0  0  0  0  0  0  0  # atno 6909 bound_to 6896
  144.7127  140.1202  143.6405 H   0  0  0  0  0  0  0  0  0  0  0  0  # atno 7974 bound_to 7965
  155.4751  140.3466  155.4331 H   0  0  0  0  0  0  0  0  0  0  0  0  # atno 8008 bound_to 7997
  156.1075  140.1452  156.9412 H   0  0  0  0  0  0  0  0  0  0  0  0  # atno 8009 bound_to 7997
  154.4734  140.0893  156.7180 H   0  0  0  0  0  0  0  0  0  0  0  0  # atno 8010 bound_to 7997
  139.7214  144.7057  151.0867 H   0  0  0  0  0  0  0  0  0  0  0  0  # atno 10167 bound_to 10162
  156.9853  130.6021  149.5680 H   0  0  0  0  0  0  0  0  0  0  0  0  # atno 10718 bound_to 10713
  152.9995  135.5452  154.6251 H   0  0  0  0  0  0  0  0  0  0  0  0  # atno 10763 bound_to 10752
  154.5541  135.2829  155.0983 H   0  0  0  0  0  0  0  0  0  0  0  0  # atno 10764 bound_to 10752
  154.2211  135.6450  153.5197 H   0  0  0  0  0  0  0  0  0  0  0  0  # atno 10765 bound_to 10752
  140.8645  134.2127  157.4687 H   0  0  0  0  0  0  0  0  0  0  0  0  # atno 11005 bound_to 11000
  145.9377  139.2648  143.1287 LP  0  0  0  0  0  0  0  0  0  0  0  0  # atno 17320 bound_to 7965
  145.9456  140.8947  143.0285 LP  0  0  0  0  0  0  0  0  0  0  0  0  # atno 17321 bound_to 7965
  140.7754  143.5161  150.9593 LP  0  0  0  0  0  0  0  0  0  0  0  0  # atno 17342 bound_to 10162
  139.8848  143.7026  152.3152 LP  0  0  0  0  0  0  0  0  0  0  0  0  # atno 17343 bound_to 10162
  156.0228  130.5323  150.8324 LP  0  0  0  0  0  0  0  0  0  0  0  0  # atno 17370 bound_to 10713
  157.5497  131.0943  150.9713 LP  0  0  0  0  0  0  0  0  0  0  0  0  # atno 17371 bound_to 10713
  139.8708  134.9745  156.4850 LP  0  0  0  0  0  0  0  0  0  0  0  0  # atno 17394 bound_to 11000
  140.8644  133.8035  155.9298 LP  0  0  0  0  0  0  0  0  0  0  0  0  # atno 17395 bound_to 11000

$$$$
