#       Name:                AV-unprocessed.smi:243
#       Creating user name   scv26
#       Creation time:       Thu Mar 26 20:49:16 2020


#       File generated by GOLD software.
#

@<TRIPOS>MOLECULE
AV-unprocessed.smi:243
    65    68     1
SMALL
NO_CHARGES


@<TRIPOS>ATOM
      1 ****        -6.8891  -0.3365   0.1606 C.3            1 S1                 0.0000
      2 ****        -6.2547   0.8625   0.8808 C.3            1 S1                 0.0000
      3 ****        -4.7706   0.8324   0.8395 N.4            1 S1                 1.0000
      4 ****        -4.1631   1.6643   1.9079 C.3            1 S1                 0.0000
      5 ****        -2.6424   1.4648   1.9565 C.3            1 S1                 0.0000
      6 ****        -1.9925   1.7770   0.5904 C.3            1 S1                 0.0000
      7 ****        -0.5270   1.6509   0.6123 N.pl3          1 S1                 0.0000
      8 ****         0.2377   2.6109   1.3988 C.3            1 S1                 0.0000
      9 ****         0.0901   0.4484   0.4880 C.ar           1 S1                 0.0000
     10 ****        -0.4128  -0.6506   1.1080 N.ar           1 S1                 0.0000
     11 ****         0.2026  -1.8311   0.9918 C.ar           1 S1                 0.0000
     12 ****         1.3136  -2.1296   0.3159 N.ar           1 S1                 0.0000
     13 ****         1.8259  -1.0289  -0.3055 C.ar           1 S1                 0.0000
     14 ****         1.2811   0.2855  -0.2718 C.ar           1 S1                 0.0000
     15 ****         2.0613   1.1424  -1.0378 N.2            1 S1                 0.0000
     16 ****         3.0141   0.3784  -1.4973 C.2            1 S1                 0.0000
     17 ****         2.9591  -0.9377  -1.0955 N.pl3          1 S1                 0.0000
     18 ****         3.8855  -2.0010  -1.4558 C.3            1 S1                 0.0000
     19 ****         5.0453  -2.2040  -0.4471 C.3            1 S1                 0.0000
     20 ****         4.5092  -2.4963   0.8302 O.3            1 S1                 0.0000
     21 ****         5.9917  -1.0069  -0.3298 C.3            1 S1                 0.0000
     22 ****         7.1572  -1.4032  -1.2239 C.3            1 S1                 0.0000
     23 ****         7.2908  -2.7856  -0.9480 O.3            1 S1                 0.0000
     24 ****         5.9844  -3.3457  -0.8882 C.3            1 S1                 0.0000
     25 ****        -2.6841   0.9751  -0.5455 C.3            1 S1                 0.0000
     26 ****        -2.1531   1.3620  -1.9379 C.3            1 S1                 0.0000
     27 ****        -4.2122   1.1817  -0.4929 C.3            1 S1                 0.0000
     28 ****        -7.9704  -0.3379   0.2992 H              1 S1                 0.0000
     29 ****        -6.5065  -1.2795   0.5523 H              1 S1                 0.0000
     30 ****        -6.7040  -0.3168  -0.9130 H              1 S1                 0.0000
     31 ****        -6.6234   1.8019   0.4664 H              1 S1                 0.0000
     32 ****        -6.5847   0.8334   1.9201 H              1 S1                 0.0000
     33 ****        -4.4033   2.7151   1.7379 H              1 S1                 0.0000
     34 ****        -4.5863   1.3944   2.8763 H              1 S1                 0.0000
     35 ****        -2.2203   2.1068   2.7304 H              1 S1                 0.0000
     36 ****        -2.4375   0.4404   2.2643 H              1 S1                 0.0000
     37 ****        -2.1879   2.8305   0.3845 H              1 S1                 0.0000
     38 ****         0.5012   2.1900   2.3700 H              1 S1                 0.0000
     39 ****        -0.3370   3.5211   1.5713 H              1 S1                 0.0000
     40 ****         1.1574   2.8930   0.8864 H              1 S1                 0.0000
     41 ****        -0.2595  -2.6538   1.5171 H              1 S1                 0.0000
     42 ****         3.7909   0.7584  -2.1448 H              1 S1                 0.0000
     43 ****         3.3150  -2.9252  -1.5584 H              1 S1                 0.0000
     44 ****         4.2844  -1.7799  -2.4467 H              1 S1                 0.0000
     45 ****         5.2250  -2.6416   1.4297 H              1 S1                 0.0000
     46 ****         5.5537  -0.0517  -0.6132 H              1 S1                 0.0000
     47 ****         6.3587  -0.9027   0.6928 H              1 S1                 0.0000
     48 ****         6.9139  -1.2551  -2.2772 H              1 S1                 0.0000
     49 ****         8.0713  -0.8546  -0.9964 H              1 S1                 0.0000
     50 ****         5.9707  -4.2019  -0.2125 H              1 S1                 0.0000
     51 ****         5.7224  -3.7125  -1.8817 H              1 S1                 0.0000
     52 ****        -2.5018  -0.0901  -0.4034 H              1 S1                 0.0000
     53 ****        -2.2945   2.4253  -2.1344 H              1 S1                 0.0000
     54 ****        -2.6687   0.8080  -2.7227 H              1 S1                 0.0000
     55 ****        -1.0900   1.1455  -2.0404 H              1 S1                 0.0000
     56 ****        -4.6744   0.5656  -1.2633 H              1 S1                 0.0000
     57 ****        -4.4630   2.2171  -0.7295 H              1 S1                 0.0000
     58 ****        -4.4992  -0.1210   1.0345 H              1 S1                 0.0000
     59 ****        -1.2473  -0.5760   1.6539 LP             1 S1                 0.0000
     60 ****         1.7185  -3.0429   0.2708 LP             1 S1                 0.0000
     61 ****         1.9243   2.1196  -1.1997 LP             1 S1                 0.0000
     62 ****         3.9411  -3.3176   0.7777 LP             1 S1                 0.0000
     63 ****         3.9545  -1.7271   1.1473 LP             1 S1                 0.0000
     64 ****         7.7564  -2.9143  -0.0724 LP             1 S1                 0.0000
     65 ****         7.8176  -3.2280  -1.6738 LP             1 S1                 0.0000
@<TRIPOS>BOND
    1    1    2 1     
    2    1   28 1     
    3    1   29 1     
    4    1   30 1     
    5    2    3 1     
    6    2   31 1     
    7    2   32 1     
    8    3   27 1     
    9    3    4 1     
   10    3   58 1     
   11    4    5 1     
   12    4   33 1     
   13    4   34 1     
   14    5    6 1     
   15    5   35 1     
   16    5   36 1     
   17    6    7 1     
   18    6   25 1     
   19    6   37 1     
   20    7    8 1     
   21    7    9 1     
   22    8   38 1     
   23    8   39 1     
   24    8   40 1     
   25    9   14 ar    
   26    9   10 ar    
   27   10   11 ar    
   28   11   12 ar    
   29   11   41 1     
   30   12   13 ar    
   31   13   17 1     
   32   13   14 ar    
   33   14   15 1     
   34   15   16 2     
   35   16   17 1     
   36   16   42 1     
   37   17   18 1     
   38   18   19 1     
   39   18   43 1     
   40   18   44 1     
   41   19   24 1     
   42   19   20 1     
   43   19   21 1     
   44   20   45 1     
   45   21   22 1     
   46   21   46 1     
   47   21   47 1     
   48   22   23 1     
   49   22   48 1     
   50   22   49 1     
   51   23   24 1     
   52   24   50 1     
   53   24   51 1     
   54   25   26 1     
   55   25   27 1     
   56   25   52 1     
   57   26   53 1     
   58   26   54 1     
   59   26   55 1     
   60   27   56 1     
   61   27   57 1     
   62   10   59 1     
   63   12   60 1     
   64   15   61 1     
   65   20   62 1     
   66   20   63 1     
   67   23   64 1     
   68   23   65 1     
@<TRIPOS>SUBSTRUCTURE
      1 S1             1
@<TRIPOS>SET
LONE_PAIRS      STATIC     ATOMS    <user>   **** ""
7 59 60 61 62 63 64 65
DONOR_HYDROGENS      STATIC     ATOMS    <user>   **** ""
2 58 45
ATOM$BLUE        STATIC     ATOMS    COLORGROUP SYSTEM
7 59 60 61 62 63 64 65
ATOM$RED        STATIC     ATOMS    COLORGROUP SYSTEM
2 58 45
