#       Name:                AV-unprocessed.smi:2849
#       Creating user name   scv26
#       Creation time:       Fri Mar 27 15:41:29 2020


#       File generated by GOLD software.
#

@<TRIPOS>MOLECULE
AV-unprocessed.smi:2849
    59    62     1
SMALL
NO_CHARGES


@<TRIPOS>ATOM
      1 ****        -6.0095  -2.5132  -1.0002 C.3            1 S1                 0.0000
      2 ****        -4.5972  -2.9631  -0.9828 N.4            1 S1                 1.0000
      3 ****        -3.8456  -2.6075   0.2442 C.3            1 S1                 0.0000
      4 ****        -2.5734  -3.4815   0.3276 C.3            1 S1                 0.0000
      5 ****        -1.6988  -3.4341  -0.9399 C.3            1 S1                 0.0000
      6 ****        -2.5322  -3.4654  -2.2362 C.3            1 S1                 0.0000
      7 ****        -3.8112  -2.5969  -2.1850 C.3            1 S1                 0.0000
      8 ****        -3.5764  -1.0671  -2.2635 C.3            1 S1                 0.0000
      9 ****        -3.0981  -0.3887  -0.9562 C.3            1 S1                 0.0000
     10 ****        -1.6533  -0.1718  -0.9672 N.am           1 S1                 0.0000
     11 ****        -0.9839   0.7204  -0.2230 C.2            1 S1                 0.0000
     12 ****        -1.5307   1.4959   0.5601 O.2            1 S1                 0.0000
     13 ****         0.3365   0.6485  -0.4619 N.am           1 S1                 0.0000
     14 ****         1.4054   1.3348   0.1767 C.ar           1 S1                 0.0000
     15 ****         1.2886   2.0707   1.3804 C.ar           1 S1                 0.0000
     16 ****         2.4381   2.6785   1.9207 C.ar           1 S1                 0.0000
     17 ****         3.6693   2.5287   1.2505 C.ar           1 S1                 0.0000
     18 ****         4.8141   3.1292   1.7962 N.3            1 S1                 0.0000
     19 ****         5.9236   2.2320   2.0761 C.3            1 S1                 0.0000
     20 ****         7.1361   3.1412   2.2834 C.3            1 S1                 0.0000
     21 ****         6.7880   4.4335   1.5349 C.3            1 S1                 0.0000
     22 ****         5.3678   4.2145   1.0037 C.3            1 S1                 0.0000
     23 ****         3.7879   1.8260   0.0990 N.ar           1 S1                 0.0000
     24 ****         2.6827   1.2468  -0.4144 C.ar           1 S1                 0.0000
     25 ****        -3.6024  -1.0803   0.3399 C.3            1 S1                 0.0000
     26 ****        -6.0978  -1.4270  -0.9886 H              1 S1                 0.0000
     27 ****        -6.5428  -2.9040  -0.1333 H              1 S1                 0.0000
     28 ****        -6.5152  -2.8833  -1.8925 H              1 S1                 0.0000
     29 ****        -4.4605  -2.8876   1.1009 H              1 S1                 0.0000
     30 ****        -1.9805  -3.2103   1.2018 H              1 S1                 0.0000
     31 ****        -2.8821  -4.5156   0.4873 H              1 S1                 0.0000
     32 ****        -1.0571  -2.5599  -0.9223 H              1 S1                 0.0000
     33 ****        -1.0064  -4.2766  -0.9334 H              1 S1                 0.0000
     34 ****        -1.9117  -3.1828  -3.0872 H              1 S1                 0.0000
     35 ****        -2.8323  -4.4984  -2.4182 H              1 S1                 0.0000
     36 ****        -4.3994  -2.8749  -3.0609 H              1 S1                 0.0000
     37 ****        -2.9044  -0.8305  -3.0896 H              1 S1                 0.0000
     38 ****        -4.5239  -0.6048  -2.5425 H              1 S1                 0.0000
     39 ****        -3.5267   0.6157  -0.9652 H              1 S1                 0.0000
     40 ****        -1.1154  -0.7575  -1.5893 H              1 S1                 0.0000
     41 ****         0.6168   0.0125  -1.1940 H              1 S1                 0.0000
     42 ****         0.3546   2.1724   1.9094 H              1 S1                 0.0000
     43 ****         2.3743   3.2426   2.8398 H              1 S1                 0.0000
     44 ****         5.7234   1.6215   2.9571 H              1 S1                 0.0000
     45 ****         6.1016   1.5613   1.2344 H              1 S1                 0.0000
     46 ****         7.2698   3.3532   3.3451 H              1 S1                 0.0000
     47 ****         8.0541   2.6805   1.9180 H              1 S1                 0.0000
     48 ****         6.8140   5.2811   2.2207 H              1 S1                 0.0000
     49 ****         7.4868   4.6405   0.7239 H              1 S1                 0.0000
     50 ****         5.4008   3.9384  -0.0514 H              1 S1                 0.0000
     51 ****         4.7615   5.1159   1.0965 H              1 S1                 0.0000
     52 ****         2.8259   0.6907  -1.3294 H              1 S1                 0.0000
     53 ****        -4.5529  -0.6153   0.6036 H              1 S1                 0.0000
     54 ****        -2.9505  -0.8597   1.1859 H              1 S1                 0.0000
     55 ****        -4.6491  -3.9719  -0.9878 H              1 S1                 0.0000
     56 ****        -2.5249   1.4810   0.6662 LP             1 S1                 0.0000
     57 ****        -0.9809   2.1413   1.0904 LP             1 S1                 0.0000
     58 ****         4.4344   3.4744   2.6544 LP             1 S1                 0.0000
     59 ****         4.6724   1.7386  -0.3593 LP             1 S1                 0.0000
@<TRIPOS>BOND
    1    1    2 1     
    2    1   26 1     
    3    1   27 1     
    4    1   28 1     
    5    2    7 1     
    6    2    3 1     
    7    2   55 1     
    8    3   25 1     
    9    3    4 1     
   10    3   29 1     
   11    4    5 1     
   12    4   30 1     
   13    4   31 1     
   14    5    6 1     
   15    5   32 1     
   16    5   33 1     
   17    6    7 1     
   18    6   34 1     
   19    6   35 1     
   20    7    8 1     
   21    7   36 1     
   22    8    9 1     
   23    8   37 1     
   24    8   38 1     
   25    9   10 1     
   26    9   25 1     
   27    9   39 1     
   28   10   11 am    
   29   10   40 1     
   30   11   12 2     
   31   11   13 am    
   32   13   14 1     
   33   13   41 1     
   34   14   24 ar    
   35   14   15 ar    
   36   15   16 ar    
   37   15   42 1     
   38   16   17 ar    
   39   16   43 1     
   40   17   18 1     
   41   17   23 ar    
   42   18   22 1     
   43   18   19 1     
   44   19   20 1     
   45   19   44 1     
   46   19   45 1     
   47   20   21 1     
   48   20   46 1     
   49   20   47 1     
   50   21   22 1     
   51   21   48 1     
   52   21   49 1     
   53   22   50 1     
   54   22   51 1     
   55   23   24 ar    
   56   24   52 1     
   57   25   53 1     
   58   25   54 1     
   59   12   56 1     
   60   12   57 1     
   61   18   58 1     
   62   23   59 1     
@<TRIPOS>SUBSTRUCTURE
      1 S1             1
@<TRIPOS>SET
LONE_PAIRS      STATIC     ATOMS    <user>   **** ""
4 56 57 58 59
DONOR_HYDROGENS      STATIC     ATOMS    <user>   **** ""
3 55 40 41
ATOM$BLUE        STATIC     ATOMS    COLORGROUP SYSTEM
4 56 57 58 59
ATOM$RED        STATIC     ATOMS    COLORGROUP SYSTEM
3 55 40 41
