AV-unprocessed.smi:1180|AV-procd|sdf|4960|dock4
  -GOLD-   22720 3553D 1   1.00000     0.00000
 Structure written by MMmdl.
 38 39  0  0  0  0  0  0  0  0  1 V2000
  151.3089  142.7727  157.6543 C   0  0  0  0  0  0  0  0  0  0  0  0
  150.8633  141.7154  156.6664 C   0  0  0  0  0  0  0  0  0  0  0  0
  151.3117  140.5033  156.6571 N   0  0  0  0  0  0  0  0  0  0  0  0
  150.8220  139.6109  155.6933 C   0  0  0  0  0  0  0  0  0  0  0  0
  151.3934  138.2049  155.7511 C   0  0  0  0  0  0  0  0  0  0  0  0
  149.8917  139.9940  154.7702 C   0  0  0  0  0  0  0  0  0  0  0  0
  149.3325  139.0465  153.7090 C   0  0  0  0  0  0  0  0  0  0  0  0
  147.8067  138.9688  153.6037 C   0  0  0  0  0  0  0  0  0  0  0  0
  147.0885  139.5692  154.4038 O   0  0  0  0  0  0  0  0  0  0  0  0
  147.3250  138.2204  152.6004 N   0  0  0  0  0  0  0  0  0  0  0  0
  145.9098  138.0171  152.3110 C   0  0  0  0  0  0  0  0  0  0  0  0
  145.5672  136.5287  152.1058 C   0  0  2  0  0  0  0  0  0  0  0  0
  145.8673  136.0120  150.7036 C   0  0  0  0  0  0  0  0  0  0  0  0
  144.7097  135.0570  150.3926 C   0  0  0  0  0  0  0  0  0  0  0  0
  143.9725  134.9464  151.6021 O   0  0  0  0  0  0  0  0  0  0  0  0
  144.0896  136.1832  152.2833 C   0  0  0  0  0  0  0  0  0  0  0  0
  149.3853  141.3798  154.7911 C   0  0  0  0  0  0  0  0  0  0  0  0
  148.5429  141.8260  154.0134 O   0  0  0  0  0  0  0  0  0  0  0  0
  149.9124  142.1693  155.7537 N   0  0  0  0  0  0  0  0  0  0  0  0
  149.5968  143.1266  155.8106 H   0  0  0  0  0  0  0  0  0  0  0  0
  151.0743  142.4575  158.6712 H   0  0  0  0  0  0  0  0  0  0  0  0
  150.8169  143.7289  157.4709 H   0  0  0  0  0  0  0  0  0  0  0  0
  152.3863  142.9237  157.5819 H   0  0  0  0  0  0  0  0  0  0  0  0
  151.9643  137.9874  154.8484 H   0  0  0  0  0  0  0  0  0  0  0  0
  150.5953  137.4682  155.8444 H   0  0  0  0  0  0  0  0  0  0  0  0
  152.0602  138.0829  156.6057 H   0  0  0  0  0  0  0  0  0  0  0  0
  149.7366  139.3035  152.7288 H   0  0  0  0  0  0  0  0  0  0  0  0
  149.7019  138.0400  153.9052 H   0  0  0  0  0  0  0  0  0  0  0  0
  147.9864  137.7627  151.9897 H   0  0  0  0  0  0  0  0  0  0  0  0
  145.3352  138.4220  153.1446 H   0  0  0  0  0  0  0  0  0  0  0  0
  145.6241  138.5953  151.4307 H   0  0  0  0  0  0  0  0  0  0  0  0
  146.1391  135.9242  152.8117 H   0  0  0  0  0  0  0  0  0  0  0  0
  145.8960  136.8180  149.9692 H   0  0  0  0  0  0  0  0  0  0  0  0
  146.8312  135.5026  150.6750 H   0  0  0  0  0  0  0  0  0  0  0  0
  144.0661  135.4762  149.6178 H   0  0  0  0  0  0  0  0  0  0  0  0
  145.0538  134.0789  150.0558 H   0  0  0  0  0  0  0  0  0  0  0  0
  143.8000  136.0919  153.3306 H   0  0  0  0  0  0  0  0  0  0  0  0
  143.4457  136.9259  151.8089 H   0  0  0  0  0  0  0  0  0  0  0  0
  1  2  1  0  0  0  0
  1 21  1  0  0  0  0
  1 22  1  0  0  0  0
  1 23  1  0  0  0  0
  2 19  1  0  0  0  0
  2  3  2  0  0  0  0
  3  4  1  0  0  0  0
  4  5  1  0  0  0  0
  4  6  2  0  0  0  0
  5 24  1  0  0  0  0
  5 25  1  0  0  0  0
  5 26  1  0  0  0  0
  6  7  1  0  0  0  0
  6 17  1  0  0  0  0
  7  8  1  0  0  0  0
  7 27  1  0  0  0  0
  7 28  1  0  0  0  0
  8  9  2  0  0  0  0
  8 10  1  0  0  0  0
 10 11  1  0  0  0  0
 10 29  1  0  0  0  0
 11 12  1  0  0  0  0
 11 30  1  0  0  0  0
 11 31  1  0  0  0  0
 12 16  1  0  0  0  0
 12 13  1  0  0  0  0
 12 32  1  0  0  0  0
 13 14  1  0  0  0  0
 13 33  1  0  0  0  0
 13 34  1  0  0  0  0
 14 15  1  0  0  0  0
 14 35  1  0  0  0  0
 14 36  1  0  0  0  0
 15 16  1  0  0  0  0
 16 37  1  0  0  0  0
 16 38  1  0  0  0  0
 17 18  2  0  0  0  0
 17 19  1  0  0  0  0
 19 20  1  0  0  0  0
M  END
> <s_m_source_file>
AV-unprocessed.smi

> <i_m_source_file_index>
1180

> <i_lp_mmshare_version>
43012

> <i_f3d_flags>
0

> <s_epik_input>
W0NIM11jMW5jKFtDSDNdKWMoYyg9TylbbkhdMSlbQ0gyXUMoPU8pW05IXVtDSDJdW0NAQEhdMltDSDJdW0NIMl1PW0NIMl0y

> <s_epik_cmdline>
J2VwaWtfcHl0aG9uJywgJy1waCcsICc3LjAnLCAnLXRuJywgJzgnLCAnLW1hJywgJzIwMCcsICctbWV0YWxfYmluZGluZycsICctaW1hZScsICc8aW5maWxlLm1hZT4nLCAnLW9tYWUnLCAnPG91dGZpbGUubWFlPic=

> <r_lp_tautomer_probability>
0.839158

> <r_epik_Ionization_Penalty>
0.000395459

> <r_epik_Ionization_Penalty_Charging>
0.000363703

> <r_epik_Ionization_Penalty_Neutral>
3.17556e-05

> <r_epik_State_Penalty>
0.0471244

> <r_epik_Charging_Adjusted_Penalty>
0.0474881

> <i_epik_Tot_Q>
0

> <i_epik_Tot_abs_Q>
0

> <r_epik_Metal_State_Penalty>
0.225307

> <b_epik_Metal_Only>
0

> <s_lp_Force_Field>
OPLS_2005

> <r_lp_Energy>
20.5307

> <b_lp_Chiralities_Consistent>
1

> <s_lp_Variant>
AV-unprocessed.smi:1180-1

> <Gold.Version>
5.8.1

> <Gold.Id.Protein>
6NUR|6NUR_protein|mol2

> <Gold.PLP.Fitness>
38.3619

> <Gold.PLP.PLP>
-31.6861

> <Gold.PLP.part.hbond>
-3.2747

> <Gold.PLP.part.metal>
0.0000

> <Gold.PLP.part.buried>
0.3681

> <Gold.PLP.part.nonpolar>
-28.4796

> <Gold.PLP.part.repulsive>
0.7097

> <Gold.PLP.ligand.clash>
0.0000

> <Gold.PLP.ligand.torsion>
0.3734

> <Gold.PLP.Chemscore.Hbond>
2.4720

> <Gold.PLP.Chemscore.CHOScore>
0.0000

> <Gold.PLP.Chemscore.Metal>
0.0000

> <Gold.Chemscore.Hbonds>
donor molecule, donor type, donor heavy atom, donor atom, acceptor molecule, acceptor atom, score
      L1  H    10    29       P1  7948  0.85
      L1  H    19    20       P1  8028  1.00
      P1  H  8011  8017       L1    18  0.32

> <Gold.PLP.Chemscore.Internal.Correction>
0.0066

> <Gold.Rescore>
     Score         DG    S(hbond)    S(metal)    S(lipo)     H(rot)  DE(clash)    DE(int)     intcor
     15.92     -16.41       2.60        0.00      58.73       1.81       0.12       0.36       ----

> <Gold.Chemscore.Fitness>
15.9165

> <Gold.Chemscore.DG>
-16.4051

> <Gold.Chemscore.ZeroCoef>
-5.4800

> <Gold.Chemscore.Hbond>
2.5981

> <Gold.Chemscore.Metal>
0.0000

> <Gold.Chemscore.Lipo>
58.7343

> <Gold.Chemscore.Internal_Hbond>
0.0000

> <Gold.Chemscore.DEClash>
0.1247

> <Gold.Chemscore.DEInternal>
0.3639

> <Gold.Chemscore.Rot>
1.8065

> <Gold.Chemscore.Internal.Correction>
   9.000000E+99

> <Gold.Chemscore.Hbonds>
donor molecule, donor type, donor heavy atom, donor atom, acceptor molecule, acceptor atom, score
      L1  H    10    29       P1  7948  0.83
      L1  H    19    20       P1  8028  1.00
      P1  H  8011  8017       L1    18  0.11

> <Gold.Chemscore.Hbond.Weighted>
-8.6778

> <Gold.Chemscore.Metal.Weighted>
-0.0000

> <Gold.Chemscore.Lipo.Weighted>
-6.8719

> <Gold.Chemscore.Internal_Hbond.Weighted>
0.0000

> <Gold.Chemscore.DEClash.Weighted>
0.1247

> <Gold.Chemscore.DEInternal.Weighted>
0.3639

> <Gold.Chemscore.Rot.Weighted>
4.6246

> <Gold.Chemscore.Internal.Correction.Weighted>
   9.000000E+99

> <Gold.Protein.RotatedTorsions>
[ 6907 6896 6895 6894 ] final  169.62 input  -60.11 | X-H torsion
[ 7974 7965 7964 7962 ] final    8.55 input  175.53 | X-H torsion
[ 8008 7997 7996 7995 ] final  131.32 input   59.86 | X-H torsion
[ 10167 10162 10161 10158 ] final   71.75 input  -65.29 | X-H torsion
[ 10718 10713 10712 10709 ] final -129.54 input   66.30 | X-H torsion
[ 10763 10752 10751 10750 ] final   91.88 input  -60.55 | X-H torsion
[ 11005 11000 10999 10996 ] final  139.06 input  -57.11 | X-H torsion

> <Gold.Protein.ActiveResidues>
 VAL166  LYS551  ARG553  GLY616  TRP617  ASP618  TYR619  PRO620  LYS621  CYS622 
 ASP623  PHE694  ASN695  SER759  ASP760  ASP761  ALA762  ILE779  LEU786  VAL792 
 PHE793  MET794  SER795  GLU796  ALA797  LYS798  CYS799  TRP800  GLU811  SER814 

> <Gold.Protein.RotatedAtoms>
  151.8290  133.3406  159.3607 H   0  0  0  0  0  0  0  0  0  0  0  0  # atno 6907 bound_to 6896
  150.7270  134.5500  159.5799 H   0  0  0  0  0  0  0  0  0  0  0  0  # atno 6908 bound_to 6896
  152.2949  134.7679  160.0421 H   0  0  0  0  0  0  0  0  0  0  0  0  # atno 6909 bound_to 6896
  146.2415  139.9916  142.8425 H   0  0  0  0  0  0  0  0  0  0  0  0  # atno 7974 bound_to 7965
  156.2968  140.2574  156.2907 H   0  0  0  0  0  0  0  0  0  0  0  0  # atno 8008 bound_to 7997
  154.9512  140.0394  157.2164 H   0  0  0  0  0  0  0  0  0  0  0  0  # atno 8009 bound_to 7997
  154.8034  140.2832  155.5909 H   0  0  0  0  0  0  0  0  0  0  0  0  # atno 8010 bound_to 7997
  140.0427  144.5376  150.7422 H   0  0  0  0  0  0  0  0  0  0  0  0  # atno 10167 bound_to 10162
  156.2057  130.6886  151.0591 H   0  0  0  0  0  0  0  0  0  0  0  0  # atno 10718 bound_to 10713
  153.2131  135.4381  155.0402 H   0  0  0  0  0  0  0  0  0  0  0  0  # atno 10763 bound_to 10752
  154.8210  135.3338  154.7039 H   0  0  0  0  0  0  0  0  0  0  0  0  # atno 10764 bound_to 10752
  153.7476  135.7000  153.5008 H   0  0  0  0  0  0  0  0  0  0  0  0  # atno 10765 bound_to 10752
  140.0228  134.9389  157.0508 H   0  0  0  0  0  0  0  0  0  0  0  0  # atno 11005 bound_to 11000
  145.1498  140.9617  143.4439 LP  0  0  0  0  0  0  0  0  0  0  0  0  # atno 17320 bound_to 7965
  145.0216  139.3419  143.6069 LP  0  0  0  0  0  0  0  0  0  0  0  0  # atno 17321 bound_to 7965
  140.7253  143.2629  151.4142 LP  0  0  0  0  0  0  0  0  0  0  0  0  # atno 17342 bound_to 10162
  139.6003  144.1309  152.2191 LP  0  0  0  0  0  0  0  0  0  0  0  0  # atno 17343 bound_to 10162
  157.7011  131.0775  150.6818 LP  0  0  0  0  0  0  0  0  0  0  0  0  # atno 17370 bound_to 10713
  156.6877  130.4586  149.5609 LP  0  0  0  0  0  0  0  0  0  0  0  0  # atno 17371 bound_to 10713
  140.4358  134.1733  155.7170 LP  0  0  0  0  0  0  0  0  0  0  0  0  # atno 17394 bound_to 11000
  141.1784  133.8465  157.1342 LP  0  0  0  0  0  0  0  0  0  0  0  0  # atno 17395 bound_to 11000

$$$$
