AV-unprocessed.smi:1728|AV-procd|sdf|6967|dock10
  -GOLD-   22720 8183D 1   1.00000     0.00000
 Structure written by MMmdl.
 46 47  0  0  0  0  0  0  0  0  1 V2000
  144.6495  138.4420  160.9936 C   0  0  0  0  0  0  0  0  0  0  0  0
  145.8948  137.9562  160.5046 O   0  0  0  0  0  0  0  0  0  0  0  0
  146.3564  136.7379  160.9660 C   0  0  0  0  0  0  0  0  0  0  0  0
  145.6882  136.1397  161.9843 N   0  0  0  0  0  0  0  0  0  0  0  0
  146.1339  134.9487  162.4335 C   0  0  0  0  0  0  0  0  0  0  0  0
  147.2544  134.2926  161.8929 C   0  0  0  0  0  0  0  0  0  0  0  0
  147.9487  134.9100  160.8361 C   0  0  0  0  0  0  0  0  0  0  0  0
  147.5015  136.1677  160.3611 C   0  0  0  0  0  0  0  0  0  0  0  0
  148.1125  136.8821  159.2920 N   0  0  0  0  0  0  0  0  0  0  0  0
  148.9172  136.4308  158.3147 C   0  0  0  0  0  0  0  0  0  0  0  0
  149.2894  135.2669  158.1702 O   0  0  0  0  0  0  0  0  0  0  0  0
  149.2859  137.4261  157.4995 N   0  0  0  0  0  0  0  0  0  0  0  0
  150.1446  137.2669  156.3298 C   0  0  0  0  0  0  0  0  0  0  0  0
  150.6289  138.6335  155.7666 C   0  0  0  0  0  0  0  0  0  0  0  0
  151.3623  139.3457  156.9319 C   0  0  0  0  0  0  0  0  0  0  0  0
  151.6844  138.3332  154.6753 C   0  0  0  0  0  0  0  0  0  0  0  0
  149.4912  139.4562  155.2674 N   0  0  0  0  0  0  0  0  0  0  0  0
  149.8162  140.8603  154.9916 C   0  0  0  0  0  0  0  0  0  0  0  0
  148.5718  141.6758  154.6001 C   0  0  0  0  0  0  0  0  0  0  0  0
  147.9398  141.0777  153.4749 O   0  0  0  0  0  0  0  0  0  0  0  0
  147.5556  139.7305  153.7210 C   0  0  0  0  0  0  0  0  0  0  0  0
  148.7925  138.9003  154.1025 C   0  0  0  0  0  0  0  0  0  0  0  0
  144.4334  139.4055  160.5327 H   0  0  0  0  0  0  0  0  0  0  0  0
  144.6737  138.5908  162.0741 H   0  0  0  0  0  0  0  0  0  0  0  0
  143.8317  137.7650  160.7429 H   0  0  0  0  0  0  0  0  0  0  0  0
  145.5777  134.5029  163.2447 H   0  0  0  0  0  0  0  0  0  0  0  0
  147.5723  133.3349  162.2778 H   0  0  0  0  0  0  0  0  0  0  0  0
  148.7970  134.3984  160.4105 H   0  0  0  0  0  0  0  0  0  0  0  0
  147.9490  137.8786  159.2997 H   0  0  0  0  0  0  0  0  0  0  0  0
  148.9393  138.3562  157.6852 H   0  0  0  0  0  0  0  0  0  0  0  0
  151.0022  136.6492  156.6032 H   0  0  0  0  0  0  0  0  0  0  0  0
  149.6094  136.6933  155.5721 H   0  0  0  0  0  0  0  0  0  0  0  0
  152.0819  138.6846  157.4161 H   0  0  0  0  0  0  0  0  0  0  0  0
  150.6658  139.6843  157.6999 H   0  0  0  0  0  0  0  0  0  0  0  0
  151.9296  140.2132  156.5949 H   0  0  0  0  0  0  0  0  0  0  0  0
  152.5026  137.7341  155.0769 H   0  0  0  0  0  0  0  0  0  0  0  0
  152.1308  139.2418  154.2719 H   0  0  0  0  0  0  0  0  0  0  0  0
  151.2649  137.7716  153.8409 H   0  0  0  0  0  0  0  0  0  0  0  0
  150.2624  141.3353  155.8633 H   0  0  0  0  0  0  0  0  0  0  0  0
  150.5465  140.9265  154.1852 H   0  0  0  0  0  0  0  0  0  0  0  0
  147.8695  141.7335  155.4333 H   0  0  0  0  0  0  0  0  0  0  0  0
  148.8538  142.6980  154.3477 H   0  0  0  0  0  0  0  0  0  0  0  0
  146.8081  139.6957  154.5151 H   0  0  0  0  0  0  0  0  0  0  0  0
  147.0887  139.3236  152.8240 H   0  0  0  0  0  0  0  0  0  0  0  0
  149.4642  138.8564  153.2451 H   0  0  0  0  0  0  0  0  0  0  0  0
  148.4593  137.8825  154.2963 H   0  0  0  0  0  0  0  0  0  0  0  0
  1  2  1  0  0  0  0
  1 23  1  0  0  0  0
  1 24  1  0  0  0  0
  1 25  1  0  0  0  0
  2  3  1  0  0  0  0
  3  8  1  0  0  0  0
  3  4  2  0  0  0  0
  4  5  1  0  0  0  0
  5  6  2  0  0  0  0
  5 26  1  0  0  0  0
  6  7  1  0  0  0  0
  6 27  1  0  0  0  0
  7  8  2  0  0  0  0
  7 28  1  0  0  0  0
  8  9  1  0  0  0  0
  9 10  1  0  0  0  0
  9 29  1  0  0  0  0
 10 11  2  0  0  0  0
 10 12  1  0  0  0  0
 12 13  1  0  0  0  0
 12 30  1  0  0  0  0
 13 14  1  0  0  0  0
 13 31  1  0  0  0  0
 13 32  1  0  0  0  0
 14 15  1  0  0  0  0
 14 16  1  0  0  0  0
 14 17  1  0  0  0  0
 15 33  1  0  0  0  0
 15 34  1  0  0  0  0
 15 35  1  0  0  0  0
 16 36  1  0  0  0  0
 16 37  1  0  0  0  0
 16 38  1  0  0  0  0
 17 22  1  0  0  0  0
 17 18  1  0  0  0  0
 18 19  1  0  0  0  0
 18 39  1  0  0  0  0
 18 40  1  0  0  0  0
 19 20  1  0  0  0  0
 19 41  1  0  0  0  0
 19 42  1  0  0  0  0
 20 21  1  0  0  0  0
 21 22  1  0  0  0  0
 21 43  1  0  0  0  0
 21 44  1  0  0  0  0
 22 45  1  0  0  0  0
 22 46  1  0  0  0  0
M  END
> <s_m_source_file>
AV-unprocessed.smi

> <i_m_source_file_index>
1728

> <i_lp_mmshare_version>
43012

> <i_f3d_flags>
0

> <s_epik_input>
W0NIM11PYzFuW2NIXVtjSF1bY0hdYzFbTkhdQyg9TylbTkhdW0NIMl1DKFtDSDNdKShbQ0gzXSlOMltDSDJdW0NIMl1PW0NIMl1bQ0gyXTI=

> <s_epik_cmdline>
J2VwaWtfcHl0aG9uJywgJy1waCcsICc3LjAnLCAnLXRuJywgJzgnLCAnLW1hJywgJzIwMCcsICctbWV0YWxfYmluZGluZycsICctaW1hZScsICc8aW5maWxlLm1hZT4nLCAnLW9tYWUnLCAnPG91dGZpbGUubWFlPic=

> <r_lp_tautomer_probability>
1

> <r_epik_Ionization_Penalty>
0.266086

> <r_epik_Ionization_Penalty_Charging>
0

> <r_epik_Ionization_Penalty_Neutral>
0.266086

> <r_epik_State_Penalty>
0.257924

> <r_epik_Charging_Adjusted_Penalty>
0.257924

> <i_epik_Tot_Q>
0

> <i_epik_Tot_abs_Q>
0

> <r_epik_Metal_State_Penalty>
0.257921

> <b_epik_Metal_Only>
0

> <s_lp_Force_Field>
OPLS_2005

> <r_lp_Energy>
44.4816

> <b_lp_Chiralities_Consistent>
1

> <s_lp_Variant>
AV-unprocessed.smi:1728-1

> <Gold.Version>
5.8.1

> <Gold.Id.Protein>
6NUR|6NUR_protein|mol2

> <Gold.PLP.Fitness>
36.0034

> <Gold.PLP.PLP>
-30.6885

> <Gold.PLP.part.hbond>
-2.0000

> <Gold.PLP.part.metal>
0.0000

> <Gold.PLP.part.buried>
-3.2539

> <Gold.PLP.part.nonpolar>
-24.9588

> <Gold.PLP.part.repulsive>
0.8010

> <Gold.PLP.ligand.clash>
0.0000

> <Gold.PLP.ligand.torsion>
0.3693

> <Gold.PLP.Chemscore.Hbond>
2.0000

> <Gold.PLP.Chemscore.CHOScore>
0.0000

> <Gold.PLP.Chemscore.Metal>
0.0000

> <Gold.Chemscore.Hbonds>
donor molecule, donor type, donor heavy atom, donor atom, acceptor molecule, acceptor atom, score
      P1  H  6896  6909       L1    11  0.93
      P1  H  6934  6947       L1     2  1.00

> <Gold.PLP.Chemscore.Internal.Correction>
0.0534

> <Gold.Rescore>
     Score         DG    S(hbond)    S(metal)    S(lipo)     H(rot)  DE(clash)    DE(int)     intcor
     14.17     -15.65       1.67        0.00      76.54       1.70       0.03       1.45       ----

> <Gold.Chemscore.Fitness>
14.1671

> <Gold.Chemscore.DG>
-15.6482

> <Gold.Chemscore.ZeroCoef>
-5.4800

> <Gold.Chemscore.Hbond>
1.6680

> <Gold.Chemscore.Metal>
0.0000

> <Gold.Chemscore.Lipo>
76.5418

> <Gold.Chemscore.Internal_Hbond>
0.0000

> <Gold.Chemscore.DEClash>
0.0300

> <Gold.Chemscore.DEInternal>
1.4511

> <Gold.Chemscore.Rot>
1.7024

> <Gold.Chemscore.Internal.Correction>
   9.000000E+99

> <Gold.Chemscore.Hbonds>
donor molecule, donor type, donor heavy atom, donor atom, acceptor molecule, acceptor atom, score
      P1  H  6896  6909       L1    11  0.87
      P1  H  6934  6947       L1     2  0.31

> <Gold.Chemscore.Hbond.Weighted>
-5.5711

> <Gold.Chemscore.Metal.Weighted>
-0.0000

> <Gold.Chemscore.Lipo.Weighted>
-8.9554

> <Gold.Chemscore.Internal_Hbond.Weighted>
0.0000

> <Gold.Chemscore.DEClash.Weighted>
0.0300

> <Gold.Chemscore.DEInternal.Weighted>
1.4511

> <Gold.Chemscore.Rot.Weighted>
4.3583

> <Gold.Chemscore.Internal.Correction.Weighted>
   9.000000E+99

> <Gold.Protein.RotatedTorsions>
[ 6907 6896 6895 6894 ] final   39.02 input  -60.11 | X-H torsion
[ 7974 7965 7964 7962 ] final  178.13 input  175.53 | X-H torsion
[ 8008 7997 7996 7995 ] final   15.68 input   59.86 | X-H torsion
[ 10167 10162 10161 10158 ] final -139.05 input  -65.29 | X-H torsion
[ 10718 10713 10712 10709 ] final  120.90 input   66.30 | X-H torsion
[ 10763 10752 10751 10750 ] final  146.84 input  -60.55 | X-H torsion
[ 11005 11000 10999 10996 ] final  171.80 input  -57.11 | X-H torsion

> <Gold.Protein.ActiveResidues>
 VAL166  LYS551  ARG553  GLY616  TRP617  ASP618  TYR619  PRO620  LYS621  CYS622 
 ASP623  PHE694  ASN695  SER759  ASP760  ASP761  ALA762  ILE779  LEU786  VAL792 
 PHE793  MET794  SER795  GLU796  ALA797  LYS798  CYS799  TRP800  GLU811  SER814 

> <Gold.Protein.RotatedAtoms>
  152.1641  134.8888  160.0539 H   0  0  0  0  0  0  0  0  0  0  0  0  # atno 6907 bound_to 6896
  151.9873  133.3773  159.4139 H   0  0  0  0  0  0  0  0  0  0  0  0  # atno 6908 bound_to 6896
  150.6892  134.3897  159.5115 H   0  0  0  0  0  0  0  0  0  0  0  0  # atno 6909 bound_to 6896
  144.7160  140.0351  143.6438 H   0  0  0  0  0  0  0  0  0  0  0  0  # atno 7974 bound_to 7965
  154.8661  140.2952  155.5509 H   0  0  0  0  0  0  0  0  0  0  0  0  # atno 8008 bound_to 7997
  156.3021  140.2469  156.3576 H   0  0  0  0  0  0  0  0  0  0  0  0  # atno 8009 bound_to 7997
  154.8866  140.0396  157.1803 H   0  0  0  0  0  0  0  0  0  0  0  0  # atno 8010 bound_to 7997
  139.8417  143.7313  152.2663 H   0  0  0  0  0  0  0  0  0  0  0  0  # atno 10167 bound_to 10162
  157.5857  131.1070  150.8100 H   0  0  0  0  0  0  0  0  0  0  0  0  # atno 10718 bound_to 10713
  154.0286  135.2899  155.3371 H   0  0  0  0  0  0  0  0  0  0  0  0  # atno 10763 bound_to 10752
  154.7002  135.5191  153.8519 H   0  0  0  0  0  0  0  0  0  0  0  0  # atno 10764 bound_to 10752
  153.0650  135.6627  154.0501 H   0  0  0  0  0  0  0  0  0  0  0  0  # atno 10765 bound_to 10752
  140.3228  134.7422  157.4077 H   0  0  0  0  0  0  0  0  0  0  0  0  # atno 11005 bound_to 11000
  146.0070  139.3138  143.0893 LP  0  0  0  0  0  0  0  0  0  0  0  0  # atno 17320 bound_to 7965
  145.8727  140.9410  143.0642 LP  0  0  0  0  0  0  0  0  0  0  0  0  # atno 17321 bound_to 7965
  139.7552  144.7523  151.0446 LP  0  0  0  0  0  0  0  0  0  0  0  0  # atno 17342 bound_to 10162
  140.7797  143.4814  151.0013 LP  0  0  0  0  0  0  0  0  0  0  0  0  # atno 17343 bound_to 10162
  156.8534  130.5088  149.5310 LP  0  0  0  0  0  0  0  0  0  0  0  0  # atno 17370 bound_to 10713
  156.0906  130.5893  150.9726 LP  0  0  0  0  0  0  0  0  0  0  0  0  # atno 17371 bound_to 10713
  140.0927  134.5579  155.8429 LP  0  0  0  0  0  0  0  0  0  0  0  0  # atno 17394 bound_to 11000
  141.2082  133.6671  156.6357 LP  0  0  0  0  0  0  0  0  0  0  0  0  # atno 17395 bound_to 11000

$$$$
