AV-unprocessed.smi:21|AV-procd|sdf|152|dock8
  -GOLD-   2262015373D 1   1.00000     0.00000
 Structure written by MMmdl.
 62 65  0  0  0  0  0  0  0  0  2 V2000
  145.2583  136.4586  154.6495 C   0  0  0  0  0  0  0  0  0  0  0  0
  145.0981  135.1077  155.0513 O   0  0  0  0  0  0  0  0  0  0  0  0
  146.2744  134.3283  154.8947 C   0  0  2  0  0  0  0  0  0  0  0  0
  147.4501  134.9883  155.6011 C   0  0  0  0  0  0  0  0  0  0  0  0
  148.6646  134.3812  154.8920 C   0  0  2  0  0  0  0  0  0  0  0  0
  149.9445  135.2338  154.9993 C   0  0  0  0  0  0  0  0  0  0  0  0
  150.5267  135.2062  156.3435 N   0  0  0  0  0  0  0  0  0  0  0  0
  150.8625  133.9068  156.9126 C   0  0  0  0  0  0  0  0  0  0  0  0
  150.4869  136.3133  157.1410 C   0  0  0  0  0  0  0  0  0  0  0  0
  149.8640  136.2141  158.3461 N   0  0  0  0  0  0  0  0  0  0  0  0
  149.7900  137.2611  159.1713 C   0  0  0  0  0  0  0  0  0  0  0  0
  150.2658  138.4931  158.9963 N   0  0  0  0  0  0  0  0  0  0  0  0
  150.8948  138.6106  157.7935 C   0  0  0  0  0  0  0  0  0  0  0  0
  151.0524  137.5858  156.8141 C   0  0  0  0  0  0  0  0  0  0  0  0
  151.7623  138.0952  155.7301 N   0  0  0  0  0  0  0  0  0  0  0  0
  152.0000  139.3383  156.0450 C   0  0  0  0  0  0  0  0  0  0  0  0
  151.5062  139.7335  157.2656 N   0  0  0  0  0  0  0  0  0  0  0  0
  151.6194  141.0518  157.8655 C   0  0  0  0  0  0  0  0  0  0  0  0
  151.0072  142.1805  156.9982 C   0  0  1  0  0  0  0  0  0  0  0  0
  149.6216  141.7525  156.4597 C   0  0  0  0  0  0  0  0  0  0  0  0
  149.3375  142.4047  155.2397 O   0  0  0  0  0  0  0  0  0  0  0  0
  150.9913  143.5532  157.7280 C   0  0  1  0  0  0  0  0  0  0  0  0
  150.4263  143.5475  159.1493 C   0  0  0  0  0  0  0  0  0  0  0  0
  151.4332  144.3688  159.9570 C   0  0  0  0  0  0  0  0  0  0  0  0
  152.1477  145.1127  158.9828 O   0  0  0  0  0  0  0  0  0  0  0  0
  152.3498  144.2466  157.8793 C   0  0  0  0  0  0  0  0  0  0  0  0
  148.2379  134.2174  153.4820 N   0  3  1  0  0  0  0  0  0  0  0  0
  148.8328  133.0464  152.8015 C   0  0  0  0  0  0  0  0  0  0  0  0
  146.7560  134.2435  153.4406 C   0  0  0  0  0  0  0  0  0  0  0  0
  146.1363  133.3261  155.3051 H   0  0  0  0  0  0  0  0  0  0  0  0
  148.8425  133.3899  155.3139 H   0  0  0  0  0  0  0  0  0  0  0  0
  144.3180  136.9930  154.7858 H   0  0  0  0  0  0  0  0  0  0  0  0
  145.5323  136.5260  153.5960 H   0  0  0  0  0  0  0  0  0  0  0  0
  146.0193  136.9665  155.2427 H   0  0  0  0  0  0  0  0  0  0  0  0
  147.4181  136.0669  155.4387 H   0  0  0  0  0  0  0  0  0  0  0  0
  147.4514  134.8104  156.6772 H   0  0  0  0  0  0  0  0  0  0  0  0
  150.6945  134.8406  154.3125 H   0  0  0  0  0  0  0  0  0  0  0  0
  149.7553  136.2497  154.6524 H   0  0  0  0  0  0  0  0  0  0  0  0
  150.0632  133.5522  157.5637 H   0  0  0  0  0  0  0  0  0  0  0  0
  151.7888  133.9614  157.4853 H   0  0  0  0  0  0  0  0  0  0  0  0
  151.0063  133.1633  156.1281 H   0  0  0  0  0  0  0  0  0  0  0  0
  149.2749  137.0869  160.1046 H   0  0  0  0  0  0  0  0  0  0  0  0
  152.5388  140.0058  155.3879 H   0  0  0  0  0  0  0  0  0  0  0  0
  151.1339  141.0138  158.8412 H   0  0  0  0  0  0  0  0  0  0  0  0
  152.6742  141.2546  158.0554 H   0  0  0  0  0  0  0  0  0  0  0  0
  151.6594  142.3115  156.1331 H   0  0  0  0  0  0  0  0  0  0  0  0
  149.5772  140.6755  156.2972 H   0  0  0  0  0  0  0  0  0  0  0  0
  148.8229  142.0003  157.1570 H   0  0  0  0  0  0  0  0  0  0  0  0
  148.9948  143.2646  155.4305 H   0  0  0  0  0  0  0  0  0  0  0  0
  150.3493  144.2372  157.1722 H   0  0  0  0  0  0  0  0  0  0  0  0
  149.4465  144.0267  159.1599 H   0  0  0  0  0  0  0  0  0  0  0  0
  150.2981  142.5522  159.5729 H   0  0  0  0  0  0  0  0  0  0  0  0
  150.9546  145.0211  160.6878 H   0  0  0  0  0  0  0  0  0  0  0  0
  152.1262  143.7131  160.4865 H   0  0  0  0  0  0  0  0  0  0  0  0
  153.1492  143.5472  158.1236 H   0  0  0  0  0  0  0  0  0  0  0  0
  152.6408  144.7987  156.9856 H   0  0  0  0  0  0  0  0  0  0  0  0
  148.5185  132.1150  153.2744 H   0  0  0  0  0  0  0  0  0  0  0  0
  149.9215  133.0952  152.8310 H   0  0  0  0  0  0  0  0  0  0  0  0
  148.5277  133.0190  151.7550 H   0  0  0  0  0  0  0  0  0  0  0  0
  146.3277  133.3820  152.9261 H   0  0  0  0  0  0  0  0  0  0  0  0
  146.4577  135.1361  152.8893 H   0  0  0  0  0  0  0  0  0  0  0  0
  148.5467  135.0419  152.9866 H   0  0  0  0  0  0  0  0  0  0  0  0
  1  2  1  0  0  0  0
  1 32  1  0  0  0  0
  1 33  1  0  0  0  0
  1 34  1  0  0  0  0
  2  3  1  0  0  0  0
  3 30  1  0  0  0  0
  3 29  1  0  0  0  0
  3  4  1  0  0  0  0
  4  5  1  0  0  0  0
  4 35  1  0  0  0  0
  4 36  1  0  0  0  0
  5 31  1  0  0  0  0
  5  6  1  0  0  0  0
  5 27  1  0  0  0  0
  6  7  1  0  0  0  0
  6 37  1  0  0  0  0
  6 38  1  0  0  0  0
  7  8  1  0  0  0  0
  7  9  1  0  0  0  0
  8 39  1  0  0  0  0
  8 40  1  0  0  0  0
  8 41  1  0  0  0  0
  9 14  1  0  0  0  0
  9 10  2  0  0  0  0
 10 11  1  0  0  0  0
 11 12  2  0  0  0  0
 11 42  1  0  0  0  0
 12 13  1  0  0  0  0
 13 17  1  0  0  0  0
 13 14  2  0  0  0  0
 14 15  1  0  0  0  0
 15 16  2  0  0  0  0
 16 17  1  0  0  0  0
 16 43  1  0  0  0  0
 17 18  1  0  0  0  0
 18 19  1  0  0  0  0
 18 44  1  0  0  0  0
 18 45  1  0  0  0  0
 19 20  1  0  0  0  0
 19 22  1  0  0  0  0
 19 46  1  0  0  0  0
 20 21  1  0  0  0  0
 20 47  1  0  0  0  0
 20 48  1  0  0  0  0
 21 49  1  0  0  0  0
 22 26  1  0  0  0  0
 22 23  1  0  0  0  0
 22 50  1  0  0  0  0
 23 24  1  0  0  0  0
 23 51  1  0  0  0  0
 23 52  1  0  0  0  0
 24 25  1  0  0  0  0
 24 53  1  0  0  0  0
 24 54  1  0  0  0  0
 25 26  1  0  0  0  0
 26 55  1  0  0  0  0
 26 56  1  0  0  0  0
 27 28  1  0  0  0  0
 27 29  1  0  0  0  0
 27 62  1  0  0  0  0
 28 57  1  0  0  0  0
 28 58  1  0  0  0  0
 28 59  1  0  0  0  0
 29 60  1  0  0  0  0
 29 61  1  0  0  0  0
M  CHG  1  27   1
M  END
> <s_m_source_file>
AV-unprocessed.smi

> <i_m_source_file_index>
21

> <i_lp_mmshare_version>
43012

> <i_f3d_flags>
0

> <s_epik_input>
W0NIM11PW0NASF0xW0NIMl1bQ0BIXShOKFtDSDNdKVtDSDJdMSlbQ0gyXU4oW0NIM10pYyhuW2NIXW4yKWMoYzIzKW5bY0hdbjNbQ0gyXVtDQEhdKFtDSDJdW09IXSlbQ0BASF00W0NIMl1bQ0gyXU9bQ0gyXTQ=

> <s_epik_cmdline>
J2VwaWtfcHl0aG9uJywgJy1waCcsICc3LjAnLCAnLXRuJywgJzgnLCAnLW1hJywgJzIwMCcsICctbWV0YWxfYmluZGluZycsICctaW1hZScsICc8aW5maWxlLm1hZT4nLCAnLW9tYWUnLCAnPG91dGZpbGUubWFlPic=

> <r_lp_tautomer_probability>
1

> <r_epik_Ionization_Penalty>
0.0157465

> <r_epik_Ionization_Penalty_Charging>
0.015354

> <r_epik_Ionization_Penalty_Neutral>
0.000392529

> <r_epik_State_Penalty>
0.0120612

> <r_epik_Charging_Adjusted_Penalty>
0.0274152

> <i_epik_Tot_Q>
1

> <i_epik_Tot_abs_Q>
1

> <r_epik_Metal_State_Penalty>
0.0121253

> <b_epik_Metal_Only>
0

> <s_lp_Force_Field>
OPLS_2005

> <r_lp_Energy>
58.5761

> <b_lp_Chiralities_Consistent>
1

> <s_lp_Variant>
AV-unprocessed.smi:21-32

> <Gold.Version>
5.8.1

> <Gold.Id.Protein>
6NUR|6NUR_protein|mol2

> <Gold.PLP.Fitness>
48.3575

> <Gold.PLP.PLP>
-39.7152

> <Gold.PLP.part.hbond>
-2.7958

> <Gold.PLP.part.metal>
0.0000

> <Gold.PLP.part.buried>
-5.8112

> <Gold.PLP.part.nonpolar>
-31.5413

> <Gold.PLP.part.repulsive>
0.1081

> <Gold.PLP.ligand.clash>
0.0000

> <Gold.PLP.ligand.torsion>
1.6068

> <Gold.PLP.Chemscore.Hbond>
3.7753

> <Gold.PLP.Chemscore.CHOScore>
0.0000

> <Gold.PLP.Chemscore.Metal>
0.0000

> <Gold.Chemscore.Hbonds>
donor molecule, donor type, donor heavy atom, donor atom, acceptor molecule, acceptor atom, score
      L1  H    21    49       P1  8028  0.84
      L1  H    27    62       P1  7948  2.00
      P1  H  6896  6909       L1    10  0.61

> <Gold.PLP.Chemscore.Internal.Correction>
0.5301

> <Gold.Rescore>
     Score         DG    S(hbond)    S(metal)    S(lipo)     H(rot)  DE(clash)    DE(int)     intcor
     13.97     -15.73       2.20        0.00      92.09       3.08       0.01       1.74       ----

> <Gold.Chemscore.Fitness>
13.9728

> <Gold.Chemscore.DG>
-15.7296

> <Gold.Chemscore.ZeroCoef>
-5.4800

> <Gold.Chemscore.Hbond>
2.2004

> <Gold.Chemscore.Metal>
0.0000

> <Gold.Chemscore.Lipo>
92.0885

> <Gold.Chemscore.Internal_Hbond>
0.0000

> <Gold.Chemscore.DEClash>
0.0121

> <Gold.Chemscore.DEInternal>
1.7446

> <Gold.Chemscore.Rot>
3.0758

> <Gold.Chemscore.Internal.Correction>
   9.000000E+99

> <Gold.Chemscore.Hbonds>
donor molecule, donor type, donor heavy atom, donor atom, acceptor molecule, acceptor atom, score
      L1  H    21    49       P1  8028  0.84
      L1  H    27    62       P1  7948  0.65
      P1  H  6896  6909       L1    10  0.23

> <Gold.Chemscore.Hbond.Weighted>
-7.3494

> <Gold.Chemscore.Metal.Weighted>
-0.0000

> <Gold.Chemscore.Lipo.Weighted>
-10.7744

> <Gold.Chemscore.Internal_Hbond.Weighted>
0.0000

> <Gold.Chemscore.DEClash.Weighted>
0.0121

> <Gold.Chemscore.DEInternal.Weighted>
1.7446

> <Gold.Chemscore.Rot.Weighted>
7.8741

> <Gold.Chemscore.Internal.Correction.Weighted>
   9.000000E+99

> <Gold.Protein.RotatedTorsions>
[ 6907 6896 6895 6894 ] final   49.21 input  -60.11 | X-H torsion
[ 7974 7965 7964 7962 ] final  -76.20 input  175.53 | X-H torsion
[ 8008 7997 7996 7995 ] final  134.22 input   59.86 | X-H torsion
[ 10167 10162 10161 10158 ] final  -17.09 input  -65.29 | X-H torsion
[ 10718 10713 10712 10709 ] final -125.70 input   66.30 | X-H torsion
[ 10763 10752 10751 10750 ] final   23.09 input  -60.55 | X-H torsion
[ 11005 11000 10999 10996 ] final  170.08 input  -57.11 | X-H torsion

> <Gold.Protein.ActiveResidues>
 VAL166  LYS551  ARG553  GLY616  TRP617  ASP618  TYR619  PRO620  LYS621  CYS622 
 ASP623  PHE694  ASN695  SER759  ASP760  ASP761  ALA762  ILE779  LEU786  VAL792 
 PHE793  MET794  SER795  GLU796  ALA797  LYS798  CYS799  TRP800  GLU811  SER814 

> <Gold.Protein.RotatedAtoms>
  152.2883  134.7751  160.0382 H   0  0  0  0  0  0  0  0  0  0  0  0  # atno 6907 bound_to 6896
  151.8306  133.3403  159.3620 H   0  0  0  0  0  0  0  0  0  0  0  0  # atno 6908 bound_to 6896
  150.7219  134.5415  159.5794 H   0  0  0  0  0  0  0  0  0  0  0  0  # atno 6909 bound_to 6896
  145.6160  140.9375  143.1164 H   0  0  0  0  0  0  0  0  0  0  0  0  # atno 7974 bound_to 7965
  156.2998  140.2501  156.3382 H   0  0  0  0  0  0  0  0  0  0  0  0  # atno 8008 bound_to 7997
  154.9080  140.0404  157.1949 H   0  0  0  0  0  0  0  0  0  0  0  0  # atno 8009 bound_to 7997
  154.8434  140.2894  155.5649 H   0  0  0  0  0  0  0  0  0  0  0  0  # atno 8010 bound_to 7997
  140.7242  143.5051  150.9820 H   0  0  0  0  0  0  0  0  0  0  0  0  # atno 10167 bound_to 10162
  156.1699  130.6660  151.0166 H   0  0  0  0  0  0  0  0  0  0  0  0  # atno 10718 bound_to 10713
  153.0865  135.6634  153.9940 H   0  0  0  0  0  0  0  0  0  0  0  0  # atno 10763 bound_to 10752
  153.9548  135.2980  155.3438 H   0  0  0  0  0  0  0  0  0  0  0  0  # atno 10764 bound_to 10752
  154.7273  135.5138  153.8979 H   0  0  0  0  0  0  0  0  0  0  0  0  # atno 10765 bound_to 10752
  140.3045  134.7567  157.3943 H   0  0  0  0  0  0  0  0  0  0  0  0  # atno 11005 bound_to 11000
  144.7250  139.7904  143.7368 LP  0  0  0  0  0  0  0  0  0  0  0  0  # atno 17320 bound_to 7965
  146.1468  139.4539  143.0074 LP  0  0  0  0  0  0  0  0  0  0  0  0  # atno 17321 bound_to 7965
  139.8762  143.7130  152.3161 LP  0  0  0  0  0  0  0  0  0  0  0  0  # atno 17342 bound_to 10162
  139.7396  144.7563  151.0673 LP  0  0  0  0  0  0  0  0  0  0  0  0  # atno 17343 bound_to 10162
  157.6795  131.0842  150.7407 LP  0  0  0  0  0  0  0  0  0  0  0  0  # atno 17370 bound_to 10713
  156.7466  130.4756  149.5465 LP  0  0  0  0  0  0  0  0  0  0  0  0  # atno 17371 bound_to 10713
  140.1079  134.5385  155.8292 LP  0  0  0  0  0  0  0  0  0  0  0  0  # atno 17394 bound_to 11000
  141.2121  133.6715  156.6634 LP  0  0  0  0  0  0  0  0  0  0  0  0  # atno 17395 bound_to 11000

$$$$
