AV-unprocessed.smi:2082|AV-procd|sdf|8489|dock2
  -GOLD-   2272011193D 1   1.00000     0.00000
 Structure written by MMmdl.
 39 40  0  0  0  0  0  0  0  0  1 V2000
  151.9015  144.5176  158.3691 C   0  0  0  0  0  0  0  0  0  0  0  0
  151.1575  143.3135  158.4286 O   0  0  0  0  0  0  0  0  0  0  0  0
  151.0487  142.6789  157.1652 C   0  0  0  0  0  0  0  0  0  0  0  0
  151.4567  141.2096  157.3055 C   0  0  0  0  0  0  0  0  0  0  0  0
  151.5507  140.6360  156.0050 O   0  0  0  0  0  0  0  0  0  0  0  0
  150.5115  139.8486  155.5542 C   0  0  0  0  0  0  0  0  0  0  0  0
  149.6010  139.3316  156.4972 C   0  0  0  0  0  0  0  0  0  0  0  0
  148.5375  138.5261  156.0472 C   0  0  0  0  0  0  0  0  0  0  0  0
  148.4240  138.2552  154.6628 C   0  0  0  0  0  0  0  0  0  0  0  0
  147.3855  137.4792  154.0820 N   0  0  0  0  0  0  0  0  0  0  0  0
  146.0994  137.3625  154.4685 C   0  0  0  0  0  0  0  0  0  0  0  0
  145.6519  137.9006  155.4816 O   0  0  0  0  0  0  0  0  0  0  0  0
  145.3475  136.5573  153.6728 N   0  0  0  0  0  0  0  0  0  0  0  0
  145.8687  135.5637  152.7218 C   0  0  0  0  0  0  0  0  0  0  0  0
  145.5474  134.1617  153.2675 C   0  0  0  0  0  0  0  0  0  0  0  0
  144.1598  134.0532  153.7215 N   0  0  0  0  0  0  0  0  0  0  0  0
  143.3396  135.0914  153.9703 C   0  0  0  0  0  0  0  0  0  0  0  0
  142.1794  134.9223  154.3375 O   0  0  0  0  0  0  0  0  0  0  0  0
  143.8798  136.5232  153.7863 C   0  0  0  0  0  0  0  0  0  0  0  0
  149.3786  138.8324  153.8003 C   0  0  0  0  0  0  0  0  0  0  0  0
  150.4007  139.6043  154.2250 N   0  0  0  0  0  0  0  0  0  0  0  0
  151.9520  144.9663  159.3611 H   0  0  0  0  0  0  0  0  0  0  0  0
  151.4346  145.2384  157.6966 H   0  0  0  0  0  0  0  0  0  0  0  0
  152.9222  144.3332  158.0312 H   0  0  0  0  0  0  0  0  0  0  0  0
  150.0148  142.7390  156.8225 H   0  0  0  0  0  0  0  0  0  0  0  0
  151.6711  143.1772  156.4201 H   0  0  0  0  0  0  0  0  0  0  0  0
  152.4016  141.1309  157.8460 H   0  0  0  0  0  0  0  0  0  0  0  0
  150.6954  140.6802  157.8806 H   0  0  0  0  0  0  0  0  0  0  0  0
  149.7132  139.5537  157.5480 H   0  0  0  0  0  0  0  0  0  0  0  0
  147.8273  138.1480  156.7661 H   0  0  0  0  0  0  0  0  0  0  0  0
  147.6621  136.9040  153.2997 H   0  0  0  0  0  0  0  0  0  0  0  0
  145.3619  135.7086  151.7662 H   0  0  0  0  0  0  0  0  0  0  0  0
  146.9317  135.6523  152.4971 H   0  0  0  0  0  0  0  0  0  0  0  0
  145.7368  133.4053  152.5056 H   0  0  0  0  0  0  0  0  0  0  0  0
  146.1996  133.9324  154.1110 H   0  0  0  0  0  0  0  0  0  0  0  0
  143.7929  133.1214  153.8514 H   0  0  0  0  0  0  0  0  0  0  0  0
  143.4989  137.1303  154.6089 H   0  0  0  0  0  0  0  0  0  0  0  0
  143.4502  136.9409  152.8751 H   0  0  0  0  0  0  0  0  0  0  0  0
  149.3252  138.6668  152.7341 H   0  0  0  0  0  0  0  0  0  0  0  0
  1  2  1  0  0  0  0
  1 22  1  0  0  0  0
  1 23  1  0  0  0  0
  1 24  1  0  0  0  0
  2  3  1  0  0  0  0
  3  4  1  0  0  0  0
  3 25  1  0  0  0  0
  3 26  1  0  0  0  0
  4  5  1  0  0  0  0
  4 27  1  0  0  0  0
  4 28  1  0  0  0  0
  5  6  1  0  0  0  0
  6 21  1  0  0  0  0
  6  7  2  0  0  0  0
  7  8  1  0  0  0  0
  7 29  1  0  0  0  0
  8  9  2  0  0  0  0
  8 30  1  0  0  0  0
  9 10  1  0  0  0  0
  9 20  1  0  0  0  0
 10 11  1  0  0  0  0
 10 31  1  0  0  0  0
 11 12  2  0  0  0  0
 11 13  1  0  0  0  0
 13 19  1  0  0  0  0
 13 14  1  0  0  0  0
 14 15  1  0  0  0  0
 14 32  1  0  0  0  0
 14 33  1  0  0  0  0
 15 16  1  0  0  0  0
 15 34  1  0  0  0  0
 15 35  1  0  0  0  0
 16 17  1  0  0  0  0
 16 36  1  0  0  0  0
 17 18  2  0  0  0  0
 17 19  1  0  0  0  0
 19 37  1  0  0  0  0
 19 38  1  0  0  0  0
 20 21  2  0  0  0  0
 20 39  1  0  0  0  0
M  END
> <s_m_source_file>
AV-unprocessed.smi

> <i_m_source_file_index>
2082

> <i_lp_mmshare_version>
43012

> <i_f3d_flags>
0

> <s_epik_input>
W0NIM11PW0NIMl1bQ0gyXU9jMVtjSF1bY0hdYyhbY0hdbjEpW05IXUMoPU8pTjJbQ0gyXVtDSDJdW05IXUMoPU8pW0NIMl0y

> <s_epik_cmdline>
J2VwaWtfcHl0aG9uJywgJy1waCcsICc3LjAnLCAnLXRuJywgJzgnLCAnLW1hJywgJzIwMCcsICctbWV0YWxfYmluZGluZycsICctaW1hZScsICc8aW5maWxlLm1hZT4nLCAnLW9tYWUnLCAnPG91dGZpbGUubWFlPic=

> <r_lp_tautomer_probability>
1

> <r_epik_Ionization_Penalty>
5.92413e-05

> <r_epik_Ionization_Penalty_Charging>
0

> <r_epik_Ionization_Penalty_Neutral>
5.92413e-05

> <r_epik_State_Penalty>
-0

> <r_epik_Charging_Adjusted_Penalty>
0

> <i_epik_Tot_Q>
0

> <i_epik_Tot_abs_Q>
0

> <r_epik_Metal_State_Penalty>
-0

> <b_epik_Metal_Only>
0

> <s_lp_Force_Field>
OPLS_2005

> <r_lp_Energy>
31.1837

> <b_lp_Chiralities_Consistent>
1

> <s_lp_Variant>
AV-unprocessed.smi:2082-1

> <Gold.Version>
5.8.1

> <Gold.Id.Protein>
6NUR|6NUR_protein|mol2

> <Gold.PLP.Fitness>
35.1846

> <Gold.PLP.PLP>
-22.8215

> <Gold.PLP.part.hbond>
-3.6417

> <Gold.PLP.part.metal>
0.0000

> <Gold.PLP.part.buried>
-2.9977

> <Gold.PLP.part.nonpolar>
-17.1616

> <Gold.PLP.part.repulsive>
0.3906

> <Gold.PLP.ligand.clash>
0.0000

> <Gold.PLP.ligand.torsion>
1.2634

> <Gold.PLP.Chemscore.Hbond>
3.0998

> <Gold.PLP.Chemscore.CHOScore>
1.8287

> <Gold.PLP.Chemscore.Metal>
0.0000

> <Gold.Chemscore.Hbonds>
donor molecule, donor type, donor heavy atom, donor atom, acceptor molecule, acceptor atom, score
      L1  H    10    31       P1  7948  0.96
      L1  H    16    36       P1 10957  1.00
      P1  H  7989  7998       L1    21  1.00
      P1  H 11000 11005       L1    18  0.27
      L1  C    20    39       P1  7948  0.71
      L1  C    20    39       P1  7957  1.00

> <Gold.PLP.Chemscore.Internal.Correction>
0.1044

> <Gold.Rescore>
     Score         DG    S(hbond)    S(metal)    S(lipo)     H(rot)  DE(clash)    DE(int)     intcor
     13.42     -15.58       2.70        0.00      49.01       1.81       0.03       2.14       ----

> <Gold.Chemscore.Fitness>
13.4168

> <Gold.Chemscore.DG>
-15.5843

> <Gold.Chemscore.ZeroCoef>
-5.4800

> <Gold.Chemscore.Hbond>
2.6952

> <Gold.Chemscore.Metal>
0.0000

> <Gold.Chemscore.Lipo>
49.0128

> <Gold.Chemscore.Internal_Hbond>
0.0000

> <Gold.Chemscore.DEClash>
0.0309

> <Gold.Chemscore.DEInternal>
2.1366

> <Gold.Chemscore.Rot>
1.8095

> <Gold.Chemscore.Internal.Correction>
   9.000000E+99

> <Gold.Chemscore.Hbonds>
donor molecule, donor type, donor heavy atom, donor atom, acceptor molecule, acceptor atom, score
      L1  H    10    31       P1  7948  0.89
      L1  H    16    36       P1 10957  0.93
      P1  H  7989  7998       L1    21  0.35
      P1  H 11000 11005       L1    18  0.27

> <Gold.Chemscore.Hbond.Weighted>
-9.0021

> <Gold.Chemscore.Metal.Weighted>
-0.0000

> <Gold.Chemscore.Lipo.Weighted>
-5.7345

> <Gold.Chemscore.Internal_Hbond.Weighted>
0.0000

> <Gold.Chemscore.DEClash.Weighted>
0.0309

> <Gold.Chemscore.DEInternal.Weighted>
2.1366

> <Gold.Chemscore.Rot.Weighted>
4.6322

> <Gold.Chemscore.Internal.Correction.Weighted>
   9.000000E+99

> <Gold.Protein.RotatedTorsions>
[ 6907 6896 6895 6894 ] final  -55.27 input  -60.11 | X-H torsion
[ 7974 7965 7964 7962 ] final  139.27 input  175.53 | X-H torsion
[ 8008 7997 7996 7995 ] final    2.79 input   59.86 | X-H torsion
[ 10167 10162 10161 10158 ] final   88.17 input  -65.29 | X-H torsion
[ 10718 10713 10712 10709 ] final  -61.61 input   66.30 | X-H torsion
[ 10763 10752 10751 10750 ] final   16.77 input  -60.55 | X-H torsion
[ 11005 11000 10999 10996 ] final    6.45 input  -57.11 | X-H torsion

> <Gold.Protein.ActiveResidues>
 VAL166  LYS551  ARG553  GLY616  TRP617  ASP618  TYR619  PRO620  LYS621  CYS622 
 ASP623  PHE694  ASN695  SER759  ASP760  ASP761  ALA762  ILE779  LEU786  VAL792 
 PHE793  MET794  SER795  GLU796  ALA797  LYS798  CYS799  TRP800  GLU811  SER814 

> <Gold.Protein.RotatedAtoms>
  150.8266  134.7500  159.6817 H   0  0  0  0  0  0  0  0  0  0  0  0  # atno 6907 bound_to 6896
  152.4376  134.5652  159.9915 H   0  0  0  0  0  0  0  0  0  0  0  0  # atno 6908 bound_to 6896
  151.5822  133.3339  159.3046 H   0  0  0  0  0  0  0  0  0  0  0  0  # atno 6909 bound_to 6896
  144.9294  139.5066  143.5625 H   0  0  0  0  0  0  0  0  0  0  0  0  # atno 7974 bound_to 7965
  154.6958  140.2662  155.6768 H   0  0  0  0  0  0  0  0  0  0  0  0  # atno 8008 bound_to 7997
  156.2748  140.2782  156.1475 H   0  0  0  0  0  0  0  0  0  0  0  0  # atno 8009 bound_to 7997
  155.0833  140.0373  157.2636 H   0  0  0  0  0  0  0  0  0  0  0  0  # atno 8010 bound_to 7997
  139.8700  144.6498  150.8960 H   0  0  0  0  0  0  0  0  0  0  0  0  # atno 10167 bound_to 10162
  156.0910  130.4200  150.1018 H   0  0  0  0  0  0  0  0  0  0  0  0  # atno 10718 bound_to 10713
  153.1400  135.6758  153.9042 H   0  0  0  0  0  0  0  0  0  0  0  0  # atno 10763 bound_to 10752
  153.8502  135.3094  155.3433 H   0  0  0  0  0  0  0  0  0  0  0  0  # atno 10764 bound_to 10752
  154.7779  135.4904  153.9867 H   0  0  0  0  0  0  0  0  0  0  0  0  # atno 10765 bound_to 10752
  140.5594  134.0207  155.7966 H   0  0  0  0  0  0  0  0  0  0  0  0  # atno 11005 bound_to 11000
  146.3240  139.8233  142.8922 LP  0  0  0  0  0  0  0  0  0  0  0  0  # atno 17320 bound_to 7965
  145.3166  141.0233  143.3524 LP  0  0  0  0  0  0  0  0  0  0  0  0  # atno 17321 bound_to 7965
  140.7762  143.3672  151.1717 LP  0  0  0  0  0  0  0  0  0  0  0  0  # atno 17342 bound_to 10162
  139.7293  143.9098  152.3014 LP  0  0  0  0  0  0  0  0  0  0  0  0  # atno 17343 bound_to 10162
  156.9028  130.9626  151.3574 LP  0  0  0  0  0  0  0  0  0  0  0  0  # atno 17370 bound_to 10713
  157.6059  130.8547  149.8875 LP  0  0  0  0  0  0  0  0  0  0  0  0  # atno 17371 bound_to 10713
  141.1124  133.9595  157.2886 LP  0  0  0  0  0  0  0  0  0  0  0  0  # atno 17394 bound_to 11000
  139.9415  135.0190  156.8723 LP  0  0  0  0  0  0  0  0  0  0  0  0  # atno 17395 bound_to 11000

$$$$
