#       Name:                AV-unprocessed.smi:1307
#       Creating user name   scv26
#       Creation time:       Fri Mar 27 05:00:08 2020


#       File generated by GOLD software.
#

@<TRIPOS>MOLECULE
AV-unprocessed.smi:1307
    47    47     1
SMALL
NO_CHARGES


@<TRIPOS>ATOM
      1 ****        -4.5228  -2.1131   1.6764 C.3            1 S1                 0.0000
      2 ****        -3.0054  -2.1351   1.4164 C.3            1 S1                 0.0000
      3 ****        -2.2729  -1.4837   2.6063 C.3            1 S1                 0.0000
      4 ****        -2.6330  -1.4817   0.0574 C.3            1 S1                 0.0000
      5 ****        -3.2636  -2.1910  -1.1533 C.3            1 S1                 0.0000
      6 ****        -1.1822  -1.4738  -0.1327 N.am           1 S1                 0.0000
      7 ****        -0.3945  -0.3877  -0.1660 C.2            1 S1                 0.0000
      8 ****        -0.8168   0.7617  -0.0316 O.2            1 S1                 0.0000
      9 ****         1.1063  -0.6609  -0.3598 C.3            1 S1                 0.0000
     10 ****         1.9269   0.5680  -0.5048 N.am           1 S1                 0.0000
     11 ****         2.6277   1.0970   0.6243 C.2            1 S1                 0.0000
     12 ****         2.4816   0.4144   1.9924 C.3            1 S1                 0.0000
     13 ****         3.0382   1.1470   2.9581 F              1 S1                 0.0000
     14 ****         1.2047   0.2448   2.3347 F              1 S1                 0.0000
     15 ****         3.0985  -0.7677   1.9999 F              1 S1                 0.0000
     16 ****         3.3785   2.2052   0.4860 C.2            1 S1                 0.0000
     17 ****         3.4850   2.8522  -0.7924 C.2            1 S1                 0.0000
     18 ****         2.8239   2.3685  -1.8684 C.2            1 S1                 0.0000
     19 ****         2.9025   3.0001  -3.2053 C.2            1 S1                 0.0000
     20 ****         3.6032   4.1409  -3.2340 N.am           1 S1                 0.0000
     21 ****         2.3984   2.5885  -4.2503 O.2            1 S1                 0.0000
     22 ****         1.9782   1.1527  -1.7511 C.2            1 S1                 0.0000
     23 ****         1.3402   0.6655  -2.6896 O.2            1 S1                 0.0000
     24 ****        -4.9129  -1.0950   1.6582 H              1 S1                 0.0000
     25 ****        -4.7604  -2.5405   2.6510 H              1 S1                 0.0000
     26 ****        -5.0706  -2.6956   0.9366 H              1 S1                 0.0000
     27 ****        -2.6966  -3.1809   1.3848 H              1 S1                 0.0000
     28 ****        -2.4837  -0.4154   2.6635 H              1 S1                 0.0000
     29 ****        -1.1921  -1.6065   2.5356 H              1 S1                 0.0000
     30 ****        -2.5796  -1.9332   3.5512 H              1 S1                 0.0000
     31 ****        -3.0080  -0.4568   0.0632 H              1 S1                 0.0000
     32 ****        -4.3509  -2.1236  -1.1418 H              1 S1                 0.0000
     33 ****        -2.9923  -3.2468  -1.1819 H              1 S1                 0.0000
     34 ****        -2.9299  -1.7379  -2.0877 H              1 S1                 0.0000
     35 ****        -0.7396  -2.3740  -0.2466 H              1 S1                 0.0000
     36 ****         1.4448  -1.3012   0.4493 H              1 S1                 0.0000
     37 ****         1.2254  -1.3027  -1.2349 H              1 S1                 0.0000
     38 ****         3.9070   2.6282   1.3273 H              1 S1                 0.0000
     39 ****         4.1109   3.7304  -0.8491 H              1 S1                 0.0000
     40 ****         3.7180   4.6428  -4.1023 H              1 S1                 0.0000
     41 ****         4.0198   4.4917  -2.3838 H              1 S1                 0.0000
     42 ****        -1.7935   0.9220   0.1112 LP             1 S1                 0.0000
     43 ****        -0.1829   1.5344  -0.0652 LP             1 S1                 0.0000
     44 ****         1.8687   1.7403  -4.2497 LP             1 S1                 0.0000
     45 ****         2.5186   3.1023  -5.0997 LP             1 S1                 0.0000
     46 ****         0.7858  -0.1541  -2.5451 LP             1 S1                 0.0000
     47 ****         1.3780   1.0906  -3.5939 LP             1 S1                 0.0000
@<TRIPOS>BOND
    1    1    2 1     
    2    1   24 1     
    3    1   25 1     
    4    1   26 1     
    5    2    3 1     
    6    2    4 1     
    7    2   27 1     
    8    3   28 1     
    9    3   29 1     
   10    3   30 1     
   11    4    5 1     
   12    4    6 1     
   13    4   31 1     
   14    5   32 1     
   15    5   33 1     
   16    5   34 1     
   17    6    7 am    
   18    6   35 1     
   19    7    8 2     
   20    7    9 1     
   21    9   10 1     
   22    9   36 1     
   23    9   37 1     
   24   10   22 am    
   25   10   11 1     
   26   11   12 1     
   27   11   16 2     
   28   12   13 1     
   29   12   14 1     
   30   12   15 1     
   31   16   17 1     
   32   16   38 1     
   33   17   18 2     
   34   17   39 1     
   35   18   19 1     
   36   18   22 1     
   37   19   20 am    
   38   19   21 2     
   39   20   40 1     
   40   20   41 1     
   41   22   23 2     
   42    8   42 1     
   43    8   43 1     
   44   21   44 1     
   45   21   45 1     
   46   23   46 1     
   47   23   47 1     
@<TRIPOS>SUBSTRUCTURE
      1 S1             1
@<TRIPOS>SET
LONE_PAIRS      STATIC     ATOMS    <user>   **** ""
6 42 43 44 45 46 47
DONOR_HYDROGENS      STATIC     ATOMS    <user>   **** ""
3 35 40 41
ATOM$BLUE        STATIC     ATOMS    COLORGROUP SYSTEM
6 42 43 44 45 46 47
ATOM$RED        STATIC     ATOMS    COLORGROUP SYSTEM
3 35 40 41
