AV-unprocessed.smi:1352|AV-procd|sdf|5528|dock4
  -GOLD-   22720 5113D 1   1.00000     0.00000
 Structure written by MMmdl.
 47 48  0  0  0  0  0  0  0  0  2 V2000
  144.8530  132.2879  150.1360 C   0  0  0  0  0  0  0  0  0  0  0  0
  144.4045  132.9298  151.4566 C   0  0  2  0  0  0  0  0  0  0  0  0
  144.0345  134.4112  151.2615 C   0  0  0  0  0  0  0  0  0  0  0  0
  143.6443  135.0804  152.5920 C   0  0  1  0  0  0  0  0  0  0  0  0
  142.2523  134.6549  153.0918 C   0  0  0  0  0  0  0  0  0  0  0  0
  144.7398  134.8536  153.6528 C   0  0  0  0  0  0  0  0  0  0  0  0
  145.0501  133.4101  153.8256 N   0  3  2  0  0  0  0  0  0  0  0  0
  145.9958  133.1700  154.9448 C   0  0  0  0  0  0  0  0  0  0  0  0
  145.5726  133.8954  156.2369 C   0  0  0  0  0  0  0  0  0  0  0  0
  146.7067  134.1103  157.1277 N   0  0  0  0  0  0  0  0  0  0  0  0
  146.9251  135.2274  157.8379 C   0  0  0  0  0  0  0  0  0  0  0  0
  146.1855  136.2113  157.7861 O   0  0  0  0  0  0  0  0  0  0  0  0
  148.1824  135.2307  158.7193 C   0  0  0  0  0  0  0  0  0  0  0  0
  147.8939  135.0277  160.1490 N   0  0  0  0  0  0  0  0  0  0  0  0
  147.8336  133.6973  160.6097 C   0  0  0  0  0  0  0  0  0  0  0  0
  147.5782  133.4017  161.8940 C   0  0  0  0  0  0  0  0  0  0  0  0
  147.3611  134.4918  162.8151 C   0  0  0  0  0  0  0  0  0  0  0  0
  147.4199  135.7682  162.3858 C   0  0  0  0  0  0  0  0  0  0  0  0
  147.7023  136.0959  160.9835 C   0  0  0  0  0  0  0  0  0  0  0  0
  147.7637  137.2588  160.5831 O   0  0  0  0  0  0  0  0  0  0  0  0
  145.4844  132.7879  152.5465 C   0  0  0  0  0  0  0  0  0  0  0  0
  145.7456  132.7740  149.7407 H   0  0  0  0  0  0  0  0  0  0  0  0
  144.0721  132.3608  149.3787 H   0  0  0  0  0  0  0  0  0  0  0  0
  145.0820  131.2303  150.2705 H   0  0  0  0  0  0  0  0  0  0  0  0
  143.5156  132.3928  151.7892 H   0  0  0  0  0  0  0  0  0  0  0  0
  144.8877  134.9412  150.8349 H   0  0  0  0  0  0  0  0  0  0  0  0
  143.2241  134.5094  150.5380 H   0  0  0  0  0  0  0  0  0  0  0  0
  143.5865  136.1541  152.4081 H   0  0  0  0  0  0  0  0  0  0  0  0
  142.2133  133.5950  153.3423 H   0  0  0  0  0  0  0  0  0  0  0  0
  141.4897  134.8452  152.3361 H   0  0  0  0  0  0  0  0  0  0  0  0
  141.9719  135.2131  153.9853 H   0  0  0  0  0  0  0  0  0  0  0  0
  145.6511  135.3803  153.3646 H   0  0  0  0  0  0  0  0  0  0  0  0
  144.4185  135.2843  154.6024 H   0  0  0  0  0  0  0  0  0  0  0  0
  146.1024  132.0979  155.1171 H   0  0  0  0  0  0  0  0  0  0  0  0
  146.9832  133.5336  154.6571 H   0  0  0  0  0  0  0  0  0  0  0  0
  145.0982  134.8499  156.0019 H   0  0  0  0  0  0  0  0  0  0  0  0
  144.8369  133.3119  156.7888 H   0  0  0  0  0  0  0  0  0  0  0  0
  147.3640  133.3496  157.2254 H   0  0  0  0  0  0  0  0  0  0  0  0
  148.8747  134.4636  158.3670 H   0  0  0  0  0  0  0  0  0  0  0  0
  148.7023  136.1769  158.5641 H   0  0  0  0  0  0  0  0  0  0  0  0
  148.0135  132.9406  159.8598 H   0  0  0  0  0  0  0  0  0  0  0  0
  147.5395  132.3760  162.2301 H   0  0  0  0  0  0  0  0  0  0  0  0
  147.1513  134.2832  163.8539 H   0  0  0  0  0  0  0  0  0  0  0  0
  147.2558  136.5708  163.0899 H   0  0  0  0  0  0  0  0  0  0  0  0
  145.6940  131.7297  152.6969 H   0  0  0  0  0  0  0  0  0  0  0  0
  146.4174  133.2488  152.2171 H   0  0  0  0  0  0  0  0  0  0  0  0
  144.1806  132.9686  154.0891 H   0  0  0  0  0  0  0  0  0  0  0  0
  1  2  1  0  0  0  0
  1 22  1  0  0  0  0
  1 23  1  0  0  0  0
  1 24  1  0  0  0  0
  2 21  1  0  0  0  0
  2  3  1  0  0  0  0
  2 25  1  0  0  0  0
  3  4  1  0  0  0  0
  3 26  1  0  0  0  0
  3 27  1  0  0  0  0
  4  5  1  0  0  0  0
  4  6  1  0  0  0  0
  4 28  1  0  0  0  0
  5 29  1  0  0  0  0
  5 30  1  0  0  0  0
  5 31  1  0  0  0  0
  6  7  1  0  0  0  0
  6 32  1  0  0  0  0
  6 33  1  0  0  0  0
  7  8  1  0  0  0  0
  7 21  1  0  0  0  0
  7 47  1  0  0  0  0
  8  9  1  0  0  0  0
  8 34  1  0  0  0  0
  8 35  1  0  0  0  0
  9 10  1  0  0  0  0
  9 36  1  0  0  0  0
  9 37  1  0  0  0  0
 10 11  1  0  0  0  0
 10 38  1  0  0  0  0
 11 12  2  0  0  0  0
 11 13  1  0  0  0  0
 13 14  1  0  0  0  0
 13 39  1  0  0  0  0
 13 40  1  0  0  0  0
 14 19  1  0  0  0  0
 14 15  1  0  0  0  0
 15 16  2  0  0  0  0
 15 41  1  0  0  0  0
 16 17  1  0  0  0  0
 16 42  1  0  0  0  0
 17 18  2  0  0  0  0
 17 43  1  0  0  0  0
 18 19  1  0  0  0  0
 18 44  1  0  0  0  0
 19 20  2  0  0  0  0
 21 45  1  0  0  0  0
 21 46  1  0  0  0  0
M  CHG  1   7   1
M  END
> <s_m_source_file>
AV-unprocessed.smi

> <i_m_source_file_index>
1352

> <i_lp_mmshare_version>
43012

> <i_f3d_flags>
0

> <s_epik_input>
W0NIM11bQ0BASF0xW0NIMl1bQ0BASF0oW0NIM10pW0NIMl1OKFtDSDJdMSlbQ0gyXVtDSDJdW05IXUMoPU8pW0NIMl1uMltjSF1bY0hdW2NIXVtjSF1jMj1P

> <s_epik_cmdline>
J2VwaWtfcHl0aG9uJywgJy1waCcsICc3LjAnLCAnLXRuJywgJzgnLCAnLW1hJywgJzIwMCcsICctbWV0YWxfYmluZGluZycsICctaW1hZScsICc8aW5maWxlLm1hZT4nLCAnLW9tYWUnLCAnPG91dGZpbGUubWFlPic=

> <r_lp_tautomer_probability>
1

> <r_epik_Ionization_Penalty>
0.00156146

> <r_epik_Ionization_Penalty_Charging>
0.00156138

> <r_epik_Ionization_Penalty_Neutral>
8.12891e-08

> <r_epik_State_Penalty>
0.00104868

> <r_epik_Charging_Adjusted_Penalty>
0.00261006

> <i_epik_Tot_Q>
1

> <i_epik_Tot_abs_Q>
1

> <r_epik_Metal_State_Penalty>
-0

> <b_epik_Metal_Only>
0

> <s_lp_Force_Field>
OPLS_2005

> <r_lp_Energy>
27.9536

> <b_lp_Chiralities_Consistent>
1

> <s_lp_Variant>
AV-unprocessed.smi:1352-1

> <Gold.Version>
5.8.1

> <Gold.Id.Protein>
6NUR|6NUR_protein|mol2

> <Gold.PLP.Fitness>
45.8344

> <Gold.PLP.PLP>
-36.9793

> <Gold.PLP.part.hbond>
-3.0000

> <Gold.PLP.part.metal>
0.0000

> <Gold.PLP.part.buried>
-5.5054

> <Gold.PLP.part.nonpolar>
-28.1278

> <Gold.PLP.part.repulsive>
0.0000

> <Gold.PLP.ligand.clash>
0.0000

> <Gold.PLP.ligand.torsion>
0.8821

> <Gold.PLP.Chemscore.Hbond>
3.5134

> <Gold.PLP.Chemscore.CHOScore>
0.0000

> <Gold.PLP.Chemscore.Metal>
0.0000

> <Gold.Chemscore.Hbonds>
donor molecule, donor type, donor heavy atom, donor atom, acceptor molecule, acceptor atom, score
      L1  H     7    47       P1 10957  1.89
      P1  H  6931  6943       L1    20  0.66
      P1  H  6934  6947       L1    20  0.88

> <Gold.PLP.Chemscore.Internal.Correction>
0.0790

> <Gold.Rescore>
     Score         DG    S(hbond)    S(metal)    S(lipo)     H(rot)  DE(clash)    DE(int)     intcor
     17.87     -18.77       2.69        0.00      76.90       1.83       0.01       0.88       ----

> <Gold.Chemscore.Fitness>
17.8687

> <Gold.Chemscore.DG>
-18.7657

> <Gold.Chemscore.ZeroCoef>
-5.4800

> <Gold.Chemscore.Hbond>
2.6888

> <Gold.Chemscore.Metal>
0.0000

> <Gold.Chemscore.Lipo>
76.9007

> <Gold.Chemscore.Internal_Hbond>
0.0000

> <Gold.Chemscore.DEClash>
0.0133

> <Gold.Chemscore.DEInternal>
0.8836

> <Gold.Chemscore.Rot>
1.8329

> <Gold.Chemscore.Internal.Correction>
   9.000000E+99

> <Gold.Chemscore.Hbonds>
donor molecule, donor type, donor heavy atom, donor atom, acceptor molecule, acceptor atom, score
      L1  H     7    47       P1 10957  0.87
      P1  H  6931  6943       L1    20  0.38
      P1  H  6934  6947       L1    20  0.86

> <Gold.Chemscore.Hbond.Weighted>
-8.9805

> <Gold.Chemscore.Metal.Weighted>
-0.0000

> <Gold.Chemscore.Lipo.Weighted>
-8.9974

> <Gold.Chemscore.Internal_Hbond.Weighted>
0.0000

> <Gold.Chemscore.DEClash.Weighted>
0.0133

> <Gold.Chemscore.DEInternal.Weighted>
0.8836

> <Gold.Chemscore.Rot.Weighted>
4.6922

> <Gold.Chemscore.Internal.Correction.Weighted>
   9.000000E+99

> <Gold.Protein.RotatedTorsions>
[ 6907 6896 6895 6894 ] final  -27.56 input  -60.11 | X-H torsion
[ 7974 7965 7964 7962 ] final  175.46 input  175.53 | X-H torsion
[ 8008 7997 7996 7995 ] final  157.68 input   59.86 | X-H torsion
[ 10167 10162 10161 10158 ] final   -4.93 input  -65.29 | X-H torsion
[ 10718 10713 10712 10709 ] final  -21.80 input   66.30 | X-H torsion
[ 10763 10752 10751 10750 ] final  -85.01 input  -60.55 | X-H torsion
[ 11005 11000 10999 10996 ] final  154.98 input  -57.11 | X-H torsion

> <Gold.Protein.ActiveResidues>
 VAL166  LYS551  ARG553  GLY616  TRP617  ASP618  TYR619  PRO620  LYS621  CYS622 
 ASP623  PHE694  ASN695  SER759  ASP760  ASP761  ALA762  ILE779  LEU786  VAL792 
 PHE793  MET794  SER795  GLU796  ALA797  LYS798  CYS799  TRP800  GLU811  SER814 

> <Gold.Protein.RotatedAtoms>
  151.1451  135.0199  159.8642 H   0  0  0  0  0  0  0  0  0  0  0  0  # atno 6907 bound_to 6896
  152.5453  134.1453  159.8506 H   0  0  0  0  0  0  0  0  0  0  0  0  # atno 6908 bound_to 6896
  151.1533  133.4847  159.2628 H   0  0  0  0  0  0  0  0  0  0  0  0  # atno 6909 bound_to 6896
  144.7201  139.9949  143.6440 H   0  0  0  0  0  0  0  0  0  0  0  0  # atno 7974 bound_to 7965
  156.2349  140.1879  156.7145 H   0  0  0  0  0  0  0  0  0  0  0  0  # atno 8008 bound_to 7997
  154.6089  140.0625  156.9494 H   0  0  0  0  0  0  0  0  0  0  0  0  # atno 8009 bound_to 7997
  155.2050  140.3295  155.4340 H   0  0  0  0  0  0  0  0  0  0  0  0  # atno 8010 bound_to 7997
  140.6945  143.6367  150.8473 H   0  0  0  0  0  0  0  0  0  0  0  0  # atno 10167 bound_to 10162
  156.5132  130.4615  149.6637 H   0  0  0  0  0  0  0  0  0  0  0  0  # atno 10718 bound_to 10713
  154.6061  135.5500  153.7425 H   0  0  0  0  0  0  0  0  0  0  0  0  # atno 10763 bound_to 10752
  153.0175  135.6378  154.1644 H   0  0  0  0  0  0  0  0  0  0  0  0  # atno 10764 bound_to 10752
  154.1583  135.2898  155.3096 H   0  0  0  0  0  0  0  0  0  0  0  0  # atno 10765 bound_to 10752
  140.1539  134.8656  157.2489 H   0  0  0  0  0  0  0  0  0  0  0  0  # atno 11005 bound_to 11000
  146.0382  139.3397  143.0714 LP  0  0  0  0  0  0  0  0  0  0  0  0  # atno 17320 bound_to 7965
  145.8368  140.9601  143.0820 LP  0  0  0  0  0  0  0  0  0  0  0  0  # atno 17321 bound_to 7965
  140.0084  143.5669  152.2849 LP  0  0  0  0  0  0  0  0  0  0  0  0  # atno 17342 bound_to 10162
  139.6384  144.7652  151.2390 LP  0  0  0  0  0  0  0  0  0  0  0  0  # atno 17343 bound_to 10162
  156.3220  130.7286  151.2199 LP  0  0  0  0  0  0  0  0  0  0  0  0  # atno 17370 bound_to 10713
  157.7447  131.0453  150.4836 LP  0  0  0  0  0  0  0  0  0  0  0  0  # atno 17371 bound_to 10713
  140.2571  134.3614  155.7420 LP  0  0  0  0  0  0  0  0  0  0  0  0  # atno 17394 bound_to 11000
  141.2202  133.7349  156.9024 LP  0  0  0  0  0  0  0  0  0  0  0  0  # atno 17395 bound_to 11000

$$$$
