AV-unprocessed.smi:462|AV-procd|sdf|2632|dock7
  -GOLD-   2262023 43D 1   1.00000     0.00000
 Structure written by MMmdl.
 46 48  0  0  0  0  0  0  0  0  1 V2000
  154.0337  140.6948  161.4817 C   0  0  0  0  0  0  0  0  0  0  0  0
  153.0940  140.8701  160.4324 O   0  0  0  0  0  0  0  0  0  0  0  0
  152.5852  142.1336  160.2110 C   0  0  0  0  0  0  0  0  0  0  0  0
  152.8648  143.2505  161.0382 C   0  0  0  0  0  0  0  0  0  0  0  0
  152.3101  144.5103  160.7474 C   0  0  0  0  0  0  0  0  0  0  0  0
  151.4711  144.6685  159.6310 C   0  0  0  0  0  0  0  0  0  0  0  0
  151.1867  143.5671  158.8037 C   0  0  0  0  0  0  0  0  0  0  0  0
  151.7425  142.2944  159.0875 C   0  0  0  0  0  0  0  0  0  0  0  0
  151.5114  141.1714  158.3234 O   0  0  0  0  0  0  0  0  0  0  0  0
  150.6773  141.2766  157.1788 C   0  0  0  0  0  0  0  0  0  0  0  0
  151.3767  140.5915  155.9936 C   0  0  0  0  0  0  0  0  0  0  0  0
  150.4325  139.9184  155.1075 N   0  0  0  0  0  0  0  0  0  0  0  0
  150.5107  138.6906  154.5128 C   0  0  0  0  0  0  0  0  0  0  0  0
  151.7015  137.7529  154.6205 C   0  0  0  0  0  0  0  0  0  0  0  0
  153.0184  138.4542  154.2248 C   0  0  0  0  0  0  0  0  0  0  0  0
  151.8072  137.1793  156.0434 C   0  0  0  0  0  0  0  0  0  0  0  0
  151.6385  136.6588  153.7265 O   0  0  0  0  0  0  0  0  0  0  0  0
  149.4969  138.4043  153.6892 N   0  0  0  0  0  0  0  0  0  0  0  0
  148.6637  139.4948  153.8115 C   0  0  0  0  0  0  0  0  0  0  0  0
  147.4123  139.7654  153.2131 C   0  0  0  0  0  0  0  0  0  0  0  0
  146.7367  140.9726  153.4863 C   0  0  0  0  0  0  0  0  0  0  0  0
  147.3048  141.9253  154.3561 C   0  0  0  0  0  0  0  0  0  0  0  0
  148.5534  141.6753  154.9568 C   0  0  0  0  0  0  0  0  0  0  0  0
  149.2206  140.4641  154.6876 C   0  0  0  0  0  0  0  0  0  0  0  0
  154.3480  139.6515  161.5096 H   0  0  0  0  0  0  0  0  0  0  0  0
  153.5971  140.9340  162.4523 H   0  0  0  0  0  0  0  0  0  0  0  0
  154.9254  141.3032  161.3250 H   0  0  0  0  0  0  0  0  0  0  0  0
  153.5039  143.1669  161.9039 H   0  0  0  0  0  0  0  0  0  0  0  0
  152.5289  145.3562  161.3822 H   0  0  0  0  0  0  0  0  0  0  0  0
  151.0449  145.6357  159.4087 H   0  0  0  0  0  0  0  0  0  0  0  0
  150.5374  143.7236  157.9557 H   0  0  0  0  0  0  0  0  0  0  0  0
  149.7182  140.7928  157.3682 H   0  0  0  0  0  0  0  0  0  0  0  0
  150.4870  142.3250  156.9468 H   0  0  0  0  0  0  0  0  0  0  0  0
  151.9177  141.3384  155.4118 H   0  0  0  0  0  0  0  0  0  0  0  0
  152.1352  139.8890  156.3344 H   0  0  0  0  0  0  0  0  0  0  0  0
  153.2463  139.2886  154.8890 H   0  0  0  0  0  0  0  0  0  0  0  0
  152.9700  138.8462  153.2078 H   0  0  0  0  0  0  0  0  0  0  0  0
  153.8672  137.7707  154.2730 H   0  0  0  0  0  0  0  0  0  0  0  0
  151.9234  137.9758  156.7793 H   0  0  0  0  0  0  0  0  0  0  0  0
  152.6636  136.5116  156.1442 H   0  0  0  0  0  0  0  0  0  0  0  0
  150.9148  136.6133  156.3125 H   0  0  0  0  0  0  0  0  0  0  0  0
  151.3578  136.9778  152.8827 H   0  0  0  0  0  0  0  0  0  0  0  0
  146.9710  139.0416  152.5441 H   0  0  0  0  0  0  0  0  0  0  0  0
  145.7794  141.1685  153.0261 H   0  0  0  0  0  0  0  0  0  0  0  0
  146.7821  142.8477  154.5626 H   0  0  0  0  0  0  0  0  0  0  0  0
  148.9878  142.4034  155.6257 H   0  0  0  0  0  0  0  0  0  0  0  0
  1  2  1  0  0  0  0
  1 25  1  0  0  0  0
  1 26  1  0  0  0  0
  1 27  1  0  0  0  0
  2  3  1  0  0  0  0
  3  8  1  0  0  0  0
  3  4  2  0  0  0  0
  4  5  1  0  0  0  0
  4 28  1  0  0  0  0
  5  6  2  0  0  0  0
  5 29  1  0  0  0  0
  6  7  1  0  0  0  0
  6 30  1  0  0  0  0
  7  8  2  0  0  0  0
  7 31  1  0  0  0  0
  8  9  1  0  0  0  0
  9 10  1  0  0  0  0
 10 11  1  0  0  0  0
 10 32  1  0  0  0  0
 10 33  1  0  0  0  0
 11 12  1  0  0  0  0
 11 34  1  0  0  0  0
 11 35  1  0  0  0  0
 12 24  1  0  0  0  0
 12 13  1  0  0  0  0
 13 14  1  0  0  0  0
 13 18  2  0  0  0  0
 14 15  1  0  0  0  0
 14 16  1  0  0  0  0
 14 17  1  0  0  0  0
 15 36  1  0  0  0  0
 15 37  1  0  0  0  0
 15 38  1  0  0  0  0
 16 39  1  0  0  0  0
 16 40  1  0  0  0  0
 16 41  1  0  0  0  0
 17 42  1  0  0  0  0
 18 19  1  0  0  0  0
 19 24  2  0  0  0  0
 19 20  1  0  0  0  0
 20 21  2  0  0  0  0
 20 43  1  0  0  0  0
 21 22  1  0  0  0  0
 21 44  1  0  0  0  0
 22 23  2  0  0  0  0
 22 45  1  0  0  0  0
 23 24  1  0  0  0  0
 23 46  1  0  0  0  0
M  END
> <s_m_source_file>
AV-unprocessed.smi

> <i_m_source_file_index>
462

> <i_lp_mmshare_version>
43012

> <i_f3d_flags>
0

> <s_epik_input>
W0NIM11PYzFbY0hdW2NIXVtjSF1bY0hdYzFPW0NIMl1bQ0gyXW4oYyhuMilDKFtDSDNdKShbQ0gzXSlbT0hdKWMoYzIzKVtjSF1bY0hdW2NIXVtjSF0z

> <s_epik_cmdline>
J2VwaWtfcHl0aG9uJywgJy1waCcsICc3LjAnLCAnLXRuJywgJzgnLCAnLW1hJywgJzIwMCcsICctbWV0YWxfYmluZGluZycsICctaW1hZScsICc8aW5maWxlLm1hZT4nLCAnLW9tYWUnLCAnPG91dGZpbGUubWFlPic=

> <r_lp_tautomer_probability>
1

> <r_epik_Ionization_Penalty>
0.0665975

> <r_epik_Ionization_Penalty_Charging>
0

> <r_epik_Ionization_Penalty_Neutral>
0.0665975

> <r_epik_State_Penalty>
0.0581545

> <r_epik_Charging_Adjusted_Penalty>
0.0581545

> <i_epik_Tot_Q>
0

> <i_epik_Tot_abs_Q>
0

> <r_epik_Metal_State_Penalty>
6.11011e-05

> <b_epik_Metal_Only>
0

> <s_lp_Force_Field>
OPLS_2005

> <r_lp_Energy>
19.5197

> <b_lp_Chiralities_Consistent>
1

> <s_lp_Variant>
AV-unprocessed.smi:462-1

> <Gold.Version>
5.8.1

> <Gold.Id.Protein>
6NUR|6NUR_protein|mol2

> <Gold.PLP.Fitness>
57.7986

> <Gold.PLP.PLP>
-54.2936

> <Gold.PLP.part.hbond>
-2.0000

> <Gold.PLP.part.metal>
0.0000

> <Gold.PLP.part.buried>
-3.6432

> <Gold.PLP.part.nonpolar>
-50.3415

> <Gold.PLP.part.repulsive>
1.3685

> <Gold.PLP.ligand.clash>
0.0000

> <Gold.PLP.ligand.torsion>
0.9563

> <Gold.PLP.Chemscore.Hbond>
1.7488

> <Gold.PLP.Chemscore.CHOScore>
0.0000

> <Gold.PLP.Chemscore.Metal>
0.0000

> <Gold.Chemscore.Hbonds>
donor molecule, donor type, donor heavy atom, donor atom, acceptor molecule, acceptor atom, score
      L1  H    17    42       P1  7949  0.48
      P1  H 10752 10763       L1    17  0.88

> <Gold.PLP.Chemscore.Internal.Correction>
0.1712

> <Gold.Rescore>
     Score         DG    S(hbond)    S(metal)    S(lipo)     H(rot)  DE(clash)    DE(int)     intcor
     20.55     -22.02       1.47        0.00     148.84       2.25       0.65       0.82       ----

> <Gold.Chemscore.Fitness>
20.5499

> <Gold.Chemscore.DG>
-22.0242

> <Gold.Chemscore.ZeroCoef>
-5.4800

> <Gold.Chemscore.Hbond>
1.4674

> <Gold.Chemscore.Metal>
0.0000

> <Gold.Chemscore.Lipo>
148.8355

> <Gold.Chemscore.Internal_Hbond>
0.0000

> <Gold.Chemscore.DEClash>
0.6497

> <Gold.Chemscore.DEInternal>
0.8247

> <Gold.Chemscore.Rot>
2.2541

> <Gold.Chemscore.Internal.Correction>
   9.000000E+99

> <Gold.Chemscore.Hbonds>
donor molecule, donor type, donor heavy atom, donor atom, acceptor molecule, acceptor atom, score
      L1  H    17    42       P1  7949  0.38
      P1  H 10752 10763       L1    17  0.20

> <Gold.Chemscore.Hbond.Weighted>
-4.9010

> <Gold.Chemscore.Metal.Weighted>
-0.0000

> <Gold.Chemscore.Lipo.Weighted>
-17.4138

> <Gold.Chemscore.Internal_Hbond.Weighted>
0.0000

> <Gold.Chemscore.DEClash.Weighted>
0.6497

> <Gold.Chemscore.DEInternal.Weighted>
0.8247

> <Gold.Chemscore.Rot.Weighted>
5.7705

> <Gold.Chemscore.Internal.Correction.Weighted>
   9.000000E+99

> <Gold.Protein.RotatedTorsions>
[ 6907 6896 6895 6894 ] final   43.77 input  -60.11 | X-H torsion
[ 7974 7965 7964 7962 ] final -165.37 input  175.53 | X-H torsion
[ 8008 7997 7996 7995 ] final  171.95 input   59.86 | X-H torsion
[ 10167 10162 10161 10158 ] final  -66.17 input  -65.29 | X-H torsion
[ 10718 10713 10712 10709 ] final  171.00 input   66.30 | X-H torsion
[ 10763 10752 10751 10750 ] final   53.04 input  -60.55 | X-H torsion
[ 11005 11000 10999 10996 ] final   91.42 input  -57.11 | X-H torsion

> <Gold.Protein.ActiveResidues>
 VAL166  LYS551  ARG553  GLY616  TRP617  ASP618  TYR619  PRO620  LYS621  CYS622 
 ASP623  PHE694  ASN695  SER759  ASP760  ASP761  ALA762  ILE779  LEU786  VAL792 
 PHE793  MET794  SER795  GLU796  ALA797  LYS798  CYS799  TRP800  GLU811  SER814 

> <Gold.Protein.RotatedAtoms>
  152.2243  134.8383  160.0481 H   0  0  0  0  0  0  0  0  0  0  0  0  # atno 6907 bound_to 6896
  151.9155  133.3567  159.3887 H   0  0  0  0  0  0  0  0  0  0  0  0  # atno 6908 bound_to 6896
  150.7008  134.4614  159.5426 H   0  0  0  0  0  0  0  0  0  0  0  0  # atno 6909 bound_to 6896
  144.7272  140.2823  143.6234 H   0  0  0  0  0  0  0  0  0  0  0  0  # atno 7974 bound_to 7965
  156.1222  140.1498  156.9188 H   0  0  0  0  0  0  0  0  0  0  0  0  # atno 8008 bound_to 7997
  154.4844  140.0869  156.7494 H   0  0  0  0  0  0  0  0  0  0  0  0  # atno 8009 bound_to 7997
  155.4408  140.3431  155.4292 H   0  0  0  0  0  0  0  0  0  0  0  0  # atno 8010 bound_to 7997
  140.5676  143.2315  151.6603 H   0  0  0  0  0  0  0  0  0  0  0  0  # atno 10167 bound_to 10162
  156.9999  131.0173  151.2833 H   0  0  0  0  0  0  0  0  0  0  0  0  # atno 10718 bound_to 10713
  152.9792  135.5792  154.4677 H   0  0  0  0  0  0  0  0  0  0  0  0  # atno 10763 bound_to 10752
  154.4244  135.2772  155.1956 H   0  0  0  0  0  0  0  0  0  0  0  0  # atno 10764 bound_to 10752
  154.3691  135.6171  153.5784 H   0  0  0  0  0  0  0  0  0  0  0  0  # atno 10765 bound_to 10752
  139.8839  134.8673  156.3426 H   0  0  0  0  0  0  0  0  0  0  0  0  # atno 11005 bound_to 11000
  145.7937  139.1937  143.2088 LP  0  0  0  0  0  0  0  0  0  0  0  0  # atno 17320 bound_to 7965
  146.0735  140.7843  142.9676 LP  0  0  0  0  0  0  0  0  0  0  0  0  # atno 17321 bound_to 7965
  139.5101  144.3554  152.0612 LP  0  0  0  0  0  0  0  0  0  0  0  0  # atno 17342 bound_to 10162
  140.2688  144.3987  150.6159 LP  0  0  0  0  0  0  0  0  0  0  0  0  # atno 17343 bound_to 10162
  157.5398  130.8112  149.8015 LP  0  0  0  0  0  0  0  0  0  0  0  0  # atno 17370 bound_to 10713
  156.0175  130.3808  150.2064 LP  0  0  0  0  0  0  0  0  0  0  0  0  # atno 17371 bound_to 10713
  140.9648  133.7365  156.0452 LP  0  0  0  0  0  0  0  0  0  0  0  0  # atno 17394 bound_to 11000
  140.7944  134.3581  157.5456 LP  0  0  0  0  0  0  0  0  0  0  0  0  # atno 17395 bound_to 11000

$$$$
