AV-unprocessed.smi:2671|AV-procd|sdf|10353|dock4
  -GOLD-   2272014373D 1   1.00000     0.00000
 Structure written by MMmdl.
 29 30  0  0  0  0  0  0  0  0  1 V2000
  149.7829  140.8603  153.4026 O   0  0  0  0  0  0  0  0  0  0  0  0
  149.1107  141.2934  154.5072 C   0  0  0  0  0  0  0  0  0  0  0  0
  147.7431  141.6239  154.4097 C   0  0  0  0  0  0  0  0  0  0  0  0
  147.1130  142.0649  155.5963 C   0  0  0  0  0  0  0  0  0  0  0  0
  145.6426  142.4523  155.6353 C   0  0  0  0  0  0  0  0  0  0  0  0
  144.8872  141.3725  155.4335 F   0  0  0  0  0  0  0  0  0  0  0  0
  145.3084  142.9886  156.8099 F   0  0  0  0  0  0  0  0  0  0  0  0
  145.3875  143.3423  154.6765 F   0  0  0  0  0  0  0  0  0  0  0  0
  147.7932  142.1617  156.7616 N   0  0  0  0  0  0  0  0  0  0  0  0
  149.0825  141.8215  156.7337 C   0  0  0  0  0  0  0  0  0  0  0  0
  149.9372  141.9698  158.2943 S   0  0  0  0  0  0  0  0  0  0  0  0
  151.4889  142.7983  157.8313 C   0  0  0  0  0  0  0  0  0  0  0  0
  152.3576  143.1055  159.0583 C   0  0  1  0  0  0  0  0  0  0  0  0
  151.7494  144.1119  160.0366 C   0  0  0  0  0  0  0  0  0  0  0  0
  152.3570  143.7279  161.3780 C   0  0  0  0  0  0  0  0  0  0  0  0
  153.0152  142.3703  161.1181 C   0  0  0  0  0  0  0  0  0  0  0  0
  152.5002  141.9473  159.8641 O   0  0  0  0  0  0  0  0  0  0  0  0
  149.7783  141.3948  155.6764 N   0  0  0  0  0  0  0  0  0  0  0  0
  149.2595  140.3070  152.8441 H   0  0  0  0  0  0  0  0  0  0  0  0
  147.2097  141.5424  153.4743 H   0  0  0  0  0  0  0  0  0  0  0  0
  152.0395  142.1738  157.1269 H   0  0  0  0  0  0  0  0  0  0  0  0
  151.2477  143.7292  157.3175 H   0  0  0  0  0  0  0  0  0  0  0  0
  153.3505  143.4354  158.7468 H   0  0  0  0  0  0  0  0  0  0  0  0
  151.9597  145.1448  159.7574 H   0  0  0  0  0  0  0  0  0  0  0  0
  150.6661  143.9916  160.0809 H   0  0  0  0  0  0  0  0  0  0  0  0
  153.0940  144.4584  161.7131 H   0  0  0  0  0  0  0  0  0  0  0  0
  151.5833  143.6563  162.1432 H   0  0  0  0  0  0  0  0  0  0  0  0
  154.0982  142.4775  161.0422 H   0  0  0  0  0  0  0  0  0  0  0  0
  152.7998  141.6419  161.9001 H   0  0  0  0  0  0  0  0  0  0  0  0
  1  2  1  0  0  0  0
  1 19  1  0  0  0  0
  2 18  1  0  0  0  0
  2  3  2  0  0  0  0
  3  4  1  0  0  0  0
  3 20  1  0  0  0  0
  4  5  1  0  0  0  0
  4  9  2  0  0  0  0
  5  6  1  0  0  0  0
  5  7  1  0  0  0  0
  5  8  1  0  0  0  0
  9 10  1  0  0  0  0
 10 11  1  0  0  0  0
 10 18  2  0  0  0  0
 11 12  1  0  0  0  0
 12 13  1  0  0  0  0
 12 21  1  0  0  0  0
 12 22  1  0  0  0  0
 13 17  1  0  0  0  0
 13 14  1  0  0  0  0
 13 23  1  0  0  0  0
 14 15  1  0  0  0  0
 14 24  1  0  0  0  0
 14 25  1  0  0  0  0
 15 16  1  0  0  0  0
 15 26  1  0  0  0  0
 15 27  1  0  0  0  0
 16 17  1  0  0  0  0
 16 28  1  0  0  0  0
 16 29  1  0  0  0  0
M  END
> <s_m_source_file>
AV-unprocessed.smi

> <i_m_source_file_index>
2671

> <i_lp_mmshare_version>
43012

> <i_f3d_flags>
0

> <s_epik_input>
W09IXWMxW2NIXWMoQyhGKShGKUYpbmMobjEpU1tDSDJdW0NAQEhdMltDSDJdW0NIMl1bQ0gyXU8y

> <s_epik_cmdline>
J2VwaWtfcHl0aG9uJywgJy1waCcsICc3LjAnLCAnLXRuJywgJzgnLCAnLW1hJywgJzIwMCcsICctbWV0YWxfYmluZGluZycsICctaW1hZScsICc8aW5maWxlLm1hZT4nLCAnLW9tYWUnLCAnPG91dGZpbGUubWFlPic=

> <r_lp_tautomer_probability>
0.0660145

> <r_epik_Ionization_Penalty>
3.60098

> <r_epik_Ionization_Penalty_Charging>
0

> <r_epik_Ionization_Penalty_Neutral>
3.60098

> <r_epik_State_Penalty>
2.71709

> <r_epik_Charging_Adjusted_Penalty>
2.71709

> <i_epik_Tot_Q>
0

> <i_epik_Tot_abs_Q>
0

> <r_epik_Metal_State_Penalty>
3.44057

> <b_epik_Metal_Only>
0

> <s_lp_Force_Field>
OPLS_2005

> <r_lp_Energy>
10.3894

> <b_lp_Chiralities_Consistent>
1

> <s_lp_Variant>
AV-unprocessed.smi:2671-8

> <Gold.Version>
5.8.1

> <Gold.Id.Protein>
6NUR|6NUR_protein|mol2

> <Gold.PLP.Fitness>
41.0868

> <Gold.PLP.PLP>
-36.4907

> <Gold.PLP.part.hbond>
-2.4354

> <Gold.PLP.part.metal>
0.0000

> <Gold.PLP.part.buried>
-3.3716

> <Gold.PLP.part.nonpolar>
-30.3048

> <Gold.PLP.part.repulsive>
1.3216

> <Gold.PLP.ligand.clash>
0.0000

> <Gold.PLP.ligand.torsion>
0.3851

> <Gold.PLP.Chemscore.Hbond>
1.7840

> <Gold.PLP.Chemscore.CHOScore>
0.0000

> <Gold.PLP.Chemscore.Metal>
0.0000

> <Gold.Chemscore.Hbonds>
donor molecule, donor type, donor heavy atom, donor atom, acceptor molecule, acceptor atom, score
      L1  H     1    19       P1  7957  0.46
      P1  H  7989  7998       L1     1  0.29
      P1  H  8011  8017       L1     1  0.95

> <Gold.PLP.Chemscore.Internal.Correction>
0.0142

> <Gold.Rescore>
     Score         DG    S(hbond)    S(metal)    S(lipo)     H(rot)  DE(clash)    DE(int)     intcor
     11.29     -11.83       0.98        0.00      75.76       2.27       0.17       0.37       ----

> <Gold.Chemscore.Fitness>
11.2856

> <Gold.Chemscore.DG>
-11.8271

> <Gold.Chemscore.ZeroCoef>
-5.4800

> <Gold.Chemscore.Hbond>
0.9825

> <Gold.Chemscore.Metal>
0.0000

> <Gold.Chemscore.Lipo>
75.7613

> <Gold.Chemscore.Internal_Hbond>
0.0000

> <Gold.Chemscore.DEClash>
0.1717

> <Gold.Chemscore.DEInternal>
0.3698

> <Gold.Chemscore.Rot>
2.2650

> <Gold.Chemscore.Internal.Correction>
   9.000000E+99

> <Gold.Chemscore.Hbonds>
donor molecule, donor type, donor heavy atom, donor atom, acceptor molecule, acceptor atom, score
      L1  H     1    19       P1  7957  0.46
      P1  H  7989  7998       L1     1  0.27
      P1  H  8011  8017       L1     1  0.07

> <Gold.Chemscore.Hbond.Weighted>
-3.2815

> <Gold.Chemscore.Metal.Weighted>
-0.0000

> <Gold.Chemscore.Lipo.Weighted>
-8.8641

> <Gold.Chemscore.Internal_Hbond.Weighted>
0.0000

> <Gold.Chemscore.DEClash.Weighted>
0.1717

> <Gold.Chemscore.DEInternal.Weighted>
0.3698

> <Gold.Chemscore.Rot.Weighted>
5.7984

> <Gold.Chemscore.Internal.Correction.Weighted>
   9.000000E+99

> <Gold.Protein.RotatedTorsions>
[ 6907 6896 6895 6894 ] final  -53.19 input  -60.11 | X-H torsion
[ 7974 7965 7964 7962 ] final  164.33 input  175.53 | X-H torsion
[ 8008 7997 7996 7995 ] final  -72.64 input   59.86 | X-H torsion
[ 10167 10162 10161 10158 ] final  -16.44 input  -65.29 | X-H torsion
[ 10718 10713 10712 10709 ] final  -74.51 input   66.30 | X-H torsion
[ 10763 10752 10751 10750 ] final  176.16 input  -60.55 | X-H torsion
[ 11005 11000 10999 10996 ] final  159.84 input  -57.11 | X-H torsion

> <Gold.Protein.ActiveResidues>
 VAL166  LYS551  ARG553  GLY616  TRP617  ASP618  TYR619  PRO620  LYS621  CYS622 
 ASP623  PHE694  ASN695  SER759  ASP760  ASP761  ALA762  ILE779  LEU786  VAL792 
 PHE793  MET794  SER795  GLU796  ALA797  LYS798  CYS799  TRP800  GLU811  SER814 

> <Gold.Protein.RotatedAtoms>
  150.8449  134.7754  159.6961 H   0  0  0  0  0  0  0  0  0  0  0  0  # atno 6907 bound_to 6896
  152.4528  134.5353  159.9833 H   0  0  0  0  0  0  0  0  0  0  0  0  # atno 6908 bound_to 6896
  151.5486  133.3383  159.2984 H   0  0  0  0  0  0  0  0  0  0  0  0  # atno 6909 bound_to 6896
  144.7550  139.8311  143.6353 H   0  0  0  0  0  0  0  0  0  0  0  0  # atno 7974 bound_to 7965
  154.5182  140.0793  156.8122 H   0  0  0  0  0  0  0  0  0  0  0  0  # atno 8008 bound_to 7997
  155.3633  140.3419  155.4223 H   0  0  0  0  0  0  0  0  0  0  0  0  # atno 8009 bound_to 7997
  156.1652  140.1601  156.8531 H   0  0  0  0  0  0  0  0  0  0  0  0  # atno 8010 bound_to 7997
  140.7234  143.5116  150.9743 H   0  0  0  0  0  0  0  0  0  0  0  0  # atno 10167 bound_to 10162
  156.0240  130.4419  150.2903 H   0  0  0  0  0  0  0  0  0  0  0  0  # atno 10718 bound_to 10713
  154.4774  135.2773  155.1597 H   0  0  0  0  0  0  0  0  0  0  0  0  # atno 10763 bound_to 10752
  154.3321  135.6188  153.5560 H   0  0  0  0  0  0  0  0  0  0  0  0  # atno 10764 bound_to 10752
  152.9871  135.5768  154.5167 H   0  0  0  0  0  0  0  0  0  0  0  0  # atno 10765 bound_to 10752
  140.2000  134.8344  157.3008 H   0  0  0  0  0  0  0  0  0  0  0  0  # atno 11005 bound_to 11000
  146.1548  139.4643  143.0025 LP  0  0  0  0  0  0  0  0  0  0  0  0  # atno 17320 bound_to 7965
  145.6812  141.0190  143.1605 LP  0  0  0  0  0  0  0  0  0  0  0  0  # atno 17321 bound_to 7965
  139.8830  143.7049  152.3155 LP  0  0  0  0  0  0  0  0  0  0  0  0  # atno 17342 bound_to 10162
  139.7337  144.7576  151.0761 LP  0  0  0  0  0  0  0  0  0  0  0  0  # atno 17343 bound_to 10162
  157.1007  131.0195  151.3086 LP  0  0  0  0  0  0  0  0  0  0  0  0  # atno 17370 bound_to 10713
  157.4782  130.7749  149.7388 LP  0  0  0  0  0  0  0  0  0  0  0  0  # atno 17371 bound_to 10713
  140.2064  134.4192  155.7635 LP  0  0  0  0  0  0  0  0  0  0  0  0  # atno 17394 bound_to 11000
  141.2227  133.7097  156.8267 LP  0  0  0  0  0  0  0  0  0  0  0  0  # atno 17395 bound_to 11000

$$$$
