AV-unprocessed.smi:72|AV-procd|sdf|697|dock3
  -GOLD-   2262017 13D 1   1.00000     0.00000
 Structure written by MMmdl.
 30 31  0  0  0  0  0  0  0  0  2 V2000
  154.5142  139.0387  153.5126 N   0  0  0  0  0  0  0  0  0  0  0  0
  153.2269  139.3341  153.9103 C   0  0  0  0  0  0  0  0  0  0  0  0
  152.2030  138.5543  153.4044 N   0  3  0  0  0  0  0  0  0  0  0  0
  150.9015  138.7146  153.6802 C   0  0  0  0  0  0  0  0  0  0  0  0
  150.5319  139.6976  154.4794 N   0  0  0  0  0  0  0  0  0  0  0  0
  149.0839  139.9343  154.8430 C   0  0  2  0  0  0  0  0  0  0  0  0
  148.3158  138.9509  154.2217 O   0  0  0  0  0  0  0  0  0  0  0  0
  147.8389  139.4453  152.9747 C   0  0  1  0  0  0  0  0  0  0  0  0
  146.7085  138.5634  152.4177 C   0  0  0  0  0  0  0  0  0  0  0  0
  146.5508  138.8092  151.0363 O   0  0  0  0  0  0  0  0  0  0  0  0
  147.4509  140.8802  153.3441 C   0  0  1  0  0  0  0  0  0  0  0  0
  146.1791  140.9018  153.9714 O   0  0  0  0  0  0  0  0  0  0  0  0
  148.5831  141.2880  154.2885 C   0  0  1  0  0  0  0  0  0  0  0  0
  148.1579  142.1863  155.2964 O   0  0  0  0  0  0  0  0  0  0  0  0
  151.5175  140.5220  155.0821 C   0  0  0  0  0  0  0  0  0  0  0  0
  151.1895  141.4064  155.8723 O   0  0  0  0  0  0  0  0  0  0  0  0
  152.8523  140.2779  154.7286 N   0  0  0  0  0  0  0  0  0  0  0  0
  149.0348  139.8305  155.9284 H   0  0  0  0  0  0  0  0  0  0  0  0
  148.6626  139.4901  152.2591 H   0  0  0  0  0  0  0  0  0  0  0  0
  147.4077  141.5266  152.4670 H   0  0  0  0  0  0  0  0  0  0  0  0
  149.3758  141.7619  153.7075 H   0  0  0  0  0  0  0  0  0  0  0  0
  155.3233  139.5510  153.8342 H   0  0  0  0  0  0  0  0  0  0  0  0
  154.7513  138.2946  152.8722 H   0  0  0  0  0  0  0  0  0  0  0  0
  150.1912  138.0251  153.2435 H   0  0  0  0  0  0  0  0  0  0  0  0
  146.9021  137.5049  152.5940 H   0  0  0  0  0  0  0  0  0  0  0  0
  145.7647  138.8091  152.9053 H   0  0  0  0  0  0  0  0  0  0  0  0
  145.6502  138.6412  150.8033 H   0  0  0  0  0  0  0  0  0  0  0  0
  145.5453  140.5412  153.3696 H   0  0  0  0  0  0  0  0  0  0  0  0
  148.4521  143.0559  155.0701 H   0  0  0  0  0  0  0  0  0  0  0  0
  152.4603  137.8021  152.7813 H   0  0  0  0  0  0  0  0  0  0  0  0
  1  2  1  0  0  0  0
  1 22  1  0  0  0  0
  1 23  1  0  0  0  0
  2 17  2  0  0  0  0
  2  3  1  0  0  0  0
  3  4  2  0  0  0  0
  3 30  1  0  0  0  0
  4  5  1  0  0  0  0
  4 24  1  0  0  0  0
  5  6  1  0  0  0  0
  5 15  1  0  0  0  0
  6 18  1  0  0  0  0
  6 13  1  0  0  0  0
  6  7  1  0  0  0  0
  7  8  1  0  0  0  0
  8 19  1  0  0  0  0
  8  9  1  0  0  0  0
  8 11  1  0  0  0  0
  9 10  1  0  0  0  0
  9 25  1  0  0  0  0
  9 26  1  0  0  0  0
 10 27  1  0  0  0  0
 11 20  1  0  0  0  0
 11 12  1  0  0  0  0
 11 13  1  0  0  0  0
 12 28  1  0  0  0  0
 13 21  1  0  0  0  0
 13 14  1  0  0  0  0
 14 29  1  0  0  0  0
 15 16  2  0  0  0  0
 15 17  1  0  0  0  0
M  CHG  1   3   1
M  END
> <s_m_source_file>
AV-unprocessed.smi

> <i_m_source_file_index>
72

> <i_lp_mmshare_version>
43012

> <i_f3d_flags>
0

> <s_epik_input>
W05IMl1jMW5bY0hdbihjKD1PKW4xKVtDQEBIXTJPW0NASF0oW0NIMl1bT0hdKVtDQEBIXShbT0hdKVtDQEhdMltPSF0=

> <s_epik_cmdline>
J2VwaWtfcHl0aG9uJywgJy1waCcsICc3LjAnLCAnLXRuJywgJzgnLCAnLW1hJywgJzIwMCcsICctbWV0YWxfYmluZGluZycsICctaW1hZScsICc8aW5maWxlLm1hZT4nLCAnLW9tYWUnLCAnPG91dGZpbGUubWFlPic=

> <r_lp_tautomer_probability>
4.77166e-05

> <r_epik_Ionization_Penalty>
0.104979

> <r_epik_Ionization_Penalty_Charging>
0.0999619

> <r_epik_Ionization_Penalty_Neutral>
0.00501745

> <r_epik_State_Penalty>
2.51541

> <r_epik_Charging_Adjusted_Penalty>
2.61537

> <i_epik_Tot_Q>
1

> <i_epik_Tot_abs_Q>
1

> <r_epik_Metal_State_Penalty>
3.53763

> <b_epik_Metal_Only>
0

> <s_epik_Chemistry_Notes>
This compound contains an acetal/aminal-like group ( X-CH(R)-Y where X, Y are N, S, or O) that may be acid/base labile, releasing an aldehyde.

> <s_lp_Force_Field>
OPLS_2005

> <r_lp_Energy>
33.8759

> <b_lp_Chiralities_Consistent>
1

> <s_lp_Variant>
AV-unprocessed.smi:72-35

> <Gold.Version>
5.8.1

> <Gold.Id.Protein>
6NUR|6NUR_protein|mol2

> <Gold.PLP.Fitness>
44.8517

> <Gold.PLP.PLP>
-28.4545

> <Gold.PLP.part.hbond>
-6.0358

> <Gold.PLP.part.metal>
0.0000

> <Gold.PLP.part.buried>
-0.8728

> <Gold.PLP.part.nonpolar>
-23.8052

> <Gold.PLP.part.repulsive>
1.3609

> <Gold.PLP.ligand.clash>
0.0000

> <Gold.PLP.ligand.torsion>
0.2589

> <Gold.PLP.Chemscore.Hbond>
4.6275

> <Gold.PLP.Chemscore.CHOScore>
1.0000

> <Gold.PLP.Chemscore.Metal>
0.0000

> <Gold.Chemscore.Hbonds>
donor molecule, donor type, donor heavy atom, donor atom, acceptor molecule, acceptor atom, score
      L1  H    10    27       P1 10171  1.00
      L1  H    12    28       P1 10175  0.91
      L1  H    14    29       P1  8028  0.96
      P1  H  7954  7966       L1    10  0.56
      P1  H  7997  8010       L1    17  0.25
      L1  C     4    24       P1  7948  1.00
      L1  C     4    24       P1  7949  0.04

> <Gold.PLP.Chemscore.Internal.Correction>
0.0326

> <Gold.Rescore>
     Score         DG    S(hbond)    S(metal)    S(lipo)     H(rot)  DE(clash)    DE(int)     intcor
      6.66      -9.59       3.30        0.00      30.22       4.08       2.77       0.16       ----

> <Gold.Chemscore.Fitness>
6.6646

> <Gold.Chemscore.DG>
-9.5941

> <Gold.Chemscore.ZeroCoef>
-5.4800

> <Gold.Chemscore.Hbond>
3.2989

> <Gold.Chemscore.Metal>
0.0000

> <Gold.Chemscore.Lipo>
30.2230

> <Gold.Chemscore.Internal_Hbond>
0.0000

> <Gold.Chemscore.DEClash>
2.7672

> <Gold.Chemscore.DEInternal>
0.1623

> <Gold.Chemscore.Rot>
4.0783

> <Gold.Chemscore.Internal.Correction>
   9.000000E+99

> <Gold.Chemscore.Hbonds>
donor molecule, donor type, donor heavy atom, donor atom, acceptor molecule, acceptor atom, score
      L1  H    10    27       P1 10171  0.94
      L1  H    12    28       P1 10175  0.81
      L1  H    14    29       P1  8028  0.92
      P1  H  7954  7966       L1    10  0.42
      P1  H  7997  8010       L1    17  0.09

> <Gold.Chemscore.Hbond.Weighted>
-11.0184

> <Gold.Chemscore.Metal.Weighted>
-0.0000

> <Gold.Chemscore.Lipo.Weighted>
-3.5361

> <Gold.Chemscore.Internal_Hbond.Weighted>
0.0000

> <Gold.Chemscore.DEClash.Weighted>
2.7672

> <Gold.Chemscore.DEInternal.Weighted>
0.1623

> <Gold.Chemscore.Rot.Weighted>
10.4404

> <Gold.Chemscore.Internal.Correction.Weighted>
   9.000000E+99

> <Gold.Protein.RotatedTorsions>
[ 6907 6896 6895 6894 ] final -142.87 input  -60.11 | X-H torsion
[ 7974 7965 7964 7962 ] final -154.86 input  175.53 | X-H torsion
[ 8008 7997 7996 7995 ] final   72.07 input   59.86 | X-H torsion
[ 10167 10162 10161 10158 ] final -138.66 input  -65.29 | X-H torsion
[ 10718 10713 10712 10709 ] final  177.80 input   66.30 | X-H torsion
[ 10763 10752 10751 10750 ] final  168.49 input  -60.55 | X-H torsion
[ 11005 11000 10999 10996 ] final  -21.98 input  -57.11 | X-H torsion

> <Gold.Protein.ActiveResidues>
 VAL166  LYS551  ARG553  GLY616  TRP617  ASP618  TYR619  PRO620  LYS621  CYS622 
 ASP623  PHE694  ASN695  SER759  ASP760  ASP761  ALA762  ILE779  LEU786  VAL792 
 PHE793  MET794  SER795  GLU796  ALA797  LYS798  CYS799  TRP800  GLU811  SER814 

> <Gold.Protein.RotatedAtoms>
  151.0929  133.5302  159.2613 H   0  0  0  0  0  0  0  0  0  0  0  0  # atno 6907 bound_to 6896
  151.2162  135.0500  159.8941 H   0  0  0  0  0  0  0  0  0  0  0  0  # atno 6908 bound_to 6896
  152.5436  134.0738  159.8259 H   0  0  0  0  0  0  0  0  0  0  0  0  # atno 6909 bound_to 6896
  144.7668  140.4329  143.5936 H   0  0  0  0  0  0  0  0  0  0  0  0  # atno 7974 bound_to 7965
  155.7633  140.3486  155.5209 H   0  0  0  0  0  0  0  0  0  0  0  0  # atno 8008 bound_to 7997
  155.8892  140.1015  157.1451 H   0  0  0  0  0  0  0  0  0  0  0  0  # atno 8009 bound_to 7997
  154.4032  140.1307  156.4282 H   0  0  0  0  0  0  0  0  0  0  0  0  # atno 8010 bound_to 7997
  139.8456  143.7265  152.2661 H   0  0  0  0  0  0  0  0  0  0  0  0  # atno 10167 bound_to 10162
  156.9000  130.9875  151.3037 H   0  0  0  0  0  0  0  0  0  0  0  0  # atno 10718 bound_to 10713
  154.3694  135.2753  155.2275 H   0  0  0  0  0  0  0  0  0  0  0  0  # atno 10763 bound_to 10752
  154.4429  135.5950  153.6144 H   0  0  0  0  0  0  0  0  0  0  0  0  # atno 10764 bound_to 10752
  152.9839  135.6023  154.3923 H   0  0  0  0  0  0  0  0  0  0  0  0  # atno 10765 bound_to 10752
  140.8613  133.7786  156.0078 H   0  0  0  0  0  0  0  0  0  0  0  0  # atno 11005 bound_to 11000
  145.6445  139.1555  143.2897 LP  0  0  0  0  0  0  0  0  0  0  0  0  # atno 17320 bound_to 7965
  146.1782  140.6539  142.9201 LP  0  0  0  0  0  0  0  0  0  0  0  0  # atno 17321 bound_to 7965
  139.7516  144.7532  151.0498 LP  0  0  0  0  0  0  0  0  0  0  0  0  # atno 17342 bound_to 10162
  140.7793  143.4854  150.9963 LP  0  0  0  0  0  0  0  0  0  0  0  0  # atno 17343 bound_to 10162
  157.6032  130.8528  149.8834 LP  0  0  0  0  0  0  0  0  0  0  0  0  # atno 17370 bound_to 10713
  156.0586  130.3704  150.1033 LP  0  0  0  0  0  0  0  0  0  0  0  0  # atno 17371 bound_to 10713
  140.8679  134.2761  157.5204 LP  0  0  0  0  0  0  0  0  0  0  0  0  # atno 17394 bound_to 11000
  139.8707  134.9552  156.4200 LP  0  0  0  0  0  0  0  0  0  0  0  0  # atno 17395 bound_to 11000

$$$$
