AV-unprocessed.smi:308|AV-procd|sdf|2287|dock4
  -GOLD-   2262022183D 1   1.00000     0.00000
 Structure written by MMmdl.
 50 51  0  0  0  0  0  0  0  0  2 V2000
  152.0378  142.5382  158.2555 C   0  0  0  0  0  0  0  0  0  0  0  0
  150.7518  141.9179  157.6921 C   0  0  2  0  0  0  0  0  0  0  0  0
  150.8092  141.7740  156.1622 C   0  0  0  0  0  0  0  0  0  0  0  0
  149.5040  141.1779  155.6085 C   0  0  0  0  0  0  0  0  0  0  0  0
  148.3271  141.9913  156.0085 N   0  3  1  0  0  0  0  0  0  0  0  0
  147.0706  141.5071  155.3809 C   0  0  0  0  0  0  0  0  0  0  0  0
  147.2610  141.0099  153.9313 C   0  0  0  0  0  0  0  0  0  0  0  0
  146.1863  140.1286  153.4811 N   0  0  0  0  0  0  0  0  0  0  0  0
  146.3501  138.8605  153.0782 C   0  0  0  0  0  0  0  0  0  0  0  0
  147.4479  138.3083  153.0255 O   0  0  0  0  0  0  0  0  0  0  0  0
  145.1723  138.3010  152.7523 N   0  0  0  0  0  0  0  0  0  0  0  0
  144.8947  136.9851  152.2886 C   0  0  0  0  0  0  0  0  0  0  0  0
  143.6314  136.3510  152.3467 C   0  0  0  0  0  0  0  0  0  0  0  0
  143.5010  135.0389  151.8520 C   0  0  0  0  0  0  0  0  0  0  0  0
  144.6347  134.3815  151.3133 C   0  0  0  0  0  0  0  0  0  0  0  0
  144.5525  133.0653  150.8039 N   0  0  0  0  0  0  0  0  0  0  0  0
  143.2639  132.3815  150.7617 C   0  0  0  0  0  0  0  0  0  0  0  0
  145.7647  132.3508  150.4236 C   0  0  0  0  0  0  0  0  0  0  0  0
  145.8442  134.9912  151.2701 N   0  0  0  0  0  0  0  0  0  0  0  0
  145.9642  136.2487  151.7426 C   0  0  0  0  0  0  0  0  0  0  0  0
  148.2291  142.1238  157.4860 C   0  0  0  0  0  0  0  0  0  0  0  0
  149.5096  142.7389  158.0751 C   0  0  0  0  0  0  0  0  0  0  0  0
  152.2014  143.5417  157.8615 H   0  0  0  0  0  0  0  0  0  0  0  0
  152.9093  141.9346  158.0009 H   0  0  0  0  0  0  0  0  0  0  0  0
  151.9943  142.6104  159.3426 H   0  0  0  0  0  0  0  0  0  0  0  0
  150.6483  140.9212  158.1243 H   0  0  0  0  0  0  0  0  0  0  0  0
  150.9881  142.7479  155.7038 H   0  0  0  0  0  0  0  0  0  0  0  0
  151.6502  141.1407  155.8775 H   0  0  0  0  0  0  0  0  0  0  0  0
  149.5671  141.1331  154.5204 H   0  0  0  0  0  0  0  0  0  0  0  0
  149.3771  140.1535  155.9624 H   0  0  0  0  0  0  0  0  0  0  0  0
  146.6811  140.6772  155.9720 H   0  0  0  0  0  0  0  0  0  0  0  0
  146.3083  142.2863  155.4203 H   0  0  0  0  0  0  0  0  0  0  0  0
  147.3474  141.8609  153.2539 H   0  0  0  0  0  0  0  0  0  0  0  0
  148.1993  140.4631  153.8415 H   0  0  0  0  0  0  0  0  0  0  0  0
  145.2482  140.5018  153.5055 H   0  0  0  0  0  0  0  0  0  0  0  0
  144.3585  138.8834  152.8858 H   0  0  0  0  0  0  0  0  0  0  0  0
  142.7592  136.8293  152.7619 H   0  0  0  0  0  0  0  0  0  0  0  0
  142.5338  134.5620  151.9006 H   0  0  0  0  0  0  0  0  0  0  0  0
  142.8714  132.2426  151.7694 H   0  0  0  0  0  0  0  0  0  0  0  0
  143.3501  131.3995  150.2967 H   0  0  0  0  0  0  0  0  0  0  0  0
  142.5410  132.9586  150.1840 H   0  0  0  0  0  0  0  0  0  0  0  0
  146.2491  132.8411  149.5787 H   0  0  0  0  0  0  0  0  0  0  0  0
  145.5446  131.3237  150.1314 H   0  0  0  0  0  0  0  0  0  0  0  0
  146.4670  132.3146  151.2570 H   0  0  0  0  0  0  0  0  0  0  0  0
  146.9521  136.6814  151.6797 H   0  0  0  0  0  0  0  0  0  0  0  0
  147.3819  142.7554  157.7515 H   0  0  0  0  0  0  0  0  0  0  0  0
  148.0448  141.1441  157.9299 H   0  0  0  0  0  0  0  0  0  0  0  0
  149.4216  142.7988  159.1605 H   0  0  0  0  0  0  0  0  0  0  0  0
  149.6182  143.7641  157.7174 H   0  0  0  0  0  0  0  0  0  0  0  0
  148.4878  142.9177  155.6395 H   0  0  0  0  0  0  0  0  0  0  0  0
  1  2  1  0  0  0  0
  1 23  1  0  0  0  0
  1 24  1  0  0  0  0
  1 25  1  0  0  0  0
  2 22  1  0  0  0  0
  2  3  1  0  0  0  0
  2 26  1  0  0  0  0
  3  4  1  0  0  0  0
  3 27  1  0  0  0  0
  3 28  1  0  0  0  0
  4  5  1  0  0  0  0
  4 29  1  0  0  0  0
  4 30  1  0  0  0  0
  5  6  1  0  0  0  0
  5 21  1  0  0  0  0
  5 50  1  0  0  0  0
  6  7  1  0  0  0  0
  6 31  1  0  0  0  0
  6 32  1  0  0  0  0
  7  8  1  0  0  0  0
  7 33  1  0  0  0  0
  7 34  1  0  0  0  0
  8  9  1  0  0  0  0
  8 35  1  0  0  0  0
  9 10  2  0  0  0  0
  9 11  1  0  0  0  0
 11 12  1  0  0  0  0
 11 36  1  0  0  0  0
 12 20  1  0  0  0  0
 12 13  2  0  0  0  0
 13 14  1  0  0  0  0
 13 37  1  0  0  0  0
 14 15  2  0  0  0  0
 14 38  1  0  0  0  0
 15 16  1  0  0  0  0
 15 19  1  0  0  0  0
 16 17  1  0  0  0  0
 16 18  1  0  0  0  0
 17 39  1  0  0  0  0
 17 40  1  0  0  0  0
 17 41  1  0  0  0  0
 18 42  1  0  0  0  0
 18 43  1  0  0  0  0
 18 44  1  0  0  0  0
 19 20  2  0  0  0  0
 20 45  1  0  0  0  0
 21 22  1  0  0  0  0
 21 46  1  0  0  0  0
 21 47  1  0  0  0  0
 22 48  1  0  0  0  0
 22 49  1  0  0  0  0
M  CHG  1   5   1
M  END
> <s_m_source_file>
AV-unprocessed.smi

> <i_m_source_file_index>
308

> <i_lp_mmshare_version>
43012

> <i_f3d_flags>
0

> <s_epik_input>
W0NIM11bQ0hdMVtDSDJdW0NIMl1OKFtDSDJdW0NIMl0xKVtDSDJdW0NIMl1bTkhdQyg9TylbTkhdYzJbY0hdW2NIXWMoTihbQ0gzXSlbQ0gzXSluW2NIXTI=

> <s_epik_cmdline>
J2VwaWtfcHl0aG9uJywgJy1waCcsICc3LjAnLCAnLXRuJywgJzgnLCAnLW1hJywgJzIwMCcsICctbWV0YWxfYmluZGluZycsICctaW1hZScsICc8aW5maWxlLm1hZT4nLCAnLW9tYWUnLCAnPG91dGZpbGUubWFlPic=

> <r_lp_tautomer_probability>
1

> <r_epik_Ionization_Penalty>
0.536661

> <r_epik_Ionization_Penalty_Charging>
0.00139388

> <r_epik_Ionization_Penalty_Neutral>
0.535267

> <r_epik_State_Penalty>
0.543381

> <r_epik_Charging_Adjusted_Penalty>
0.544775

> <i_epik_Tot_Q>
1

> <i_epik_Tot_abs_Q>
1

> <r_epik_Metal_State_Penalty>
0.284523

> <b_epik_Metal_Only>
0

> <s_lp_Force_Field>
OPLS_2005

> <r_lp_Energy>
27.2838

> <b_lp_Chiralities_Consistent>
1

> <s_lp_Variant>
AV-unprocessed.smi:308-3

> <Gold.Version>
5.8.1

> <Gold.Id.Protein>
6NUR|6NUR_protein|mol2

> <Gold.PLP.Fitness>
47.4935

> <Gold.PLP.PLP>
-34.1363

> <Gold.PLP.part.hbond>
-3.4094

> <Gold.PLP.part.metal>
0.0000

> <Gold.PLP.part.buried>
-2.7768

> <Gold.PLP.part.nonpolar>
-30.6632

> <Gold.PLP.part.repulsive>
2.4194

> <Gold.PLP.ligand.clash>
0.0000

> <Gold.PLP.ligand.torsion>
0.3722

> <Gold.PLP.Chemscore.Hbond>
3.7120

> <Gold.PLP.Chemscore.CHOScore>
0.9756

> <Gold.PLP.Chemscore.Metal>
0.0000

> <Gold.Chemscore.Hbonds>
donor molecule, donor type, donor heavy atom, donor atom, acceptor molecule, acceptor atom, score
      L1  H     5    50       P1  8028  2.00
      L1  H     8    35       P1 10175  0.80
      L1  H    11    36       P1 10175  0.86
      L1  C    20    45       P1  7948  1.00

> <Gold.PLP.Chemscore.Internal.Correction>
0.0388

> <Gold.Rescore>
     Score         DG    S(hbond)    S(metal)    S(lipo)     H(rot)  DE(clash)    DE(int)     intcor
     17.60     -20.66       2.76        0.00      82.27       1.42       1.36       1.71       ----

> <Gold.Chemscore.Fitness>
17.5955

> <Gold.Chemscore.DG>
-20.6619

> <Gold.Chemscore.ZeroCoef>
-5.4800

> <Gold.Chemscore.Hbond>
2.7552

> <Gold.Chemscore.Metal>
0.0000

> <Gold.Chemscore.Lipo>
82.2672

> <Gold.Chemscore.Internal_Hbond>
0.0000

> <Gold.Chemscore.DEClash>
1.3585

> <Gold.Chemscore.DEInternal>
1.7079

> <Gold.Chemscore.Rot>
1.4241

> <Gold.Chemscore.Internal.Correction>
   9.000000E+99

> <Gold.Chemscore.Hbonds>
donor molecule, donor type, donor heavy atom, donor atom, acceptor molecule, acceptor atom, score
      L1  H     5    50       P1  8028  0.99
      L1  H     8    35       P1 10175  0.78
      L1  H    11    36       P1 10175  0.85

> <Gold.Chemscore.Hbond.Weighted>
-9.2023

> <Gold.Chemscore.Metal.Weighted>
-0.0000

> <Gold.Chemscore.Lipo.Weighted>
-9.6253

> <Gold.Chemscore.Internal_Hbond.Weighted>
0.0000

> <Gold.Chemscore.DEClash.Weighted>
1.3585

> <Gold.Chemscore.DEInternal.Weighted>
1.7079

> <Gold.Chemscore.Rot.Weighted>
3.6456

> <Gold.Chemscore.Internal.Correction.Weighted>
   9.000000E+99

> <Gold.Protein.RotatedTorsions>
[ 6907 6896 6895 6894 ] final  -50.69 input  -60.11 | X-H torsion
[ 7974 7965 7964 7962 ] final -137.72 input  175.53 | X-H torsion
[ 8008 7997 7996 7995 ] final -110.00 input   59.86 | X-H torsion
[ 10167 10162 10161 10158 ] final -165.10 input  -65.29 | X-H torsion
[ 10718 10713 10712 10709 ] final  -78.31 input   66.30 | X-H torsion
[ 10763 10752 10751 10750 ] final  -59.36 input  -60.55 | X-H torsion
[ 11005 11000 10999 10996 ] final -124.57 input  -57.11 | X-H torsion

> <Gold.Protein.ActiveResidues>
 VAL166  LYS551  ARG553  GLY616  TRP617  ASP618  TYR619  PRO620  LYS621  CYS622 
 ASP623  PHE694  ASN695  SER759  ASP760  ASP761  ALA762  ILE779  LEU786  VAL792 
 PHE793  MET794  SER795  GLU796  ALA797  LYS798  CYS799  TRP800  GLU811  SER814 

> <Gold.Protein.RotatedAtoms>
  150.8682  134.8051  159.7134 H   0  0  0  0  0  0  0  0  0  0  0  0  # atno 6907 bound_to 6896
  152.4696  134.4989  159.9728 H   0  0  0  0  0  0  0  0  0  0  0  0  # atno 6908 bound_to 6896
  151.5081  133.3452  159.2916 H   0  0  0  0  0  0  0  0  0  0  0  0  # atno 6909 bound_to 6896
  144.8818  140.6518  143.5201 H   0  0  0  0  0  0  0  0  0  0  0  0  # atno 7974 bound_to 7965
  154.9679  140.0398  157.2221 H   0  0  0  0  0  0  0  0  0  0  0  0  # atno 8008 bound_to 7997
  154.7828  140.2822  155.6028 H   0  0  0  0  0  0  0  0  0  0  0  0  # atno 8009 bound_to 7997
  156.2938  140.2588  156.2657 H   0  0  0  0  0  0  0  0  0  0  0  0  # atno 8010 bound_to 7997
  139.6205  144.0634  152.1928 H   0  0  0  0  0  0  0  0  0  0  0  0  # atno 10167 bound_to 10162
  156.0121  130.4515  150.3478 H   0  0  0  0  0  0  0  0  0  0  0  0  # atno 10718 bound_to 10713
  154.2525  135.6323  153.5245 H   0  0  0  0  0  0  0  0  0  0  0  0  # atno 10763 bound_to 10752
  152.9910  135.5568  154.5792 H   0  0  0  0  0  0  0  0  0  0  0  0  # atno 10764 bound_to 10752
  154.5322  135.2889  155.1144 H   0  0  0  0  0  0  0  0  0  0  0  0  # atno 10765 bound_to 10752
  140.9830  134.0646  157.3743 H   0  0  0  0  0  0  0  0  0  0  0  0  # atno 11005 bound_to 11000
  145.3941  139.1610  143.4213 LP  0  0  0  0  0  0  0  0  0  0  0  0  # atno 17320 bound_to 7965
  146.2999  140.4032  142.8708 LP  0  0  0  0  0  0  0  0  0  0  0  0  # atno 17321 bound_to 7965
  140.0275  144.6106  150.7516 LP  0  0  0  0  0  0  0  0  0  0  0  0  # atno 17342 bound_to 10162
  140.7379  143.2771  151.3709 LP  0  0  0  0  0  0  0  0  0  0  0  0  # atno 17343 bound_to 10162
  157.1571  131.0335  151.2858 LP  0  0  0  0  0  0  0  0  0  0  0  0  # atno 17370 bound_to 10713
  157.4343  130.7508  149.7015 LP  0  0  0  0  0  0  0  0  0  0  0  0  # atno 17371 bound_to 10713
  139.8958  135.0143  156.7022 LP  0  0  0  0  0  0  0  0  0  0  0  0  # atno 17394 bound_to 11000
  140.7157  133.9185  155.8113 LP  0  0  0  0  0  0  0  0  0  0  0  0  # atno 17395 bound_to 11000

$$$$
