AV-unprocessed.smi:1626|AV-procd|sdf|6512|dock10
  -GOLD-   22720 7183D 1   1.00000     0.00000
 Structure written by MMmdl.
 49 51  0  0  0  0  0  0  0  0  3 V2000
  152.6340  143.4338  161.0362 C   0  0  0  0  0  0  0  0  0  0  0  0
  152.2483  142.6550  159.7902 C   0  0  0  0  0  0  0  0  0  0  0  0
  151.3635  143.2562  158.8664 C   0  0  0  0  0  0  0  0  0  0  0  0
  151.0327  142.5207  157.7345 C   0  0  0  0  0  0  0  0  0  0  0  0
  150.2082  142.8294  156.6503 N   0  3  0  0  0  0  0  0  0  0  0  0
  150.1975  141.7859  155.7753 C   0  0  0  0  0  0  0  0  0  0  0  0
  150.9933  140.8096  156.2920 N   0  0  0  0  0  0  0  0  0  0  0  0
  151.3356  139.4856  155.7564 C   0  0  0  0  0  0  0  0  0  0  0  0
  150.1038  138.6603  155.3295 C   0  0  2  0  0  0  0  0  0  0  0  0
  150.5642  137.3672  154.9927 O   0  0  0  0  0  0  0  0  0  0  0  0
  149.3521  139.2624  154.1210 C   0  0  0  0  0  0  0  0  0  0  0  0
  148.1850  138.4444  153.7012 N   0  3  2  0  0  0  0  0  0  0  0  0
  147.2359  139.2140  152.8560 C   0  0  0  0  0  0  0  0  0  0  0  0
  146.1156  138.3110  152.3089 C   0  0  0  0  0  0  0  0  0  0  0  0
  145.3740  137.5682  153.4323 C   0  0  2  0  0  0  0  0  0  0  0  0
  144.5967  138.4780  154.1847 O   0  0  0  0  0  0  0  0  0  0  0  0
  146.3768  136.8439  154.3454 C   0  0  0  0  0  0  0  0  0  0  0  0
  147.4889  137.7871  154.8400 C   0  0  0  0  0  0  0  0  0  0  0  0
  151.5451  141.2288  157.5072 C   0  0  0  0  0  0  0  0  0  0  0  0
  152.4188  140.6220  158.4059 C   0  0  0  0  0  0  0  0  0  0  0  0
  152.7693  141.3548  159.5623 C   0  0  0  0  0  0  0  0  0  0  0  0
  153.7219  140.7199  160.5612 C   0  0  0  0  0  0  0  0  0  0  0  0
  152.1791  144.4250  161.0450 H   0  0  0  0  0  0  0  0  0  0  0  0
  153.7150  143.5649  161.0878 H   0  0  0  0  0  0  0  0  0  0  0  0
  152.3051  142.9083  161.9331 H   0  0  0  0  0  0  0  0  0  0  0  0
  150.9654  144.2467  159.0322 H   0  0  0  0  0  0  0  0  0  0  0  0
  149.6541  141.7412  154.8422 H   0  0  0  0  0  0  0  0  0  0  0  0
  151.9990  139.6429  154.9045 H   0  0  0  0  0  0  0  0  0  0  0  0
  151.9200  138.9553  156.5101 H   0  0  0  0  0  0  0  0  0  0  0  0
  149.4378  138.5631  156.1853 H   0  0  0  0  0  0  0  0  0  0  0  0
  150.7584  137.3380  154.0685 H   0  0  0  0  0  0  0  0  0  0  0  0
  149.0047  140.2732  154.3377 H   0  0  0  0  0  0  0  0  0  0  0  0
  150.0569  139.3583  153.2933 H   0  0  0  0  0  0  0  0  0  0  0  0
  146.8139  140.0362  153.4362 H   0  0  0  0  0  0  0  0  0  0  0  0
  147.7694  139.6618  152.0166 H   0  0  0  0  0  0  0  0  0  0  0  0
  145.4139  138.8995  151.7165 H   0  0  0  0  0  0  0  0  0  0  0  0
  146.5514  137.5806  151.6260 H   0  0  0  0  0  0  0  0  0  0  0  0
  144.6878  136.8421  152.9953 H   0  0  0  0  0  0  0  0  0  0  0  0
  144.2136  139.1096  153.5942 H   0  0  0  0  0  0  0  0  0  0  0  0
  145.8606  136.3929  155.1938 H   0  0  0  0  0  0  0  0  0  0  0  0
  146.8305  136.0194  153.7935 H   0  0  0  0  0  0  0  0  0  0  0  0
  148.1941  137.2121  155.4386 H   0  0  0  0  0  0  0  0  0  0  0  0
  147.0698  138.5484  155.4999 H   0  0  0  0  0  0  0  0  0  0  0  0
  152.8191  139.6344  158.2303 H   0  0  0  0  0  0  0  0  0  0  0  0
  154.0175  139.7178  160.2494 H   0  0  0  0  0  0  0  0  0  0  0  0
  153.2521  140.6387  161.5416 H   0  0  0  0  0  0  0  0  0  0  0  0
  154.6281  141.3182  160.6592 H   0  0  0  0  0  0  0  0  0  0  0  0
  148.5495  137.7105  153.1112 H   0  0  0  0  0  0  0  0  0  0  0  0
  149.6962  143.6916  156.5113 H   0  0  0  0  0  0  0  0  0  0  0  0
  1  2  1  0  0  0  0
  1 23  1  0  0  0  0
  1 24  1  0  0  0  0
  1 25  1  0  0  0  0
  2 21  1  0  0  0  0
  2  3  2  0  0  0  0
  3  4  1  0  0  0  0
  3 26  1  0  0  0  0
  4 19  2  0  0  0  0
  4  5  1  0  0  0  0
  5  6  2  0  0  0  0
  5 49  1  0  0  0  0
  6  7  1  0  0  0  0
  6 27  1  0  0  0  0
  7  8  1  0  0  0  0
  7 19  1  0  0  0  0
  8  9  1  0  0  0  0
  8 28  1  0  0  0  0
  8 29  1  0  0  0  0
  9 10  1  0  0  0  0
  9 11  1  0  0  0  0
  9 30  1  0  0  0  0
 10 31  1  0  0  0  0
 11 12  1  0  0  0  0
 11 32  1  0  0  0  0
 11 33  1  0  0  0  0
 12 18  1  0  0  0  0
 12 13  1  0  0  0  0
 12 48  1  0  0  0  0
 13 14  1  0  0  0  0
 13 34  1  0  0  0  0
 13 35  1  0  0  0  0
 14 15  1  0  0  0  0
 14 36  1  0  0  0  0
 14 37  1  0  0  0  0
 15 16  1  0  0  0  0
 15 17  1  0  0  0  0
 15 38  1  0  0  0  0
 16 39  1  0  0  0  0
 17 18  1  0  0  0  0
 17 40  1  0  0  0  0
 17 41  1  0  0  0  0
 18 42  1  0  0  0  0
 18 43  1  0  0  0  0
 19 20  1  0  0  0  0
 20 21  2  0  0  0  0
 20 44  1  0  0  0  0
 21 22  1  0  0  0  0
 22 45  1  0  0  0  0
 22 46  1  0  0  0  0
 22 47  1  0  0  0  0
M  CHG  1   5   1
M  CHG  1  12   1
M  END
> <s_m_source_file>
AV-unprocessed.smi

> <i_m_source_file_index>
1626

> <i_lp_mmshare_version>
43012

> <i_f3d_flags>
0

> <s_epik_input>
W0NIM11jKFtjSF0xKWMoW0NIM10pW2NIXWMoYzEyKW4oW2NIXW4yKVtDSDJdW0NASF0oW09IXSlbQ0gyXU4zW0NIMl1bQ0gyXVtDSF0oW09IXSlbQ0gyXVtDSDJdMw==

> <s_epik_cmdline>
J2VwaWtfcHl0aG9uJywgJy1waCcsICc3LjAnLCAnLXRuJywgJzgnLCAnLW1hJywgJzIwMCcsICctbWV0YWxfYmluZGluZycsICctaW1hZScsICc8aW5maWxlLm1hZT4nLCAnLW9tYWUnLCAnPG91dGZpbGUubWFlPic=

> <r_epik_Ionization_Penalty>
1.19369

> <r_epik_Ionization_Penalty_Charging>
1.19369

> <r_epik_Ionization_Penalty_Neutral>
1.68219e-06

> <r_epik_State_Penalty>
1.27429

> <r_epik_Charging_Adjusted_Penalty>
2.46798

> <i_epik_Tot_Q>
2

> <i_epik_Tot_abs_Q>
2

> <r_epik_Metal_State_Penalty>
5.29157

> <b_epik_Metal_Only>
0

> <s_lp_Force_Field>
OPLS_2005

> <r_lp_Energy>
35.0493

> <b_lp_Chiralities_Consistent>
1

> <s_lp_Variant>
AV-unprocessed.smi:1626-7

> <Gold.Version>
5.8.1

> <Gold.Id.Protein>
6NUR|6NUR_protein|mol2

> <Gold.PLP.Fitness>
55.8156

> <Gold.PLP.PLP>
-41.4724

> <Gold.PLP.part.hbond>
-3.1578

> <Gold.PLP.part.metal>
0.0000

> <Gold.PLP.part.buried>
-2.6295

> <Gold.PLP.part.nonpolar>
-37.1268

> <Gold.PLP.part.repulsive>
0.0785

> <Gold.PLP.ligand.clash>
0.0000

> <Gold.PLP.ligand.torsion>
0.3393

> <Gold.PLP.Chemscore.Hbond>
5.0000

> <Gold.PLP.Chemscore.CHOScore>
0.0000

> <Gold.PLP.Chemscore.Metal>
0.0000

> <Gold.Chemscore.Hbonds>
donor molecule, donor type, donor heavy atom, donor atom, acceptor molecule, acceptor atom, score
      L1  H     5    49       P1  8028  2.00
      L1  H    12    48       P1  7948  2.00
      L1  H    16    39       P1 10175  1.00

> <Gold.PLP.Chemscore.Internal.Correction>
0.0218

> <Gold.Rescore>
     Score         DG    S(hbond)    S(metal)    S(lipo)     H(rot)  DE(clash)    DE(int)     intcor
     20.92     -21.40       2.93        0.00     112.35       2.74       0.03       0.45       ----

> <Gold.Chemscore.Fitness>
20.9156

> <Gold.Chemscore.DG>
-21.3969

> <Gold.Chemscore.ZeroCoef>
-5.4800

> <Gold.Chemscore.Hbond>
2.9288

> <Gold.Chemscore.Metal>
0.0000

> <Gold.Chemscore.Lipo>
112.3511

> <Gold.Chemscore.Internal_Hbond>
0.0000

> <Gold.Chemscore.DEClash>
0.0344

> <Gold.Chemscore.DEInternal>
0.4470

> <Gold.Chemscore.Rot>
2.7384

> <Gold.Chemscore.Internal.Correction>
   9.000000E+99

> <Gold.Chemscore.Hbonds>
donor molecule, donor type, donor heavy atom, donor atom, acceptor molecule, acceptor atom, score
      L1  H     5    49       P1  8028  0.94
      L1  H    12    48       P1  7948  0.99
      L1  H    16    39       P1 10175  1.00

> <Gold.Chemscore.Hbond.Weighted>
-9.7822

> <Gold.Chemscore.Metal.Weighted>
-0.0000

> <Gold.Chemscore.Lipo.Weighted>
-13.1451

> <Gold.Chemscore.Internal_Hbond.Weighted>
0.0000

> <Gold.Chemscore.DEClash.Weighted>
0.0344

> <Gold.Chemscore.DEInternal.Weighted>
0.4470

> <Gold.Chemscore.Rot.Weighted>
7.0103

> <Gold.Chemscore.Internal.Correction.Weighted>
   9.000000E+99

> <Gold.Protein.RotatedTorsions>
[ 6907 6896 6895 6894 ] final  -71.14 input  -60.11 | X-H torsion
[ 7974 7965 7964 7962 ] final  -12.27 input  175.53 | X-H torsion
[ 8008 7997 7996 7995 ] final   41.20 input   59.86 | X-H torsion
[ 10167 10162 10161 10158 ] final  -16.07 input  -65.29 | X-H torsion
[ 10718 10713 10712 10709 ] final  105.24 input   66.30 | X-H torsion
[ 10763 10752 10751 10750 ] final   37.00 input  -60.55 | X-H torsion
[ 11005 11000 10999 10996 ] final  105.43 input  -57.11 | X-H torsion

> <Gold.Protein.ActiveResidues>
 VAL166  LYS551  ARG553  GLY616  TRP617  ASP618  TYR619  PRO620  LYS621  CYS622 
 ASP623  PHE694  ASN695  SER759  ASP760  ASP761  ALA762  ILE779  LEU786  VAL792 
 PHE793  MET794  SER795  GLU796  ALA797  LYS798  CYS799  TRP800  GLU811  SER814 

> <Gold.Protein.RotatedAtoms>
  150.7226  134.5351  159.5719 H   0  0  0  0  0  0  0  0  0  0  0  0  # atno 6907 bound_to 6896
  152.2875  134.7756  160.0393 H   0  0  0  0  0  0  0  0  0  0  0  0  # atno 6908 bound_to 6896
  151.8381  133.3384  159.3671 H   0  0  0  0  0  0  0  0  0  0  0  0  # atno 6909 bound_to 6896
  146.2158  140.3033  142.8377 H   0  0  0  0  0  0  0  0  0  0  0  0  # atno 7974 bound_to 7965
  155.2657  140.3362  155.4269 H   0  0  0  0  0  0  0  0  0  0  0  0  # atno 8008 bound_to 7997
  156.2155  140.1787  156.7641 H   0  0  0  0  0  0  0  0  0  0  0  0  # atno 8009 bound_to 7997
  154.5747  140.0664  156.9002 H   0  0  0  0  0  0  0  0  0  0  0  0  # atno 8010 bound_to 7997
  140.7228  143.5154  150.9699 H   0  0  0  0  0  0  0  0  0  0  0  0  # atno 10167 bound_to 10162
  157.6712  131.0823  150.5826 H   0  0  0  0  0  0  0  0  0  0  0  0  # atno 10718 bound_to 10713
  153.0054  135.6290  154.2075 H   0  0  0  0  0  0  0  0  0  0  0  0  # atno 10763 bound_to 10752
  154.1818  135.2813  155.3051 H   0  0  0  0  0  0  0  0  0  0  0  0  # atno 10764 bound_to 10752
  154.5828  135.5642  153.7262 H   0  0  0  0  0  0  0  0  0  0  0  0  # atno 10765 bound_to 10752
  139.8802  134.9335  156.5513 H   0  0  0  0  0  0  0  0  0  0  0  0  # atno 11005 bound_to 11000
  144.9041  140.7678  143.5848 LP  0  0  0  0  0  0  0  0  0  0  0  0  # atno 17320 bound_to 7965
  145.2960  139.1867  143.4715 LP  0  0  0  0  0  0  0  0  0  0  0  0  # atno 17321 bound_to 7965
  139.8869  143.7002  152.3150 LP  0  0  0  0  0  0  0  0  0  0  0  0  # atno 17342 bound_to 10162
  139.7304  144.7583  151.0811 LP  0  0  0  0  0  0  0  0  0  0  0  0  # atno 17343 bound_to 10162
  156.6127  130.4384  149.5853 LP  0  0  0  0  0  0  0  0  0  0  0  0  # atno 17370 bound_to 10713
  156.2418  130.6855  151.1562 LP  0  0  0  0  0  0  0  0  0  0  0  0  # atno 17371 bound_to 10713
  140.8238  133.8332  155.8920 LP  0  0  0  0  0  0  0  0  0  0  0  0  # atno 17394 bound_to 11000
  140.9393  134.1921  157.4809 LP  0  0  0  0  0  0  0  0  0  0  0  0  # atno 17395 bound_to 11000

$$$$
