AV-unprocessed.smi:249|AV-procd|sdf|1928|dock8
  -GOLD-   2262021 43D 1   1.00000     0.00000
 Structure written by MMmdl.
 64 67  0  0  0  0  0  0  0  0  2 V2000
  146.9617  129.8191  152.6980 C   0  0  0  0  0  0  0  0  0  0  0  0
  146.1213  130.8398  151.9150 C   0  0  0  0  0  0  0  0  0  0  0  0
  146.9252  131.9760  151.3749 N   0  3  2  0  0  0  0  0  0  0  0  0
  147.3980  132.9363  152.4119 C   0  0  0  0  0  0  0  0  0  0  0  0
  146.2507  133.8111  152.9516 C   0  0  0  0  0  0  0  0  0  0  0  0
  145.5446  134.5580  151.8027 C   0  0  2  0  0  0  0  0  0  0  0  0
  144.4428  135.4030  152.2767 N   0  0  0  0  0  0  0  0  0  0  0  0
  143.0577  134.9931  152.0467 C   0  0  0  0  0  0  0  0  0  0  0  0
  144.6892  136.0708  153.4329 C   0  0  0  0  0  0  0  0  0  0  0  0
  144.0772  135.6766  154.5812 N   0  0  0  0  0  0  0  0  0  0  0  0
  144.3307  136.3086  155.7305 C   0  0  0  0  0  0  0  0  0  0  0  0
  145.1421  137.3442  155.9503 N   0  0  0  0  0  0  0  0  0  0  0  0
  145.7463  137.7582  154.7999 C   0  0  0  0  0  0  0  0  0  0  0  0
  145.5849  137.1744  153.5114 C   0  0  0  0  0  0  0  0  0  0  0  0
  146.3703  137.8478  152.5841 N   0  0  0  0  0  0  0  0  0  0  0  0
  146.9672  138.7719  153.2854 C   0  0  0  0  0  0  0  0  0  0  0  0
  146.6253  138.8147  154.6192 N   0  0  0  0  0  0  0  0  0  0  0  0
  147.1522  139.7391  155.6141 C   0  0  0  0  0  0  0  0  0  0  0  0
  148.5688  140.3064  155.3065 C   0  0  1  0  0  0  0  0  0  0  0  0
  148.4659  141.2755  154.1038 C   0  0  0  0  0  0  0  0  0  0  0  0
  149.5986  141.1698  153.2656 O   0  0  0  0  0  0  0  0  0  0  0  0
  149.2607  141.0233  156.5085 C   0  0  1  0  0  0  0  0  0  0  0  0
  149.7315  140.1469  157.6613 C   0  0  0  0  0  0  0  0  0  0  0  0
  151.0498  139.5756  157.1505 C   0  0  0  0  0  0  0  0  0  0  0  0
  151.5709  140.5701  156.2760 O   0  0  0  0  0  0  0  0  0  0  0  0
  150.6239  141.6235  156.1272 C   0  0  0  0  0  0  0  0  0  0  0  0
  145.1050  133.5681  150.7056 C   0  0  0  0  0  0  0  0  0  0  0  0
  146.2981  132.7106  150.2331 C   0  0  2  0  0  0  0  0  0  0  0  0
  145.9386  131.8062  149.0405 C   0  0  0  0  0  0  0  0  0  0  0  0
  146.3663  128.9368  152.9330 H   0  0  0  0  0  0  0  0  0  0  0  0
  147.3184  130.2197  153.6465 H   0  0  0  0  0  0  0  0  0  0  0  0
  147.8250  129.4887  152.1196 H   0  0  0  0  0  0  0  0  0  0  0  0
  145.6631  130.2935  151.0929 H   0  0  0  0  0  0  0  0  0  0  0  0
  145.3011  131.2007  152.5353 H   0  0  0  0  0  0  0  0  0  0  0  0
  147.9058  132.4250  153.2277 H   0  0  0  0  0  0  0  0  0  0  0  0
  148.1558  133.5793  151.9619 H   0  0  0  0  0  0  0  0  0  0  0  0
  145.5420  133.1934  153.5029 H   0  0  0  0  0  0  0  0  0  0  0  0
  146.6502  134.5282  153.6697 H   0  0  0  0  0  0  0  0  0  0  0  0
  146.2971  135.2004  151.3456 H   0  0  0  0  0  0  0  0  0  0  0  0
  142.3694  135.7970  152.3109 H   0  0  0  0  0  0  0  0  0  0  0  0
  142.8024  134.1168  152.6432 H   0  0  0  0  0  0  0  0  0  0  0  0
  142.8835  134.7548  150.9986 H   0  0  0  0  0  0  0  0  0  0  0  0
  143.8089  135.9319  156.5979 H   0  0  0  0  0  0  0  0  0  0  0  0
  147.6649  139.4667  152.8404 H   0  0  0  0  0  0  0  0  0  0  0  0
  146.4239  140.5472  155.6830 H   0  0  0  0  0  0  0  0  0  0  0  0
  147.1485  139.2540  156.5909 H   0  0  0  0  0  0  0  0  0  0  0  0
  149.2198  139.4902  154.9966 H   0  0  0  0  0  0  0  0  0  0  0  0
  147.5662  141.0724  153.5218 H   0  0  0  0  0  0  0  0  0  0  0  0
  148.4019  142.3148  154.4201 H   0  0  0  0  0  0  0  0  0  0  0  0
  149.4310  140.5047  152.6155 H   0  0  0  0  0  0  0  0  0  0  0  0
  148.5899  141.7964  156.8859 H   0  0  0  0  0  0  0  0  0  0  0  0
  149.9341  140.7801  158.5265 H   0  0  0  0  0  0  0  0  0  0  0  0
  149.0265  139.3957  158.0007 H   0  0  0  0  0  0  0  0  0  0  0  0
  151.7452  139.3522  157.9597 H   0  0  0  0  0  0  0  0  0  0  0  0
  150.8828  138.6598  156.5827 H   0  0  0  0  0  0  0  0  0  0  0  0
  150.6735  142.0450  155.1248 H   0  0  0  0  0  0  0  0  0  0  0  0
  150.8883  142.4199  156.8246 H   0  0  0  0  0  0  0  0  0  0  0  0
  144.3068  132.9169  151.0605 H   0  0  0  0  0  0  0  0  0  0  0  0
  144.6941  134.1241  149.8618 H   0  0  0  0  0  0  0  0  0  0  0  0
  147.0628  133.3952  149.8617 H   0  0  0  0  0  0  0  0  0  0  0  0
  145.6840  132.4079  148.1674 H   0  0  0  0  0  0  0  0  0  0  0  0
  145.0770  131.1715  149.2481 H   0  0  0  0  0  0  0  0  0  0  0  0
  146.7762  131.1660  148.7617 H   0  0  0  0  0  0  0  0  0  0  0  0
  147.7587  131.5495  150.9957 H   0  0  0  0  0  0  0  0  0  0  0  0
  1  2  1  0  0  0  0
  1 30  1  0  0  0  0
  1 31  1  0  0  0  0
  1 32  1  0  0  0  0
  2  3  1  0  0  0  0
  2 33  1  0  0  0  0
  2 34  1  0  0  0  0
  3 28  1  0  0  0  0
  3  4  1  0  0  0  0
  3 64  1  0  0  0  0
  4  5  1  0  0  0  0
  4 35  1  0  0  0  0
  4 36  1  0  0  0  0
  5  6  1  0  0  0  0
  5 37  1  0  0  0  0
  5 38  1  0  0  0  0
  6  7  1  0  0  0  0
  6 27  1  0  0  0  0
  6 39  1  0  0  0  0
  7  8  1  0  0  0  0
  7  9  1  0  0  0  0
  8 40  1  0  0  0  0
  8 41  1  0  0  0  0
  8 42  1  0  0  0  0
  9 14  1  0  0  0  0
  9 10  2  0  0  0  0
 10 11  1  0  0  0  0
 11 12  2  0  0  0  0
 11 43  1  0  0  0  0
 12 13  1  0  0  0  0
 13 17  1  0  0  0  0
 13 14  2  0  0  0  0
 14 15  1  0  0  0  0
 15 16  2  0  0  0  0
 16 17  1  0  0  0  0
 16 44  1  0  0  0  0
 17 18  1  0  0  0  0
 18 19  1  0  0  0  0
 18 45  1  0  0  0  0
 18 46  1  0  0  0  0
 19 20  1  0  0  0  0
 19 22  1  0  0  0  0
 19 47  1  0  0  0  0
 20 21  1  0  0  0  0
 20 48  1  0  0  0  0
 20 49  1  0  0  0  0
 21 50  1  0  0  0  0
 22 26  1  0  0  0  0
 22 23  1  0  0  0  0
 22 51  1  0  0  0  0
 23 24  1  0  0  0  0
 23 52  1  0  0  0  0
 23 53  1  0  0  0  0
 24 25  1  0  0  0  0
 24 54  1  0  0  0  0
 24 55  1  0  0  0  0
 25 26  1  0  0  0  0
 26 56  1  0  0  0  0
 26 57  1  0  0  0  0
 27 28  1  0  0  0  0
 27 58  1  0  0  0  0
 27 59  1  0  0  0  0
 28 29  1  0  0  0  0
 28 60  1  0  0  0  0
 29 61  1  0  0  0  0
 29 62  1  0  0  0  0
 29 63  1  0  0  0  0
M  CHG  1   3   1
M  END
> <s_m_source_file>
AV-unprocessed.smi

> <i_m_source_file_index>
249

> <i_lp_mmshare_version>
43012

> <i_f3d_flags>
0

> <s_epik_input>
W0NIM11bQ0gyXU4xW0NIMl1bQ0gyXVtDQEhdKFtDSDJdW0NASF0xW0NIM10pTihbQ0gzXSljKG5bY0hdbjIpYyhjMjMpbltjSF1uM1tDSDJdW0NASF0oW0NIMl1bT0hdKVtDQEBIXTRbQ0gyXVtDSDJdT1tDSDJdNA==

> <s_epik_cmdline>
J2VwaWtfcHl0aG9uJywgJy1waCcsICc3LjAnLCAnLXRuJywgJzgnLCAnLW1hJywgJzIwMCcsICctbWV0YWxfYmluZGluZycsICctaW1hZScsICc8aW5maWxlLm1hZT4nLCAnLW9tYWUnLCAnPG91dGZpbGUubWFlPic=

> <r_lp_tautomer_probability>
1

> <r_epik_Ionization_Penalty>
0.00294688

> <r_epik_Ionization_Penalty_Charging>
0.00169971

> <r_epik_Ionization_Penalty_Neutral>
0.00124717

> <r_epik_State_Penalty>
-0

> <r_epik_Charging_Adjusted_Penalty>
0.00169971

> <i_epik_Tot_Q>
1

> <i_epik_Tot_abs_Q>
1

> <r_epik_Metal_State_Penalty>
-0

> <b_epik_Metal_Only>
0

> <s_lp_Force_Field>
OPLS_2005

> <r_lp_Energy>
58.8032

> <b_lp_Chiralities_Consistent>
1

> <s_lp_Variant>
AV-unprocessed.smi:249-31

> <Gold.Version>
5.8.1

> <Gold.Id.Protein>
6NUR|6NUR_protein|mol2

> <Gold.PLP.Fitness>
45.3762

> <Gold.PLP.PLP>
-38.0976

> <Gold.PLP.part.hbond>
-3.3862

> <Gold.PLP.part.metal>
0.0000

> <Gold.PLP.part.buried>
-6.1002

> <Gold.PLP.part.nonpolar>
-29.5215

> <Gold.PLP.part.repulsive>
0.3462

> <Gold.PLP.ligand.clash>
0.0000

> <Gold.PLP.ligand.torsion>
2.5362

> <Gold.PLP.Chemscore.Hbond>
3.0283

> <Gold.PLP.Chemscore.CHOScore>
0.7172

> <Gold.PLP.Chemscore.Metal>
0.0000

> <Gold.Chemscore.Hbonds>
donor molecule, donor type, donor heavy atom, donor atom, acceptor molecule, acceptor atom, score
      L1  H     3    64       P1 10747  1.00
      L1  H    21    50       P1  7957  0.93
      P1  H  7989  7998       L1    21  0.10
      P1  H  8011  8017       L1    21  1.00
      L1  C    16    44       P1  7957  0.78

> <Gold.PLP.Chemscore.Internal.Correction>
1.1144

> <Gold.Rescore>
     Score         DG    S(hbond)    S(metal)    S(lipo)     H(rot)  DE(clash)    DE(int)     intcor
     14.76     -18.52       2.38        0.00     101.47       2.65       0.02       3.74       ----

> <Gold.Chemscore.Fitness>
14.7647

> <Gold.Chemscore.DG>
-18.5174

> <Gold.Chemscore.ZeroCoef>
-5.4800

> <Gold.Chemscore.Hbond>
2.3813

> <Gold.Chemscore.Metal>
0.0000

> <Gold.Chemscore.Lipo>
101.4680

> <Gold.Chemscore.Internal_Hbond>
0.0000

> <Gold.Chemscore.DEClash>
0.0165

> <Gold.Chemscore.DEInternal>
3.7362

> <Gold.Chemscore.Rot>
2.6515

> <Gold.Chemscore.Internal.Correction>
   9.000000E+99

> <Gold.Chemscore.Hbonds>
donor molecule, donor type, donor heavy atom, donor atom, acceptor molecule, acceptor atom, score
      L1  H     3    64       P1 10747  0.97
      L1  H    21    50       P1  7957  0.85
      P1  H  7989  7998       L1    21  0.02
      P1  H  8011  8017       L1    21  0.22

> <Gold.Chemscore.Hbond.Weighted>
-7.9536

> <Gold.Chemscore.Metal.Weighted>
-0.0000

> <Gold.Chemscore.Lipo.Weighted>
-11.8718

> <Gold.Chemscore.Internal_Hbond.Weighted>
0.0000

> <Gold.Chemscore.DEClash.Weighted>
0.0165

> <Gold.Chemscore.DEInternal.Weighted>
3.7362

> <Gold.Chemscore.Rot.Weighted>
6.7880

> <Gold.Chemscore.Internal.Correction.Weighted>
   9.000000E+99

> <Gold.Protein.RotatedTorsions>
[ 6907 6896 6895 6894 ] final  168.77 input  -60.11 | X-H torsion
[ 7974 7965 7964 7962 ] final -157.01 input  175.53 | X-H torsion
[ 8008 7997 7996 7995 ] final   15.66 input   59.86 | X-H torsion
[ 10167 10162 10161 10158 ] final  -19.74 input  -65.29 | X-H torsion
[ 10718 10713 10712 10709 ] final  128.46 input   66.30 | X-H torsion
[ 10763 10752 10751 10750 ] final -142.17 input  -60.55 | X-H torsion
[ 11005 11000 10999 10996 ] final -104.58 input  -57.11 | X-H torsion

> <Gold.Protein.ActiveResidues>
 VAL166  LYS551  ARG553  GLY616  TRP617  ASP618  TYR619  PRO620  LYS621  CYS622 
 ASP623  PHE694  ASN695  SER759  ASP760  ASP761  ALA762  ILE779  LEU786  VAL792 
 PHE793  MET794  SER795  GLU796  ALA797  LYS798  CYS799  TRP800  GLU811  SER814 

> <Gold.Protein.RotatedAtoms>
  151.8424  133.3426  159.3647 H   0  0  0  0  0  0  0  0  0  0  0  0  # atno 6907 bound_to 6896
  150.7231  134.5378  159.5741 H   0  0  0  0  0  0  0  0  0  0  0  0  # atno 6908 bound_to 6896
  152.2854  134.7782  160.0439 H   0  0  0  0  0  0  0  0  0  0  0  0  # atno 6909 bound_to 6896
  144.7567  140.4029  143.6007 H   0  0  0  0  0  0  0  0  0  0  0  0  # atno 7974 bound_to 7965
  154.8657  140.2951  155.5511 H   0  0  0  0  0  0  0  0  0  0  0  0  # atno 8008 bound_to 7997
  156.3020  140.2469  156.3572 H   0  0  0  0  0  0  0  0  0  0  0  0  # atno 8009 bound_to 7997
  154.8870  140.0396  157.1805 H   0  0  0  0  0  0  0  0  0  0  0  0  # atno 8010 bound_to 7997
  140.7271  143.4789  151.0144 H   0  0  0  0  0  0  0  0  0  0  0  0  # atno 10167 bound_to 10162
  157.5242  131.1098  150.9108 H   0  0  0  0  0  0  0  0  0  0  0  0  # atno 10718 bound_to 10713
  154.8519  135.3503  154.5985 H   0  0  0  0  0  0  0  0  0  0  0  0  # atno 10763 bound_to 10752
  153.6594  135.6990  153.5187 H   0  0  0  0  0  0  0  0  0  0  0  0  # atno 10764 bound_to 10752
  153.2830  135.4258  155.1053 H   0  0  0  0  0  0  0  0  0  0  0  0  # atno 10765 bound_to 10752
  141.1094  133.8735  157.1628 H   0  0  0  0  0  0  0  0  0  0  0  0  # atno 11005 bound_to 11000
  145.6755  139.1607  143.2730 LP  0  0  0  0  0  0  0  0  0  0  0  0  # atno 17320 bound_to 7965
  146.1586  140.6822  142.9288 LP  0  0  0  0  0  0  0  0  0  0  0  0  # atno 17321 bound_to 7965
  139.8486  143.7468  152.3178 LP  0  0  0  0  0  0  0  0  0  0  0  0  # atno 17342 bound_to 10162
  139.7642  144.7497  151.0319 LP  0  0  0  0  0  0  0  0  0  0  0  0  # atno 17343 bound_to 10162
  156.9709  130.5490  149.5290 LP  0  0  0  0  0  0  0  0  0  0  0  0  # atno 17370 bound_to 10713
  156.0375  130.5461  150.8689 LP  0  0  0  0  0  0  0  0  0  0  0  0  # atno 17371 bound_to 10713
  139.9980  135.0039  157.0125 LP  0  0  0  0  0  0  0  0  0  0  0  0  # atno 17394 bound_to 11000
  140.4816  134.1283  155.7218 LP  0  0  0  0  0  0  0  0  0  0  0  0  # atno 17395 bound_to 11000

$$$$
