AV-unprocessed.smi:3337|AV-procd|sdf|12861|dock10
  -GOLD-   2272019263D 1   1.00000     0.00000
 Structure written by MMmdl.
 46 47  0  0  0  0  0  0  0  0  2 V2000
  152.0924  139.0670  154.4262 C   0  0  0  0  0  0  0  0  0  0  0  0
  150.7027  138.4390  154.2494 C   0  0  2  0  0  0  0  0  0  0  0  0
  149.6337  139.2145  155.0399 C   0  0  0  0  0  0  0  0  0  0  0  0
  148.2472  138.5563  154.9192 C   0  0  1  0  0  0  0  0  0  0  0  0
  147.5922  138.7843  153.5455 C   0  0  0  0  0  0  0  0  0  0  0  0
  148.3242  137.0614  155.2881 C   0  0  0  0  0  0  0  0  0  0  0  0
  149.3527  136.3463  154.4878 N   0  3  2  0  0  0  0  0  0  0  0  0
  149.3361  134.8831  154.7386 C   0  0  0  0  0  0  0  0  0  0  0  0
  147.9408  134.2630  154.5271 C   0  0  0  0  0  0  0  0  0  0  0  0
  147.4286  134.5422  153.1908 N   0  0  0  0  0  0  0  0  0  0  0  0
  146.2798  134.0583  152.6925 C   0  0  0  0  0  0  0  0  0  0  0  0
  145.5312  133.3199  153.3336 O   0  0  0  0  0  0  0  0  0  0  0  0
  145.9278  134.4723  151.2558 C   0  0  2  0  0  0  0  0  0  0  0  0
  145.7753  135.9998  151.1091 C   0  0  0  0  0  0  0  0  0  0  0  0
  144.7461  133.7511  150.7994 N   0  0  0  0  0  0  0  0  0  0  0  0
  144.6370  132.7550  149.9171 C   0  0  0  0  0  0  0  0  0  0  0  0
  143.4018  132.2969  149.7709 N   0  0  0  0  0  0  0  0  0  0  0  0
  142.7527  133.1028  150.6625 C   0  0  0  0  0  0  0  0  0  0  0  0
  143.5126  133.9826  151.3144 N   0  0  0  0  0  0  0  0  0  0  0  0
  150.6990  136.9543  154.6618 C   0  0  0  0  0  0  0  0  0  0  0  0
  152.4106  139.0405  155.4690 H   0  0  0  0  0  0  0  0  0  0  0  0
  152.0960  140.1085  154.1039 H   0  0  0  0  0  0  0  0  0  0  0  0
  152.8414  138.5381  153.8364 H   0  0  0  0  0  0  0  0  0  0  0  0
  150.4568  138.4964  153.1883 H   0  0  0  0  0  0  0  0  0  0  0  0
  149.9201  139.2478  156.0922 H   0  0  0  0  0  0  0  0  0  0  0  0
  149.5896  140.2517  154.7051 H   0  0  0  0  0  0  0  0  0  0  0  0
  147.5969  139.0388  155.6500 H   0  0  0  0  0  0  0  0  0  0  0  0
  148.1514  138.3072  152.7408 H   0  0  0  0  0  0  0  0  0  0  0  0
  147.5232  139.8480  153.3166 H   0  0  0  0  0  0  0  0  0  0  0  0
  146.5798  138.3802  153.5253 H   0  0  0  0  0  0  0  0  0  0  0  0
  148.5607  136.9527  156.3480 H   0  0  0  0  0  0  0  0  0  0  0  0
  147.3463  136.6013  155.1391 H   0  0  0  0  0  0  0  0  0  0  0  0
  150.0847  134.3989  154.1096 H   0  0  0  0  0  0  0  0  0  0  0  0
  149.6333  134.6905  155.7707 H   0  0  0  0  0  0  0  0  0  0  0  0
  147.9934  133.1808  154.6499 H   0  0  0  0  0  0  0  0  0  0  0  0
  147.2231  134.6240  155.2641 H   0  0  0  0  0  0  0  0  0  0  0  0
  147.9889  135.1396  152.5999 H   0  0  0  0  0  0  0  0  0  0  0  0
  146.7542  134.1698  150.6102 H   0  0  0  0  0  0  0  0  0  0  0  0
  146.6894  136.5151  151.4061 H   0  0  0  0  0  0  0  0  0  0  0  0
  144.9619  136.3941  151.7199 H   0  0  0  0  0  0  0  0  0  0  0  0
  145.5707  136.2708  150.0729 H   0  0  0  0  0  0  0  0  0  0  0  0
  145.4791  132.3541  149.3722 H   0  0  0  0  0  0  0  0  0  0  0  0
  141.6897  133.0346  150.8415 H   0  0  0  0  0  0  0  0  0  0  0  0
  151.4329  136.4202  154.0597 H   0  0  0  0  0  0  0  0  0  0  0  0
  151.0125  136.8498  155.7021 H   0  0  0  0  0  0  0  0  0  0  0  0
  149.0931  136.4738  153.5202 H   0  0  0  0  0  0  0  0  0  0  0  0
  1  2  1  0  0  0  0
  1 21  1  0  0  0  0
  1 22  1  0  0  0  0
  1 23  1  0  0  0  0
  2 20  1  0  0  0  0
  2  3  1  0  0  0  0
  2 24  1  0  0  0  0
  3  4  1  0  0  0  0
  3 25  1  0  0  0  0
  3 26  1  0  0  0  0
  4  5  1  0  0  0  0
  4  6  1  0  0  0  0
  4 27  1  0  0  0  0
  5 28  1  0  0  0  0
  5 29  1  0  0  0  0
  5 30  1  0  0  0  0
  6  7  1  0  0  0  0
  6 31  1  0  0  0  0
  6 32  1  0  0  0  0
  7  8  1  0  0  0  0
  7 20  1  0  0  0  0
  7 46  1  0  0  0  0
  8  9  1  0  0  0  0
  8 33  1  0  0  0  0
  8 34  1  0  0  0  0
  9 10  1  0  0  0  0
  9 35  1  0  0  0  0
  9 36  1  0  0  0  0
 10 11  1  0  0  0  0
 10 37  1  0  0  0  0
 11 12  2  0  0  0  0
 11 13  1  0  0  0  0
 13 14  1  0  0  0  0
 13 15  1  0  0  0  0
 13 38  1  0  0  0  0
 14 39  1  0  0  0  0
 14 40  1  0  0  0  0
 14 41  1  0  0  0  0
 15 19  1  0  0  0  0
 15 16  1  0  0  0  0
 16 17  2  0  0  0  0
 16 42  1  0  0  0  0
 17 18  1  0  0  0  0
 18 19  2  0  0  0  0
 18 43  1  0  0  0  0
 20 44  1  0  0  0  0
 20 45  1  0  0  0  0
M  CHG  1   7   1
M  END
> <s_m_source_file>
AV-unprocessed.smi

> <i_m_source_file_index>
3337

> <i_lp_mmshare_version>
43012

> <i_f3d_flags>
0

> <s_epik_input>
W0NIM11bQ0BASF0xW0NIMl1bQ0BASF0oW0NIM10pW0NIMl1OKFtDSDJdMSlbQ0gyXVtDSDJdW05IXUMoPU8pW0NASF0oW0NIM10pbjJbY0hdbltjSF1uMg==

> <s_epik_cmdline>
J2VwaWtfcHl0aG9uJywgJy1waCcsICc3LjAnLCAnLXRuJywgJzgnLCAnLW1hJywgJzIwMCcsICctbWV0YWxfYmluZGluZycsICctaW1hZScsICc8aW5maWxlLm1hZT4nLCAnLW9tYWUnLCAnPG91dGZpbGUubWFlPic=

> <r_lp_tautomer_probability>
1

> <r_epik_Ionization_Penalty>
0.00175613

> <r_epik_Ionization_Penalty_Charging>
0.00174812

> <r_epik_Ionization_Penalty_Neutral>
8.01354e-06

> <r_epik_State_Penalty>
0.00118332

> <r_epik_Charging_Adjusted_Penalty>
0.00293143

> <i_epik_Tot_Q>
1

> <i_epik_Tot_abs_Q>
1

> <r_epik_Metal_State_Penalty>
-0

> <b_epik_Metal_Only>
0

> <s_lp_Force_Field>
OPLS_2005

> <r_lp_Energy>
24.9418

> <b_lp_Chiralities_Consistent>
1

> <s_lp_Variant>
AV-unprocessed.smi:3337-1

> <Gold.Version>
5.8.1

> <Gold.Id.Protein>
6NUR|6NUR_protein|mol2

> <Gold.PLP.Fitness>
46.2281

> <Gold.PLP.PLP>
-31.7101

> <Gold.PLP.part.hbond>
-3.0000

> <Gold.PLP.part.metal>
0.0000

> <Gold.PLP.part.buried>
-1.3560

> <Gold.PLP.part.nonpolar>
-26.6229

> <Gold.PLP.part.repulsive>
0.5293

> <Gold.PLP.ligand.clash>
0.0000

> <Gold.PLP.ligand.torsion>
0.2046

> <Gold.PLP.Chemscore.Hbond>
3.7520

> <Gold.PLP.Chemscore.CHOScore>
1.1823

> <Gold.PLP.Chemscore.Metal>
0.0000

> <Gold.Chemscore.Hbonds>
donor molecule, donor type, donor heavy atom, donor atom, acceptor molecule, acceptor atom, score
      L1  H     7    46       P1  7948  2.00
      L1  H    10    37       P1  7948  1.00
      P1  H 10785 10796       L1    17  0.08
      L1  C    18    43       P1 10186  0.40

> <Gold.PLP.Chemscore.Internal.Correction>
0.1243

> <Gold.Rescore>
     Score         DG    S(hbond)    S(metal)    S(lipo)     H(rot)  DE(clash)    DE(int)     intcor
     12.32     -13.77       2.61        0.00      51.21       2.51       0.19       1.26       ----

> <Gold.Chemscore.Fitness>
12.3187

> <Gold.Chemscore.DG>
-13.7701

> <Gold.Chemscore.ZeroCoef>
-5.4800

> <Gold.Chemscore.Hbond>
2.6143

> <Gold.Chemscore.Metal>
0.0000

> <Gold.Chemscore.Lipo>
51.2102

> <Gold.Chemscore.Internal_Hbond>
0.0000

> <Gold.Chemscore.DEClash>
0.1935

> <Gold.Chemscore.DEInternal>
1.2579

> <Gold.Chemscore.Rot>
2.5129

> <Gold.Chemscore.Internal.Correction>
   9.000000E+99

> <Gold.Chemscore.Hbonds>
donor molecule, donor type, donor heavy atom, donor atom, acceptor molecule, acceptor atom, score
      L1  H     7    46       P1  7948  0.98
      L1  H    10    37       P1  7948  0.94
      P1  H 10785 10796       L1    17  0.12

> <Gold.Chemscore.Hbond.Weighted>
-8.7316

> <Gold.Chemscore.Metal.Weighted>
-0.0000

> <Gold.Chemscore.Lipo.Weighted>
-5.9916

> <Gold.Chemscore.Internal_Hbond.Weighted>
0.0000

> <Gold.Chemscore.DEClash.Weighted>
0.1935

> <Gold.Chemscore.DEInternal.Weighted>
1.2579

> <Gold.Chemscore.Rot.Weighted>
6.4331

> <Gold.Chemscore.Internal.Correction.Weighted>
   9.000000E+99

> <Gold.Protein.RotatedTorsions>
[ 6907 6896 6895 6894 ] final  126.96 input  -60.11 | X-H torsion
[ 7974 7965 7964 7962 ] final   36.89 input  175.53 | X-H torsion
[ 8008 7997 7996 7995 ] final  -99.36 input   59.86 | X-H torsion
[ 10167 10162 10161 10158 ] final  135.04 input  -65.29 | X-H torsion
[ 10718 10713 10712 10709 ] final   78.46 input   66.30 | X-H torsion
[ 10763 10752 10751 10750 ] final  -78.50 input  -60.55 | X-H torsion
[ 11005 11000 10999 10996 ] final  -19.28 input  -57.11 | X-H torsion

> <Gold.Protein.ActiveResidues>
 VAL166  LYS551  ARG553  GLY616  TRP617  ASP618  TYR619  PRO620  LYS621  CYS622 
 ASP623  PHE694  ASN695  SER759  ASP760  ASP761  ALA762  ILE779  LEU786  VAL792 
 PHE793  MET794  SER795  GLU796  ALA797  LYS798  CYS799  TRP800  GLU811  SER814 

> <Gold.Protein.RotatedAtoms>
  152.3856  133.6606  159.6195 H   0  0  0  0  0  0  0  0  0  0  0  0  # atno 6907 bound_to 6896
  150.7776  133.9041  159.3359 H   0  0  0  0  0  0  0  0  0  0  0  0  # atno 6908 bound_to 6896
  151.6838  135.0959  160.0272 H   0  0  0  0  0  0  0  0  0  0  0  0  # atno 6909 bound_to 6896
  146.1178  139.5962  142.9310 H   0  0  0  0  0  0  0  0  0  0  0  0  # atno 7974 bound_to 7965
  154.8138  140.0448  157.1361 H   0  0  0  0  0  0  0  0  0  0  0  0  # atno 8008 bound_to 7997
  154.9338  140.3043  155.5134 H   0  0  0  0  0  0  0  0  0  0  0  0  # atno 8009 bound_to 7997
  156.2974  140.2318  156.4401 H   0  0  0  0  0  0  0  0  0  0  0  0  # atno 8010 bound_to 7997
  139.5232  144.6537  151.5226 H   0  0  0  0  0  0  0  0  0  0  0  0  # atno 10167 bound_to 10162
  157.6745  130.9869  150.1789 H   0  0  0  0  0  0  0  0  0  0  0  0  # atno 10718 bound_to 10713
  154.5267  135.5728  153.6725 H   0  0  0  0  0  0  0  0  0  0  0  0  # atno 10763 bound_to 10752
  152.9929  135.6195  154.2683 H   0  0  0  0  0  0  0  0  0  0  0  0  # atno 10764 bound_to 10752
  154.2607  135.2856  155.2759 H   0  0  0  0  0  0  0  0  0  0  0  0  # atno 10765 bound_to 10752
  140.8351  133.7967  155.9800 H   0  0  0  0  0  0  0  0  0  0  0  0  # atno 11005 bound_to 11000
  145.5530  141.0411  143.2268 LP  0  0  0  0  0  0  0  0  0  0  0  0  # atno 17320 bound_to 7965
  144.7569  139.7052  143.7250 LP  0  0  0  0  0  0  0  0  0  0  0  0  # atno 17321 bound_to 7965
  140.6353  143.8996  150.6642 LP  0  0  0  0  0  0  0  0  0  0  0  0  # atno 17342 bound_to 10162
  140.2313  143.3733  152.1563 LP  0  0  0  0  0  0  0  0  0  0  0  0  # atno 17343 bound_to 10162
  156.2526  130.3702  149.8216 LP  0  0  0  0  0  0  0  0  0  0  0  0  # atno 17370 bound_to 10713
  156.5984  130.8536  151.3425 LP  0  0  0  0  0  0  0  0  0  0  0  0  # atno 17371 bound_to 10713
  140.8956  134.2442  157.5070 LP  0  0  0  0  0  0  0  0  0  0  0  0  # atno 17394 bound_to 11000
  139.8704  134.9682  156.4623 LP  0  0  0  0  0  0  0  0  0  0  0  0  # atno 17395 bound_to 11000

$$$$
