AV-unprocessed.smi:3059|AV-procd|sdf|11677|dock7
  -GOLD-   2272017 83D 1   1.00000     0.00000
 Structure written by MMmdl.
 42 43  0  0  0  0  0  0  0  0  1 V2000
  146.5220  138.7106  151.2515 C   0  0  0  0  0  0  0  0  0  0  0  0
  146.6305  138.4755  152.7620 C   0  0  0  0  0  0  0  0  0  0  0  0
  147.3203  139.5876  153.4804 C   0  0  0  0  0  0  0  0  0  0  0  0
  146.8611  140.8655  153.6819 C   0  0  0  0  0  0  0  0  0  0  0  0
  147.7461  141.6767  154.3944 N   0  0  0  0  0  0  0  0  0  0  0  0
  148.8614  141.0326  154.7449 C   0  0  0  0  0  0  0  0  0  0  0  0
  149.9931  141.6789  155.4774 C   0  0  0  0  0  0  0  0  0  0  0  0
  150.0549  141.3198  156.9748 C   0  0  0  0  0  0  0  0  0  0  0  0
  151.0528  142.0924  157.7080 N   0  0  0  0  0  0  0  0  0  0  0  0
  152.0023  141.5806  158.5096 C   0  0  0  0  0  0  0  0  0  0  0  0
  152.1256  140.3684  158.6905 O   0  0  0  0  0  0  0  0  0  0  0  0
  152.8128  142.5063  159.0833 N   0  0  0  0  0  0  0  0  0  0  0  0
  152.9027  143.9189  158.6778 C   0  0  0  0  0  0  0  0  0  0  0  0
  151.7523  144.7662  159.2587 C   0  0  0  0  0  0  0  0  0  0  0  0
  151.2898  144.3861  160.6827 C   0  0  0  0  0  0  0  0  0  0  0  0
  152.4149  144.0169  161.6687 C   0  0  0  0  0  0  0  0  0  0  0  0
  152.8670  142.5439  161.5682 C   0  0  0  0  0  0  0  0  0  0  0  0
  153.6181  142.1925  160.2714 C   0  0  0  0  0  0  0  0  0  0  0  0
  148.8972  139.3626  154.1941 S   0  0  0  0  0  0  0  0  0  0  0  0
  146.0205  137.8751  150.7629 H   0  0  0  0  0  0  0  0  0  0  0  0
  147.5084  138.8178  150.7992 H   0  0  0  0  0  0  0  0  0  0  0  0
  145.9527  139.6144  151.0320 H   0  0  0  0  0  0  0  0  0  0  0  0
  145.6320  138.3407  153.1791 H   0  0  0  0  0  0  0  0  0  0  0  0
  147.1614  137.5403  152.9435 H   0  0  0  0  0  0  0  0  0  0  0  0
  145.9223  141.2833  153.3497 H   0  0  0  0  0  0  0  0  0  0  0  0
  150.9270  141.3910  154.9927 H   0  0  0  0  0  0  0  0  0  0  0  0
  149.9106  142.7598  155.3606 H   0  0  0  0  0  0  0  0  0  0  0  0
  149.0721  141.4326  157.4347 H   0  0  0  0  0  0  0  0  0  0  0  0
  150.3235  140.2685  157.0806 H   0  0  0  0  0  0  0  0  0  0  0  0
  151.0150  143.0962  157.6077 H   0  0  0  0  0  0  0  0  0  0  0  0
  153.8468  144.3453  159.0181 H   0  0  0  0  0  0  0  0  0  0  0  0
  152.9407  144.0229  157.5925 H   0  0  0  0  0  0  0  0  0  0  0  0
  152.0600  145.8122  159.2482 H   0  0  0  0  0  0  0  0  0  0  0  0
  150.8909  144.7092  158.5924 H   0  0  0  0  0  0  0  0  0  0  0  0
  150.7216  145.2245  161.0865 H   0  0  0  0  0  0  0  0  0  0  0  0
  150.5828  143.5584  160.6317 H   0  0  0  0  0  0  0  0  0  0  0  0
  153.2633  144.6923  161.5542 H   0  0  0  0  0  0  0  0  0  0  0  0
  152.0416  144.1779  162.6804 H   0  0  0  0  0  0  0  0  0  0  0  0
  153.5184  142.3197  162.4133 H   0  0  0  0  0  0  0  0  0  0  0  0
  152.0024  141.8884  161.6802 H   0  0  0  0  0  0  0  0  0  0  0  0
  153.8960  141.1375  160.2866 H   0  0  0  0  0  0  0  0  0  0  0  0
  154.5693  142.7245  160.2422 H   0  0  0  0  0  0  0  0  0  0  0  0
  1  2  1  0  0  0  0
  1 20  1  0  0  0  0
  1 21  1  0  0  0  0
  1 22  1  0  0  0  0
  2  3  1  0  0  0  0
  2 23  1  0  0  0  0
  2 24  1  0  0  0  0
  3 19  1  0  0  0  0
  3  4  2  0  0  0  0
  4  5  1  0  0  0  0
  4 25  1  0  0  0  0
  5  6  2  0  0  0  0
  6  7  1  0  0  0  0
  6 19  1  0  0  0  0
  7  8  1  0  0  0  0
  7 26  1  0  0  0  0
  7 27  1  0  0  0  0
  8  9  1  0  0  0  0
  8 28  1  0  0  0  0
  8 29  1  0  0  0  0
  9 10  1  0  0  0  0
  9 30  1  0  0  0  0
 10 11  2  0  0  0  0
 10 12  1  0  0  0  0
 12 18  1  0  0  0  0
 12 13  1  0  0  0  0
 13 14  1  0  0  0  0
 13 31  1  0  0  0  0
 13 32  1  0  0  0  0
 14 15  1  0  0  0  0
 14 33  1  0  0  0  0
 14 34  1  0  0  0  0
 15 16  1  0  0  0  0
 15 35  1  0  0  0  0
 15 36  1  0  0  0  0
 16 17  1  0  0  0  0
 16 37  1  0  0  0  0
 16 38  1  0  0  0  0
 17 18  1  0  0  0  0
 17 39  1  0  0  0  0
 17 40  1  0  0  0  0
 18 41  1  0  0  0  0
 18 42  1  0  0  0  0
M  END
> <s_m_source_file>
AV-unprocessed.smi

> <i_m_source_file_index>
3059

> <i_lp_mmshare_version>
43012

> <i_f3d_flags>
0

> <s_epik_input>
W0NIM11bQ0gyXWMxW2NIXW5jKHMxKVtDSDJdW0NIMl1bTkhdQyg9TylOMltDSDJdW0NIMl1bQ0gyXVtDSDJdW0NIMl1bQ0gyXTI=

> <s_epik_cmdline>
J2VwaWtfcHl0aG9uJywgJy1waCcsICc3LjAnLCAnLXRuJywgJzgnLCAnLW1hJywgJzIwMCcsICctbWV0YWxfYmluZGluZycsICctaW1hZScsICc8aW5maWxlLm1hZT4nLCAnLW9tYWUnLCAnPG91dGZpbGUubWFlPic=

> <r_epik_Ionization_Penalty>
0.000969859

> <r_epik_Ionization_Penalty_Charging>
0

> <r_epik_Ionization_Penalty_Neutral>
0.000969859

> <r_epik_State_Penalty>
0.000588571

> <r_epik_Charging_Adjusted_Penalty>
0.000588571

> <i_epik_Tot_Q>
0

> <i_epik_Tot_abs_Q>
0

> <r_epik_Metal_State_Penalty>
-0

> <b_epik_Metal_Only>
0

> <s_lp_Force_Field>
OPLS_2005

> <r_lp_Energy>
18.9175

> <b_lp_Chiralities_Consistent>
1

> <s_lp_Variant>
AV-unprocessed.smi:3059-1

> <Gold.Version>
5.8.1

> <Gold.Id.Protein>
6NUR|6NUR_protein|mol2

> <Gold.PLP.Fitness>
49.5928

> <Gold.PLP.PLP>
-47.5621

> <Gold.PLP.part.hbond>
0.0000

> <Gold.PLP.part.metal>
0.0000

> <Gold.PLP.part.buried>
-3.1720

> <Gold.PLP.part.nonpolar>
-45.5071

> <Gold.PLP.part.repulsive>
0.1849

> <Gold.PLP.ligand.clash>
0.0000

> <Gold.PLP.ligand.torsion>
0.4966

> <Gold.PLP.Chemscore.Hbond>
0.0000

> <Gold.PLP.Chemscore.CHOScore>
1.0000

> <Gold.PLP.Chemscore.Metal>
0.0000

> <Gold.Chemscore.Hbonds>
donor molecule, donor type, donor heavy atom, donor atom, acceptor molecule, acceptor atom, score
      L1  C     4    25       P1 10175  1.00

> <Gold.PLP.Chemscore.Internal.Correction>
0.0240

> <Gold.Rescore>
     Score         DG    S(hbond)    S(metal)    S(lipo)     H(rot)  DE(clash)    DE(int)     intcor
     16.99     -17.38       0.00        0.00     131.37       1.35       0.08       0.31       ----

> <Gold.Chemscore.Fitness>
16.9934

> <Gold.Chemscore.DG>
-17.3821

> <Gold.Chemscore.ZeroCoef>
-5.4800

> <Gold.Chemscore.Hbond>
0.0000

> <Gold.Chemscore.Metal>
0.0000

> <Gold.Chemscore.Lipo>
131.3663

> <Gold.Chemscore.Internal_Hbond>
0.0000

> <Gold.Chemscore.DEClash>
0.0793

> <Gold.Chemscore.DEInternal>
0.3094

> <Gold.Chemscore.Rot>
1.3546

> <Gold.Chemscore.Internal.Correction>
   9.000000E+99

> <Gold.Chemscore.Hbond.Weighted>
-0.0000

> <Gold.Chemscore.Metal.Weighted>
-0.0000

> <Gold.Chemscore.Lipo.Weighted>
-15.3699

> <Gold.Chemscore.Internal_Hbond.Weighted>
0.0000

> <Gold.Chemscore.DEClash.Weighted>
0.0793

> <Gold.Chemscore.DEInternal.Weighted>
0.3094

> <Gold.Chemscore.Rot.Weighted>
3.4678

> <Gold.Chemscore.Internal.Correction.Weighted>
   9.000000E+99

> <Gold.Protein.RotatedTorsions>
[ 6907 6896 6895 6894 ] final  -34.90 input  -60.11 | X-H torsion
[ 7974 7965 7964 7962 ] final -123.06 input  175.53 | X-H torsion
[ 8008 7997 7996 7995 ] final  114.72 input   59.86 | X-H torsion
[ 10167 10162 10161 10158 ] final  -86.02 input  -65.29 | X-H torsion
[ 10718 10713 10712 10709 ] final  117.83 input   66.30 | X-H torsion
[ 10763 10752 10751 10750 ] final  119.81 input  -60.55 | X-H torsion
[ 11005 11000 10999 10996 ] final   -3.45 input  -57.11 | X-H torsion

> <Gold.Protein.ActiveResidues>
 VAL166  LYS551  ARG553  GLY616  TRP617  ASP618  TYR619  PRO620  LYS621  CYS622 
 ASP623  PHE694  ASN695  SER759  ASP760  ASP761  ALA762  ILE779  LEU786  VAL792 
 PHE793  MET794  SER795  GLU796  ALA797  LYS798  CYS799  TRP800  GLU811  SER814 

> <Gold.Protein.RotatedAtoms>
  151.0466  134.9644  159.8189 H   0  0  0  0  0  0  0  0  0  0  0  0  # atno 6907 bound_to 6896
  152.5373  134.2590  159.8938 H   0  0  0  0  0  0  0  0  0  0  0  0  # atno 6908 bound_to 6896
  151.2604  133.4262  159.2649 H   0  0  0  0  0  0  0  0  0  0  0  0  # atno 6909 bound_to 6896
  145.0228  140.8002  143.4371 H   0  0  0  0  0  0  0  0  0  0  0  0  # atno 7974 bound_to 7965
  156.2338  140.2953  156.0259 H   0  0  0  0  0  0  0  0  0  0  0  0  # atno 8008 bound_to 7997
  155.2149  140.0414  157.2956 H   0  0  0  0  0  0  0  0  0  0  0  0  # atno 8009 bound_to 7997
  154.6043  140.2435  155.7759 H   0  0  0  0  0  0  0  0  0  0  0  0  # atno 8010 bound_to 7997
  140.3981  143.2674  151.9177 H   0  0  0  0  0  0  0  0  0  0  0  0  # atno 10167 bound_to 10162
  157.6070  131.1041  150.7670 H   0  0  0  0  0  0  0  0  0  0  0  0  # atno 10718 bound_to 10713
  153.5887  135.3470  155.2902 H   0  0  0  0  0  0  0  0  0  0  0  0  # atno 10763 bound_to 10752
  154.8656  135.4199  154.2540 H   0  0  0  0  0  0  0  0  0  0  0  0  # atno 10764 bound_to 10752
  153.3342  135.7046  153.6992 H   0  0  0  0  0  0  0  0  0  0  0  0  # atno 10765 bound_to 10752
  140.6695  133.9249  155.8485 H   0  0  0  0  0  0  0  0  0  0  0  0  # atno 11005 bound_to 11000
  145.1873  139.2319  143.5261 LP  0  0  0  0  0  0  0  0  0  0  0  0  # atno 17320 bound_to 7965
  146.3488  140.1661  142.8590 LP  0  0  0  0  0  0  0  0  0  0  0  0  # atno 17321 bound_to 7965
  139.4786  144.5661  151.8163 LP  0  0  0  0  0  0  0  0  0  0  0  0  # atno 17342 bound_to 10162
  140.4769  144.1507  150.5926 LP  0  0  0  0  0  0  0  0  0  0  0  0  # atno 17343 bound_to 10162
  156.8056  130.4935  149.5363 LP  0  0  0  0  0  0  0  0  0  0  0  0  # atno 17370 bound_to 10713
  156.1160  130.6075  151.0121 LP  0  0  0  0  0  0  0  0  0  0  0  0  # atno 17371 bound_to 10713
  141.0403  134.0630  157.3909 LP  0  0  0  0  0  0  0  0  0  0  0  0  # atno 17394 bound_to 11000
  139.8986  135.0155  156.7157 LP  0  0  0  0  0  0  0  0  0  0  0  0  # atno 17395 bound_to 11000

$$$$
