#       Name:                AV-unprocessed.smi:3292
#       Creating user name   scv26
#       Creation time:       Fri Mar 27 18:55:42 2020


#       File generated by GOLD software.
#

@<TRIPOS>MOLECULE
AV-unprocessed.smi:3292
    43    44     1
SMALL
NO_CHARGES


@<TRIPOS>ATOM
      1 ****        -2.0711  -2.2648  -0.8618 C.3            1 S1                 0.0000
      2 ****        -1.5454  -1.1411   0.0463 C.3            1 S1                 0.0000
      3 ****        -2.0024  -1.2847   1.5147 C.3            1 S1                 0.0000
      4 ****        -3.4611  -1.2960   1.6579 N.pl3          1 S1                 0.0000
      5 ****        -4.3146  -0.2331   1.5098 C.2            1 S1                 0.0000
      6 ****        -5.5785  -0.7116   1.7412 C.2            1 S1                 0.0000
      7 ****        -5.4426  -2.0442   2.0250 N.pl3          1 S1                 1.0000
      8 ****        -4.1538  -2.3971   1.9774 C.2            1 S1                 0.0000
      9 ****        -0.0877  -1.1044  -0.0295 N.am           1 S1                 0.0000
     10 ****         0.6703  -0.0293   0.2296 C.2            1 S1                 0.0000
     11 ****         0.2196   1.0612   0.5812 O.2            1 S1                 0.0000
     12 ****         1.9745  -0.2858   0.0569 N.am           1 S1                 0.0000
     13 ****         3.0564   0.6750   0.2493 C.3            1 S1                 0.0000
     14 ****         3.4816   1.3331  -1.0768 C.3            1 S1                 0.0000
     15 ****         4.6355   2.3045  -0.9355 C.3            1 S1                 0.0000
     16 ****         4.5326   3.1133  -2.2257 C.3            1 S1                 0.0000
     17 ****         3.1520   3.1159  -2.5784 O.3            1 S1                 0.0000
     18 ****         2.4290   2.2333  -1.7265 C.3            1 S1                 0.0000
     19 ****        -3.1603  -2.2671  -0.9065 H              1 S1                 0.0000
     20 ****        -1.7494  -3.2445  -0.5072 H              1 S1                 0.0000
     21 ****        -1.7076  -2.1448  -1.8830 H              1 S1                 0.0000
     22 ****        -1.9310  -0.1985  -0.3476 H              1 S1                 0.0000
     23 ****        -1.6043  -2.2014   1.9532 H              1 S1                 0.0000
     24 ****        -1.6278  -0.4576   2.1193 H              1 S1                 0.0000
     25 ****        -3.9672   0.7582   1.2556 H              1 S1                 0.0000
     26 ****        -6.5385  -0.2164   1.7267 H              1 S1                 0.0000
     27 ****        -3.7536  -3.3789   2.1579 H              1 S1                 0.0000
     28 ****         0.3759  -1.9552  -0.3134 H              1 S1                 0.0000
     29 ****         2.2413  -1.2149  -0.2346 H              1 S1                 0.0000
     30 ****         2.7787   1.4322   0.9846 H              1 S1                 0.0000
     31 ****         3.9037   0.1364   0.6745 H              1 S1                 0.0000
     32 ****         3.7690   0.5587  -1.7902 H              1 S1                 0.0000
     33 ****         4.4806   2.9564  -0.0743 H              1 S1                 0.0000
     34 ****         5.6010   1.8112  -0.8203 H              1 S1                 0.0000
     35 ****         4.9166   4.1271  -2.1110 H              1 S1                 0.0000
     36 ****         5.0926   2.6278  -3.0256 H              1 S1                 0.0000
     37 ****         1.6798   1.6696  -2.2830 H              1 S1                 0.0000
     38 ****         1.9126   2.8298  -0.9730 H              1 S1                 0.0000
     39 ****        -6.2053  -2.6735   2.2419 H              1 S1                 0.0000
     40 ****        -0.7671   1.1833   0.6887 LP             1 S1                 0.0000
     41 ****         0.8402   1.8249   0.7593 LP             1 S1                 0.0000
     42 ****         3.0522   2.8159  -3.5271 LP             1 S1                 0.0000
     43 ****         2.7874   4.0420  -2.4815 LP             1 S1                 0.0000
@<TRIPOS>BOND
    1    1    2 1     
    2    1   19 1     
    3    1   20 1     
    4    1   21 1     
    5    2    3 1     
    6    2    9 1     
    7    2   22 1     
    8    3    4 1     
    9    3   23 1     
   10    3   24 1     
   11    4    8 1     
   12    4    5 1     
   13    5    6 2     
   14    5   25 1     
   15    6    7 1     
   16    6   26 1     
   17    7    8 2     
   18    7   39 1     
   19    8   27 1     
   20    9   10 am    
   21    9   28 1     
   22   10   11 2     
   23   10   12 am    
   24   12   13 1     
   25   12   29 1     
   26   13   14 1     
   27   13   30 1     
   28   13   31 1     
   29   14   18 1     
   30   14   15 1     
   31   14   32 1     
   32   15   16 1     
   33   15   33 1     
   34   15   34 1     
   35   16   17 1     
   36   16   35 1     
   37   16   36 1     
   38   17   18 1     
   39   18   37 1     
   40   18   38 1     
   41   11   40 1     
   42   11   41 1     
   43   17   42 1     
   44   17   43 1     
@<TRIPOS>SUBSTRUCTURE
      1 S1             1
@<TRIPOS>SET
LONE_PAIRS      STATIC     ATOMS    <user>   **** ""
4 40 41 42 43
DONOR_HYDROGENS      STATIC     ATOMS    <user>   **** ""
3 39 28 29
ATOM$BLUE        STATIC     ATOMS    COLORGROUP SYSTEM
4 40 41 42 43
ATOM$RED        STATIC     ATOMS    COLORGROUP SYSTEM
3 39 28 29
