AV-unprocessed.smi:114|AV-procd|sdf|1118|dock3
  -GOLD-   2262018243D 1   1.00000     0.00000
 Structure written by MMmdl.
 32 34  0  0  0  0  0  0  0  0  1 V2000
  144.3591  134.1417  154.5941 N   0  0  0  0  0  0  0  0  0  0  0  0
  144.2069  135.4706  154.5040 C   0  0  0  0  0  0  0  0  0  0  0  0
  142.9540  135.9690  154.3872 N   0  0  0  0  0  0  0  0  0  0  0  0
  142.7581  137.2900  154.2944 C   0  0  0  0  0  0  0  0  0  0  0  0
  141.4732  137.7013  154.1820 F   0  0  0  0  0  0  0  0  0  0  0  0
  143.6894  138.2494  154.3009 N   0  0  0  0  0  0  0  0  0  0  0  0
  144.9544  137.7521  154.4196 C   0  0  0  0  0  0  0  0  0  0  0  0
  145.2950  136.3769  154.5252 C   0  0  0  0  0  0  0  0  0  0  0  0
  146.6723  136.2355  154.6285 N   0  0  0  0  0  0  0  0  0  0  0  0
  147.1170  137.4630  154.5851 C   0  0  0  0  0  0  0  0  0  0  0  0
  146.1516  138.4387  154.4656 N   0  0  0  0  0  0  0  0  0  0  0  0
  146.3568  139.9206  154.3995 C   0  0  1  0  0  0  0  0  0  0  0  0
  147.1141  140.3131  155.5003 O   0  0  0  0  0  0  0  0  0  0  0  0
  147.9644  141.3884  155.1199 C   0  0  1  0  0  0  0  0  0  0  0  0
  149.1192  141.5618  156.1224 C   0  0  0  0  0  0  0  0  0  0  0  0
  150.0761  142.4650  155.6100 O   0  0  0  0  0  0  0  0  0  0  0  0
  148.3768  141.0182  153.6871 C   0  0  1  0  0  0  0  0  0  0  0  0
  149.4839  140.1333  153.6857 O   0  0  0  0  0  0  0  0  0  0  0  0
  147.1074  140.3760  153.1297 C   0  0  1  0  0  0  0  0  0  0  0  0
  147.3564  139.3687  152.1618 O   0  0  0  0  0  0  0  0  0  0  0  0
  145.3523  140.3406  154.4661 H   0  0  0  0  0  0  0  0  0  0  0  0
  147.3663  142.3011  155.0744 H   0  0  0  0  0  0  0  0  0  0  0  0
  148.6593  141.9010  153.1130 H   0  0  0  0  0  0  0  0  0  0  0  0
  146.4946  141.1483  152.6628 H   0  0  0  0  0  0  0  0  0  0  0  0
  145.2843  133.7465  154.6820 H   0  0  0  0  0  0  0  0  0  0  0  0
  143.5493  133.5389  154.5732 H   0  0  0  0  0  0  0  0  0  0  0  0
  148.1709  137.6927  154.6443 H   0  0  0  0  0  0  0  0  0  0  0  0
  148.7553  141.9046  157.0918 H   0  0  0  0  0  0  0  0  0  0  0  0
  149.6254  140.6093  156.2820 H   0  0  0  0  0  0  0  0  0  0  0  0
  149.7764  143.3455  155.7768 H   0  0  0  0  0  0  0  0  0  0  0  0
  149.5594  139.7532  152.8236 H   0  0  0  0  0  0  0  0  0  0  0  0
  147.9861  139.6996  151.5396 H   0  0  0  0  0  0  0  0  0  0  0  0
  1  2  1  0  0  0  0
  1 25  1  0  0  0  0
  1 26  1  0  0  0  0
  2  8  1  0  0  0  0
  2  3  2  0  0  0  0
  3  4  1  0  0  0  0
  4  5  1  0  0  0  0
  4  6  2  0  0  0  0
  6  7  1  0  0  0  0
  7 11  1  0  0  0  0
  7  8  2  0  0  0  0
  8  9  1  0  0  0  0
  9 10  2  0  0  0  0
 10 11  1  0  0  0  0
 10 27  1  0  0  0  0
 11 12  1  0  0  0  0
 12 21  1  0  0  0  0
 12 19  1  0  0  0  0
 12 13  1  0  0  0  0
 13 14  1  0  0  0  0
 14 22  1  0  0  0  0
 14 15  1  0  0  0  0
 14 17  1  0  0  0  0
 15 16  1  0  0  0  0
 15 28  1  0  0  0  0
 15 29  1  0  0  0  0
 16 30  1  0  0  0  0
 17 23  1  0  0  0  0
 17 18  1  0  0  0  0
 17 19  1  0  0  0  0
 18 31  1  0  0  0  0
 19 24  1  0  0  0  0
 19 20  1  0  0  0  0
 20 32  1  0  0  0  0
M  END
> <s_m_source_file>
AV-unprocessed.smi

> <i_m_source_file_index>
114

> <i_lp_mmshare_version>
43012

> <i_f3d_flags>
0

> <s_epik_input>
RmMobjEpbmMoW05IMl0pYyhjMTIpbltjSF1uMltDQEBIXTNPW0NASF0oW0NIMl1bT0hdKVtDQEBIXShbT0hdKVtDQEBIXTNbT0hd

> <s_epik_cmdline>
J2VwaWtfcHl0aG9uJywgJy1waCcsICc3LjAnLCAnLXRuJywgJzgnLCAnLW1hJywgJzIwMCcsICctbWV0YWxfYmluZGluZycsICctaW1hZScsICc8aW5maWxlLm1hZT4nLCAnLW9tYWUnLCAnPG91dGZpbGUubWFlPic=

> <r_lp_tautomer_probability>
1

> <r_epik_Ionization_Penalty>
1.13199e-05

> <r_epik_Ionization_Penalty_Charging>
0

> <r_epik_Ionization_Penalty_Neutral>
1.13199e-05

> <r_epik_State_Penalty>
-0

> <r_epik_Charging_Adjusted_Penalty>
0

> <i_epik_Tot_Q>
0

> <i_epik_Tot_abs_Q>
0

> <r_epik_Metal_State_Penalty>
-0

> <b_epik_Metal_Only>
0

> <s_epik_Chemistry_Notes>
This compound contains an acetal/aminal-like group ( X-CH(R)-Y where X, Y are N, S, or O) that may be acid/base labile, releasing an aldehyde.

> <s_lp_Force_Field>
OPLS_2005

> <r_lp_Energy>
48.1785

> <b_lp_Chiralities_Consistent>
1

> <s_lp_Variant>
AV-unprocessed.smi:114-12

> <Gold.Version>
5.8.1

> <Gold.Id.Protein>
6NUR|6NUR_protein|mol2

> <Gold.PLP.Fitness>
30.9104

> <Gold.PLP.PLP>
-19.0862

> <Gold.PLP.part.hbond>
-4.6523

> <Gold.PLP.part.metal>
0.0000

> <Gold.PLP.part.buried>
-4.8233

> <Gold.PLP.part.nonpolar>
-12.1272

> <Gold.PLP.part.repulsive>
1.9443

> <Gold.PLP.ligand.clash>
0.0000

> <Gold.PLP.ligand.torsion>
0.1124

> <Gold.PLP.Chemscore.Hbond>
4.0155

> <Gold.PLP.Chemscore.CHOScore>
0.0000

> <Gold.PLP.Chemscore.Metal>
0.0000

> <Gold.Chemscore.Hbonds>
donor molecule, donor type, donor heavy atom, donor atom, acceptor molecule, acceptor atom, score
      L1  H     1    26       P1 10957  1.00
      L1  H    16    30       P1  8028  1.00
      L1  H    18    31       P1  7957  0.93
      L1  H    20    32       P1  7957  1.00
      P1  H  7989  7998       L1    18  0.11

> <Gold.PLP.Chemscore.Internal.Correction>
0.0024

> <Gold.Rescore>
     Score         DG    S(hbond)    S(metal)    S(lipo)     H(rot)  DE(clash)    DE(int)     intcor
     11.16     -11.33       3.95        0.00      25.31       4.03       0.00       0.17       ----

> <Gold.Chemscore.Fitness>
11.1649

> <Gold.Chemscore.DG>
-11.3322

> <Gold.Chemscore.ZeroCoef>
-5.4800

> <Gold.Chemscore.Hbond>
3.9528

> <Gold.Chemscore.Metal>
0.0000

> <Gold.Chemscore.Lipo>
25.3057

> <Gold.Chemscore.Internal_Hbond>
0.0000

> <Gold.Chemscore.DEClash>
0.0004

> <Gold.Chemscore.DEInternal>
0.1668

> <Gold.Chemscore.Rot>
4.0277

> <Gold.Chemscore.Internal.Correction>
   9.000000E+99

> <Gold.Chemscore.Hbonds>
donor molecule, donor type, donor heavy atom, donor atom, acceptor molecule, acceptor atom, score
      L1  H     1    26       P1 10957  0.93
      L1  H    16    30       P1  8028  0.99
      L1  H    18    31       P1  7957  0.91
      L1  H    20    32       P1  7957  0.94

> <Gold.Chemscore.Hbond.Weighted>
-13.2024

> <Gold.Chemscore.Metal.Weighted>
-0.0000

> <Gold.Chemscore.Lipo.Weighted>
-2.9608

> <Gold.Chemscore.Internal_Hbond.Weighted>
0.0000

> <Gold.Chemscore.DEClash.Weighted>
0.0004

> <Gold.Chemscore.DEInternal.Weighted>
0.1668

> <Gold.Chemscore.Rot.Weighted>
10.3110

> <Gold.Chemscore.Internal.Correction.Weighted>
   9.000000E+99

> <Gold.Protein.RotatedTorsions>
[ 6907 6896 6895 6894 ] final   81.02 input  -60.11 | X-H torsion
[ 7974 7965 7964 7962 ] final  -51.79 input  175.53 | X-H torsion
[ 8008 7997 7996 7995 ] final  -45.92 input   59.86 | X-H torsion
[ 10167 10162 10161 10158 ] final  127.13 input  -65.29 | X-H torsion
[ 10718 10713 10712 10709 ] final   28.34 input   66.30 | X-H torsion
[ 10763 10752 10751 10750 ] final  -47.05 input  -60.55 | X-H torsion
[ 11005 11000 10999 10996 ] final  162.01 input  -57.11 | X-H torsion

> <Gold.Protein.ActiveResidues>
 VAL166  LYS551  ARG553  GLY616  TRP617  ASP618  TYR619  PRO620  LYS621  CYS622 
 ASP623  PHE694  ASN695  SER759  ASP760  ASP761  ALA762  ILE779  LEU786  VAL792 
 PHE793  MET794  SER795  GLU796  ALA797  LYS798  CYS799  TRP800  GLU811  SER814 

> <Gold.Protein.RotatedAtoms>
  152.5254  134.3268  159.9168 H   0  0  0  0  0  0  0  0  0  0  0  0  # atno 6907 bound_to 6896
  151.3217  133.4031  159.2663 H   0  0  0  0  0  0  0  0  0  0  0  0  # atno 6908 bound_to 6896
  150.9953  134.9296  159.7980 H   0  0  0  0  0  0  0  0  0  0  0  0  # atno 6909 bound_to 6896
  145.9151  140.7882  142.9676 H   0  0  0  0  0  0  0  0  0  0  0  0  # atno 7974 bound_to 7965
  154.4004  140.1384  156.3926 H   0  0  0  0  0  0  0  0  0  0  0  0  # atno 8008 bound_to 7997
  155.7900  140.3479  155.5323 H   0  0  0  0  0  0  0  0  0  0  0  0  # atno 8009 bound_to 7997
  155.8589  140.0953  157.1617 H   0  0  0  0  0  0  0  0  0  0  0  0  # atno 8010 bound_to 7997
  139.5594  144.6871  151.4086 H   0  0  0  0  0  0  0  0  0  0  0  0  # atno 10167 bound_to 10162
  157.2322  130.7029  149.6318 H   0  0  0  0  0  0  0  0  0  0  0  0  # atno 10718 bound_to 10713
  154.0551  135.6626  153.4805 H   0  0  0  0  0  0  0  0  0  0  0  0  # atno 10763 bound_to 10752
  153.0448  135.5121  154.7713 H   0  0  0  0  0  0  0  0  0  0  0  0  # atno 10764 bound_to 10752
  154.6732  135.3033  154.9680 H   0  0  0  0  0  0  0  0  0  0  0  0  # atno 10765 bound_to 10752
  140.2214  134.8193  157.3224 H   0  0  0  0  0  0  0  0  0  0  0  0  # atno 11005 bound_to 11000
  144.6747  140.1886  143.7399 LP  0  0  0  0  0  0  0  0  0  0  0  0  # atno 17320 bound_to 7965
  145.8622  139.2229  143.1710 LP  0  0  0  0  0  0  0  0  0  0  0  0  # atno 17321 bound_to 7965
  140.6872  143.7946  150.7203 LP  0  0  0  0  0  0  0  0  0  0  0  0  # atno 17342 bound_to 10162
  140.1417  143.4435  152.2189 LP  0  0  0  0  0  0  0  0  0  0  0  0  # atno 17343 bound_to 10162
  155.9675  130.4485  150.5623 LP  0  0  0  0  0  0  0  0  0  0  0  0  # atno 17370 bound_to 10713
  157.3467  131.0726  151.1746 LP  0  0  0  0  0  0  0  0  0  0  0  0  # atno 17371 bound_to 10713
  140.1845  134.4448  155.7752 LP  0  0  0  0  0  0  0  0  0  0  0  0  # atno 17394 bound_to 11000
  141.2223  133.6999  156.7924 LP  0  0  0  0  0  0  0  0  0  0  0  0  # atno 17395 bound_to 11000

$$$$
