AV-unprocessed.smi:468|AV-procd|sdf|2651|dock1
  -GOLD-   2262023 63D 1   1.00000     0.00000
 Structure written by MMmdl.
 50 51  0  0  0  0  0  0  0  0  1 V2000
  151.3977  133.8556  156.2768 C   0  0  0  0  0  0  0  0  0  0  0  0
  150.6395  134.0030  157.4672 O   0  0  0  0  0  0  0  0  0  0  0  0
  149.8001  135.1498  157.4952 C   0  0  0  0  0  0  0  0  0  0  0  0
  148.7139  135.0835  158.5892 C   0  0  0  0  0  0  0  0  0  0  0  0
  148.6101  136.3271  159.3713 N   0  0  0  0  0  0  0  0  0  0  0  0
  147.8788  136.3712  160.5167 C   0  0  0  0  0  0  0  0  0  0  0  0
  147.7240  137.4175  161.1487 O   0  0  0  0  0  0  0  0  0  0  0  0
  147.1960  135.0811  161.0242 C   0  0  0  0  0  0  0  0  0  0  0  0
  145.7061  135.2036  161.4045 C   0  0  0  0  0  0  0  0  0  0  0  0
  146.0029  134.3628  162.6489 C   0  0  0  0  0  0  0  0  0  0  0  0
  147.4732  134.7636  162.5032 C   0  0  0  0  0  0  0  0  0  0  0  0
  149.1507  137.4892  158.7902 C   0  0  0  0  0  0  0  0  0  0  0  0
  148.4009  138.3393  158.0259 C   0  0  0  0  0  0  0  0  0  0  0  0
  147.0567  138.0790  157.8068 N   0  0  0  0  0  0  0  0  0  0  0  0
  148.9578  139.4786  157.4344 N   0  0  0  0  0  0  0  0  0  0  0  0
  148.2190  140.4083  156.5980 C   0  0  0  0  0  0  0  0  0  0  0  0
  148.8692  140.6858  155.2217 C   0  0  0  0  0  0  0  0  0  0  0  0
  147.9718  141.6051  154.3811 C   0  0  0  0  0  0  0  0  0  0  0  0
  149.2071  139.4006  154.4470 C   0  0  0  0  0  0  0  0  0  0  0  0
  150.3321  139.7691  157.6111 C   0  0  0  0  0  0  0  0  0  0  0  0
  150.8902  140.7447  157.1077 O   0  0  0  0  0  0  0  0  0  0  0  0
  151.0720  138.8918  158.3954 N   0  0  0  0  0  0  0  0  0  0  0  0
  150.5785  137.7479  159.0159 C   0  0  0  0  0  0  0  0  0  0  0  0
  151.3381  137.0457  159.6817 O   0  0  0  0  0  0  0  0  0  0  0  0
  152.0518  139.0998  158.5216 H   0  0  0  0  0  0  0  0  0  0  0  0
  151.9354  132.9081  156.3081 H   0  0  0  0  0  0  0  0  0  0  0  0
  152.1389  134.6470  156.1688 H   0  0  0  0  0  0  0  0  0  0  0  0
  150.7572  133.8479  155.3943 H   0  0  0  0  0  0  0  0  0  0  0  0
  150.4068  136.0476  157.6206 H   0  0  0  0  0  0  0  0  0  0  0  0
  149.3325  135.2404  156.5149 H   0  0  0  0  0  0  0  0  0  0  0  0
  147.7513  134.8314  158.1438 H   0  0  0  0  0  0  0  0  0  0  0  0
  148.9304  134.2507  159.2605 H   0  0  0  0  0  0  0  0  0  0  0  0
  147.3527  134.2172  160.3783 H   0  0  0  0  0  0  0  0  0  0  0  0
  145.3725  136.2102  161.6617 H   0  0  0  0  0  0  0  0  0  0  0  0
  145.0217  134.7272  160.7021 H   0  0  0  0  0  0  0  0  0  0  0  0
  145.5230  134.7139  163.5628 H   0  0  0  0  0  0  0  0  0  0  0  0
  145.8385  133.2966  162.4868 H   0  0  0  0  0  0  0  0  0  0  0  0
  148.1742  133.9441  162.6650 H   0  0  0  0  0  0  0  0  0  0  0  0
  147.7380  135.6398  163.0985 H   0  0  0  0  0  0  0  0  0  0  0  0
  146.6113  137.2638  158.2045 H   0  0  0  0  0  0  0  0  0  0  0  0
  146.4355  138.7927  157.4540 H   0  0  0  0  0  0  0  0  0  0  0  0
  147.2092  140.0167  156.4844 H   0  0  0  0  0  0  0  0  0  0  0  0
  148.0941  141.3259  157.1765 H   0  0  0  0  0  0  0  0  0  0  0  0
  149.8056  141.2198  155.3860 H   0  0  0  0  0  0  0  0  0  0  0  0
  147.0096  141.1364  154.1720 H   0  0  0  0  0  0  0  0  0  0  0  0
  148.4396  141.8466  153.4262 H   0  0  0  0  0  0  0  0  0  0  0  0
  147.7788  142.5454  154.8984 H   0  0  0  0  0  0  0  0  0  0  0  0
  148.3164  138.7958  154.2747 H   0  0  0  0  0  0  0  0  0  0  0  0
  149.9302  138.7878  154.9856 H   0  0  0  0  0  0  0  0  0  0  0  0
  149.6435  139.6318  153.4750 H   0  0  0  0  0  0  0  0  0  0  0  0
  1  2  1  0  0  0  0
  1 26  1  0  0  0  0
  1 27  1  0  0  0  0
  1 28  1  0  0  0  0
  2  3  1  0  0  0  0
  3  4  1  0  0  0  0
  3 29  1  0  0  0  0
  3 30  1  0  0  0  0
  4  5  1  0  0  0  0
  4 31  1  0  0  0  0
  4 32  1  0  0  0  0
  5  6  1  0  0  0  0
  5 12  1  0  0  0  0
  6  7  2  0  0  0  0
  6  8  1  0  0  0  0
  8 11  1  0  0  0  0
  8  9  1  0  0  0  0
  8 33  1  0  0  0  0
  9 10  1  0  0  0  0
  9 34  1  0  0  0  0
  9 35  1  0  0  0  0
 10 11  1  0  0  0  0
 10 36  1  0  0  0  0
 10 37  1  0  0  0  0
 11 38  1  0  0  0  0
 11 39  1  0  0  0  0
 12 23  1  0  0  0  0
 12 13  2  0  0  0  0
 13 14  1  0  0  0  0
 13 15  1  0  0  0  0
 14 40  1  0  0  0  0
 14 41  1  0  0  0  0
 15 16  1  0  0  0  0
 15 20  1  0  0  0  0
 16 17  1  0  0  0  0
 16 42  1  0  0  0  0
 16 43  1  0  0  0  0
 17 18  1  0  0  0  0
 17 19  1  0  0  0  0
 17 44  1  0  0  0  0
 18 45  1  0  0  0  0
 18 46  1  0  0  0  0
 18 47  1  0  0  0  0
 19 48  1  0  0  0  0
 19 49  1  0  0  0  0
 19 50  1  0  0  0  0
 20 21  2  0  0  0  0
 20 22  1  0  0  0  0
 22 25  1  0  0  0  0
 22 23  1  0  0  0  0
 23 24  2  0  0  0  0
M  END
> <s_m_source_file>
AV-unprocessed.smi

> <i_m_source_file_index>
468

> <i_lp_mmshare_version>
43012

> <i_f3d_flags>
0

> <s_epik_input>
W0NIMl0xW0NIMl1bQ0gyXVtDSF0xQyg9TylOKFtDSDJdW0NIMl1PW0NIM10pYzJjKFtOSDJdKW4oW0NIMl1bQ0hdKFtDSDNdKVtDSDNdKWMoPU8pW25IXWMyPU8=

> <s_epik_cmdline>
J2VwaWtfcHl0aG9uJywgJy1waCcsICc3LjAnLCAnLXRuJywgJzgnLCAnLW1hJywgJzIwMCcsICctbWV0YWxfYmluZGluZycsICctaW1hZScsICc8aW5maWxlLm1hZT4nLCAnLW9tYWUnLCAnPG91dGZpbGUubWFlPic=

> <r_lp_tautomer_probability>
1

> <r_epik_Ionization_Penalty>
5.59455e-05

> <r_epik_Ionization_Penalty_Charging>
2.72738e-05

> <r_epik_Ionization_Penalty_Neutral>
2.86717e-05

> <r_epik_State_Penalty>
-0

> <r_epik_Charging_Adjusted_Penalty>
2.72738e-05

> <i_epik_Tot_Q>
0

> <i_epik_Tot_abs_Q>
0

> <r_epik_Metal_State_Penalty>
0.0266192

> <b_epik_Metal_Only>
0

> <s_lp_Force_Field>
OPLS_2005

> <r_lp_Energy>
37.1478

> <b_lp_Chiralities_Consistent>
1

> <s_lp_Variant>
AV-unprocessed.smi:468-1

> <Gold.Version>
5.8.1

> <Gold.Id.Protein>
6NUR|6NUR_protein|mol2

> <Gold.PLP.Fitness>
41.3421

> <Gold.PLP.PLP>
-32.6748

> <Gold.PLP.part.hbond>
-4.0000

> <Gold.PLP.part.metal>
0.0000

> <Gold.PLP.part.buried>
-4.7794

> <Gold.PLP.part.nonpolar>
-24.6966

> <Gold.PLP.part.repulsive>
0.1561

> <Gold.PLP.ligand.clash>
0.0000

> <Gold.PLP.ligand.torsion>
2.3603

> <Gold.PLP.Chemscore.Hbond>
3.5280

> <Gold.PLP.Chemscore.CHOScore>
0.0000

> <Gold.PLP.Chemscore.Metal>
0.0000

> <Gold.Chemscore.Hbonds>
donor molecule, donor type, donor heavy atom, donor atom, acceptor molecule, acceptor atom, score
      P1  H  6896  6907       L1    24  1.00
      P1  H  6896  6909       L1     2  0.66
      P1  H  6931  6943       L1     7  0.82
      P1  H  6934  6947       L1     7  0.80

> <Gold.PLP.Chemscore.Internal.Correction>
2.8038

> <Gold.Rescore>
     Score         DG    S(hbond)    S(metal)    S(lipo)     H(rot)  DE(clash)    DE(int)     intcor
     15.66     -18.19       3.25        0.00      61.32       2.08       0.05       2.48       ----

> <Gold.Chemscore.Fitness>
15.6558

> <Gold.Chemscore.DG>
-18.1900

> <Gold.Chemscore.ZeroCoef>
-5.4800

> <Gold.Chemscore.Hbond>
3.2493

> <Gold.Chemscore.Metal>
0.0000

> <Gold.Chemscore.Lipo>
61.3176

> <Gold.Chemscore.Internal_Hbond>
0.0000

> <Gold.Chemscore.DEClash>
0.0504

> <Gold.Chemscore.DEInternal>
2.4837

> <Gold.Chemscore.Rot>
2.0768

> <Gold.Chemscore.Internal.Correction>
   9.000000E+99

> <Gold.Chemscore.Hbonds>
donor molecule, donor type, donor heavy atom, donor atom, acceptor molecule, acceptor atom, score
      P1  H  6896  6907       L1    24  1.00
      P1  H  6896  6909       L1     2  0.17
      P1  H  6931  6943       L1     7  0.81
      P1  H  6934  6947       L1     7  0.80

> <Gold.Chemscore.Hbond.Weighted>
-10.8525

> <Gold.Chemscore.Metal.Weighted>
-0.0000

> <Gold.Chemscore.Lipo.Weighted>
-7.1742

> <Gold.Chemscore.Internal_Hbond.Weighted>
0.0000

> <Gold.Chemscore.DEClash.Weighted>
0.0504

> <Gold.Chemscore.DEInternal.Weighted>
2.4837

> <Gold.Chemscore.Rot.Weighted>
5.3166

> <Gold.Chemscore.Internal.Correction.Weighted>
   9.000000E+99

> <Gold.Protein.RotatedTorsions>
[ 6907 6896 6895 6894 ] final   -5.52 input  -60.11 | X-H torsion
[ 7974 7965 7964 7962 ] final  -38.03 input  175.53 | X-H torsion
[ 8008 7997 7996 7995 ] final -149.03 input   59.86 | X-H torsion
[ 10167 10162 10161 10158 ] final  -55.27 input  -65.29 | X-H torsion
[ 10718 10713 10712 10709 ] final   70.72 input   66.30 | X-H torsion
[ 10763 10752 10751 10750 ] final   65.89 input  -60.55 | X-H torsion
[ 11005 11000 10999 10996 ] final    2.89 input  -57.11 | X-H torsion

> <Gold.Protein.ActiveResidues>
 VAL166  LYS551  ARG553  GLY616  TRP617  ASP618  TYR619  PRO620  LYS621  CYS622 
 ASP623  PHE694  ASN695  SER759  ASP760  ASP761  ALA762  ILE779  LEU786  VAL792 
 PHE793  MET794  SER795  GLU796  ALA797  LYS798  CYS799  TRP800  GLU811  SER814 

> <Gold.Protein.RotatedAtoms>
  151.4803  135.1051  159.9775 H   0  0  0  0  0  0  0  0  0  0  0  0  # atno 6907 bound_to 6896
  152.4782  133.8185  159.7051 H   0  0  0  0  0  0  0  0  0  0  0  0  # atno 6908 bound_to 6896
  150.8834  133.7279  159.2952 H   0  0  0  0  0  0  0  0  0  0  0  0  # atno 6909 bound_to 6896
  146.0523  140.6464  142.9036 H   0  0  0  0  0  0  0  0  0  0  0  0  # atno 7974 bound_to 7965
  155.6012  140.0662  157.2732 H   0  0  0  0  0  0  0  0  0  0  0  0  # atno 8008 bound_to 7997
  154.4278  140.1818  156.1222 H   0  0  0  0  0  0  0  0  0  0  0  0  # atno 8009 bound_to 7997
  156.0158  140.3322  155.6991 H   0  0  0  0  0  0  0  0  0  0  0  0  # atno 8010 bound_to 7997
  140.6384  143.2494  151.5055 H   0  0  0  0  0  0  0  0  0  0  0  0  # atno 10167 bound_to 10162
  157.6414  130.9491  150.0689 H   0  0  0  0  0  0  0  0  0  0  0  0  # atno 10718 bound_to 10713
  153.0116  135.5340  154.6738 H   0  0  0  0  0  0  0  0  0  0  0  0  # atno 10763 bound_to 10752
  154.5916  135.2859  155.0632 H   0  0  0  0  0  0  0  0  0  0  0  0  # atno 10764 bound_to 10752
  154.1722  135.6530  153.5065 H   0  0  0  0  0  0  0  0  0  0  0  0  # atno 10765 bound_to 10752
  140.5992  133.9852  155.8124 H   0  0  0  0  0  0  0  0  0  0  0  0  # atno 11005 bound_to 11000
  144.7129  140.4105  143.7066 LP  0  0  0  0  0  0  0  0  0  0  0  0  # atno 17320 bound_to 7965
  145.6703  139.1598  143.2758 LP  0  0  0  0  0  0  0  0  0  0  0  0  # atno 17321 bound_to 7965
  139.5594  144.2195  152.1666 LP  0  0  0  0  0  0  0  0  0  0  0  0  # atno 17342 bound_to 10162
  140.1458  144.5160  150.6717 LP  0  0  0  0  0  0  0  0  0  0  0  0  # atno 17343 bound_to 10162
  156.1699  130.3646  149.9179 LP  0  0  0  0  0  0  0  0  0  0  0  0  # atno 17370 bound_to 10713
  156.7157  130.8987  151.3613 LP  0  0  0  0  0  0  0  0  0  0  0  0  # atno 17371 bound_to 10713
  141.0883  133.9955  157.3277 LP  0  0  0  0  0  0  0  0  0  0  0  0  # atno 17394 bound_to 11000
  139.9240  135.0201  156.8167 LP  0  0  0  0  0  0  0  0  0  0  0  0  # atno 17395 bound_to 11000

$$$$
