AV-unprocessed.smi:2953|AV-procd|sdf|11294|dock1
  -GOLD-   2272016183D 1   1.00000     0.00000
 Structure written by MMmdl.
 45 47  0  0  0  0  0  0  0  0  1 V2000
  151.0289  145.2245  161.1664 C   0  0  0  0  0  0  0  0  0  0  0  0
  152.1803  144.2368  161.1811 C   0  0  0  0  0  0  0  0  0  0  0  0
  153.1106  144.2961  162.2398 C   0  0  0  0  0  0  0  0  0  0  0  0
  154.1872  143.3932  162.2935 C   0  0  0  0  0  0  0  0  0  0  0  0
  154.3378  142.4267  161.2845 C   0  0  0  0  0  0  0  0  0  0  0  0
  153.4150  142.3646  160.2233 C   0  0  0  0  0  0  0  0  0  0  0  0
  152.3232  143.2692  160.1562 C   0  0  0  0  0  0  0  0  0  0  0  0
  151.3911  143.2575  159.1365 O   0  0  0  0  0  0  0  0  0  0  0  0
  151.4817  142.2238  158.1632 C   0  0  0  0  0  0  0  0  0  0  0  0
  150.3311  142.3318  157.1532 C   0  0  0  0  0  0  0  0  0  0  0  0
  149.9610  141.0427  156.5843 N   0  0  0  0  0  0  0  0  0  0  0  0
  148.7364  140.4592  156.4899 C   0  0  0  0  0  0  0  0  0  0  0  0
  147.4717  141.1120  156.9860 C   0  0  1  0  0  0  0  0  0  0  0  0
  146.4125  141.2376  155.8817 C   0  0  0  0  0  0  0  0  0  0  0  0
  146.9531  140.3203  158.0959 N   0  0  0  0  0  0  0  0  0  0  0  0
  147.6420  140.0387  159.2087 C   0  0  0  0  0  0  0  0  0  0  0  0
  148.7916  140.4248  159.4031 O   0  0  0  0  0  0  0  0  0  0  0  0
  148.7250  139.2324  155.9614 N   0  0  0  0  0  0  0  0  0  0  0  0
  150.0507  139.0181  155.6464 C   0  0  0  0  0  0  0  0  0  0  0  0
  150.6834  137.9080  155.0426 C   0  0  0  0  0  0  0  0  0  0  0  0
  152.0753  137.9160  154.8161 C   0  0  0  0  0  0  0  0  0  0  0  0
  152.8524  139.0309  155.1908 C   0  0  0  0  0  0  0  0  0  0  0  0
  152.2414  140.1457  155.7966 C   0  0  0  0  0  0  0  0  0  0  0  0
  150.8510  140.1333  156.0194 C   0  0  0  0  0  0  0  0  0  0  0  0
  150.7617  145.5211  162.1811 H   0  0  0  0  0  0  0  0  0  0  0  0
  150.1390  144.7982  160.7037 H   0  0  0  0  0  0  0  0  0  0  0  0
  151.3145  146.1215  160.6178 H   0  0  0  0  0  0  0  0  0  0  0  0
  152.9997  145.0364  163.0185 H   0  0  0  0  0  0  0  0  0  0  0  0
  154.8959  143.4426  163.1071 H   0  0  0  0  0  0  0  0  0  0  0  0
  155.1641  141.7323  161.3224 H   0  0  0  0  0  0  0  0  0  0  0  0
  153.5731  141.6113  159.4669 H   0  0  0  0  0  0  0  0  0  0  0  0
  152.4356  142.2783  157.6365 H   0  0  0  0  0  0  0  0  0  0  0  0
  151.4255  141.2511  158.6544 H   0  0  0  0  0  0  0  0  0  0  0  0
  149.4526  142.7378  157.6558 H   0  0  0  0  0  0  0  0  0  0  0  0
  150.5651  143.0429  156.3622 H   0  0  0  0  0  0  0  0  0  0  0  0
  147.6798  142.1221  157.3350 H   0  0  0  0  0  0  0  0  0  0  0  0
  146.8071  141.7897  155.0291 H   0  0  0  0  0  0  0  0  0  0  0  0
  145.5293  141.7653  156.2427 H   0  0  0  0  0  0  0  0  0  0  0  0
  146.0903  140.2606  155.5198 H   0  0  0  0  0  0  0  0  0  0  0  0
  146.0172  139.9527  158.0041 H   0  0  0  0  0  0  0  0  0  0  0  0
  147.0561  139.4275  159.9130 H   0  0  0  0  0  0  0  0  0  0  0  0
  150.0968  137.0489  154.7524 H   0  0  0  0  0  0  0  0  0  0  0  0
  152.5485  137.0627  154.3530 H   0  0  0  0  0  0  0  0  0  0  0  0
  153.9179  139.0296  155.0132 H   0  0  0  0  0  0  0  0  0  0  0  0
  152.8350  141.0006  156.0842 H   0  0  0  0  0  0  0  0  0  0  0  0
  1  2  1  0  0  0  0
  1 25  1  0  0  0  0
  1 26  1  0  0  0  0
  1 27  1  0  0  0  0
  2  7  1  0  0  0  0
  2  3  2  0  0  0  0
  3  4  1  0  0  0  0
  3 28  1  0  0  0  0
  4  5  2  0  0  0  0
  4 29  1  0  0  0  0
  5  6  1  0  0  0  0
  5 30  1  0  0  0  0
  6  7  2  0  0  0  0
  6 31  1  0  0  0  0
  7  8  1  0  0  0  0
  8  9  1  0  0  0  0
  9 10  1  0  0  0  0
  9 32  1  0  0  0  0
  9 33  1  0  0  0  0
 10 11  1  0  0  0  0
 10 34  1  0  0  0  0
 10 35  1  0  0  0  0
 11 24  1  0  0  0  0
 11 12  1  0  0  0  0
 12 13  1  0  0  0  0
 12 18  2  0  0  0  0
 13 14  1  0  0  0  0
 13 15  1  0  0  0  0
 13 36  1  0  0  0  0
 14 37  1  0  0  0  0
 14 38  1  0  0  0  0
 14 39  1  0  0  0  0
 15 16  1  0  0  0  0
 15 40  1  0  0  0  0
 16 17  2  0  0  0  0
 16 41  1  0  0  0  0
 18 19  1  0  0  0  0
 19 24  2  0  0  0  0
 19 20  1  0  0  0  0
 20 21  2  0  0  0  0
 20 42  1  0  0  0  0
 21 22  1  0  0  0  0
 21 43  1  0  0  0  0
 22 23  2  0  0  0  0
 22 44  1  0  0  0  0
 23 24  1  0  0  0  0
 23 45  1  0  0  0  0
M  END
> <s_m_source_file>
AV-unprocessed.smi

> <i_m_source_file_index>
2953

> <i_lp_mmshare_version>
43012

> <i_f3d_flags>
0

> <s_epik_input>
W0NIM11jMVtjSF1bY0hdW2NIXVtjSF1jMU9bQ0gyXVtDSDJdbihjKG4yKVtDQEhdKFtDSDNdKVtOSF1bQ0hdPU8pYyhjMjMpW2NIXVtjSF1bY0hdW2NIXTM=

> <s_epik_cmdline>
J2VwaWtfcHl0aG9uJywgJy1waCcsICc3LjAnLCAnLXRuJywgJzgnLCAnLW1hJywgJzIwMCcsICctbWV0YWxfYmluZGluZycsICctaW1hZScsICc8aW5maWxlLm1hZT4nLCAnLW9tYWUnLCAnPG91dGZpbGUubWFlPic=

> <r_lp_tautomer_probability>
1

> <r_epik_Ionization_Penalty>
0.0924205

> <r_epik_Ionization_Penalty_Charging>
0

> <r_epik_Ionization_Penalty_Neutral>
0.0924205

> <r_epik_State_Penalty>
0.0827154

> <r_epik_Charging_Adjusted_Penalty>
0.0827154

> <i_epik_Tot_Q>
0

> <i_epik_Tot_abs_Q>
0

> <r_epik_Metal_State_Penalty>
0.071464

> <b_epik_Metal_Only>
0

> <s_lp_Force_Field>
OPLS_2005

> <r_lp_Energy>
13.3209

> <b_lp_Chiralities_Consistent>
1

> <s_lp_Variant>
AV-unprocessed.smi:2953-2

> <Gold.Version>
5.8.1

> <Gold.Id.Protein>
6NUR|6NUR_protein|mol2

> <Gold.PLP.Fitness>
54.2429

> <Gold.PLP.PLP>
-54.7034

> <Gold.PLP.part.hbond>
-0.3427

> <Gold.PLP.part.metal>
0.0000

> <Gold.PLP.part.buried>
-0.2897

> <Gold.PLP.part.nonpolar>
-53.8607

> <Gold.PLP.part.repulsive>
0.1871

> <Gold.PLP.ligand.clash>
0.0000

> <Gold.PLP.ligand.torsion>
0.3098

> <Gold.PLP.Chemscore.Hbond>
0.0000

> <Gold.PLP.Chemscore.CHOScore>
0.0000

> <Gold.PLP.Chemscore.Metal>
0.0000

> <Gold.PLP.Chemscore.Internal.Correction>
0.1590

> <Gold.Rescore>
     Score         DG    S(hbond)    S(metal)    S(lipo)     H(rot)  DE(clash)    DE(int)     intcor
     15.97     -16.84       0.00        0.00     146.58       2.26       0.24       0.63       ----

> <Gold.Chemscore.Fitness>
15.9706

> <Gold.Chemscore.DG>
-16.8394

> <Gold.Chemscore.ZeroCoef>
-5.4800

> <Gold.Chemscore.Hbond>
0.0000

> <Gold.Chemscore.Metal>
0.0000

> <Gold.Chemscore.Lipo>
146.5806

> <Gold.Chemscore.Internal_Hbond>
0.0000

> <Gold.Chemscore.DEClash>
0.2371

> <Gold.Chemscore.DEInternal>
0.6317

> <Gold.Chemscore.Rot>
2.2619

> <Gold.Chemscore.Internal.Correction>
   9.000000E+99

> <Gold.Chemscore.Hbond.Weighted>
-0.0000

> <Gold.Chemscore.Metal.Weighted>
-0.0000

> <Gold.Chemscore.Lipo.Weighted>
-17.1499

> <Gold.Chemscore.Internal_Hbond.Weighted>
0.0000

> <Gold.Chemscore.DEClash.Weighted>
0.2371

> <Gold.Chemscore.DEInternal.Weighted>
0.6317

> <Gold.Chemscore.Rot.Weighted>
5.7906

> <Gold.Chemscore.Internal.Correction.Weighted>
   9.000000E+99

> <Gold.Protein.RotatedTorsions>
[ 6907 6896 6895 6894 ] final   47.57 input  -60.11 | X-H torsion
[ 7974 7965 7964 7962 ] final  158.45 input  175.53 | X-H torsion
[ 8008 7997 7996 7995 ] final -168.03 input   59.86 | X-H torsion
[ 10167 10162 10161 10158 ] final -162.97 input  -65.29 | X-H torsion
[ 10718 10713 10712 10709 ] final  158.09 input   66.30 | X-H torsion
[ 10763 10752 10751 10750 ] final  -41.72 input  -60.55 | X-H torsion
[ 11005 11000 10999 10996 ] final  175.68 input  -57.11 | X-H torsion

> <Gold.Protein.ActiveResidues>
 VAL166  LYS551  ARG553  GLY616  TRP617  ASP618  TYR619  PRO620  LYS621  CYS622 
 ASP623  PHE694  ASN695  SER759  ASP760  ASP761  ALA762  ILE779  LEU786  VAL792 
 PHE793  MET794  SER795  GLU796  ALA797  LYS798  CYS799  TRP800  GLU811  SER814 

> <Gold.Protein.RotatedAtoms>
  152.2696  134.7947  160.0416 H   0  0  0  0  0  0  0  0  0  0  0  0  # atno 6907 bound_to 6896
  151.8565  133.3444  159.3698 H   0  0  0  0  0  0  0  0  0  0  0  0  # atno 6908 bound_to 6896
  150.7147  134.5176  159.5682 H   0  0  0  0  0  0  0  0  0  0  0  0  # atno 6909 bound_to 6896
  144.7845  139.7479  143.6246 H   0  0  0  0  0  0  0  0  0  0  0  0  # atno 7974 bound_to 7965
  155.8859  140.1016  157.1453 H   0  0  0  0  0  0  0  0  0  0  0  0  # atno 8008 bound_to 7997
  154.4010  140.1320  156.4318 H   0  0  0  0  0  0  0  0  0  0  0  0  # atno 8009 bound_to 7997
  155.7590  140.3463  155.5190 H   0  0  0  0  0  0  0  0  0  0  0  0  # atno 8010 bound_to 7997
  139.6354  144.0361  152.2049 H   0  0  0  0  0  0  0  0  0  0  0  0  # atno 10167 bound_to 10162
  157.1826  131.0636  151.2123 H   0  0  0  0  0  0  0  0  0  0  0  0  # atno 10718 bound_to 10713
  153.9671  135.6733  153.4746 H   0  0  0  0  0  0  0  0  0  0  0  0  # atno 10763 bound_to 10752
  153.0810  135.4923  154.8500 H   0  0  0  0  0  0  0  0  0  0  0  0  # atno 10764 bound_to 10752
  154.7240  135.3123  154.8962 H   0  0  0  0  0  0  0  0  0  0  0  0  # atno 10765 bound_to 10752
  140.3648  134.7081  157.4355 H   0  0  0  0  0  0  0  0  0  0  0  0  # atno 11005 bound_to 11000
  146.2070  139.5401  142.9706 LP  0  0  0  0  0  0  0  0  0  0  0  0  # atno 17320 bound_to 7965
  145.5958  141.0363  143.2045 LP  0  0  0  0  0  0  0  0  0  0  0  0  # atno 17321 bound_to 7965
  140.0036  144.6275  150.7708 LP  0  0  0  0  0  0  0  0  0  0  0  0  # atno 17342 bound_to 10162
  140.7462  143.2887  151.3390 LP  0  0  0  0  0  0  0  0  0  0  0  0  # atno 17343 bound_to 10162
  157.3938  130.7296  149.6717 LP  0  0  0  0  0  0  0  0  0  0  0  0  # atno 17370 bound_to 10713
  155.9722  130.4139  150.4106 LP  0  0  0  0  0  0  0  0  0  0  0  0  # atno 17371 bound_to 10713
  140.0598  134.6012  155.8763 LP  0  0  0  0  0  0  0  0  0  0  0  0  # atno 17394 bound_to 11000
  141.1973  133.6595  156.5734 LP  0  0  0  0  0  0  0  0  0  0  0  0  # atno 17395 bound_to 11000

$$$$
