AV-unprocessed.smi:2855|AV-procd|sdf|10992|dock10
  -GOLD-   2272015443D 1   1.00000     0.00000
 Structure written by MMmdl.
 46 47  0  0  0  0  0  0  0  0  2 V2000
  143.3869  132.8282  150.7773 C   0  0  0  0  0  0  0  0  0  0  0  0
  144.5012  133.8392  151.0822 C   0  0  1  0  0  0  0  0  0  0  0  0
  144.3873  135.0892  150.1961 C   0  0  0  0  0  0  0  0  0  0  0  0
  145.4997  136.1054  150.4985 C   0  0  0  0  0  0  0  0  0  0  0  0
  145.5271  136.5342  151.9884 C   0  0  2  0  0  0  0  0  0  0  0  0
  146.6432  137.5875  152.2745 C   0  0  0  0  0  0  0  0  0  0  0  0
  146.6756  138.0440  153.7460 C   0  0  0  0  0  0  0  0  0  0  0  0
  146.5253  138.8313  151.3726 C   0  0  0  0  0  0  0  0  0  0  0  0
  145.6057  135.2736  152.8972 C   0  0  2  0  0  0  0  0  0  0  0  0
  146.9281  134.6623  152.8032 N   0  0  0  0  0  0  0  0  0  0  0  0
  147.2712  133.4215  153.1846 C   0  0  0  0  0  0  0  0  0  0  0  0
  146.4636  132.6127  153.6400 O   0  0  0  0  0  0  0  0  0  0  0  0
  148.7485  133.0168  153.0390 C   0  0  0  0  0  0  0  0  0  0  0  0
  149.4834  132.9367  154.3157 N   0  0  0  0  0  0  0  0  0  0  0  0
  149.8414  134.1460  154.9374 C   0  0  0  0  0  0  0  0  0  0  0  0
  150.4777  134.1736  156.1240 C   0  0  0  0  0  0  0  0  0  0  0  0
  150.7964  132.9046  156.7661 C   0  0  0  0  0  0  0  0  0  0  0  0
  151.3753  132.9106  157.8506 O   0  0  0  0  0  0  0  0  0  0  0  0
  150.4288  131.7578  156.1229 N   0  5  0  0  0  0  0  0  0  0  0  0
  149.7787  131.7447  154.9182 C   0  0  0  0  0  0  0  0  0  0  0  0
  149.4399  130.6990  154.3636 O   0  0  0  0  0  0  0  0  0  0  0  0
  144.4986  134.2502  152.5653 C   0  0  0  0  0  0  0  0  0  0  0  0
  142.4015  133.2515  150.9738 H   0  0  0  0  0  0  0  0  0  0  0  0
  143.4930  131.9323  151.3898 H   0  0  0  0  0  0  0  0  0  0  0  0
  143.4143  132.5175  149.7326 H   0  0  0  0  0  0  0  0  0  0  0  0
  145.4521  133.3522  150.8615 H   0  0  0  0  0  0  0  0  0  0  0  0
  144.4327  134.8046  149.1444 H   0  0  0  0  0  0  0  0  0  0  0  0
  143.4154  135.5615  150.3457 H   0  0  0  0  0  0  0  0  0  0  0  0
  146.4654  135.6833  150.2161 H   0  0  0  0  0  0  0  0  0  0  0  0
  145.3437  136.9667  149.8511 H   0  0  0  0  0  0  0  0  0  0  0  0
  144.5706  137.0143  152.2016 H   0  0  0  0  0  0  0  0  0  0  0  0
  147.6112  137.1324  152.0601 H   0  0  0  0  0  0  0  0  0  0  0  0
  145.7079  138.4345  154.0620 H   0  0  0  0  0  0  0  0  0  0  0  0
  147.4160  138.8299  153.8972 H   0  0  0  0  0  0  0  0  0  0  0  0
  146.9494  137.2314  154.4187 H   0  0  0  0  0  0  0  0  0  0  0  0
  145.5430  139.2957  151.4636 H   0  0  0  0  0  0  0  0  0  0  0  0
  146.6920  138.5949  150.3226 H   0  0  0  0  0  0  0  0  0  0  0  0
  147.2704  139.5812  151.6399 H   0  0  0  0  0  0  0  0  0  0  0  0
  145.4474  135.5827  153.9310 H   0  0  0  0  0  0  0  0  0  0  0  0
  147.6668  135.2520  152.4473 H   0  0  0  0  0  0  0  0  0  0  0  0
  148.7990  132.0627  152.5116 H   0  0  0  0  0  0  0  0  0  0  0  0
  149.2315  133.7343  152.3742 H   0  0  0  0  0  0  0  0  0  0  0  0
  149.5603  135.0400  154.4001 H   0  0  0  0  0  0  0  0  0  0  0  0
  150.7415  135.1112  156.5909 H   0  0  0  0  0  0  0  0  0  0  0  0
  143.5299  134.6841  152.8167 H   0  0  0  0  0  0  0  0  0  0  0  0
  144.6029  133.3677  153.1977 H   0  0  0  0  0  0  0  0  0  0  0  0
  1  2  1  0  0  0  0
  1 23  1  0  0  0  0
  1 24  1  0  0  0  0
  1 25  1  0  0  0  0
  2 22  1  0  0  0  0
  2  3  1  0  0  0  0
  2 26  1  0  0  0  0
  3  4  1  0  0  0  0
  3 27  1  0  0  0  0
  3 28  1  0  0  0  0
  4  5  1  0  0  0  0
  4 29  1  0  0  0  0
  4 30  1  0  0  0  0
  5  6  1  0  0  0  0
  5  9  1  0  0  0  0
  5 31  1  0  0  0  0
  6  7  1  0  0  0  0
  6  8  1  0  0  0  0
  6 32  1  0  0  0  0
  7 33  1  0  0  0  0
  7 34  1  0  0  0  0
  7 35  1  0  0  0  0
  8 36  1  0  0  0  0
  8 37  1  0  0  0  0
  8 38  1  0  0  0  0
  9 10  1  0  0  0  0
  9 22  1  0  0  0  0
  9 39  1  0  0  0  0
 10 11  1  0  0  0  0
 10 40  1  0  0  0  0
 11 12  2  0  0  0  0
 11 13  1  0  0  0  0
 13 14  1  0  0  0  0
 13 41  1  0  0  0  0
 13 42  1  0  0  0  0
 14 20  1  0  0  0  0
 14 15  1  0  0  0  0
 15 16  2  0  0  0  0
 15 43  1  0  0  0  0
 16 17  1  0  0  0  0
 16 44  1  0  0  0  0
 17 18  2  0  0  0  0
 17 19  1  0  0  0  0
 19 20  1  0  0  0  0
 20 21  2  0  0  0  0
 22 45  1  0  0  0  0
 22 46  1  0  0  0  0
M  CHG  1  19  -1
M  END
> <s_m_source_file>
AV-unprocessed.smi

> <i_m_source_file_index>
2855

> <i_lp_mmshare_version>
43012

> <i_f3d_flags>
0

> <s_epik_input>
W0NIM11bQ0BASF0xW0NIMl1bQ0gyXVtDQEBIXShbQ0hdKFtDSDNdKVtDSDNdKVtDQEhdKFtDSDJdMSlbTkhdQyg9TylbQ0gyXW4yW2NIXVtjSF1jKD1PKVtuSF1jMj1P

> <s_epik_cmdline>
J2VwaWtfcHl0aG9uJywgJy1waCcsICc3LjAnLCAnLXRuJywgJzgnLCAnLW1hJywgJzIwMCcsICctbWV0YWxfYmluZGluZycsICctaW1hZScsICc8aW5maWxlLm1hZT4nLCAnLW9tYWUnLCAnPG91dGZpbGUubWFlPic=

> <r_lp_tautomer_probability>
0.999537

> <r_epik_Ionization_Penalty>
3.12102

> <r_epik_Ionization_Penalty_Charging>
2.9581e-08

> <r_epik_Ionization_Penalty_Neutral>
3.12102

> <r_epik_State_Penalty>
3.12011

> <r_epik_Charging_Adjusted_Penalty>
3.12011

> <i_epik_Tot_Q>
-1

> <i_epik_Tot_abs_Q>
1

> <r_epik_Metal_State_Penalty>
0.463583

> <b_epik_Metal_Only>
1

> <s_lp_Force_Field>
OPLS_2005

> <r_lp_Energy>
20.8659

> <b_lp_Chiralities_Consistent>
1

> <s_lp_Variant>
AV-unprocessed.smi:2855-16

> <Gold.Version>
5.8.1

> <Gold.Id.Protein>
6NUR|6NUR_protein|mol2

> <Gold.PLP.Fitness>
41.4938

> <Gold.PLP.PLP>
-35.5575

> <Gold.PLP.part.hbond>
-2.0000

> <Gold.PLP.part.metal>
0.0000

> <Gold.PLP.part.buried>
3.3838

> <Gold.PLP.part.nonpolar>
-36.7707

> <Gold.PLP.part.repulsive>
0.1862

> <Gold.PLP.ligand.clash>
0.0000

> <Gold.PLP.ligand.torsion>
0.6238

> <Gold.PLP.Chemscore.Hbond>
1.9920

> <Gold.PLP.Chemscore.CHOScore>
0.3900

> <Gold.PLP.Chemscore.Metal>
0.0000

> <Gold.Chemscore.Hbonds>
donor molecule, donor type, donor heavy atom, donor atom, acceptor molecule, acceptor atom, score
      L1  H    10    40       P1  7948  1.00
      P1  H  6896  6908       L1    18  0.76
      L1  C    15    43       P1  7948  0.24

> <Gold.PLP.Chemscore.Internal.Correction>
0.0378

> <Gold.Rescore>
     Score         DG    S(hbond)    S(metal)    S(lipo)     H(rot)  DE(clash)    DE(int)     intcor
     12.92     -16.42       1.99        0.00      76.44       1.81       1.48       2.02       ----

> <Gold.Chemscore.Fitness>
12.9196

> <Gold.Chemscore.DG>
-16.4223

> <Gold.Chemscore.ZeroCoef>
-5.4800

> <Gold.Chemscore.Hbond>
1.9857

> <Gold.Chemscore.Metal>
0.0000

> <Gold.Chemscore.Lipo>
76.4407

> <Gold.Chemscore.Internal_Hbond>
0.0000

> <Gold.Chemscore.DEClash>
1.4848

> <Gold.Chemscore.DEInternal>
2.0178

> <Gold.Chemscore.Rot>
1.8100

> <Gold.Chemscore.Internal.Correction>
   9.000000E+99

> <Gold.Chemscore.Hbonds>
donor molecule, donor type, donor heavy atom, donor atom, acceptor molecule, acceptor atom, score
      L1  H    10    40       P1  7948  1.00
      P1  H  6896  6908       L1    18  0.72

> <Gold.Chemscore.Hbond.Weighted>
-6.6322

> <Gold.Chemscore.Metal.Weighted>
-0.0000

> <Gold.Chemscore.Lipo.Weighted>
-8.9436

> <Gold.Chemscore.Internal_Hbond.Weighted>
0.0000

> <Gold.Chemscore.DEClash.Weighted>
1.4848

> <Gold.Chemscore.DEInternal.Weighted>
2.0178

> <Gold.Chemscore.Rot.Weighted>
4.6335

> <Gold.Chemscore.Internal.Correction.Weighted>
   9.000000E+99

> <Gold.Protein.RotatedTorsions>
[ 6907 6896 6895 6894 ] final   69.08 input  -60.11 | X-H torsion
[ 7974 7965 7964 7962 ] final  -82.06 input  175.53 | X-H torsion
[ 8008 7997 7996 7995 ] final  -97.82 input   59.86 | X-H torsion
[ 10167 10162 10161 10158 ] final  -53.94 input  -65.29 | X-H torsion
[ 10718 10713 10712 10709 ] final -113.44 input   66.30 | X-H torsion
[ 10763 10752 10751 10750 ] final  171.35 input  -60.55 | X-H torsion
[ 11005 11000 10999 10996 ] final -165.97 input  -57.11 | X-H torsion

> <Gold.Protein.ActiveResidues>
 VAL166  LYS551  ARG553  GLY616  TRP617  ASP618  TYR619  PRO620  LYS621  CYS622 
 ASP623  PHE694  ASN695  SER759  ASP760  ASP761  ALA762  ILE779  LEU786  VAL792 
 PHE793  MET794  SER795  GLU796  ALA797  LYS798  CYS799  TRP800  GLU811  SER814 

> <Gold.Protein.RotatedAtoms>
  152.4663  134.5068  159.9741 H   0  0  0  0  0  0  0  0  0  0  0  0  # atno 6907 bound_to 6896
  151.5105  133.3480  159.2892 H   0  0  0  0  0  0  0  0  0  0  0  0  # atno 6908 bound_to 6896
  150.8649  134.8038  159.7173 H   0  0  0  0  0  0  0  0  0  0  0  0  # atno 6909 bound_to 6896
  145.5383  140.9513  143.1565 H   0  0  0  0  0  0  0  0  0  0  0  0  # atno 7974 bound_to 7965
  154.7929  140.0460  157.1215 H   0  0  0  0  0  0  0  0  0  0  0  0  # atno 8008 bound_to 7997
  154.9569  140.3072  155.5029 H   0  0  0  0  0  0  0  0  0  0  0  0  # atno 8009 bound_to 7997
  156.2952  140.2278  156.4652 H   0  0  0  0  0  0  0  0  0  0  0  0  # atno 8010 bound_to 7997
  140.6458  143.2534  151.4864 H   0  0  0  0  0  0  0  0  0  0  0  0  # atno 10167 bound_to 10162
  156.0767  130.5973  150.8643 H   0  0  0  0  0  0  0  0  0  0  0  0  # atno 10718 bound_to 10713
  154.4106  135.2756  155.2039 H   0  0  0  0  0  0  0  0  0  0  0  0  # atno 10763 bound_to 10752
  154.4026  135.6041  153.5910 H   0  0  0  0  0  0  0  0  0  0  0  0  # atno 10764 bound_to 10752
  152.9831  135.5930  154.4387 H   0  0  0  0  0  0  0  0  0  0  0  0  # atno 10765 bound_to 10752
  140.5697  134.5250  157.5159 H   0  0  0  0  0  0  0  0  0  0  0  0  # atno 11005 bound_to 11000
  144.7590  139.7003  143.7242 LP  0  0  0  0  0  0  0  0  0  0  0  0  # atno 17320 bound_to 7965
  146.1998  139.5286  142.9751 LP  0  0  0  0  0  0  0  0  0  0  0  0  # atno 17321 bound_to 7965
  139.5668  144.2022  152.1777 LP  0  0  0  0  0  0  0  0  0  0  0  0  # atno 17342 bound_to 10162
  140.1307  144.5291  150.6804 LP  0  0  0  0  0  0  0  0  0  0  0  0  # atno 17343 bound_to 10162
  157.5866  131.0945  150.9187 LP  0  0  0  0  0  0  0  0  0  0  0  0  # atno 17370 bound_to 10713
  156.9371  130.5371  149.5279 LP  0  0  0  0  0  0  0  0  0  0  0  0  # atno 17371 bound_to 10713
  139.9368  134.7861  156.0782 LP  0  0  0  0  0  0  0  0  0  0  0  0  # atno 17394 bound_to 11000
  141.1064  133.6658  156.2873 LP  0  0  0  0  0  0  0  0  0  0  0  0  # atno 17395 bound_to 11000

$$$$
