AV-unprocessed.smi:2525|AV-procd|sdf|9932|dock3
  -GOLD-   2272013573D 1   1.00000     0.00000
 Structure written by MMmdl.
 44 45  0  0  0  0  0  0  0  0  1 V2000
  152.5006  138.9860  155.5908 C   0  0  0  0  0  0  0  0  0  0  0  0
  151.3303  139.0043  154.5894 C   0  0  0  0  0  0  0  0  0  0  0  0
  149.8977  139.1192  155.1845 C   0  0  0  0  0  0  0  0  0  0  0  0
  149.6761  137.9780  156.2008 C   0  0  0  0  0  0  0  0  0  0  0  0
  150.3419  138.1964  157.5693 C   0  0  0  0  0  0  0  0  0  0  0  0
  149.4157  140.5212  155.6519 C   0  0  1  0  0  0  0  0  0  0  0  0
  150.4695  141.4469  156.0485 N   0  0  0  0  0  0  0  0  0  0  0  0
  150.5008  142.1197  157.2086 C   0  0  0  0  0  0  0  0  0  0  0  0
  149.6454  142.0021  158.0854 O   0  0  0  0  0  0  0  0  0  0  0  0
  151.6871  143.0623  157.4184 C   0  0  0  0  0  0  0  0  0  0  0  0
  151.6409  143.6865  158.7295 N   0  0  0  0  0  0  0  0  0  0  0  0
  151.9666  144.9814  159.0775 C   0  0  0  0  0  0  0  0  0  0  0  0
  151.7508  145.0121  160.4256 C   0  0  0  0  0  0  0  0  0  0  0  0
  151.3088  143.7556  160.8360 N   0  0  0  0  0  0  0  0  0  0  0  0
  151.2457  142.9683  159.8086 N   0  0  0  0  0  0  0  0  0  0  0  0
  148.9024  140.8021  154.2367 C   0  0  2  0  0  0  0  0  0  0  0  0
  147.6863  141.6994  154.0419 C   0  0  0  0  0  0  0  0  0  0  0  0
  148.7952  139.2726  154.0969 C   0  0  2  0  0  0  0  0  0  0  0  0
  147.5350  138.7742  154.5344 O   0  0  0  0  0  0  0  0  0  0  0  0
  146.5117  138.9202  153.5648 C   0  0  0  0  0  0  0  0  0  0  0  0
  153.4520  139.0346  155.0609 H   0  0  0  0  0  0  0  0  0  0  0  0
  152.5159  138.0707  156.1816 H   0  0  0  0  0  0  0  0  0  0  0  0
  152.4705  139.8282  156.2791 H   0  0  0  0  0  0  0  0  0  0  0  0
  151.5130  139.8253  153.8967 H   0  0  0  0  0  0  0  0  0  0  0  0
  151.4007  138.1105  153.9691 H   0  0  0  0  0  0  0  0  0  0  0  0
  148.6135  137.7815  156.3383 H   0  0  0  0  0  0  0  0  0  0  0  0
  150.0630  137.0438  155.7928 H   0  0  0  0  0  0  0  0  0  0  0  0
  150.2037  137.3220  158.2055 H   0  0  0  0  0  0  0  0  0  0  0  0
  149.9177  139.0502  158.0966 H   0  0  0  0  0  0  0  0  0  0  0  0
  151.4145  138.3626  157.4687 H   0  0  0  0  0  0  0  0  0  0  0  0
  148.5873  140.4622  156.3626 H   0  0  0  0  0  0  0  0  0  0  0  0
  151.2167  141.6014  155.3871 H   0  0  0  0  0  0  0  0  0  0  0  0
  152.6243  142.5119  157.3264 H   0  0  0  0  0  0  0  0  0  0  0  0
  151.6887  143.8315  156.6441 H   0  0  0  0  0  0  0  0  0  0  0  0
  152.3091  145.7244  158.3723 H   0  0  0  0  0  0  0  0  0  0  0  0
  151.8766  145.8233  161.1275 H   0  0  0  0  0  0  0  0  0  0  0  0
  149.7207  141.1535  153.6055 H   0  0  0  0  0  0  0  0  0  0  0  0
  146.8453  141.3769  154.6562 H   0  0  0  0  0  0  0  0  0  0  0  0
  147.3586  141.7010  153.0023 H   0  0  0  0  0  0  0  0  0  0  0  0
  147.9137  142.7299  154.3160 H   0  0  0  0  0  0  0  0  0  0  0  0
  149.1003  138.8868  153.1224 H   0  0  0  0  0  0  0  0  0  0  0  0
  145.5679  138.5586  153.9725 H   0  0  0  0  0  0  0  0  0  0  0  0
  146.7366  138.3369  152.6711 H   0  0  0  0  0  0  0  0  0  0  0  0
  146.3765  139.9624  153.2753 H   0  0  0  0  0  0  0  0  0  0  0  0
  1  2  1  0  0  0  0
  1 21  1  0  0  0  0
  1 22  1  0  0  0  0
  1 23  1  0  0  0  0
  2  3  1  0  0  0  0
  2 24  1  0  0  0  0
  2 25  1  0  0  0  0
  3 18  1  0  0  0  0
  3  4  1  0  0  0  0
  3  6  1  0  0  0  0
  4  5  1  0  0  0  0
  4 26  1  0  0  0  0
  4 27  1  0  0  0  0
  5 28  1  0  0  0  0
  5 29  1  0  0  0  0
  5 30  1  0  0  0  0
  6  7  1  0  0  0  0
  6 16  1  0  0  0  0
  6 31  1  0  0  0  0
  7  8  1  0  0  0  0
  7 32  1  0  0  0  0
  8  9  2  0  0  0  0
  8 10  1  0  0  0  0
 10 11  1  0  0  0  0
 10 33  1  0  0  0  0
 10 34  1  0  0  0  0
 11 15  1  0  0  0  0
 11 12  1  0  0  0  0
 12 13  2  0  0  0  0
 12 35  1  0  0  0  0
 13 14  1  0  0  0  0
 13 36  1  0  0  0  0
 14 15  2  0  0  0  0
 16 17  1  0  0  0  0
 16 18  1  0  0  0  0
 16 37  1  0  0  0  0
 17 38  1  0  0  0  0
 17 39  1  0  0  0  0
 17 40  1  0  0  0  0
 18 19  1  0  0  0  0
 18 41  1  0  0  0  0
 19 20  1  0  0  0  0
 20 42  1  0  0  0  0
 20 43  1  0  0  0  0
 20 44  1  0  0  0  0
M  END
> <s_m_source_file>
AV-unprocessed.smi

> <i_m_source_file_index>
2525

> <i_lp_mmshare_version>
43012

> <i_f3d_flags>
0

> <s_epik_input>
W0NIM11PW0NAQEhdMVtDQEhdKFtDSDNdKVtDQEBIXShDMShbQ0gyXVtDSDNdKVtDSDJdW0NIM10pW05IXUMoPU8pW0NIMl1uMltjSF1bY0hdbm4y

> <s_epik_cmdline>
J2VwaWtfcHl0aG9uJywgJy1waCcsICc3LjAnLCAnLXRuJywgJzgnLCAnLW1hJywgJzIwMCcsICctbWV0YWxfYmluZGluZycsICctaW1hZScsICc8aW5maWxlLm1hZT4nLCAnLW9tYWUnLCAnPG91dGZpbGUubWFlPic=

> <r_lp_tautomer_probability>
1

> <r_epik_Ionization_Penalty>
1.18045e-06

> <r_epik_Ionization_Penalty_Charging>
0

> <r_epik_Ionization_Penalty_Neutral>
1.18045e-06

> <r_epik_State_Penalty>
-0

> <r_epik_Charging_Adjusted_Penalty>
0

> <i_epik_Tot_Q>
0

> <i_epik_Tot_abs_Q>
0

> <r_epik_Metal_State_Penalty>
-0

> <b_epik_Metal_Only>
0

> <s_lp_Force_Field>
OPLS_2005

> <r_lp_Energy>
28.9829

> <b_lp_Chiralities_Consistent>
1

> <s_lp_Variant>
AV-unprocessed.smi:2525-7

> <Gold.Version>
5.8.1

> <Gold.Id.Protein>
6NUR|6NUR_protein|mol2

> <Gold.PLP.Fitness>
36.6567

> <Gold.PLP.PLP>
-37.5665

> <Gold.PLP.part.hbond>
-0.7914

> <Gold.PLP.part.metal>
0.0000

> <Gold.PLP.part.buried>
-4.6213

> <Gold.PLP.part.nonpolar>
-32.3080

> <Gold.PLP.part.repulsive>
0.4632

> <Gold.PLP.ligand.clash>
0.0000

> <Gold.PLP.ligand.torsion>
0.8119

> <Gold.PLP.Chemscore.Hbond>
0.0000

> <Gold.PLP.Chemscore.CHOScore>
0.0000

> <Gold.PLP.Chemscore.Metal>
0.0000

> <Gold.PLP.Chemscore.Internal.Correction>
0.7140

> <Gold.Rescore>
     Score         DG    S(hbond)    S(metal)    S(lipo)     H(rot)  DE(clash)    DE(int)     intcor
      8.91     -11.26       0.00        0.00      92.80       1.98       0.17       2.19       ----

> <Gold.Chemscore.Fitness>
8.9135

> <Gold.Chemscore.DG>
-11.2647

> <Gold.Chemscore.ZeroCoef>
-5.4800

> <Gold.Chemscore.Hbond>
0.0000

> <Gold.Chemscore.Metal>
0.0000

> <Gold.Chemscore.Lipo>
92.8015

> <Gold.Chemscore.Internal_Hbond>
0.0000

> <Gold.Chemscore.DEClash>
0.1660

> <Gold.Chemscore.DEInternal>
2.1853

> <Gold.Chemscore.Rot>
1.9817

> <Gold.Chemscore.Internal.Correction>
   9.000000E+99

> <Gold.Chemscore.Hbond.Weighted>
-0.0000

> <Gold.Chemscore.Metal.Weighted>
-0.0000

> <Gold.Chemscore.Lipo.Weighted>
-10.8578

> <Gold.Chemscore.Internal_Hbond.Weighted>
0.0000

> <Gold.Chemscore.DEClash.Weighted>
0.1660

> <Gold.Chemscore.DEInternal.Weighted>
2.1853

> <Gold.Chemscore.Rot.Weighted>
5.0731

> <Gold.Chemscore.Internal.Correction.Weighted>
   9.000000E+99

> <Gold.Protein.RotatedTorsions>
[ 6907 6896 6895 6894 ] final -115.07 input  -60.11 | X-H torsion
[ 7974 7965 7964 7962 ] final  -73.78 input  175.53 | X-H torsion
[ 8008 7997 7996 7995 ] final  -91.49 input   59.86 | X-H torsion
[ 10167 10162 10161 10158 ] final  170.98 input  -65.29 | X-H torsion
[ 10718 10713 10712 10709 ] final   59.57 input   66.30 | X-H torsion
[ 10763 10752 10751 10750 ] final   78.11 input  -60.55 | X-H torsion
[ 11005 11000 10999 10996 ] final   -7.92 input  -57.11 | X-H torsion

> <Gold.Protein.ActiveResidues>
 VAL166  LYS551  ARG553  GLY616  TRP617  ASP618  TYR619  PRO620  LYS621  CYS622 
 ASP623  PHE694  ASN695  SER759  ASP760  ASP761  ALA762  ILE779  LEU786  VAL792 
 PHE793  MET794  SER795  GLU796  ALA797  LYS798  CYS799  TRP800  GLU811  SER814 

> <Gold.Protein.RotatedAtoms>
  150.7949  133.8711  159.3258 H   0  0  0  0  0  0  0  0  0  0  0  0  # atno 6907 bound_to 6896
  151.6539  135.0996  160.0175 H   0  0  0  0  0  0  0  0  0  0  0  0  # atno 6908 bound_to 6896
  152.4030  133.6807  159.6367 H   0  0  0  0  0  0  0  0  0  0  0  0  # atno 6909 bound_to 6896
  145.6477  140.9292  143.1001 H   0  0  0  0  0  0  0  0  0  0  0  0  # atno 7974 bound_to 7965
  154.7113  140.0519  157.0553 H   0  0  0  0  0  0  0  0  0  0  0  0  # atno 8008 bound_to 7997
  155.0551  140.3183  155.4660 H   0  0  0  0  0  0  0  0  0  0  0  0  # atno 8009 bound_to 7997
  156.2790  140.2109  156.5677 H   0  0  0  0  0  0  0  0  0  0  0  0  # atno 8010 bound_to 7997
  139.5033  144.3537  151.9896 H   0  0  0  0  0  0  0  0  0  0  0  0  # atno 10167 bound_to 10162
  157.5686  130.8890  149.9228 H   0  0  0  0  0  0  0  0  0  0  0  0  # atno 10718 bound_to 10713
  153.0849  135.4889  154.8577 H   0  0  0  0  0  0  0  0  0  0  0  0  # atno 10763 bound_to 10752
  154.7198  135.3037  154.9068 H   0  0  0  0  0  0  0  0  0  0  0  0  # atno 10764 bound_to 10752
  153.9736  135.6798  153.4801 H   0  0  0  0  0  0  0  0  0  0  0  0  # atno 10765 bound_to 10752
  140.7180  133.8852  155.8799 H   0  0  0  0  0  0  0  0  0  0  0  0  # atno 11005 bound_to 11000
  144.7134  139.8286  143.7407 LP  0  0  0  0  0  0  0  0  0  0  0  0  # atno 17320 bound_to 7965
  146.1229  139.4250  143.0217 LP  0  0  0  0  0  0  0  0  0  0  0  0  # atno 17321 bound_to 7965
  140.2973  144.3686  150.6070 LP  0  0  0  0  0  0  0  0  0  0  0  0  # atno 17342 bound_to 10162
  140.5900  143.2168  151.7270 LP  0  0  0  0  0  0  0  0  0  0  0  0  # atno 17343 bound_to 10162
  156.0732  130.3682  150.0732 LP  0  0  0  0  0  0  0  0  0  0  0  0  # atno 17370 bound_to 10713
  156.8887  130.9581  151.3591 LP  0  0  0  0  0  0  0  0  0  0  0  0  # atno 17371 bound_to 10713
  141.0028  134.1127  157.4300 LP  0  0  0  0  0  0  0  0  0  0  0  0  # atno 17394 bound_to 11000
  139.8855  135.0073  156.6439 LP  0  0  0  0  0  0  0  0  0  0  0  0  # atno 17395 bound_to 11000

$$$$
