AV-unprocessed.smi:786|AV-procd|sdf|3721|dock7
  -GOLD-   22720 1143D 1   1.00000     0.00000
 Structure written by MMmdl.
 39 40  0  0  0  0  0  0  0  0  1 V2000
  149.0474  135.8236  156.2483 O   0  0  0  0  0  0  0  0  0  0  0  0
  147.8388  136.1249  155.4669 S   0  0  0  0  0  0  0  0  0  0  0  0
  146.5061  135.9394  156.0606 O   0  0  0  0  0  0  0  0  0  0  0  0
  147.9478  137.8450  154.7918 C   0  0  0  0  0  0  0  0  0  0  0  0
  149.1591  138.6332  155.3325 C   0  0  0  0  0  0  0  0  0  0  0  0
  149.1412  140.1222  154.9370 C   0  0  0  0  0  0  0  0  0  0  0  0
  150.4074  140.8356  155.4387 C   0  0  0  0  0  0  0  0  0  0  0  0
  151.5664  140.1882  154.9254 O   0  0  0  0  0  0  0  0  0  0  0  0
  151.6838  138.8378  155.3590 C   0  0  0  0  0  0  0  0  0  0  0  0
  150.4848  138.0173  154.8555 C   0  0  0  0  0  0  0  0  0  0  0  0
  147.9089  135.1504  154.0439 N   0  0  0  0  0  0  0  0  0  0  0  0
  146.8004  134.2643  153.6885 C   0  0  0  0  0  0  0  0  0  0  0  0
  147.1845  133.3860  152.4905 C   0  0  0  0  0  0  0  0  0  0  0  0
  145.9724  132.9377  151.6956 C   0  0  0  0  0  0  0  0  0  0  0  0
  145.6791  131.5659  151.5408 C   0  0  0  0  0  0  0  0  0  0  0  0
  144.5381  131.2030  150.7994 C   0  0  0  0  0  0  0  0  0  0  0  0
  143.7381  132.2201  150.2444 C   0  0  0  0  0  0  0  0  0  0  0  0
  144.1158  133.5610  150.4575 C   0  0  0  0  0  0  0  0  0  0  0  0
  145.2072  133.9199  151.1677 N   0  0  0  0  0  0  0  0  0  0  0  0
  147.9787  137.7671  153.7056 H   0  0  0  0  0  0  0  0  0  0  0  0
  147.0200  138.3623  155.0369 H   0  0  0  0  0  0  0  0  0  0  0  0
  149.1473  138.5657  156.4214 H   0  0  0  0  0  0  0  0  0  0  0  0
  149.0851  140.2152  153.8517 H   0  0  0  0  0  0  0  0  0  0  0  0
  148.2624  140.6267  155.3344 H   0  0  0  0  0  0  0  0  0  0  0  0
  150.4083  141.8734  155.1052 H   0  0  0  0  0  0  0  0  0  0  0  0
  150.4391  140.8524  156.5290 H   0  0  0  0  0  0  0  0  0  0  0  0
  152.6125  138.4228  154.9672 H   0  0  0  0  0  0  0  0  0  0  0  0
  151.7526  138.7990  156.4472 H   0  0  0  0  0  0  0  0  0  0  0  0
  150.5713  136.9881  155.2058 H   0  0  0  0  0  0  0  0  0  0  0  0
  150.5045  137.9787  153.7655 H   0  0  0  0  0  0  0  0  0  0  0  0
  148.3678  135.6044  153.2544 H   0  0  0  0  0  0  0  0  0  0  0  0
  146.5482  133.6375  154.5444 H   0  0  0  0  0  0  0  0  0  0  0  0
  145.9221  134.8663  153.4544 H   0  0  0  0  0  0  0  0  0  0  0  0
  147.8599  133.9298  151.8282 H   0  0  0  0  0  0  0  0  0  0  0  0
  147.7325  132.5074  152.8334 H   0  0  0  0  0  0  0  0  0  0  0  0
  146.3112  130.8081  151.9803 H   0  0  0  0  0  0  0  0  0  0  0  0
  144.2814  130.1631  150.6592 H   0  0  0  0  0  0  0  0  0  0  0  0
  142.8559  131.9791  149.6698 H   0  0  0  0  0  0  0  0  0  0  0  0
  143.5256  134.3667  150.0471 H   0  0  0  0  0  0  0  0  0  0  0  0
  1  2  2  0  0  0  0
  2  3  2  0  0  0  0
  2  4  1  0  0  0  0
  2 11  1  0  0  0  0
  4  5  1  0  0  0  0
  4 20  1  0  0  0  0
  4 21  1  0  0  0  0
  5 10  1  0  0  0  0
  5  6  1  0  0  0  0
  5 22  1  0  0  0  0
  6  7  1  0  0  0  0
  6 23  1  0  0  0  0
  6 24  1  0  0  0  0
  7  8  1  0  0  0  0
  7 25  1  0  0  0  0
  7 26  1  0  0  0  0
  8  9  1  0  0  0  0
  9 10  1  0  0  0  0
  9 27  1  0  0  0  0
  9 28  1  0  0  0  0
 10 29  1  0  0  0  0
 10 30  1  0  0  0  0
 11 12  1  0  0  0  0
 11 31  1  0  0  0  0
 12 13  1  0  0  0  0
 12 32  1  0  0  0  0
 12 33  1  0  0  0  0
 13 14  1  0  0  0  0
 13 34  1  0  0  0  0
 13 35  1  0  0  0  0
 14 19  1  0  0  0  0
 14 15  2  0  0  0  0
 15 16  1  0  0  0  0
 15 36  1  0  0  0  0
 16 17  2  0  0  0  0
 16 37  1  0  0  0  0
 17 18  1  0  0  0  0
 17 38  1  0  0  0  0
 18 19  2  0  0  0  0
 18 39  1  0  0  0  0
M  END
> <s_m_source_file>
AV-unprocessed.smi

> <i_m_source_file_index>
786

> <i_lp_mmshare_version>
43012

> <i_f3d_flags>
0

> <s_epik_input>
W0NIMl0xW0NIMl1PW0NIMl1bQ0gyXVtDSF0xW0NIMl1TKD1PKSg9TylbTkhdW0NIMl1bQ0gyXWMyW2NIXVtjSF1bY0hdW2NIXW4y

> <s_epik_cmdline>
J2VwaWtfcHl0aG9uJywgJy1waCcsICc3LjAnLCAnLXRuJywgJzgnLCAnLW1hJywgJzIwMCcsICctbWV0YWxfYmluZGluZycsICctaW1hZScsICc8aW5maWxlLm1hZT4nLCAnLW9tYWUnLCAnPG91dGZpbGUubWFlPic=

> <r_epik_Ionization_Penalty>
0.0207022

> <r_epik_Ionization_Penalty_Charging>
0

> <r_epik_Ionization_Penalty_Neutral>
0.0207022

> <r_epik_State_Penalty>
0.0165999

> <r_epik_Charging_Adjusted_Penalty>
0.0165999

> <i_epik_Tot_Q>
0

> <i_epik_Tot_abs_Q>
0

> <r_epik_Metal_State_Penalty>
0.0248737

> <b_epik_Metal_Only>
0

> <s_lp_Force_Field>
OPLS_2005

> <r_lp_Energy>
3.32782

> <b_lp_Chiralities_Consistent>
1

> <s_lp_Variant>
AV-unprocessed.smi:786-1

> <Gold.Version>
5.8.1

> <Gold.Id.Protein>
6NUR|6NUR_protein|mol2

> <Gold.PLP.Fitness>
37.3072

> <Gold.PLP.PLP>
-28.6749

> <Gold.PLP.part.hbond>
-1.7872

> <Gold.PLP.part.metal>
0.0000

> <Gold.PLP.part.buried>
-4.3689

> <Gold.PLP.part.nonpolar>
-23.6852

> <Gold.PLP.part.repulsive>
0.2148

> <Gold.PLP.ligand.clash>
0.0000

> <Gold.PLP.ligand.torsion>
0.2578

> <Gold.PLP.Chemscore.Hbond>
2.0000

> <Gold.PLP.Chemscore.CHOScore>
0.9938

> <Gold.PLP.Chemscore.Metal>
0.0000

> <Gold.Chemscore.Hbonds>
donor molecule, donor type, donor heavy atom, donor atom, acceptor molecule, acceptor atom, score
      L1  H    11    31       P1  7948  1.00
      P1  H  7989  7998       L1     8  1.00
      L1  C    18    39       P1 10186  0.91

> <Gold.PLP.Chemscore.Internal.Correction>
0.1664

> <Gold.Rescore>
     Score         DG    S(hbond)    S(metal)    S(lipo)     H(rot)  DE(clash)    DE(int)     intcor
     16.45     -16.93       1.90        0.00      83.19       1.81       0.15       0.33       ----

> <Gold.Chemscore.Fitness>
16.4482

> <Gold.Chemscore.DG>
-16.9306

> <Gold.Chemscore.ZeroCoef>
-5.4800

> <Gold.Chemscore.Hbond>
1.9046

> <Gold.Chemscore.Metal>
0.0000

> <Gold.Chemscore.Lipo>
83.1852

> <Gold.Chemscore.Internal_Hbond>
0.0000

> <Gold.Chemscore.DEClash>
0.1478

> <Gold.Chemscore.DEInternal>
0.3346

> <Gold.Chemscore.Rot>
1.8138

> <Gold.Chemscore.Internal.Correction>
   9.000000E+99

> <Gold.Chemscore.Hbonds>
donor molecule, donor type, donor heavy atom, donor atom, acceptor molecule, acceptor atom, score
      L1  H    11    31       P1  7948  0.99
      P1  H  7989  7998       L1     8  0.24

> <Gold.Chemscore.Hbond.Weighted>
-6.3612

> <Gold.Chemscore.Metal.Weighted>
-0.0000

> <Gold.Chemscore.Lipo.Weighted>
-9.7327

> <Gold.Chemscore.Internal_Hbond.Weighted>
0.0000

> <Gold.Chemscore.DEClash.Weighted>
0.1478

> <Gold.Chemscore.DEInternal.Weighted>
0.3346

> <Gold.Chemscore.Rot.Weighted>
4.6432

> <Gold.Chemscore.Internal.Correction.Weighted>
   9.000000E+99

> <Gold.Protein.RotatedTorsions>
[ 6907 6896 6895 6894 ] final -162.12 input  -60.11 | X-H torsion
[ 7974 7965 7964 7962 ] final   32.34 input  175.53 | X-H torsion
[ 8008 7997 7996 7995 ] final  166.46 input   59.86 | X-H torsion
[ 10167 10162 10161 10158 ] final  162.20 input  -65.29 | X-H torsion
[ 10718 10713 10712 10709 ] final -160.18 input   66.30 | X-H torsion
[ 10763 10752 10751 10750 ] final   12.37 input  -60.55 | X-H torsion
[ 11005 11000 10999 10996 ] final  -42.29 input  -57.11 | X-H torsion

> <Gold.Protein.ActiveResidues>
 VAL166  LYS551  ARG553  GLY616  TRP617  ASP618  TYR619  PRO620  LYS621  CYS622 
 ASP623  PHE694  ASN695  SER759  ASP760  ASP761  ALA762  ILE779  LEU786  VAL792 
 PHE793  MET794  SER795  GLU796  ALA797  LYS798  CYS799  TRP800  GLU811  SER814 

> <Gold.Protein.RotatedAtoms>
  151.3753  133.3840  159.2703 H   0  0  0  0  0  0  0  0  0  0  0  0  # atno 6907 bound_to 6896
  150.9619  134.9007  159.7746 H   0  0  0  0  0  0  0  0  0  0  0  0  # atno 6908 bound_to 6896
  152.5152  134.3712  159.9371 H   0  0  0  0  0  0  0  0  0  0  0  0  # atno 6909 bound_to 6896
  146.1492  139.6538  142.9110 H   0  0  0  0  0  0  0  0  0  0  0  0  # atno 7974 bound_to 7965
  156.1716  140.1643  156.8436 H   0  0  0  0  0  0  0  0  0  0  0  0  # atno 8008 bound_to 7997
  154.5263  140.0767  156.8299 H   0  0  0  0  0  0  0  0  0  0  0  0  # atno 8009 bound_to 7997
  155.3500  140.3389  155.4241 H   0  0  0  0  0  0  0  0  0  0  0  0  # atno 8010 bound_to 7997
  139.4858  144.4461  151.8890 H   0  0  0  0  0  0  0  0  0  0  0  0  # atno 10167 bound_to 10162
  156.5785  130.8719  151.2858 H   0  0  0  0  0  0  0  0  0  0  0  0  # atno 10718 bound_to 10713
  153.1829  135.6830  153.8453 H   0  0  0  0  0  0  0  0  0  0  0  0  # atno 10763 bound_to 10752
  153.7779  135.3186  155.3362 H   0  0  0  0  0  0  0  0  0  0  0  0  # atno 10764 bound_to 10752
  154.8071  135.4741  154.0516 H   0  0  0  0  0  0  0  0  0  0  0  0  # atno 10765 bound_to 10752
  141.0306  133.6822  156.2575 H   0  0  0  0  0  0  0  0  0  0  0  0  # atno 11005 bound_to 11000
  145.4863  141.0438  143.2618 LP  0  0  0  0  0  0  0  0  0  0  0  0  # atno 17320 bound_to 7965
  144.7884  139.6380  143.7124 LP  0  0  0  0  0  0  0  0  0  0  0  0  # atno 17321 bound_to 7965
  140.3915  144.2609  150.5899 LP  0  0  0  0  0  0  0  0  0  0  0  0  # atno 17342 bound_to 10162
  140.5142  143.2282  151.8489 LP  0  0  0  0  0  0  0  0  0  0  0  0  # atno 17343 bound_to 10162
  157.7332  130.9727  150.1966 LP  0  0  0  0  0  0  0  0  0  0  0  0  # atno 17370 bound_to 10713
  156.2652  130.3715  149.8088 LP  0  0  0  0  0  0  0  0  0  0  0  0  # atno 17371 bound_to 10713
  140.6414  134.5162  157.5570 LP  0  0  0  0  0  0  0  0  0  0  0  0  # atno 17394 bound_to 11000
  139.9205  134.8159  156.1227 LP  0  0  0  0  0  0  0  0  0  0  0  0  # atno 17395 bound_to 11000

$$$$
