AV-unprocessed.smi:2696|AV-procd|sdf|10413|dock7
  -GOLD-   2272014453D 1   1.00000     0.00000
 Structure written by MMmdl.
 43 44  0  0  0  0  0  0  0  0  1 V2000
  150.5702  144.2817  160.6074 C   0  0  0  0  0  0  0  0  0  0  0  0
  151.8864  144.1841  159.8214 C   0  0  0  0  0  0  0  0  0  0  0  0
  151.7269  144.6940  158.3801 C   0  0  0  0  0  0  0  0  0  0  0  0
  152.4549  142.7717  159.8568 C   0  0  0  0  0  0  0  0  0  0  0  0
  152.5439  141.9971  158.7491 C   0  0  0  0  0  0  0  0  0  0  0  0
  153.1173  140.6534  158.8181 C   0  0  0  0  0  0  0  0  0  0  0  0
  153.1874  139.9147  157.8362 O   0  0  0  0  0  0  0  0  0  0  0  0
  153.5782  140.2860  160.0494 N   0  0  0  0  0  0  0  0  0  0  0  0
  154.2506  138.9850  160.2531 C   0  0  0  0  0  0  0  0  0  0  0  0
  153.2861  137.7735  160.4442 C   0  0  1  0  0  0  0  0  0  0  0  0
  151.9363  138.0583  159.7518 C   0  0  0  0  0  0  0  0  0  0  0  0
  153.8067  136.7058  159.6719 O   0  0  0  0  0  0  0  0  0  0  0  0
  153.0848  137.3909  161.9193 C   0  0  0  0  0  0  0  0  0  0  0  0
  152.2085  136.3433  162.2899 C   0  0  0  0  0  0  0  0  0  0  0  0
  152.0641  135.9754  163.6405 C   0  0  0  0  0  0  0  0  0  0  0  0
  152.7961  136.6460  164.6366 C   0  0  0  0  0  0  0  0  0  0  0  0
  153.6801  137.6873  164.2882 C   0  0  0  0  0  0  0  0  0  0  0  0
  154.4724  138.3956  165.3772 C   0  0  0  0  0  0  0  0  0  0  0  0
  155.2626  139.3470  164.8783 F   0  0  0  0  0  0  0  0  0  0  0  0
  153.6279  138.9542  166.2434 F   0  0  0  0  0  0  0  0  0  0  0  0
  155.2353  137.5164  166.0269 F   0  0  0  0  0  0  0  0  0  0  0  0
  153.8144  138.0566  162.9319 C   0  0  0  0  0  0  0  0  0  0  0  0
  153.4247  141.1162  161.1795 C   0  0  0  0  0  0  0  0  0  0  0  0
  152.8988  142.2961  161.0949 N   0  0  0  0  0  0  0  0  0  0  0  0
  150.7046  143.9497  161.6374 H   0  0  0  0  0  0  0  0  0  0  0  0
  149.7874  143.6695  160.1588 H   0  0  0  0  0  0  0  0  0  0  0  0
  150.2086  145.3099  160.6382 H   0  0  0  0  0  0  0  0  0  0  0  0
  152.6061  144.8396  160.3147 H   0  0  0  0  0  0  0  0  0  0  0  0
  152.6714  144.6366  157.8381 H   0  0  0  0  0  0  0  0  0  0  0  0
  151.4036  145.7352  158.3679 H   0  0  0  0  0  0  0  0  0  0  0  0
  150.9886  144.1136  157.8262 H   0  0  0  0  0  0  0  0  0  0  0  0
  152.1989  142.3716  157.7965 H   0  0  0  0  0  0  0  0  0  0  0  0
  154.8807  138.7801  159.3853 H   0  0  0  0  0  0  0  0  0  0  0  0
  154.9657  139.0469  161.0761 H   0  0  0  0  0  0  0  0  0  0  0  0
  151.4237  138.9182  160.1825 H   0  0  0  0  0  0  0  0  0  0  0  0
  151.2625  137.2037  159.8293 H   0  0  0  0  0  0  0  0  0  0  0  0
  152.0712  138.2748  158.6910 H   0  0  0  0  0  0  0  0  0  0  0  0
  154.7190  136.5917  159.8903 H   0  0  0  0  0  0  0  0  0  0  0  0
  151.6469  135.7995  161.5451 H   0  0  0  0  0  0  0  0  0  0  0  0
  151.3943  135.1728  163.9116 H   0  0  0  0  0  0  0  0  0  0  0  0
  152.6823  136.3561  165.6709 H   0  0  0  0  0  0  0  0  0  0  0  0
  154.5018  138.8439  162.6631 H   0  0  0  0  0  0  0  0  0  0  0  0
  153.7897  140.7033  162.1213 H   0  0  0  0  0  0  0  0  0  0  0  0
  1  2  1  0  0  0  0
  1 25  1  0  0  0  0
  1 26  1  0  0  0  0
  1 27  1  0  0  0  0
  2  3  1  0  0  0  0
  2  4  1  0  0  0  0
  2 28  1  0  0  0  0
  3 29  1  0  0  0  0
  3 30  1  0  0  0  0
  3 31  1  0  0  0  0
  4 24  1  0  0  0  0
  4  5  2  0  0  0  0
  5  6  1  0  0  0  0
  5 32  1  0  0  0  0
  6  7  2  0  0  0  0
  6  8  1  0  0  0  0
  8  9  1  0  0  0  0
  8 23  1  0  0  0  0
  9 10  1  0  0  0  0
  9 33  1  0  0  0  0
  9 34  1  0  0  0  0
 10 11  1  0  0  0  0
 10 12  1  0  0  0  0
 10 13  1  0  0  0  0
 11 35  1  0  0  0  0
 11 36  1  0  0  0  0
 11 37  1  0  0  0  0
 12 38  1  0  0  0  0
 13 22  1  0  0  0  0
 13 14  2  0  0  0  0
 14 15  1  0  0  0  0
 14 39  1  0  0  0  0
 15 16  2  0  0  0  0
 15 40  1  0  0  0  0
 16 17  1  0  0  0  0
 16 41  1  0  0  0  0
 17 18  1  0  0  0  0
 17 22  2  0  0  0  0
 18 19  1  0  0  0  0
 18 20  1  0  0  0  0
 18 21  1  0  0  0  0
 22 42  1  0  0  0  0
 23 24  2  0  0  0  0
 23 43  1  0  0  0  0
M  END
> <s_m_source_file>
AV-unprocessed.smi

> <i_m_source_file_index>
2696

> <i_lp_mmshare_version>
43012

> <i_f3d_flags>
0

> <s_epik_input>
W0NIM11bQ0hdKFtDSDNdKWMxW2NIXWMoPU8pbihbY0hdbjEpW0NIMl1bQ0BAXShbQ0gzXSkoW09IXSljMltjSF1bY0hdW2NIXWMoQyhGKShGKUYpW2NIXTI=

> <s_epik_cmdline>
J2VwaWtfcHl0aG9uJywgJy1waCcsICc3LjAnLCAnLXRuJywgJzgnLCAnLW1hJywgJzIwMCcsICctbWV0YWxfYmluZGluZycsICctaW1hZScsICc8aW5maWxlLm1hZT4nLCAnLW9tYWUnLCAnPG91dGZpbGUubWFlPic=

> <r_lp_tautomer_probability>
1

> <r_epik_Ionization_Penalty>
2.71388e-05

> <r_epik_Ionization_Penalty_Charging>
4.19927e-06

> <r_epik_Ionization_Penalty_Neutral>
2.29395e-05

> <r_epik_State_Penalty>
-0

> <r_epik_Charging_Adjusted_Penalty>
4.19927e-06

> <i_epik_Tot_Q>
0

> <i_epik_Tot_abs_Q>
0

> <r_epik_Metal_State_Penalty>
-0

> <b_epik_Metal_Only>
0

> <s_lp_Force_Field>
OPLS_2005

> <r_lp_Energy>
19.4026

> <b_lp_Chiralities_Consistent>
1

> <s_lp_Variant>
AV-unprocessed.smi:2696-1

> <Gold.Version>
5.8.1

> <Gold.Id.Protein>
6NUR|6NUR_protein|mol2

> <Gold.PLP.Fitness>
47.6080

> <Gold.PLP.PLP>
-47.1498

> <Gold.PLP.part.hbond>
-1.0000

> <Gold.PLP.part.metal>
0.0000

> <Gold.PLP.part.buried>
-3.4225

> <Gold.PLP.part.nonpolar>
-42.6536

> <Gold.PLP.part.repulsive>
0.0054

> <Gold.PLP.ligand.clash>
0.0801

> <Gold.PLP.ligand.torsion>
1.3768

> <Gold.PLP.Chemscore.Hbond>
0.9760

> <Gold.PLP.Chemscore.CHOScore>
0.0000

> <Gold.PLP.Chemscore.Metal>
0.0000

> <Gold.Chemscore.Hbonds>
donor molecule, donor type, donor heavy atom, donor atom, acceptor molecule, acceptor atom, score
      P1  H  6896  6907       L1    12  0.02
      P1  H  7997  8009       L1     7  0.90

> <Gold.PLP.Chemscore.Internal.Correction>
0.3639

> <Gold.Rescore>
     Score         DG    S(hbond)    S(metal)    S(lipo)     H(rot)  DE(clash)    DE(int)     intcor
     13.81     -17.43       0.92        0.00     124.62       2.23       1.75       1.88       ----

> <Gold.Chemscore.Fitness>
13.8099

> <Gold.Chemscore.DG>
-17.4346

> <Gold.Chemscore.ZeroCoef>
-5.4800

> <Gold.Chemscore.Hbond>
0.9238

> <Gold.Chemscore.Metal>
0.0000

> <Gold.Chemscore.Lipo>
124.6230

> <Gold.Chemscore.Internal_Hbond>
0.0000

> <Gold.Chemscore.DEClash>
1.7467

> <Gold.Chemscore.DEInternal>
1.8780

> <Gold.Chemscore.Rot>
2.2312

> <Gold.Chemscore.Internal.Correction>
   9.000000E+99

> <Gold.Chemscore.Hbonds>
donor molecule, donor type, donor heavy atom, donor atom, acceptor molecule, acceptor atom, score
      P1  H  6896  6907       L1    12  0.04
      P1  H  7997  8009       L1     7  0.65

> <Gold.Chemscore.Hbond.Weighted>
-3.0855

> <Gold.Chemscore.Metal.Weighted>
-0.0000

> <Gold.Chemscore.Lipo.Weighted>
-14.5809

> <Gold.Chemscore.Internal_Hbond.Weighted>
0.0000

> <Gold.Chemscore.DEClash.Weighted>
1.7467

> <Gold.Chemscore.DEInternal.Weighted>
1.8780

> <Gold.Chemscore.Rot.Weighted>
5.7118

> <Gold.Chemscore.Internal.Correction.Weighted>
   9.000000E+99

> <Gold.Protein.RotatedTorsions>
[ 6907 6896 6895 6894 ] final   52.30 input  -60.11 | X-H torsion
[ 7974 7965 7964 7962 ] final  132.27 input  175.53 | X-H torsion
[ 8008 7997 7996 7995 ] final  143.81 input   59.86 | X-H torsion
[ 10167 10162 10161 10158 ] final   89.62 input  -65.29 | X-H torsion
[ 10718 10713 10712 10709 ] final -102.36 input   66.30 | X-H torsion
[ 10763 10752 10751 10750 ] final  122.30 input  -60.55 | X-H torsion
[ 11005 11000 10999 10996 ] final -104.20 input  -57.11 | X-H torsion

> <Gold.Protein.ActiveResidues>
 VAL166  LYS551  ARG553  GLY616  TRP617  ASP618  TYR619  PRO620  LYS621  CYS622 
 ASP623  PHE694  ASN695  SER759  ASP760  ASP761  ALA762  ILE779  LEU786  VAL792 
 PHE793  MET794  SER795  GLU796  ALA797  LYS798  CYS799  TRP800  GLU811  SER814 

> <Gold.Protein.RotatedAtoms>
  152.3218  134.7371  160.0311 H   0  0  0  0  0  0  0  0  0  0  0  0  # atno 6907 bound_to 6896
  151.7817  133.3345  159.3481 H   0  0  0  0  0  0  0  0  0  0  0  0  # atno 6908 bound_to 6896
  150.7374  134.5856  159.6005 H   0  0  0  0  0  0  0  0  0  0  0  0  # atno 6909 bound_to 6896
  144.9985  139.4335  143.5304 H   0  0  0  0  0  0  0  0  0  0  0  0  # atno 7974 bound_to 7965
  156.2922  140.2252  156.4951 H   0  0  0  0  0  0  0  0  0  0  0  0  # atno 8008 bound_to 7997
  154.7737  140.0465  157.1093 H   0  0  0  0  0  0  0  0  0  0  0  0  # atno 8009 bound_to 7997
  154.9842  140.3082  155.4936 H   0  0  0  0  0  0  0  0  0  0  0  0  # atno 8010 bound_to 7997
  139.8555  144.6571  150.9120 H   0  0  0  0  0  0  0  0  0  0  0  0  # atno 10167 bound_to 10162
  156.0226  130.5416  150.7097 H   0  0  0  0  0  0  0  0  0  0  0  0  # atno 10718 bound_to 10713
  153.6276  135.3402  155.3031 H   0  0  0  0  0  0  0  0  0  0  0  0  # atno 10763 bound_to 10752
  154.8587  135.4288  154.2140 H   0  0  0  0  0  0  0  0  0  0  0  0  # atno 10764 bound_to 10752
  153.3028  135.7026  153.7260 H   0  0  0  0  0  0  0  0  0  0  0  0  # atno 10765 bound_to 10752
  141.1111  133.8703  157.1581 H   0  0  0  0  0  0  0  0  0  0  0  0  # atno 11005 bound_to 11000
  146.3447  139.9360  142.8747 LP  0  0  0  0  0  0  0  0  0  0  0  0  # atno 17320 bound_to 7965
  145.2185  140.9925  143.4059 LP  0  0  0  0  0  0  0  0  0  0  0  0  # atno 17321 bound_to 7965
  140.7782  143.3790  151.1511 LP  0  0  0  0  0  0  0  0  0  0  0  0  # atno 17342 bound_to 10162
  139.7424  143.8904  152.3054 LP  0  0  0  0  0  0  0  0  0  0  0  0  # atno 17343 bound_to 10162
  157.4738  131.0896  151.0613 LP  0  0  0  0  0  0  0  0  0  0  0  0  # atno 17370 bound_to 10713
  157.1066  130.6004  149.5472 LP  0  0  0  0  0  0  0  0  0  0  0  0  # atno 17371 bound_to 10713
  140.0006  135.0029  157.0181 LP  0  0  0  0  0  0  0  0  0  0  0  0  # atno 17394 bound_to 11000
  140.4771  134.1327  155.7211 LP  0  0  0  0  0  0  0  0  0  0  0  0  # atno 17395 bound_to 11000

$$$$
