AV-unprocessed.smi:3314|AV-procd|sdf|12745|dock6
  -GOLD-   2272019 83D 1   1.00000     0.00000
 Structure written by MMmdl.
 37 38  0  0  0  0  0  0  0  0  3 V2000
  151.3502  144.7390  159.0592 C   0  0  0  0  0  0  0  0  0  0  0  0
  152.0126  143.4394  159.4644 C   0  0  0  0  0  0  0  0  0  0  0  0
  152.5393  143.2685  160.7588 C   0  0  0  0  0  0  0  0  0  0  0  0
  153.1453  142.0359  161.0703 C   0  0  0  0  0  0  0  0  0  0  0  0
  153.7287  141.7883  162.4456 C   0  0  0  0  0  0  0  0  0  0  0  0
  153.2386  141.0156  160.1901 N   0  0  0  0  0  0  0  0  0  0  0  0
  152.7306  141.1655  158.9435 C   0  0  0  0  0  0  0  0  0  0  0  0
  152.8398  140.1482  158.0773 N   0  5  0  0  0  0  0  0  0  0  0  0
  151.7700  139.7732  157.3350 C   0  0  0  0  0  0  0  0  0  0  0  0
  150.9980  138.8307  157.5236 O   0  0  0  0  0  0  0  0  0  0  0  0
  151.5741  140.7001  156.1138 C   0  0  2  0  0  0  0  0  0  0  0  0
  150.2304  141.4674  156.1047 C   0  0  0  0  0  0  0  0  0  0  0  0
  149.0944  140.5473  155.8584 N   0  3  1  0  0  0  0  0  0  0  0  0
  147.7841  141.2285  155.9150 C   0  0  0  0  0  0  0  0  0  0  0  0
  149.2927  139.7897  154.6025 C   0  0  0  0  0  0  0  0  0  0  0  0
  150.6379  139.0463  154.6339 C   0  0  0  0  0  0  0  0  0  0  0  0
  151.6925  139.9752  154.8828 O   0  0  0  0  0  0  0  0  0  0  0  0
  152.1141  142.3748  158.5467 C   0  0  0  0  0  0  0  0  0  0  0  0
  151.2235  145.4030  159.9147 H   0  0  0  0  0  0  0  0  0  0  0  0
  150.3669  144.5448  158.6304 H   0  0  0  0  0  0  0  0  0  0  0  0
  151.9558  145.2532  158.3127 H   0  0  0  0  0  0  0  0  0  0  0  0
  152.4819  144.0591  161.4924 H   0  0  0  0  0  0  0  0  0  0  0  0
  154.1037  142.7161  162.8788 H   0  0  0  0  0  0  0  0  0  0  0  0
  154.5558  141.0788  162.3988 H   0  0  0  0  0  0  0  0  0  0  0  0
  152.9649  141.3826  163.1091 H   0  0  0  0  0  0  0  0  0  0  0  0
  152.3823  141.4326  156.1381 H   0  0  0  0  0  0  0  0  0  0  0  0
  150.0852  141.9927  157.0498 H   0  0  0  0  0  0  0  0  0  0  0  0
  150.2505  142.2316  155.3262 H   0  0  0  0  0  0  0  0  0  0  0  0
  147.7015  141.9844  155.1330 H   0  0  0  0  0  0  0  0  0  0  0  0
  147.6465  141.7160  156.8805 H   0  0  0  0  0  0  0  0  0  0  0  0
  146.9731  140.5110  155.7857 H   0  0  0  0  0  0  0  0  0  0  0  0
  148.4791  139.0761  154.4683 H   0  0  0  0  0  0  0  0  0  0  0  0
  149.2638  140.4745  153.7535 H   0  0  0  0  0  0  0  0  0  0  0  0
  150.6264  138.2510  155.3802 H   0  0  0  0  0  0  0  0  0  0  0  0
  150.8190  138.5641  153.6733 H   0  0  0  0  0  0  0  0  0  0  0  0
  151.7194  142.4831  157.5467 H   0  0  0  0  0  0  0  0  0  0  0  0
  149.1060  139.8725  156.6109 H   0  0  0  0  0  0  0  0  0  0  0  0
  1  2  1  0  0  0  0
  1 19  1  0  0  0  0
  1 20  1  0  0  0  0
  1 21  1  0  0  0  0
  2 18  2  0  0  0  0
  2  3  1  0  0  0  0
  3  4  2  0  0  0  0
  3 22  1  0  0  0  0
  4  5  1  0  0  0  0
  4  6  1  0  0  0  0
  5 23  1  0  0  0  0
  5 24  1  0  0  0  0
  5 25  1  0  0  0  0
  6  7  2  0  0  0  0
  7  8  1  0  0  0  0
  7 18  1  0  0  0  0
  8  9  1  0  0  0  0
  9 10  2  0  0  0  0
  9 11  1  0  0  0  0
 11 17  1  0  0  0  0
 11 12  1  0  0  0  0
 11 26  1  0  0  0  0
 12 13  1  0  0  0  0
 12 27  1  0  0  0  0
 12 28  1  0  0  0  0
 13 14  1  0  0  0  0
 13 15  1  0  0  0  0
 13 37  1  0  0  0  0
 14 29  1  0  0  0  0
 14 30  1  0  0  0  0
 14 31  1  0  0  0  0
 15 16  1  0  0  0  0
 15 32  1  0  0  0  0
 15 33  1  0  0  0  0
 16 17  1  0  0  0  0
 16 34  1  0  0  0  0
 16 35  1  0  0  0  0
 18 36  1  0  0  0  0
M  CHG  1   8  -1
M  CHG  1  13   1
M  END
> <s_m_source_file>
AV-unprocessed.smi

> <i_m_source_file_index>
3314

> <i_lp_mmshare_version>
43012

> <i_f3d_flags>
0

> <s_epik_input>
W0NIM11jMVtjSF1jKFtDSDNdKW5jKFtjSF0xKVtOSF1DKD1PKVtDQEBIXTJbQ0gyXU4oW0NIM10pW0NIMl1bQ0gyXU8y

> <s_epik_cmdline>
J2VwaWtfcHl0aG9uJywgJy1waCcsICc3LjAnLCAnLXRuJywgJzgnLCAnLW1hJywgJzIwMCcsICctbWV0YWxfYmluZGluZycsICctaW1hZScsICc8aW5maWxlLm1hZT4nLCAnLW9tYWUnLCAnPG91dGZpbGUubWFlPic=

> <r_epik_Ionization_Penalty>
13.8964

> <r_epik_Ionization_Penalty_Charging>
7.88995

> <r_epik_Ionization_Penalty_Neutral>
6.00641

> <r_epik_State_Penalty>
8.39989

> <r_epik_Charging_Adjusted_Penalty>
16.2898

> <i_epik_Tot_Q>
0

> <i_epik_Tot_abs_Q>
2

> <r_epik_Metal_State_Penalty>
4.31145

> <b_epik_Metal_Only>
1

> <s_lp_Force_Field>
OPLS_2005

> <r_lp_Energy>
7.08272

> <b_lp_Chiralities_Consistent>
1

> <s_lp_Variant>
AV-unprocessed.smi:3314-15

> <Gold.Version>
5.8.1

> <Gold.Id.Protein>
6NUR|6NUR_protein|mol2

> <Gold.PLP.Fitness>
47.1823

> <Gold.PLP.PLP>
-40.3899

> <Gold.PLP.part.hbond>
-2.0000

> <Gold.PLP.part.metal>
0.0000

> <Gold.PLP.part.buried>
-4.8720

> <Gold.PLP.part.nonpolar>
-31.9722

> <Gold.PLP.part.repulsive>
0.1337

> <Gold.PLP.ligand.clash>
0.0000

> <Gold.PLP.ligand.torsion>
1.1246

> <Gold.PLP.Chemscore.Hbond>
3.0000

> <Gold.PLP.Chemscore.CHOScore>
0.0000

> <Gold.PLP.Chemscore.Metal>
0.0000

> <Gold.Chemscore.Hbonds>
donor molecule, donor type, donor heavy atom, donor atom, acceptor molecule, acceptor atom, score
      P1  H  7989  7998       L1    17  1.00
      P1  H  7997  8009       L1     8  1.98

> <Gold.PLP.Chemscore.Internal.Correction>
0.0415

> <Gold.Rescore>
     Score         DG    S(hbond)    S(metal)    S(lipo)     H(rot)  DE(clash)    DE(int)     intcor
     16.93     -19.39       1.54        0.00      96.84       1.00       0.05       2.40       ----

> <Gold.Chemscore.Fitness>
16.9343

> <Gold.Chemscore.DG>
-19.3904

> <Gold.Chemscore.ZeroCoef>
-5.4800

> <Gold.Chemscore.Hbond>
1.5389

> <Gold.Chemscore.Metal>
0.0000

> <Gold.Chemscore.Lipo>
96.8433

> <Gold.Chemscore.Internal_Hbond>
0.0000

> <Gold.Chemscore.DEClash>
0.0528

> <Gold.Chemscore.DEInternal>
2.4034

> <Gold.Chemscore.Rot>
1.0000

> <Gold.Chemscore.Internal.Correction>
   9.000000E+99

> <Gold.Chemscore.Hbonds>
donor molecule, donor type, donor heavy atom, donor atom, acceptor molecule, acceptor atom, score
      P1  H  7989  7998       L1    17  0.27
      P1  H  7997  8009       L1     8  0.52

> <Gold.Chemscore.Hbond.Weighted>
-5.1398

> <Gold.Chemscore.Metal.Weighted>
-0.0000

> <Gold.Chemscore.Lipo.Weighted>
-11.3307

> <Gold.Chemscore.Internal_Hbond.Weighted>
0.0000

> <Gold.Chemscore.DEClash.Weighted>
0.0528

> <Gold.Chemscore.DEInternal.Weighted>
2.4034

> <Gold.Chemscore.Rot.Weighted>
2.5600

> <Gold.Chemscore.Internal.Correction.Weighted>
   9.000000E+99

> <Gold.Protein.RotatedTorsions>
[ 6907 6896 6895 6894 ] final -122.03 input  -60.11 | X-H torsion
[ 7974 7965 7964 7962 ] final  -71.06 input  175.53 | X-H torsion
[ 8008 7997 7996 7995 ] final  167.28 input   59.86 | X-H torsion
[ 10167 10162 10161 10158 ] final   51.60 input  -65.29 | X-H torsion
[ 10718 10713 10712 10709 ] final -162.14 input   66.30 | X-H torsion
[ 10763 10752 10751 10750 ] final   42.69 input  -60.55 | X-H torsion
[ 11005 11000 10999 10996 ] final -154.20 input  -57.11 | X-H torsion

> <Gold.Protein.ActiveResidues>
 VAL166  LYS551  ARG553  GLY616  TRP617  ASP618  TYR619  PRO620  LYS621  CYS622 
 ASP623  PHE694  ASN695  SER759  ASP760  ASP761  ALA762  ILE779  LEU786  VAL792 
 PHE793  MET794  SER795  GLU796  ALA797  LYS798  CYS799  TRP800  GLU811  SER814 

> <Gold.Protein.RotatedAtoms>
  150.8538  133.7747  159.3015 H   0  0  0  0  0  0  0  0  0  0  0  0  # atno 6907 bound_to 6896
  151.5410  135.1067  159.9936 H   0  0  0  0  0  0  0  0  0  0  0  0  # atno 6908 bound_to 6896
  152.4573  133.7707  159.6853 H   0  0  0  0  0  0  0  0  0  0  0  0  # atno 6909 bound_to 6896
  145.6830  140.9181  143.0822 H   0  0  0  0  0  0  0  0  0  0  0  0  # atno 7974 bound_to 7965
  156.1647  140.1621  156.8552 H   0  0  0  0  0  0  0  0  0  0  0  0  # atno 8008 bound_to 7997
  154.5195  140.0781  156.8181 H   0  0  0  0  0  0  0  0  0  0  0  0  # atno 8009 bound_to 7997
  155.3636  140.3396  155.4243 H   0  0  0  0  0  0  0  0  0  0  0  0  # atno 8010 bound_to 7997
  140.2602  144.3381  150.6320 H   0  0  0  0  0  0  0  0  0  0  0  0  # atno 10167 bound_to 10162
  156.6062  130.8831  151.2926 H   0  0  0  0  0  0  0  0  0  0  0  0  # atno 10718 bound_to 10713
  152.9877  135.6124  154.2991 H   0  0  0  0  0  0  0  0  0  0  0  0  # atno 10763 bound_to 10752
  154.2712  135.2779  155.2739 H   0  0  0  0  0  0  0  0  0  0  0  0  # atno 10764 bound_to 10752
  154.5120  135.5838  153.6669 H   0  0  0  0  0  0  0  0  0  0  0  0  # atno 10765 bound_to 10752
  140.6999  134.3948  157.5210 H   0  0  0  0  0  0  0  0  0  0  0  0  # atno 11005 bound_to 11000
  144.7020  139.8721  143.7441 LP  0  0  0  0  0  0  0  0  0  0  0  0  # atno 17320 bound_to 7965
  146.0948  139.3940  143.0383 LP  0  0  0  0  0  0  0  0  0  0  0  0  # atno 17321 bound_to 7965
  140.5971  143.2167  151.7142 LP  0  0  0  0  0  0  0  0  0  0  0  0  # atno 17342 bound_to 10162
  139.5019  144.3850  152.0338 LP  0  0  0  0  0  0  0  0  0  0  0  0  # atno 17343 bound_to 10162
  157.7266  130.9632  150.1665 LP  0  0  0  0  0  0  0  0  0  0  0  0  # atno 17370 bound_to 10713
  156.2428  130.3692  149.8318 LP  0  0  0  0  0  0  0  0  0  0  0  0  # atno 17371 bound_to 10713
  139.8899  134.8817  156.2394 LP  0  0  0  0  0  0  0  0  0  0  0  0  # atno 17394 bound_to 11000
  141.0172  133.7062  156.1208 LP  0  0  0  0  0  0  0  0  0  0  0  0  # atno 17395 bound_to 11000

$$$$
