AV-unprocessed.smi:164|AV-procd|sdf|1383|dock8
  -GOLD-   2262019113D 1   1.00000     0.00000
 Structure written by MMmdl.
 53 55  0  0  0  0  0  0  0  0  1 V2000
  151.4841  145.6864  160.2103 C   0  0  0  0  0  0  0  0  0  0  0  0
  152.1140  144.3449  160.5442 C   0  0  0  0  0  0  0  0  0  0  0  0
  152.4628  144.0689  161.8821 C   0  0  0  0  0  0  0  0  0  0  0  0
  153.0523  142.8397  162.2256 C   0  0  0  0  0  0  0  0  0  0  0  0
  153.2912  141.8678  161.2349 C   0  0  0  0  0  0  0  0  0  0  0  0
  153.9326  140.5466  161.6176 C   0  0  0  0  0  0  0  0  0  0  0  0
  152.9307  142.1287  159.8928 C   0  0  0  0  0  0  0  0  0  0  0  0
  153.1636  141.1710  158.9396 O   0  0  0  0  0  0  0  0  0  0  0  0
  152.3074  140.0425  159.0455 C   0  0  0  0  0  0  0  0  0  0  0  0
  152.9075  138.8857  158.2307 C   0  0  1  0  0  0  0  0  0  0  0  0
  154.3134  138.9824  158.3471 O   0  0  0  0  0  0  0  0  0  0  0  0
  152.4696  137.5097  158.7819 C   0  0  0  0  0  0  0  0  0  0  0  0
  151.2761  136.9845  158.1378 N   0  0  0  0  0  0  0  0  0  0  0  0
  151.3882  136.5723  156.7869 C   0  0  0  0  0  0  0  0  0  0  0  0
  152.4442  136.6698  156.1585 O   0  0  0  0  0  0  0  0  0  0  0  0
  150.1657  136.0140  156.2201 C   0  0  0  0  0  0  0  0  0  0  0  0
  150.1608  135.5781  154.9490 F   0  0  0  0  0  0  0  0  0  0  0  0
  149.0367  135.9199  156.9551 C   0  0  0  0  0  0  0  0  0  0  0  0
  148.9503  136.3455  158.2682 N   0  0  0  0  0  0  0  0  0  0  0  0
  147.6568  136.1460  159.0238 C   0  0  2  0  0  0  0  0  0  0  0  0
  146.5938  135.3606  158.2324 C   0  0  0  0  0  0  0  0  0  0  0  0
  145.4232  136.3287  158.1817 C   0  0  0  0  0  0  0  0  0  0  0  0
  145.7089  137.2689  159.3477 C   0  0  0  0  0  0  0  0  0  0  0  0
  147.1218  137.3974  159.3266 O   0  0  0  0  0  0  0  0  0  0  0  0
  150.0966  136.8678  158.9118 C   0  0  0  0  0  0  0  0  0  0  0  0
  150.0652  137.1963  160.0993 O   0  0  0  0  0  0  0  0  0  0  0  0
  152.3572  143.3759  159.5386 C   0  0  0  0  0  0  0  0  0  0  0  0
  152.0036  143.6727  158.0872 C   0  0  0  0  0  0  0  0  0  0  0  0
  151.2380  146.2456  161.1135 H   0  0  0  0  0  0  0  0  0  0  0  0
  150.5630  145.5503  159.6430 H   0  0  0  0  0  0  0  0  0  0  0  0
  152.1715  146.2913  159.6185 H   0  0  0  0  0  0  0  0  0  0  0  0
  152.2837  144.8035  162.6537 H   0  0  0  0  0  0  0  0  0  0  0  0
  153.3202  142.6467  163.2540 H   0  0  0  0  0  0  0  0  0  0  0  0
  154.7320  140.2913  160.9216 H   0  0  0  0  0  0  0  0  0  0  0  0
  153.1920  139.7471  161.5987 H   0  0  0  0  0  0  0  0  0  0  0  0
  154.3617  140.5894  162.6190 H   0  0  0  0  0  0  0  0  0  0  0  0
  152.1393  139.7494  160.0838 H   0  0  0  0  0  0  0  0  0  0  0  0
  151.3357  140.3201  158.6350 H   0  0  0  0  0  0  0  0  0  0  0  0
  152.6139  138.9890  157.1852 H   0  0  0  0  0  0  0  0  0  0  0  0
  154.6055  138.3560  158.9914 H   0  0  0  0  0  0  0  0  0  0  0  0
  153.2639  136.7634  158.7267 H   0  0  0  0  0  0  0  0  0  0  0  0
  152.2343  137.5673  159.8461 H   0  0  0  0  0  0  0  0  0  0  0  0
  148.1632  135.4912  156.4861 H   0  0  0  0  0  0  0  0  0  0  0  0
  147.9247  135.6376  159.9512 H   0  0  0  0  0  0  0  0  0  0  0  0
  146.9426  135.0608  157.2436 H   0  0  0  0  0  0  0  0  0  0  0  0
  146.3362  134.4623  158.7945 H   0  0  0  0  0  0  0  0  0  0  0  0
  145.4360  136.8852  157.2443 H   0  0  0  0  0  0  0  0  0  0  0  0
  144.4562  135.8322  158.2650 H   0  0  0  0  0  0  0  0  0  0  0  0
  145.2155  138.2350  159.2413 H   0  0  0  0  0  0  0  0  0  0  0  0
  145.3970  136.8228  160.2934 H   0  0  0  0  0  0  0  0  0  0  0  0
  152.4756  142.9743  157.3963 H   0  0  0  0  0  0  0  0  0  0  0  0
  152.3337  144.6715  157.8025 H   0  0  0  0  0  0  0  0  0  0  0  0
  150.9246  143.6124  157.9443 H   0  0  0  0  0  0  0  0  0  0  0  0
  1  2  1  0  0  0  0
  1 29  1  0  0  0  0
  1 30  1  0  0  0  0
  1 31  1  0  0  0  0
  2 27  1  0  0  0  0
  2  3  2  0  0  0  0
  3  4  1  0  0  0  0
  3 32  1  0  0  0  0
  4  5  2  0  0  0  0
  4 33  1  0  0  0  0
  5  6  1  0  0  0  0
  5  7  1  0  0  0  0
  6 34  1  0  0  0  0
  6 35  1  0  0  0  0
  6 36  1  0  0  0  0
  7  8  1  0  0  0  0
  7 27  2  0  0  0  0
  8  9  1  0  0  0  0
  9 10  1  0  0  0  0
  9 37  1  0  0  0  0
  9 38  1  0  0  0  0
 10 11  1  0  0  0  0
 10 12  1  0  0  0  0
 10 39  1  0  0  0  0
 11 40  1  0  0  0  0
 12 13  1  0  0  0  0
 12 41  1  0  0  0  0
 12 42  1  0  0  0  0
 13 25  1  0  0  0  0
 13 14  1  0  0  0  0
 14 15  2  0  0  0  0
 14 16  1  0  0  0  0
 16 17  1  0  0  0  0
 16 18  2  0  0  0  0
 18 19  1  0  0  0  0
 18 43  1  0  0  0  0
 19 20  1  0  0  0  0
 19 25  1  0  0  0  0
 20 24  1  0  0  0  0
 20 21  1  0  0  0  0
 20 44  1  0  0  0  0
 21 22  1  0  0  0  0
 21 45  1  0  0  0  0
 21 46  1  0  0  0  0
 22 23  1  0  0  0  0
 22 47  1  0  0  0  0
 22 48  1  0  0  0  0
 23 24  1  0  0  0  0
 23 49  1  0  0  0  0
 23 50  1  0  0  0  0
 25 26  2  0  0  0  0
 27 28  1  0  0  0  0
 28 51  1  0  0  0  0
 28 52  1  0  0  0  0
 28 53  1  0  0  0  0
M  END
> <s_m_source_file>
AV-unprocessed.smi

> <i_m_source_file_index>
164

> <i_lp_mmshare_version>
43012

> <i_f3d_flags>
0

> <s_epik_input>
W0NIM11jMVtjSF1bY0hdYyhbQ0gzXSljKGMxW0NIM10pT1tDSDJdW0NASF0oW09IXSlbQ0gyXW4yYyg9TyljKEYpW2NIXW4oYzI9TylbQ0BASF0zW0NIMl1bQ0gyXVtDSDJdTzM=

> <s_epik_cmdline>
J2VwaWtfcHl0aG9uJywgJy1waCcsICc3LjAnLCAnLXRuJywgJzgnLCAnLW1hJywgJzIwMCcsICctbWV0YWxfYmluZGluZycsICctaW1hZScsICc8aW5maWxlLm1hZT4nLCAnLW9tYWUnLCAnPG91dGZpbGUubWFlPic=

> <r_lp_tautomer_probability>
1

> <r_epik_Ionization_Penalty>
1.45842e-07

> <r_epik_Ionization_Penalty_Charging>
2.86622e-08

> <r_epik_Ionization_Penalty_Neutral>
1.1718e-07

> <r_epik_State_Penalty>
-0

> <r_epik_Charging_Adjusted_Penalty>
2.86622e-08

> <i_epik_Tot_Q>
0

> <i_epik_Tot_abs_Q>
0

> <r_epik_Metal_State_Penalty>
-0

> <b_epik_Metal_Only>
0

> <s_epik_Chemistry_Notes>
This compound contains an acetal/aminal-like group ( X-CH(R)-Y where X, Y are N, S, or O) that may be acid/base labile, releasing an aldehyde.

> <s_lp_Force_Field>
OPLS_2005

> <r_lp_Energy>
41.2459

> <b_lp_Chiralities_Consistent>
1

> <s_lp_Variant>
AV-unprocessed.smi:164-2

> <Gold.Version>
5.8.1

> <Gold.Id.Protein>
6NUR|6NUR_protein|mol2

> <Gold.PLP.Fitness>
55.6631

> <Gold.PLP.PLP>
-48.4805

> <Gold.PLP.part.hbond>
-4.0000

> <Gold.PLP.part.metal>
0.0000

> <Gold.PLP.part.buried>
-5.7034

> <Gold.PLP.part.nonpolar>
-39.2334

> <Gold.PLP.part.repulsive>
0.0070

> <Gold.PLP.ligand.clash>
0.0000

> <Gold.PLP.ligand.torsion>
1.0415

> <Gold.PLP.Chemscore.Hbond>
3.0276

> <Gold.PLP.Chemscore.CHOScore>
0.0000

> <Gold.PLP.Chemscore.Metal>
0.0000

> <Gold.Chemscore.Hbonds>
donor molecule, donor type, donor heavy atom, donor atom, acceptor molecule, acceptor atom, score
      P1  H  6931  6943       L1    26  0.07
      P1  H  6934  6947       L1    24  0.25
      P1  H  7997  8010       L1    11  1.00
      P1  H 10752 10764       L1    15  0.99

> <Gold.PLP.Chemscore.Internal.Correction>
0.1829

> <Gold.Rescore>
     Score         DG    S(hbond)    S(metal)    S(lipo)     H(rot)  DE(clash)    DE(int)     intcor
     20.14     -21.53       2.58        0.00     123.21       2.73       0.04       1.35       ----

> <Gold.Chemscore.Fitness>
20.1377

> <Gold.Chemscore.DG>
-21.5281

> <Gold.Chemscore.ZeroCoef>
-5.4800

> <Gold.Chemscore.Hbond>
2.5822

> <Gold.Chemscore.Metal>
0.0000

> <Gold.Chemscore.Lipo>
123.2146

> <Gold.Chemscore.Internal_Hbond>
0.0000

> <Gold.Chemscore.DEClash>
0.0369

> <Gold.Chemscore.DEInternal>
1.3535

> <Gold.Chemscore.Rot>
2.7315

> <Gold.Chemscore.Internal.Correction>
   9.000000E+99

> <Gold.Chemscore.Hbonds>
donor molecule, donor type, donor heavy atom, donor atom, acceptor molecule, acceptor atom, score
      P1  H  6931  6943       L1    26  0.08
      P1  H  6934  6947       L1    24  0.03
      P1  H  7997  8010       L1    11  0.90
      P1  H 10752 10764       L1    15  0.94

> <Gold.Chemscore.Hbond.Weighted>
-8.6245

> <Gold.Chemscore.Metal.Weighted>
-0.0000

> <Gold.Chemscore.Lipo.Weighted>
-14.4161

> <Gold.Chemscore.Internal_Hbond.Weighted>
0.0000

> <Gold.Chemscore.DEClash.Weighted>
0.0369

> <Gold.Chemscore.DEInternal.Weighted>
1.3535

> <Gold.Chemscore.Rot.Weighted>
6.9925

> <Gold.Chemscore.Internal.Correction.Weighted>
   9.000000E+99

> <Gold.Protein.RotatedTorsions>
[ 6907 6896 6895 6894 ] final -178.15 input  -60.11 | X-H torsion
[ 7974 7965 7964 7962 ] final   32.95 input  175.53 | X-H torsion
[ 8008 7997 7996 7995 ] final    5.38 input   59.86 | X-H torsion
[ 10167 10162 10161 10158 ] final -114.97 input  -65.29 | X-H torsion
[ 10718 10713 10712 10709 ] final   74.30 input   66.30 | X-H torsion
[ 10763 10752 10751 10750 ] final  -35.44 input  -60.55 | X-H torsion
[ 11005 11000 10999 10996 ] final  103.67 input  -57.11 | X-H torsion

> <Gold.Protein.ActiveResidues>
 VAL166  LYS551  ARG553  GLY616  TRP617  ASP618  TYR619  PRO620  LYS621  CYS622 
 ASP623  PHE694  ASN695  SER759  ASP760  ASP761  ALA762  ILE779  LEU786  VAL792 
 PHE793  MET794  SER795  GLU796  ALA797  LYS798  CYS799  TRP800  GLU811  SER814 

> <Gold.Protein.RotatedAtoms>
  151.6326  133.3331  159.3111 H   0  0  0  0  0  0  0  0  0  0  0  0  # atno 6907 bound_to 6896
  150.8049  134.7171  159.6646 H   0  0  0  0  0  0  0  0  0  0  0  0  # atno 6908 bound_to 6896
  152.4143  134.6073  160.0067 H   0  0  0  0  0  0  0  0  0  0  0  0  # atno 6909 bound_to 6896
  146.1453  139.6460  142.9135 H   0  0  0  0  0  0  0  0  0  0  0  0  # atno 7974 bound_to 7965
  154.7277  140.2724  155.6484 H   0  0  0  0  0  0  0  0  0  0  0  0  # atno 8008 bound_to 7997
  156.2841  140.2722  156.1893 H   0  0  0  0  0  0  0  0  0  0  0  0  # atno 8009 bound_to 7997
  155.0423  140.0371  157.2504 H   0  0  0  0  0  0  0  0  0  0  0  0  # atno 8010 bound_to 7997
  140.0952  143.4663  152.1846 H   0  0  0  0  0  0  0  0  0  0  0  0  # atno 10167 bound_to 10162
  157.6586  130.9671  150.1191 H   0  0  0  0  0  0  0  0  0  0  0  0  # atno 10718 bound_to 10713
  153.8632  135.6838  153.4781 H   0  0  0  0  0  0  0  0  0  0  0  0  # atno 10763 bound_to 10752
  153.1330  135.4690  154.9376 H   0  0  0  0  0  0  0  0  0  0  0  0  # atno 10764 bound_to 10752
  154.7749  135.3250  154.8063 H   0  0  0  0  0  0  0  0  0  0  0  0  # atno 10765 bound_to 10752
  139.8785  134.9272  156.5245 H   0  0  0  0  0  0  0  0  0  0  0  0  # atno 11005 bound_to 11000
  145.4952  141.0438  143.2571 LP  0  0  0  0  0  0  0  0  0  0  0  0  # atno 17320 bound_to 7965
  144.7839  139.6468  143.7142 LP  0  0  0  0  0  0  0  0  0  0  0  0  # atno 17321 bound_to 7965
  139.5702  144.7458  151.3911 LP  0  0  0  0  0  0  0  0  0  0  0  0  # atno 17342 bound_to 10162
  140.7007  143.7638  150.7399 LP  0  0  0  0  0  0  0  0  0  0  0  0  # atno 17343 bound_to 10162
  156.2067  130.3664  149.8720 LP  0  0  0  0  0  0  0  0  0  0  0  0  # atno 17370 bound_to 10713
  156.6609  130.8782  151.3547 LP  0  0  0  0  0  0  0  0  0  0  0  0  # atno 17371 bound_to 10713
  140.8426  133.8193  155.9090 LP  0  0  0  0  0  0  0  0  0  0  0  0  # atno 17394 bound_to 11000
  140.9222  134.2127  157.4919 LP  0  0  0  0  0  0  0  0  0  0  0  0  # atno 17395 bound_to 11000

$$$$
