AV-unprocessed.smi:2881|AV-procd|sdf|11062|dock3
  -GOLD-   2272015533D 1   1.00000     0.00000
 Structure written by MMmdl.
 40 42  0  0  0  0  0  0  0  0  1 V2000
  145.0886  134.6870  151.5470 C   0  0  0  0  0  0  0  0  0  0  0  0
  145.6620  136.0517  151.3693 C   0  0  0  0  0  0  0  0  0  0  0  0
  145.8340  137.0823  152.2495 C   0  0  0  0  0  0  0  0  0  0  0  0
  146.4392  138.1140  151.4724 C   0  0  0  0  0  0  0  0  0  0  0  0
  146.8649  139.4845  151.9258 C   0  0  0  0  0  0  0  0  0  0  0  0
  147.4016  139.4193  153.3557 C   0  0  0  0  0  0  0  0  0  0  0  0
  146.8603  140.0722  154.2476 O   0  0  0  0  0  0  0  0  0  0  0  0
  148.4646  138.6262  153.5597 N   0  0  0  0  0  0  0  0  0  0  0  0
  149.1162  138.4087  154.8483 C   0  0  1  0  0  0  0  0  0  0  0  0
  148.8798  136.9628  155.3375 C   0  0  2  0  0  0  0  0  0  0  0  0
  149.2114  136.8885  156.8388 C   0  0  0  0  0  0  0  0  0  0  0  0
  150.7485  136.9849  156.8449 C   0  0  0  0  0  0  0  0  0  0  0  0
  151.0940  137.1178  155.3458 C   0  0  1  0  0  0  0  0  0  0  0  0
  150.0501  136.1980  154.7253 C   0  0  0  0  0  0  0  0  0  0  0  0
  150.6626  138.4885  154.7664 C   0  0  2  0  0  0  0  0  0  0  0  0
  151.2645  139.7340  155.4464 C   0  0  0  0  0  0  0  0  0  0  0  0
  152.6541  139.8044  155.2072 O   0  0  0  0  0  0  0  0  0  0  0  0
  146.6198  137.7536  150.2089 N   0  0  0  0  0  0  0  0  0  0  0  0
  146.1445  136.4954  150.1598 N   0  0  0  0  0  0  0  0  0  0  0  0
  146.1557  135.9576  149.3047 H   0  0  0  0  0  0  0  0  0  0  0  0
  144.9360  134.4632  152.6031 H   0  0  0  0  0  0  0  0  0  0  0  0
  145.7548  133.9283  151.1361 H   0  0  0  0  0  0  0  0  0  0  0  0
  144.1261  134.6031  151.0421 H   0  0  0  0  0  0  0  0  0  0  0  0
  145.5723  137.0982  153.2972 H   0  0  0  0  0  0  0  0  0  0  0  0
  147.6294  139.8982  151.2662 H   0  0  0  0  0  0  0  0  0  0  0  0
  146.0202  140.1734  151.8894 H   0  0  0  0  0  0  0  0  0  0  0  0
  148.8400  138.1243  152.7678 H   0  0  0  0  0  0  0  0  0  0  0  0
  148.7115  139.1183  155.5727 H   0  0  0  0  0  0  0  0  0  0  0  0
  147.8921  136.5673  155.0968 H   0  0  0  0  0  0  0  0  0  0  0  0
  148.7403  137.6883  157.4111 H   0  0  0  0  0  0  0  0  0  0  0  0
  148.8864  135.9379  157.2633 H   0  0  0  0  0  0  0  0  0  0  0  0
  151.1189  137.8105  157.4507 H   0  0  0  0  0  0  0  0  0  0  0  0
  151.1798  136.0699  157.2530 H   0  0  0  0  0  0  0  0  0  0  0  0
  152.1254  136.8526  155.1118 H   0  0  0  0  0  0  0  0  0  0  0  0
  150.1205  135.1649  155.0709 H   0  0  0  0  0  0  0  0  0  0  0  0
  150.0539  136.2088  153.6337 H   0  0  0  0  0  0  0  0  0  0  0  0
  150.9658  138.5091  153.7174 H   0  0  0  0  0  0  0  0  0  0  0  0
  150.8046  140.6355  155.0420 H   0  0  0  0  0  0  0  0  0  0  0  0
  151.0763  139.7459  156.5193 H   0  0  0  0  0  0  0  0  0  0  0  0
  152.8918  139.1085  154.6135 H   0  0  0  0  0  0  0  0  0  0  0  0
  1  2  1  0  0  0  0
  1 21  1  0  0  0  0
  1 22  1  0  0  0  0
  1 23  1  0  0  0  0
  2 19  1  0  0  0  0
  2  3  2  0  0  0  0
  3  4  1  0  0  0  0
  3 24  1  0  0  0  0
  4  5  1  0  0  0  0
  4 18  2  0  0  0  0
  5  6  1  0  0  0  0
  5 25  1  0  0  0  0
  5 26  1  0  0  0  0
  6  7  2  0  0  0  0
  6  8  1  0  0  0  0
  8  9  1  0  0  0  0
  8 27  1  0  0  0  0
  9 15  1  0  0  0  0
  9 10  1  0  0  0  0
  9 28  1  0  0  0  0
 10 14  1  0  0  0  0
 10 11  1  0  0  0  0
 10 29  1  0  0  0  0
 11 12  1  0  0  0  0
 11 30  1  0  0  0  0
 11 31  1  0  0  0  0
 12 13  1  0  0  0  0
 12 32  1  0  0  0  0
 12 33  1  0  0  0  0
 13 14  1  0  0  0  0
 13 15  1  0  0  0  0
 13 34  1  0  0  0  0
 14 35  1  0  0  0  0
 14 36  1  0  0  0  0
 15 16  1  0  0  0  0
 15 37  1  0  0  0  0
 16 17  1  0  0  0  0
 16 38  1  0  0  0  0
 16 39  1  0  0  0  0
 17 40  1  0  0  0  0
 18 19  1  0  0  0  0
 19 20  1  0  0  0  0
M  END
> <s_m_source_file>
AV-unprocessed.smi

> <i_m_source_file_index>
2881

> <i_lp_mmshare_version>
43012

> <i_f3d_flags>
0

> <s_epik_input>
W0NIM11jMVtjSF1jKG5bbkhdMSlbQ0gyXUMoPU8pW05IXVtDQEhdKFtDQEBIXTIzKVtDQEhdKFtDSDJdW09IXSlbQ0BASF0oW0NIMl0zKVtDSDJdW0NIMl0y

> <s_epik_cmdline>
J2VwaWtfcHl0aG9uJywgJy1waCcsICc3LjAnLCAnLXRuJywgJzgnLCAnLW1hJywgJzIwMCcsICctbWV0YWxfYmluZGluZycsICctaW1hZScsICc8aW5maWxlLm1hZT4nLCAnLW9tYWUnLCAnPG91dGZpbGUubWFlPic=

> <r_lp_tautomer_probability>
0.5

> <r_epik_Ionization_Penalty>
9.4349e-05

> <r_epik_Ionization_Penalty_Charging>
0

> <r_epik_Ionization_Penalty_Neutral>
9.4349e-05

> <r_epik_State_Penalty>
0.41068

> <r_epik_Charging_Adjusted_Penalty>
0.41068

> <i_epik_Tot_Q>
0

> <i_epik_Tot_abs_Q>
0

> <r_epik_Metal_State_Penalty>
0.4107

> <b_epik_Metal_Only>
0

> <s_lp_Force_Field>
OPLS_2005

> <r_lp_Energy>
47.6032

> <b_lp_Chiralities_Consistent>
1

> <s_lp_Variant>
AV-unprocessed.smi:2881-8

> <Gold.Version>
5.8.1

> <Gold.Id.Protein>
6NUR|6NUR_protein|mol2

> <Gold.PLP.Fitness>
36.9159

> <Gold.PLP.PLP>
-27.0891

> <Gold.PLP.part.hbond>
-6.7586

> <Gold.PLP.part.metal>
0.0000

> <Gold.PLP.part.buried>
3.7985

> <Gold.PLP.part.nonpolar>
-27.6297

> <Gold.PLP.part.repulsive>
2.9202

> <Gold.PLP.ligand.clash>
0.0000

> <Gold.PLP.ligand.torsion>
0.4881

> <Gold.PLP.Chemscore.Hbond>
3.5888

> <Gold.PLP.Chemscore.CHOScore>
0.0000

> <Gold.PLP.Chemscore.Metal>
0.0000

> <Gold.Chemscore.Hbonds>
donor molecule, donor type, donor heavy atom, donor atom, acceptor molecule, acceptor atom, score
      L1  H     8    27       P1  7948  0.80
      L1  H    19    20       P1  7921  1.00
      P1  H  7954  7966       L1    18  0.78
      P1  H  7997  8010       L1    17  0.80

> <Gold.PLP.Chemscore.Internal.Correction>
0.0367

> <Gold.Rescore>
     Score         DG    S(hbond)    S(metal)    S(lipo)     H(rot)  DE(clash)    DE(int)     intcor
     15.54     -19.38       3.29        0.00      74.57       2.28       3.35       0.49       ----

> <Gold.Chemscore.Fitness>
15.5357

> <Gold.Chemscore.DG>
-19.3781

> <Gold.Chemscore.ZeroCoef>
-5.4800

> <Gold.Chemscore.Hbond>
3.2930

> <Gold.Chemscore.Metal>
0.0000

> <Gold.Chemscore.Lipo>
74.5692

> <Gold.Chemscore.Internal_Hbond>
0.0000

> <Gold.Chemscore.DEClash>
3.3527

> <Gold.Chemscore.DEInternal>
0.4897

> <Gold.Chemscore.Rot>
2.2755

> <Gold.Chemscore.Internal.Correction>
   9.000000E+99

> <Gold.Chemscore.Hbonds>
donor molecule, donor type, donor heavy atom, donor atom, acceptor molecule, acceptor atom, score
      L1  H     8    27       P1  7948  0.77
      L1  H    19    20       P1  7921  0.91
      P1  H  7954  7966       L1    18  0.46
      P1  H  7997  8010       L1    17  0.11

> <Gold.Chemscore.Hbond.Weighted>
-10.9988

> <Gold.Chemscore.Metal.Weighted>
-0.0000

> <Gold.Chemscore.Lipo.Weighted>
-8.7246

> <Gold.Chemscore.Internal_Hbond.Weighted>
0.0000

> <Gold.Chemscore.DEClash.Weighted>
3.3527

> <Gold.Chemscore.DEInternal.Weighted>
0.4897

> <Gold.Chemscore.Rot.Weighted>
5.8252

> <Gold.Chemscore.Internal.Correction.Weighted>
   9.000000E+99

> <Gold.Protein.RotatedTorsions>
[ 6907 6896 6895 6894 ] final   86.69 input  -60.11 | X-H torsion
[ 7974 7965 7964 7962 ] final -148.45 input  175.53 | X-H torsion
[ 8008 7997 7996 7995 ] final  110.90 input   59.86 | X-H torsion
[ 10167 10162 10161 10158 ] final -117.81 input  -65.29 | X-H torsion
[ 10718 10713 10712 10709 ] final  111.17 input   66.30 | X-H torsion
[ 10763 10752 10751 10750 ] final -110.24 input  -60.55 | X-H torsion
[ 11005 11000 10999 10996 ] final -133.30 input  -57.11 | X-H torsion

> <Gold.Protein.ActiveResidues>
 VAL166  LYS551  ARG553  GLY616  TRP617  ASP618  TYR619  PRO620  LYS621  CYS622 
 ASP623  PHE694  ASN695  SER759  ASP760  ASP761  ALA762  ILE779  LEU786  VAL792 
 PHE793  MET794  SER795  GLU796  ALA797  LYS798  CYS799  TRP800  GLU811  SER814 

> <Gold.Protein.RotatedAtoms>
  152.5398  134.2393  159.8855 H   0  0  0  0  0  0  0  0  0  0  0  0  # atno 6907 bound_to 6896
  151.2361  133.4418  159.2613 H   0  0  0  0  0  0  0  0  0  0  0  0  # atno 6908 bound_to 6896
  151.0670  134.9787  159.8345 H   0  0  0  0  0  0  0  0  0  0  0  0  # atno 6909 bound_to 6896
  144.8029  140.5195  143.5695 H   0  0  0  0  0  0  0  0  0  0  0  0  # atno 7974 bound_to 7965
  156.2086  140.3029  155.9682 H   0  0  0  0  0  0  0  0  0  0  0  0  # atno 8008 bound_to 7997
  155.2780  140.0436  157.3030 H   0  0  0  0  0  0  0  0  0  0  0  0  # atno 8009 bound_to 7997
  154.5668  140.2336  155.8261 H   0  0  0  0  0  0  0  0  0  0  0  0  # atno 8010 bound_to 7997
  140.0643  143.4938  152.2015 H   0  0  0  0  0  0  0  0  0  0  0  0  # atno 10167 bound_to 10162
  157.6458  131.0946  150.6710 H   0  0  0  0  0  0  0  0  0  0  0  0  # atno 10718 bound_to 10713
  154.8237  135.4571  154.0855 H   0  0  0  0  0  0  0  0  0  0  0  0  # atno 10763 bound_to 10752
  153.2187  135.6891  153.8033 H   0  0  0  0  0  0  0  0  0  0  0  0  # atno 10764 bound_to 10752
  153.7458  135.3305  155.3289 H   0  0  0  0  0  0  0  0  0  0  0  0  # atno 10765 bound_to 10752
  140.9093  134.1589  157.4401 H   0  0  0  0  0  0  0  0  0  0  0  0  # atno 11005 bound_to 11000
  145.5509  139.1477  143.3394 LP  0  0  0  0  0  0  0  0  0  0  0  0  # atno 17320 bound_to 7965
  146.2314  140.5647  142.8973 LP  0  0  0  0  0  0  0  0  0  0  0  0  # atno 17321 bound_to 7965
  139.5875  144.7537  151.3484 LP  0  0  0  0  0  0  0  0  0  0  0  0  # atno 17342 bound_to 10162
  140.7157  143.7273  150.7650 LP  0  0  0  0  0  0  0  0  0  0  0  0  # atno 17343 bound_to 10162
  156.7027  130.4628  149.5568 LP  0  0  0  0  0  0  0  0  0  0  0  0  # atno 17370 bound_to 10713
  156.1784  130.6483  151.0922 LP  0  0  0  0  0  0  0  0  0  0  0  0  # atno 17371 bound_to 10713
  139.8755  134.9929  156.5620 LP  0  0  0  0  0  0  0  0  0  0  0  0  # atno 17394 bound_to 11000
  140.8131  133.8413  155.8827 LP  0  0  0  0  0  0  0  0  0  0  0  0  # atno 17395 bound_to 11000

$$$$
