AV-unprocessed.smi:2562|AV-procd|sdf|10051|dock3
  -GOLD-   2272014 93D 1   1.00000     0.00000
 Structure written by MMmdl.
 31 32  0  0  0  0  0  0  0  0  2 V2000
  152.0912  144.6697  160.2001 C   0  0  0  0  0  0  0  0  0  0  0  0
  152.2222  143.5809  159.1295 C   0  0  0  0  0  0  0  0  0  0  0  0
  151.3172  143.8365  157.9158 C   0  0  0  0  0  0  0  0  0  0  0  0
  151.0180  142.5896  157.1501 C   0  0  0  0  0  0  0  0  0  0  0  0
  151.5272  141.3838  157.4200 N   0  0  0  0  0  0  0  0  0  0  0  0
  151.0003  140.5372  156.4591 N   0  0  0  0  0  0  0  0  0  0  0  0
  150.2299  141.3084  155.6858 C   0  0  0  0  0  0  0  0  0  0  0  0
  149.4353  140.8085  154.5192 C   0  0  1  0  0  0  0  0  0  0  0  0
  149.5905  139.2899  154.3107 C   0  0  0  0  0  0  0  0  0  0  0  0
  148.7257  138.8425  153.2017 N   0  3  0  0  0  0  0  0  0  0  0  0
  147.3197  139.2381  153.4183 C   0  0  0  0  0  0  0  0  0  0  0  0
  147.2275  140.7541  153.6664 C   0  0  0  0  0  0  0  0  0  0  0  0
  148.0628  141.1136  154.7624 O   0  0  0  0  0  0  0  0  0  0  0  0
  150.2068  142.5902  156.0832 N   0  0  0  0  0  0  0  0  0  0  0  0
  149.7070  143.3666  155.6744 H   0  0  0  0  0  0  0  0  0  0  0  0
  152.7447  144.4614  161.0476 H   0  0  0  0  0  0  0  0  0  0  0  0
  151.0694  144.7323  160.5752 H   0  0  0  0  0  0  0  0  0  0  0  0
  152.3638  145.6478  159.8025 H   0  0  0  0  0  0  0  0  0  0  0  0
  153.2618  143.5214  158.8049 H   0  0  0  0  0  0  0  0  0  0  0  0
  151.9800  142.6127  159.5693 H   0  0  0  0  0  0  0  0  0  0  0  0
  150.3748  144.2800  158.2394 H   0  0  0  0  0  0  0  0  0  0  0  0
  151.7850  144.5585  157.2451 H   0  0  0  0  0  0  0  0  0  0  0  0
  149.7700  141.3451  153.6293 H   0  0  0  0  0  0  0  0  0  0  0  0
  150.6264  139.0342  154.0857 H   0  0  0  0  0  0  0  0  0  0  0  0
  149.3148  138.7500  155.2180 H   0  0  0  0  0  0  0  0  0  0  0  0
  149.0534  139.2663  152.3451 H   0  0  0  0  0  0  0  0  0  0  0  0
  146.7254  138.9537  152.5499 H   0  0  0  0  0  0  0  0  0  0  0  0
  146.9215  138.6919  154.2745 H   0  0  0  0  0  0  0  0  0  0  0  0
  147.5170  141.3134  152.7754 H   0  0  0  0  0  0  0  0  0  0  0  0
  146.2000  141.0356  153.8981 H   0  0  0  0  0  0  0  0  0  0  0  0
  148.7836  137.8376  153.1144 H   0  0  0  0  0  0  0  0  0  0  0  0
  1  2  1  0  0  0  0
  1 16  1  0  0  0  0
  1 17  1  0  0  0  0
  1 18  1  0  0  0  0
  2  3  1  0  0  0  0
  2 19  1  0  0  0  0
  2 20  1  0  0  0  0
  3 21  1  0  0  0  0
  3 22  1  0  0  0  0
  3  4  1  0  0  0  0
  4  5  2  0  0  0  0
  4 14  1  0  0  0  0
  5  6  1  0  0  0  0
  6  7  2  0  0  0  0
  7 14  1  0  0  0  0
  7  8  1  0  0  0  0
  8 13  1  0  0  0  0
  8  9  1  0  0  0  0
  8 23  1  0  0  0  0
  9 10  1  0  0  0  0
  9 24  1  0  0  0  0
  9 25  1  0  0  0  0
 10 11  1  0  0  0  0
 10 26  1  0  0  0  0
 10 31  1  0  0  0  0
 11 12  1  0  0  0  0
 11 27  1  0  0  0  0
 11 28  1  0  0  0  0
 12 13  1  0  0  0  0
 12 29  1  0  0  0  0
 12 30  1  0  0  0  0
 14 15  1  0  0  0  0
M  CHG  1  10   1
M  END
> <s_m_source_file>
AV-unprocessed.smi

> <i_m_source_file_index>
2562

> <i_lp_mmshare_version>
43012

> <i_f3d_flags>
0

> <s_epik_input>
W0NIM11bQ0gyXVtDSDJdYzFuW25IXWMobjEpW0NAQEhdMltDSDJdW05IXVtDSDJdW0NIMl1PMg==

> <s_epik_cmdline>
J2VwaWtfcHl0aG9uJywgJy1waCcsICc3LjAnLCAnLXRuJywgJzgnLCAnLW1hJywgJzIwMCcsICctbWV0YWxfYmluZGluZycsICctaW1hZScsICc8aW5maWxlLm1hZT4nLCAnLW9tYWUnLCAnPG91dGZpbGUubWFlPic=

> <r_lp_tautomer_probability>
0.0517155

> <r_epik_Ionization_Penalty>
0.274244

> <r_epik_Ionization_Penalty_Charging>
0.125708

> <r_epik_Ionization_Penalty_Neutral>
0.148536

> <r_epik_State_Penalty>
1.9659

> <r_epik_Charging_Adjusted_Penalty>
2.09161

> <i_epik_Tot_Q>
1

> <i_epik_Tot_abs_Q>
1

> <r_epik_Metal_State_Penalty>
2.08836

> <b_epik_Metal_Only>
0

> <s_lp_Force_Field>
OPLS_2005

> <r_lp_Energy>
12.559

> <b_lp_Chiralities_Consistent>
1

> <s_lp_Variant>
AV-unprocessed.smi:2562-10

> <Gold.Version>
5.8.1

> <Gold.Id.Protein>
6NUR|6NUR_protein|mol2

> <Gold.PLP.Fitness>
42.0300

> <Gold.PLP.PLP>
-30.8502

> <Gold.PLP.part.hbond>
-2.9590

> <Gold.PLP.part.metal>
0.0000

> <Gold.PLP.part.buried>
-4.3327

> <Gold.PLP.part.nonpolar>
-25.0996

> <Gold.PLP.part.repulsive>
0.3521

> <Gold.PLP.ligand.clash>
0.0000

> <Gold.PLP.ligand.torsion>
0.1352

> <Gold.PLP.Chemscore.Hbond>
3.8148

> <Gold.PLP.Chemscore.CHOScore>
0.0000

> <Gold.PLP.Chemscore.Metal>
0.0000

> <Gold.Chemscore.Hbonds>
donor molecule, donor type, donor heavy atom, donor atom, acceptor molecule, acceptor atom, score
      L1  H    10    26       P1  7957  0.94
      L1  H    10    31       P1  7948  1.86
      L1  H    14    15       P1  8028  1.00

> <Gold.PLP.Chemscore.Internal.Correction>
0.0059

> <Gold.Rescore>
     Score         DG    S(hbond)    S(metal)    S(lipo)     H(rot)  DE(clash)    DE(int)     intcor
     18.58     -18.73       2.83        0.00      65.41       1.51       0.05       0.10       ----

> <Gold.Chemscore.Fitness>
18.5792

> <Gold.Chemscore.DG>
-18.7302

> <Gold.Chemscore.ZeroCoef>
-5.4800

> <Gold.Chemscore.Hbond>
2.8342

> <Gold.Chemscore.Metal>
0.0000

> <Gold.Chemscore.Lipo>
65.4145

> <Gold.Chemscore.Internal_Hbond>
0.0000

> <Gold.Chemscore.DEClash>
0.0491

> <Gold.Chemscore.DEInternal>
0.1019

> <Gold.Chemscore.Rot>
1.5115

> <Gold.Chemscore.Internal.Correction>
   9.000000E+99

> <Gold.Chemscore.Hbonds>
donor molecule, donor type, donor heavy atom, donor atom, acceptor molecule, acceptor atom, score
      L1  H    10    26       P1  7957  0.90
      L1  H    10    31       P1  7948  0.84
      L1  H    14    15       P1  8028  0.96

> <Gold.Chemscore.Hbond.Weighted>
-9.4661

> <Gold.Chemscore.Metal.Weighted>
-0.0000

> <Gold.Chemscore.Lipo.Weighted>
-7.6535

> <Gold.Chemscore.Internal_Hbond.Weighted>
0.0000

> <Gold.Chemscore.DEClash.Weighted>
0.0491

> <Gold.Chemscore.DEInternal.Weighted>
0.1019

> <Gold.Chemscore.Rot.Weighted>
3.8695

> <Gold.Chemscore.Internal.Correction.Weighted>
   9.000000E+99

> <Gold.Protein.RotatedTorsions>
[ 6907 6896 6895 6894 ] final   93.76 input  -60.11 | X-H torsion
[ 7974 7965 7964 7962 ] final  -38.67 input  175.53 | X-H torsion
[ 8008 7997 7996 7995 ] final  -95.68 input   59.86 | X-H torsion
[ 10167 10162 10161 10158 ] final  137.73 input  -65.29 | X-H torsion
[ 10718 10713 10712 10709 ] final   -1.73 input   66.30 | X-H torsion
[ 10763 10752 10751 10750 ] final   -3.44 input  -60.55 | X-H torsion
[ 11005 11000 10999 10996 ] final   27.96 input  -57.11 | X-H torsion

> <Gold.Protein.ActiveResidues>
 VAL166  LYS551  ARG553  GLY616  TRP617  ASP618  TYR619  PRO620  LYS621  CYS622 
 ASP623  PHE694  ASN695  SER759  ASP760  ASP761  ALA762  ILE779  LEU786  VAL792 
 PHE793  MET794  SER795  GLU796  ALA797  LYS798  CYS799  TRP800  GLU811  SER814 

> <Gold.Protein.RotatedAtoms>
  152.5452  134.1298  159.8433 H   0  0  0  0  0  0  0  0  0  0  0  0  # atno 6907 bound_to 6896
  151.1345  133.5007  159.2606 H   0  0  0  0  0  0  0  0  0  0  0  0  # atno 6908 bound_to 6896
  151.1639  135.0296  159.8777 H   0  0  0  0  0  0  0  0  0  0  0  0  # atno 6909 bound_to 6896
  146.0465  140.6539  142.9062 H   0  0  0  0  0  0  0  0  0  0  0  0  # atno 7974 bound_to 7965
  154.7645  140.0478  157.1001 H   0  0  0  0  0  0  0  0  0  0  0  0  # atno 8008 bound_to 7997
  154.9896  140.3111  155.4892 H   0  0  0  0  0  0  0  0  0  0  0  0  # atno 8009 bound_to 7997
  156.2910  140.2221  156.5000 H   0  0  0  0  0  0  0  0  0  0  0  0  # atno 8010 bound_to 7997
  139.5134  144.6394  151.5611 H   0  0  0  0  0  0  0  0  0  0  0  0  # atno 10167 bound_to 10162
  156.8012  130.5393  149.5721 H   0  0  0  0  0  0  0  0  0  0  0  0  # atno 10718 bound_to 10713
  153.3713  135.6994  153.6635 H   0  0  0  0  0  0  0  0  0  0  0  0  # atno 10763 bound_to 10752
  153.5284  135.3597  155.2665 H   0  0  0  0  0  0  0  0  0  0  0  0  # atno 10764 bound_to 10752
  154.8681  135.4175  154.2992 H   0  0  0  0  0  0  0  0  0  0  0  0  # atno 10765 bound_to 10752
  140.3207  134.2547  155.7717 H   0  0  0  0  0  0  0  0  0  0  0  0  # atno 11005 bound_to 11000
  144.7100  140.4004  143.7088 LP  0  0  0  0  0  0  0  0  0  0  0  0  # atno 17320 bound_to 7965
  145.6797  139.1616  143.2708 LP  0  0  0  0  0  0  0  0  0  0  0  0  # atno 17321 bound_to 7965
  140.6154  143.9357  150.6485 LP  0  0  0  0  0  0  0  0  0  0  0  0  # atno 17342 bound_to 10162
  140.2614  143.3521  152.1319 LP  0  0  0  0  0  0  0  0  0  0  0  0  # atno 17343 bound_to 10162
  156.1100  130.6033  151.0032 LP  0  0  0  0  0  0  0  0  0  0  0  0  # atno 17370 bound_to 10713
  157.6552  131.0890  150.7962 LP  0  0  0  0  0  0  0  0  0  0  0  0  # atno 17371 bound_to 10713
  141.2087  133.7770  157.0042 LP  0  0  0  0  0  0  0  0  0  0  0  0  # atno 17394 bound_to 11000
  140.0944  134.9573  157.1827 LP  0  0  0  0  0  0  0  0  0  0  0  0  # atno 17395 bound_to 11000

$$$$
