AV-unprocessed.smi:101|AV-procd|sdf|913|dock3
  -GOLD-   2262017413D 1   1.00000     0.00000
 Structure written by MMmdl.
 44 46  0  0  0  0  0  0  0  0  1 V2000
  150.9749  132.6104  155.2013 C   0  0  0  0  0  0  0  0  0  0  0  0
  150.5619  134.0027  155.6509 C   0  0  0  0  0  0  0  0  0  0  0  0
  150.6220  135.0808  154.8279 C   0  0  0  0  0  0  0  0  0  0  0  0
  150.2551  136.3687  155.2089 N   0  0  0  0  0  0  0  0  0  0  0  0
  150.3006  137.5536  154.2553 C   0  0  2  0  0  0  0  0  0  0  0  0
  151.3744  138.3770  154.5972 O   0  0  0  0  0  0  0  0  0  0  0  0
  150.9129  139.4036  155.4663 C   0  0  1  0  0  0  0  0  0  0  0  0
  151.9692  140.5029  155.6310 C   0  0  0  0  0  0  0  0  0  0  0  0
  151.6336  141.2399  156.7943 O   0  0  0  0  0  0  0  0  0  0  0  0
  152.4228  141.2018  157.8814 C   0  0  0  0  0  0  0  0  0  0  0  0
  153.1900  140.2718  158.1371 O   0  0  0  0  0  0  0  0  0  0  0  0
  152.2670  142.4084  158.7444 C   0  0  0  0  0  0  0  0  0  0  0  0
  152.5974  142.3282  160.1170 C   0  0  0  0  0  0  0  0  0  0  0  0
  152.4579  143.4519  160.9550 C   0  0  0  0  0  0  0  0  0  0  0  0
  151.9858  144.6693  160.4302 C   0  0  0  0  0  0  0  0  0  0  0  0
  151.6532  144.7621  159.0662 C   0  0  0  0  0  0  0  0  0  0  0  0
  151.7925  143.6399  158.2269 C   0  0  0  0  0  0  0  0  0  0  0  0
  149.5948  139.8009  154.8027 C   0  0  1  0  0  0  0  0  0  0  0  0
  149.8381  140.6660  153.7046 O   0  0  0  0  0  0  0  0  0  0  0  0
  149.0345  138.4377  154.3863 C   0  0  1  0  0  0  0  0  0  0  0  0
  148.2641  138.4985  153.2005 O   0  0  0  0  0  0  0  0  0  0  0  0
  149.7300  136.5730  156.5024 C   0  0  0  0  0  0  0  0  0  0  0  0
  149.3279  137.6686  156.8922 O   0  0  0  0  0  0  0  0  0  0  0  0
  149.6765  135.4688  157.3504 N   0  0  0  0  0  0  0  0  0  0  0  0
  150.0720  134.1707  157.0211 C   0  0  0  0  0  0  0  0  0  0  0  0
  149.9843  133.2769  157.8613 O   0  0  0  0  0  0  0  0  0  0  0  0
  149.3147  135.6180  158.2810 H   0  0  0  0  0  0  0  0  0  0  0  0
  151.3106  132.6002  154.1639 H   0  0  0  0  0  0  0  0  0  0  0  0
  150.1365  131.9184  155.2867 H   0  0  0  0  0  0  0  0  0  0  0  0
  151.7918  132.2368  155.8196 H   0  0  0  0  0  0  0  0  0  0  0  0
  150.9738  134.9014  153.8233 H   0  0  0  0  0  0  0  0  0  0  0  0
  150.4598  137.1204  153.2660 H   0  0  0  0  0  0  0  0  0  0  0  0
  150.6862  138.9758  156.4452 H   0  0  0  0  0  0  0  0  0  0  0  0
  152.9691  140.0747  155.7142 H   0  0  0  0  0  0  0  0  0  0  0  0
  151.9583  141.1706  154.7686 H   0  0  0  0  0  0  0  0  0  0  0  0
  152.9612  141.4039  160.5427 H   0  0  0  0  0  0  0  0  0  0  0  0
  152.7132  143.3790  162.0018 H   0  0  0  0  0  0  0  0  0  0  0  0
  151.8790  145.5305  161.0732 H   0  0  0  0  0  0  0  0  0  0  0  0
  151.2904  145.6956  158.6619 H   0  0  0  0  0  0  0  0  0  0  0  0
  151.5278  143.7464  157.1850 H   0  0  0  0  0  0  0  0  0  0  0  0
  148.9295  140.3130  155.4987 H   0  0  0  0  0  0  0  0  0  0  0  0
  149.3732  140.3364  152.9510 H   0  0  0  0  0  0  0  0  0  0  0  0
  148.4069  138.0568  155.1934 H   0  0  0  0  0  0  0  0  0  0  0  0
  148.4078  137.7028  152.7108 H   0  0  0  0  0  0  0  0  0  0  0  0
  1  2  1  0  0  0  0
  1 28  1  0  0  0  0
  1 29  1  0  0  0  0
  1 30  1  0  0  0  0
  2 25  1  0  0  0  0
  2  3  2  0  0  0  0
  3  4  1  0  0  0  0
  3 31  1  0  0  0  0
  4  5  1  0  0  0  0
  4 22  1  0  0  0  0
  5 20  1  0  0  0  0
  5  6  1  0  0  0  0
  5 32  1  0  0  0  0
  6  7  1  0  0  0  0
  7  8  1  0  0  0  0
  7 18  1  0  0  0  0
  7 33  1  0  0  0  0
  8  9  1  0  0  0  0
  8 34  1  0  0  0  0
  8 35  1  0  0  0  0
  9 10  1  0  0  0  0
 10 11  2  0  0  0  0
 10 12  1  0  0  0  0
 12 17  1  0  0  0  0
 12 13  2  0  0  0  0
 13 14  1  0  0  0  0
 13 36  1  0  0  0  0
 14 15  2  0  0  0  0
 14 37  1  0  0  0  0
 15 16  1  0  0  0  0
 15 38  1  0  0  0  0
 16 17  2  0  0  0  0
 16 39  1  0  0  0  0
 17 40  1  0  0  0  0
 18 19  1  0  0  0  0
 18 20  1  0  0  0  0
 18 41  1  0  0  0  0
 19 42  1  0  0  0  0
 20 21  1  0  0  0  0
 20 43  1  0  0  0  0
 21 44  1  0  0  0  0
 22 23  2  0  0  0  0
 22 24  1  0  0  0  0
 24 27  1  0  0  0  0
 24 25  1  0  0  0  0
 25 26  2  0  0  0  0
M  END
> <s_m_source_file>
AV-unprocessed.smi

> <i_m_source_file_index>
101

> <i_lp_mmshare_version>
43012

> <i_f3d_flags>
0

> <s_epik_input>
Tz1jMVtuSF1jKD1PKW4oW2NIXWMxW0NIM10pW0NAQEhdMk9bQ0BIXShbQ0BASF0oW09IXSlbQ0BIXTJbT0hdKVtDSDJdT0MoPU8pYzNbY0hdW2NIXVtjSF1bY0hdW2NIXTM=

> <s_epik_cmdline>
J2VwaWtfcHl0aG9uJywgJy1waCcsICc3LjAnLCAnLXRuJywgJzgnLCAnLW1hJywgJzIwMCcsICctbWV0YWxfYmluZGluZycsICctaW1hZScsICc8aW5maWxlLm1hZT4nLCAnLW9tYWUnLCAnPG91dGZpbGUubWFlPic=

> <r_lp_tautomer_probability>
0.999537

> <r_epik_Ionization_Penalty>
0.00263537

> <r_epik_Ionization_Penalty_Charging>
0.00263428

> <r_epik_Ionization_Penalty_Neutral>
1.09111e-06

> <r_epik_State_Penalty>
0.00183335

> <r_epik_Charging_Adjusted_Penalty>
0.00446763

> <i_epik_Tot_Q>
0

> <i_epik_Tot_abs_Q>
0

> <r_epik_Metal_State_Penalty>
1.00528

> <b_epik_Metal_Only>
0

> <s_epik_Chemistry_Notes>
This compound has an ester and may undergo hydrolysis at high or low pH. This compound contains an acetal/aminal-like group ( X-CH(R)-Y where X, Y are N, S, or O) that may be acid/base labile, releasing an aldehyde.

> <s_lp_Force_Field>
OPLS_2005

> <r_lp_Energy>
35.8118

> <b_lp_Chiralities_Consistent>
1

> <s_lp_Variant>
AV-unprocessed.smi:101-1

> <Gold.Version>
5.8.1

> <Gold.Id.Protein>
6NUR|6NUR_protein|mol2

> <Gold.PLP.Fitness>
53.1770

> <Gold.PLP.PLP>
-45.7339

> <Gold.PLP.part.hbond>
-5.8417

> <Gold.PLP.part.metal>
0.0000

> <Gold.PLP.part.buried>
-3.2372

> <Gold.PLP.part.nonpolar>
-35.5206

> <Gold.PLP.part.repulsive>
0.1958

> <Gold.PLP.ligand.clash>
4.0447

> <Gold.PLP.ligand.torsion>
1.5914

> <Gold.PLP.Chemscore.Hbond>
4.5833

> <Gold.PLP.Chemscore.CHOScore>
0.2746

> <Gold.PLP.Chemscore.Metal>
0.0000

> <Gold.Chemscore.Hbonds>
donor molecule, donor type, donor heavy atom, donor atom, acceptor molecule, acceptor atom, score
      L1  H    19    42       P1  7957  0.80
      L1  H    21    44       P1  7948  1.00
      P1  H  6896  6909       L1    26  1.00
      P1  H  7989  7998       L1    19  0.50
      P1  H  7997  8009       L1    11  0.91
      L1  C     3    31       P1  7949  0.64

> <Gold.PLP.Chemscore.Internal.Correction>
0.0971

> <Gold.Rescore>
     Score         DG    S(hbond)    S(metal)    S(lipo)     H(rot)  DE(clash)    DE(int)     intcor
     15.35     -21.89       3.51        0.00     112.71       3.32       0.98       5.56       ----

> <Gold.Chemscore.Fitness>
15.3528

> <Gold.Chemscore.DG>
-21.8914

> <Gold.Chemscore.ZeroCoef>
-5.4800

> <Gold.Chemscore.Hbond>
3.5078

> <Gold.Chemscore.Metal>
0.0000

> <Gold.Chemscore.Lipo>
112.7126

> <Gold.Chemscore.Internal_Hbond>
0.0000

> <Gold.Chemscore.DEClash>
0.9758

> <Gold.Chemscore.DEInternal>
5.5628

> <Gold.Chemscore.Rot>
3.3172

> <Gold.Chemscore.Internal.Correction>
   9.000000E+99

> <Gold.Chemscore.Hbonds>
donor molecule, donor type, donor heavy atom, donor atom, acceptor molecule, acceptor atom, score
      L1  H    19    42       P1  7957  0.80
      L1  H    21    44       P1  7948  1.00
      P1  H  6896  6909       L1    26  0.78
      P1  H  7989  7998       L1    19  0.36
      P1  H  7997  8009       L1    11  0.85

> <Gold.Chemscore.Hbond.Weighted>
-11.7161

> <Gold.Chemscore.Metal.Weighted>
-0.0000

> <Gold.Chemscore.Lipo.Weighted>
-13.1874

> <Gold.Chemscore.Internal_Hbond.Weighted>
0.0000

> <Gold.Chemscore.DEClash.Weighted>
0.9758

> <Gold.Chemscore.DEInternal.Weighted>
5.5628

> <Gold.Chemscore.Rot.Weighted>
8.4920

> <Gold.Chemscore.Internal.Correction.Weighted>
   9.000000E+99

> <Gold.Protein.RotatedTorsions>
[ 6907 6896 6895 6894 ] final  -14.22 input  -60.11 | X-H torsion
[ 7974 7965 7964 7962 ] final  165.69 input  175.53 | X-H torsion
[ 8008 7997 7996 7995 ] final  153.90 input   59.86 | X-H torsion
[ 10167 10162 10161 10158 ] final  -57.99 input  -65.29 | X-H torsion
[ 10718 10713 10712 10709 ] final -177.93 input   66.30 | X-H torsion
[ 10763 10752 10751 10750 ] final   57.98 input  -60.55 | X-H torsion
[ 11005 11000 10999 10996 ] final  -25.97 input  -57.11 | X-H torsion

> <Gold.Protein.ActiveResidues>
 VAL166  LYS551  ARG553  GLY616  TRP617  ASP618  TYR619  PRO620  LYS621  CYS622 
 ASP623  PHE694  ASN695  SER759  ASP760  ASP761  ALA762  ILE779  LEU786  VAL792 
 PHE793  MET794  SER795  GLU796  ALA797  LYS798  CYS799  TRP800  GLU811  SER814 

> <Gold.Protein.RotatedAtoms>
  151.3427  135.0867  159.9376 H   0  0  0  0  0  0  0  0  0  0  0  0  # atno 6907 bound_to 6896
  152.5207  133.9431  159.7646 H   0  0  0  0  0  0  0  0  0  0  0  0  # atno 6908 bound_to 6896
  150.9791  133.6210  159.2755 H   0  0  0  0  0  0  0  0  0  0  0  0  # atno 6909 bound_to 6896
  144.7492  139.8507  143.6372 H   0  0  0  0  0  0  0  0  0  0  0  0  # atno 7974 bound_to 7965
  156.2558  140.1981  156.6562 H   0  0  0  0  0  0  0  0  0  0  0  0  # atno 8008 bound_to 7997
  154.6499  140.0573  156.9969 H   0  0  0  0  0  0  0  0  0  0  0  0  # atno 8009 bound_to 7997
  155.1434  140.3244  155.4450 H   0  0  0  0  0  0  0  0  0  0  0  0  # atno 8010 bound_to 7997
  140.6224  143.2425  151.5446 H   0  0  0  0  0  0  0  0  0  0  0  0  # atno 10167 bound_to 10162
  156.8368  130.9672  151.3103 H   0  0  0  0  0  0  0  0  0  0  0  0  # atno 10718 bound_to 10713
  152.9861  135.5622  154.5478 H   0  0  0  0  0  0  0  0  0  0  0  0  # atno 10763 bound_to 10752
  154.4921  135.2793  155.1490 H   0  0  0  0  0  0  0  0  0  0  0  0  # atno 10764 bound_to 10752
  154.2955  135.6317  153.5456 H   0  0  0  0  0  0  0  0  0  0  0  0  # atno 10765 bound_to 10752
  140.8986  133.7539  156.0514 H   0  0  0  0  0  0  0  0  0  0  0  0  # atno 11005 bound_to 11000
  146.1418  139.4477  143.0104 LP  0  0  0  0  0  0  0  0  0  0  0  0  # atno 17320 bound_to 7965
  145.7007  141.0137  143.1506 LP  0  0  0  0  0  0  0  0  0  0  0  0  # atno 17321 bound_to 7965
  139.5450  144.2544  152.1426 LP  0  0  0  0  0  0  0  0  0  0  0  0  # atno 17342 bound_to 10162
  140.1767  144.4883  150.6550 LP  0  0  0  0  0  0  0  0  0  0  0  0  # atno 17343 bound_to 10162
  157.6377  130.8780  149.9390 LP  0  0  0  0  0  0  0  0  0  0  0  0  # atno 17370 bound_to 10713
  156.0903  130.3664  150.0408 LP  0  0  0  0  0  0  0  0  0  0  0  0  # atno 17371 bound_to 10713
  140.8258  134.3236  157.5366 LP  0  0  0  0  0  0  0  0  0  0  0  0  # atno 17394 bound_to 11000
  139.8739  134.9335  156.3583 LP  0  0  0  0  0  0  0  0  0  0  0  0  # atno 17395 bound_to 11000

$$$$
