AV-unprocessed.smi:2873|AV-procd|sdf|11036|dock1
  -GOLD-   2272015503D 1   1.00000     0.00000
 Structure written by MMmdl.
 40 42  0  0  0  0  0  0  0  0  1 V2000
  145.6453  135.3248  150.6477 C   0  0  0  0  0  0  0  0  0  0  0  0
  145.2936  134.4753  151.8834 C   0  0  1  0  0  0  0  0  0  0  0  0
  145.3490  135.3773  153.1405 C   0  0  0  0  0  0  0  0  0  0  0  0
  146.6517  136.0120  153.3374 N   0  0  0  0  0  0  0  0  0  0  0  0
  146.9629  136.8820  154.3080 C   0  0  0  0  0  0  0  0  0  0  0  0
  146.1691  137.2506  155.1729 O   0  0  0  0  0  0  0  0  0  0  0  0
  148.2380  137.2903  154.1970 N   0  0  0  0  0  0  0  0  0  0  0  0
  148.9409  138.2309  154.9969 C   0  0  0  0  0  0  0  0  0  0  0  0
  148.6188  138.5740  156.3336 C   0  0  0  0  0  0  0  0  0  0  0  0
  149.3446  139.4764  157.0288 N   0  0  0  0  0  0  0  0  0  0  0  0
  150.3801  140.0376  156.3985 C   0  0  0  0  0  0  0  0  0  0  0  0
  151.1970  141.0157  157.1847 C   0  0  0  0  0  0  0  0  0  0  0  0
  150.5291  142.0891  158.0202 C   0  0  0  0  0  0  0  0  0  0  0  0
  151.2729  142.4713  156.7711 C   0  0  0  0  0  0  0  0  0  0  0  0
  150.7924  139.7742  155.1555 N   0  0  0  0  0  0  0  0  0  0  0  0
  150.0734  138.8728  154.4534 C   0  0  0  0  0  0  0  0  0  0  0  0
  143.9109  133.8117  151.6835 C   0  0  0  0  0  0  0  0  0  0  0  0
  144.1225  132.5056  150.9148 C   0  0  0  0  0  0  0  0  0  0  0  0
  145.3257  131.8200  151.5586 C   0  0  0  0  0  0  0  0  0  0  0  0
  146.5030  133.1180  152.0100 S   0  0  0  0  0  0  0  0  0  0  0  0
  144.9341  136.1402  150.5118 H   0  0  0  0  0  0  0  0  0  0  0  0
  145.6424  134.7302  149.7341 H   0  0  0  0  0  0  0  0  0  0  0  0
  146.6373  135.7679  150.7421 H   0  0  0  0  0  0  0  0  0  0  0  0
  144.6137  136.1777  153.0501 H   0  0  0  0  0  0  0  0  0  0  0  0
  145.0554  134.8032  154.0209 H   0  0  0  0  0  0  0  0  0  0  0  0
  147.3733  135.7663  152.6753 H   0  0  0  0  0  0  0  0  0  0  0  0
  148.7499  136.9300  153.4048 H   0  0  0  0  0  0  0  0  0  0  0  0
  147.7981  138.1278  156.8726 H   0  0  0  0  0  0  0  0  0  0  0  0
  152.0992  140.5517  157.5787 H   0  0  0  0  0  0  0  0  0  0  0  0
  149.4429  142.1512  157.9942 H   0  0  0  0  0  0  0  0  0  0  0  0
  150.9873  142.3403  158.9744 H   0  0  0  0  0  0  0  0  0  0  0  0
  152.2297  142.9755  156.8888 H   0  0  0  0  0  0  0  0  0  0  0  0
  150.6806  142.7891  155.9152 H   0  0  0  0  0  0  0  0  0  0  0  0
  150.4055  138.6651  153.4467 H   0  0  0  0  0  0  0  0  0  0  0  0
  143.4530  133.5644  152.6405 H   0  0  0  0  0  0  0  0  0  0  0  0
  143.2097  134.4715  151.1714 H   0  0  0  0  0  0  0  0  0  0  0  0
  143.2359  131.8714  150.9394 H   0  0  0  0  0  0  0  0  0  0  0  0
  144.3365  132.7212  149.8677 H   0  0  0  0  0  0  0  0  0  0  0  0
  145.0185  131.3067  152.4702 H   0  0  0  0  0  0  0  0  0  0  0  0
  145.7849  131.0841  150.8984 H   0  0  0  0  0  0  0  0  0  0  0  0
  1  2  1  0  0  0  0
  1 21  1  0  0  0  0
  1 22  1  0  0  0  0
  1 23  1  0  0  0  0
  2 20  1  0  0  0  0
  2  3  1  0  0  0  0
  2 17  1  0  0  0  0
  3  4  1  0  0  0  0
  3 24  1  0  0  0  0
  3 25  1  0  0  0  0
  4  5  1  0  0  0  0
  4 26  1  0  0  0  0
  5  6  2  0  0  0  0
  5  7  1  0  0  0  0
  7  8  1  0  0  0  0
  7 27  1  0  0  0  0
  8 16  1  0  0  0  0
  8  9  2  0  0  0  0
  9 10  1  0  0  0  0
  9 28  1  0  0  0  0
 10 11  2  0  0  0  0
 11 12  1  0  0  0  0
 11 15  1  0  0  0  0
 12 14  1  0  0  0  0
 12 13  1  0  0  0  0
 12 29  1  0  0  0  0
 13 14  1  0  0  0  0
 13 30  1  0  0  0  0
 13 31  1  0  0  0  0
 14 32  1  0  0  0  0
 14 33  1  0  0  0  0
 15 16  2  0  0  0  0
 16 34  1  0  0  0  0
 17 18  1  0  0  0  0
 17 35  1  0  0  0  0
 17 36  1  0  0  0  0
 18 19  1  0  0  0  0
 18 37  1  0  0  0  0
 18 38  1  0  0  0  0
 19 20  1  0  0  0  0
 19 39  1  0  0  0  0
 19 40  1  0  0  0  0
M  END
> <s_m_source_file>
AV-unprocessed.smi

> <i_m_source_file_index>
2873

> <i_lp_mmshare_version>
43012

> <i_f3d_flags>
0

> <s_epik_input>
UzFbQ0gyXVtDSDJdW0NIMl1bQ0BAXTEoW0NIM10pW0NIMl1bTkhdQyg9TylbTkhdYzJbY0hdbmMobltjSF0yKVtDSF0zW0NIMl1bQ0gyXTM=

> <s_epik_cmdline>
J2VwaWtfcHl0aG9uJywgJy1waCcsICc3LjAnLCAnLXRuJywgJzgnLCAnLW1hJywgJzIwMCcsICctbWV0YWxfYmluZGluZycsICctaW1hZScsICc8aW5maWxlLm1hZT4nLCAnLW9tYWUnLCAnPG91dGZpbGUubWFlPic=

> <r_lp_tautomer_probability>
1

> <r_epik_Ionization_Penalty>
2.48741e-05

> <r_epik_Ionization_Penalty_Charging>
0

> <r_epik_Ionization_Penalty_Neutral>
2.48741e-05

> <r_epik_State_Penalty>
-0

> <r_epik_Charging_Adjusted_Penalty>
0

> <i_epik_Tot_Q>
0

> <i_epik_Tot_abs_Q>
0

> <r_epik_Metal_State_Penalty>
-0

> <b_epik_Metal_Only>
0

> <s_lp_Force_Field>
OPLS_2005

> <r_lp_Energy>
13.0444

> <b_lp_Chiralities_Consistent>
1

> <s_lp_Variant>
AV-unprocessed.smi:2873-1

> <Gold.Version>
5.8.1

> <Gold.Id.Protein>
6NUR|6NUR_protein|mol2

> <Gold.PLP.Fitness>
41.3968

> <Gold.PLP.PLP>
-30.1250

> <Gold.PLP.part.hbond>
-3.0000

> <Gold.PLP.part.metal>
0.0000

> <Gold.PLP.part.buried>
-4.2346

> <Gold.PLP.part.nonpolar>
-23.8355

> <Gold.PLP.part.repulsive>
0.0837

> <Gold.PLP.ligand.clash>
0.0000

> <Gold.PLP.ligand.torsion>
0.3436

> <Gold.PLP.Chemscore.Hbond>
2.9440

> <Gold.PLP.Chemscore.CHOScore>
1.0000

> <Gold.PLP.Chemscore.Metal>
0.0000

> <Gold.Chemscore.Hbonds>
donor molecule, donor type, donor heavy atom, donor atom, acceptor molecule, acceptor atom, score
      L1  H     4    26       P1  7948  0.98
      L1  H     7    27       P1  7948  1.00
      P1  H  7989  7998       L1    15  0.65
      L1  C    16    34       P1  7957  0.38

> <Gold.PLP.Chemscore.Internal.Correction>
0.1270

> <Gold.Rescore>
     Score         DG    S(hbond)    S(metal)    S(lipo)     H(rot)  DE(clash)    DE(int)     intcor
     17.06     -18.36       2.27        0.00      74.76       1.35       0.11       1.19       ----

> <Gold.Chemscore.Fitness>
17.0612

> <Gold.Chemscore.DG>
-18.3640

> <Gold.Chemscore.ZeroCoef>
-5.4800

> <Gold.Chemscore.Hbond>
2.2735

> <Gold.Chemscore.Metal>
0.0000

> <Gold.Chemscore.Lipo>
74.7586

> <Gold.Chemscore.Internal_Hbond>
0.0000

> <Gold.Chemscore.DEClash>
0.1081

> <Gold.Chemscore.DEInternal>
1.1947

> <Gold.Chemscore.Rot>
1.3501

> <Gold.Chemscore.Internal.Correction>
   9.000000E+99

> <Gold.Chemscore.Hbonds>
donor molecule, donor type, donor heavy atom, donor atom, acceptor molecule, acceptor atom, score
      L1  H     4    26       P1  7948  0.93
      L1  H     7    27       P1  7948  0.99
      P1  H  7989  7998       L1    15  0.15

> <Gold.Chemscore.Hbond.Weighted>
-7.5935

> <Gold.Chemscore.Metal.Weighted>
-0.0000

> <Gold.Chemscore.Lipo.Weighted>
-8.7468

> <Gold.Chemscore.Internal_Hbond.Weighted>
0.0000

> <Gold.Chemscore.DEClash.Weighted>
0.1081

> <Gold.Chemscore.DEInternal.Weighted>
1.1947

> <Gold.Chemscore.Rot.Weighted>
3.4563

> <Gold.Chemscore.Internal.Correction.Weighted>
   9.000000E+99

> <Gold.Protein.RotatedTorsions>
[ 6907 6896 6895 6894 ] final  176.46 input  -60.11 | X-H torsion
[ 7974 7965 7964 7962 ] final -137.53 input  175.53 | X-H torsion
[ 8008 7997 7996 7995 ] final  139.72 input   59.86 | X-H torsion
[ 10167 10162 10161 10158 ] final   42.20 input  -65.29 | X-H torsion
[ 10718 10713 10712 10709 ] final   29.81 input   66.30 | X-H torsion
[ 10763 10752 10751 10750 ] final  141.68 input  -60.55 | X-H torsion
[ 11005 11000 10999 10996 ] final -159.60 input  -57.11 | X-H torsion

> <Gold.Protein.ActiveResidues>
 VAL166  LYS551  ARG553  GLY616  TRP617  ASP618  TYR619  PRO620  LYS621  CYS622 
 ASP623  PHE694  ASN695  SER759  ASP760  ASP761  ALA762  ILE779  LEU786  VAL792 
 PHE793  MET794  SER795  GLU796  ALA797  LYS798  CYS799  TRP800  GLU811  SER814 

> <Gold.Protein.RotatedAtoms>
  151.7198  133.3314  159.3312 H   0  0  0  0  0  0  0  0  0  0  0  0  # atno 6907 bound_to 6896
  150.7657  134.6458  159.6271 H   0  0  0  0  0  0  0  0  0  0  0  0  # atno 6908 bound_to 6896
  152.3659  134.6807  160.0244 H   0  0  0  0  0  0  0  0  0  0  0  0  # atno 6909 bound_to 6896
  144.8834  140.6539  143.5191 H   0  0  0  0  0  0  0  0  0  0  0  0  # atno 7974 bound_to 7965
  156.2987  140.2360  156.4283 H   0  0  0  0  0  0  0  0  0  0  0  0  # atno 8008 bound_to 7997
  154.8293  140.0434  157.1486 H   0  0  0  0  0  0  0  0  0  0  0  0  # atno 8009 bound_to 7997
  154.9226  140.3005  155.5212 H   0  0  0  0  0  0  0  0  0  0  0  0  # atno 8010 bound_to 7997
  140.3568  144.2280  150.6141 H   0  0  0  0  0  0  0  0  0  0  0  0  # atno 10167 bound_to 10162
  157.2514  130.7117  149.6407 H   0  0  0  0  0  0  0  0  0  0  0  0  # atno 10718 bound_to 10713
  153.9433  135.2977  155.3442 H   0  0  0  0  0  0  0  0  0  0  0  0  # atno 10763 bound_to 10752
  154.7465  135.5000  153.9217 H   0  0  0  0  0  0  0  0  0  0  0  0  # atno 10764 bound_to 10752
  153.1031  135.6739  153.9743 H   0  0  0  0  0  0  0  0  0  0  0  0  # atno 10765 bound_to 10752
  140.6408  134.4553  157.5233 H   0  0  0  0  0  0  0  0  0  0  0  0  # atno 11005 bound_to 11000
  145.3913  139.1616  143.4227 LP  0  0  0  0  0  0  0  0  0  0  0  0  # atno 17320 bound_to 7965
  146.3009  140.4003  142.8704 LP  0  0  0  0  0  0  0  0  0  0  0  0  # atno 17321 bound_to 7965
  140.5166  143.2276  151.8453 LP  0  0  0  0  0  0  0  0  0  0  0  0  # atno 17342 bound_to 10162
  139.4819  144.4887  151.9214 LP  0  0  0  0  0  0  0  0  0  0  0  0  # atno 17343 bound_to 10162
  155.9666  130.4426  150.5388 LP  0  0  0  0  0  0  0  0  0  0  0  0  # atno 17370 bound_to 10713
  157.3273  131.0693  151.1887 LP  0  0  0  0  0  0  0  0  0  0  0  0  # atno 17371 bound_to 10713
  139.9081  134.8405  156.1630 LP  0  0  0  0  0  0  0  0  0  0  0  0  # atno 17394 bound_to 11000
  141.0608  133.6842  156.1949 LP  0  0  0  0  0  0  0  0  0  0  0  0  # atno 17395 bound_to 11000

$$$$
