AV-unprocessed.smi:1795|AV-procd|sdf|7237|dock2
  -GOLD-   22720 8483D 1   1.00000     0.00000
 Structure written by MMmdl.
 47 48  0  0  0  0  0  0  0  0  1 V2000
  152.1509  138.3567  155.7671 C   0  0  0  0  0  0  0  0  0  0  0  0
  151.4348  137.8396  154.5073 C   0  0  2  0  0  0  0  0  0  0  0  0
  150.2011  138.6784  154.1183 C   0  0  0  0  0  0  0  0  0  0  0  0
  149.0461  138.4725  155.0003 N   0  0  0  0  0  0  0  0  0  0  0  0
  147.8681  139.2731  154.5901 C   0  0  2  0  0  0  0  0  0  0  0  0
  147.3795  138.9333  153.1583 C   0  0  0  0  0  0  0  0  0  0  0  0
  148.1060  140.8093  154.6889 C   0  0  0  0  0  0  0  0  0  0  0  0
  148.3421  141.2772  156.0517 N   0  0  0  0  0  0  0  0  0  0  0  0
  149.5299  141.6643  156.5399 C   0  0  0  0  0  0  0  0  0  0  0  0
  150.5594  141.6949  155.8646 O   0  0  0  0  0  0  0  0  0  0  0  0
  149.5440  142.0965  158.0126 C   0  0  0  0  0  0  0  0  0  0  0  0
  150.8600  142.5821  158.4597 N   0  0  0  0  0  0  0  0  0  0  0  0
  151.1403  143.9500  158.2680 C   0  0  0  0  0  0  0  0  0  0  0  0
  152.3094  144.4941  158.6411 C   0  0  0  0  0  0  0  0  0  0  0  0
  153.2958  143.6373  159.2552 C   0  0  0  0  0  0  0  0  0  0  0  0
  153.0398  142.3268  159.4396 C   0  0  0  0  0  0  0  0  0  0  0  0
  151.7638  141.7273  159.0318 C   0  0  0  0  0  0  0  0  0  0  0  0
  151.5215  140.5308  159.1948 O   0  0  0  0  0  0  0  0  0  0  0  0
  148.7668  137.0338  155.0455 C   0  0  0  0  0  0  0  0  0  0  0  0
  149.9834  136.2002  155.4871 C   0  0  1  0  0  0  0  0  0  0  0  0
  149.6955  134.6957  155.4439 C   0  0  0  0  0  0  0  0  0  0  0  0
  151.0829  136.4630  154.6221 O   0  0  0  0  0  0  0  0  0  0  0  0
  152.5212  139.3706  155.6133 H   0  0  0  0  0  0  0  0  0  0  0  0
  153.0057  137.7271  156.0143 H   0  0  0  0  0  0  0  0  0  0  0  0
  151.4909  138.3811  156.6340 H   0  0  0  0  0  0  0  0  0  0  0  0
  152.1519  137.9023  153.6883 H   0  0  0  0  0  0  0  0  0  0  0  0
  150.5092  139.7223  154.1180 H   0  0  0  0  0  0  0  0  0  0  0  0
  149.9188  138.4364  153.0926 H   0  0  0  0  0  0  0  0  0  0  0  0
  147.0488  139.0298  155.2686 H   0  0  0  0  0  0  0  0  0  0  0  0
  146.5446  139.5580  152.8425 H   0  0  0  0  0  0  0  0  0  0  0  0
  147.0091  137.9124  153.0787 H   0  0  0  0  0  0  0  0  0  0  0  0
  148.1793  139.0613  152.4281 H   0  0  0  0  0  0  0  0  0  0  0  0
  148.9628  141.1307  154.0986 H   0  0  0  0  0  0  0  0  0  0  0  0
  147.2415  141.3435  154.2934 H   0  0  0  0  0  0  0  0  0  0  0  0
  147.5462  141.2885  156.6730 H   0  0  0  0  0  0  0  0  0  0  0  0
  148.7826  142.8662  158.1465 H   0  0  0  0  0  0  0  0  0  0  0  0
  149.2226  141.2647  158.6426 H   0  0  0  0  0  0  0  0  0  0  0  0
  150.3533  144.5204  157.7964 H   0  0  0  0  0  0  0  0  0  0  0  0
  152.5084  145.5438  158.4828 H   0  0  0  0  0  0  0  0  0  0  0  0
  154.2450  144.0483  159.5664 H   0  0  0  0  0  0  0  0  0  0  0  0
  153.7908  141.7010  159.8990 H   0  0  0  0  0  0  0  0  0  0  0  0
  147.9698  136.8173  155.7530 H   0  0  0  0  0  0  0  0  0  0  0  0
  148.4235  136.6946  154.0667 H   0  0  0  0  0  0  0  0  0  0  0  0
  150.2538  136.4655  156.5096 H   0  0  0  0  0  0  0  0  0  0  0  0
  148.8663  134.4349  156.1024 H   0  0  0  0  0  0  0  0  0  0  0  0
  150.5663  134.1234  155.7643 H   0  0  0  0  0  0  0  0  0  0  0  0
  149.4371  134.3720  154.4353 H   0  0  0  0  0  0  0  0  0  0  0  0
  1  2  1  0  0  0  0
  1 23  1  0  0  0  0
  1 24  1  0  0  0  0
  1 25  1  0  0  0  0
  2 22  1  0  0  0  0
  2  3  1  0  0  0  0
  2 26  1  0  0  0  0
  3  4  1  0  0  0  0
  3 27  1  0  0  0  0
  3 28  1  0  0  0  0
  4  5  1  0  0  0  0
  4 19  1  0  0  0  0
  5  6  1  0  0  0  0
  5  7  1  0  0  0  0
  5 29  1  0  0  0  0
  6 30  1  0  0  0  0
  6 31  1  0  0  0  0
  6 32  1  0  0  0  0
  7  8  1  0  0  0  0
  7 33  1  0  0  0  0
  7 34  1  0  0  0  0
  8  9  1  0  0  0  0
  8 35  1  0  0  0  0
  9 10  2  0  0  0  0
  9 11  1  0  0  0  0
 11 12  1  0  0  0  0
 11 36  1  0  0  0  0
 11 37  1  0  0  0  0
 12 17  1  0  0  0  0
 12 13  1  0  0  0  0
 13 14  2  0  0  0  0
 13 38  1  0  0  0  0
 14 15  1  0  0  0  0
 14 39  1  0  0  0  0
 15 16  2  0  0  0  0
 15 40  1  0  0  0  0
 16 17  1  0  0  0  0
 16 41  1  0  0  0  0
 17 18  2  0  0  0  0
 19 20  1  0  0  0  0
 19 42  1  0  0  0  0
 19 43  1  0  0  0  0
 20 21  1  0  0  0  0
 20 22  1  0  0  0  0
 20 44  1  0  0  0  0
 21 45  1  0  0  0  0
 21 46  1  0  0  0  0
 21 47  1  0  0  0  0
M  END
> <s_m_source_file>
AV-unprocessed.smi

> <i_m_source_file_index>
1795

> <i_lp_mmshare_version>
43012

> <i_f3d_flags>
0

> <s_epik_input>
W0NIM11bQ0BASF0xW0NIMl1OKFtDSDJdW0NASF0oTzEpW0NIM10pW0NASF0oW0NIM10pW0NIMl1bTkhdQyg9TylbQ0gyXW4yW2NIXVtjSF1bY0hdW2NIXWMyPU8=

> <s_epik_cmdline>
J2VwaWtfcHl0aG9uJywgJy1waCcsICc3LjAnLCAnLXRuJywgJzgnLCAnLW1hJywgJzIwMCcsICctbWV0YWxfYmluZGluZycsICctaW1hZScsICc8aW5maWxlLm1hZT4nLCAnLW9tYWUnLCAnPG91dGZpbGUubWFlPic=

> <r_lp_tautomer_probability>
1

> <r_epik_Ionization_Penalty>
0.237383

> <r_epik_Ionization_Penalty_Charging>
3.58805e-07

> <r_epik_Ionization_Penalty_Neutral>
0.237382

> <r_epik_State_Penalty>
0.228245

> <r_epik_Charging_Adjusted_Penalty>
0.228245

> <i_epik_Tot_Q>
0

> <i_epik_Tot_abs_Q>
0

> <r_epik_Metal_State_Penalty>
0.228221

> <b_epik_Metal_Only>
0

> <s_lp_Force_Field>
OPLS_2005

> <r_lp_Energy>
40.3044

> <b_lp_Chiralities_Consistent>
1

> <s_lp_Variant>
AV-unprocessed.smi:1795-1

> <Gold.Version>
5.8.1

> <Gold.Id.Protein>
6NUR|6NUR_protein|mol2

> <Gold.PLP.Fitness>
44.4168

> <Gold.PLP.PLP>
-39.1489

> <Gold.PLP.part.hbond>
-1.0000

> <Gold.PLP.part.metal>
0.0000

> <Gold.PLP.part.buried>
-4.8416

> <Gold.PLP.part.nonpolar>
-33.3972

> <Gold.PLP.part.repulsive>
0.4976

> <Gold.PLP.ligand.clash>
0.0000

> <Gold.PLP.ligand.torsion>
0.5030

> <Gold.PLP.Chemscore.Hbond>
1.0000

> <Gold.PLP.Chemscore.CHOScore>
1.0662

> <Gold.PLP.Chemscore.Metal>
0.0000

> <Gold.Chemscore.Hbonds>
donor molecule, donor type, donor heavy atom, donor atom, acceptor molecule, acceptor atom, score
      P1  H 10752 10764       L1    22  0.93
      L1  C    13    38       P1  8028  0.92
      L1  C    13    38       P1  8029  0.05

> <Gold.PLP.Chemscore.Internal.Correction>
0.0754

> <Gold.Rescore>
     Score         DG    S(hbond)    S(metal)    S(lipo)     H(rot)  DE(clash)    DE(int)     intcor
     15.68     -16.17       0.88        0.00     106.23       1.83       0.02       0.47       ----

> <Gold.Chemscore.Fitness>
15.6815

> <Gold.Chemscore.DG>
-16.1733

> <Gold.Chemscore.ZeroCoef>
-5.4800

> <Gold.Chemscore.Hbond>
0.8793

> <Gold.Chemscore.Metal>
0.0000

> <Gold.Chemscore.Lipo>
106.2280

> <Gold.Chemscore.Internal_Hbond>
0.0000

> <Gold.Chemscore.DEClash>
0.0224

> <Gold.Chemscore.DEInternal>
0.4693

> <Gold.Chemscore.Rot>
1.8251

> <Gold.Chemscore.Internal.Correction>
   9.000000E+99

> <Gold.Chemscore.Hbonds>
donor molecule, donor type, donor heavy atom, donor atom, acceptor molecule, acceptor atom, score
      P1  H 10752 10764       L1    22  0.20

> <Gold.Chemscore.Hbond.Weighted>
-2.9370

> <Gold.Chemscore.Metal.Weighted>
-0.0000

> <Gold.Chemscore.Lipo.Weighted>
-12.4287

> <Gold.Chemscore.Internal_Hbond.Weighted>
0.0000

> <Gold.Chemscore.DEClash.Weighted>
0.0224

> <Gold.Chemscore.DEInternal.Weighted>
0.4693

> <Gold.Chemscore.Rot.Weighted>
4.6724

> <Gold.Chemscore.Internal.Correction.Weighted>
   9.000000E+99

> <Gold.Protein.RotatedTorsions>
[ 6907 6896 6895 6894 ] final   65.13 input  -60.11 | X-H torsion
[ 7974 7965 7964 7962 ] final -131.47 input  175.53 | X-H torsion
[ 8008 7997 7996 7995 ] final   80.34 input   59.86 | X-H torsion
[ 10167 10162 10161 10158 ] final  -11.82 input  -65.29 | X-H torsion
[ 10718 10713 10712 10709 ] final -129.30 input   66.30 | X-H torsion
[ 10763 10752 10751 10750 ] final  -75.56 input  -60.55 | X-H torsion
[ 11005 11000 10999 10996 ] final  167.62 input  -57.11 | X-H torsion

> <Gold.Protein.ActiveResidues>
 VAL166  LYS551  ARG553  GLY616  TRP617  ASP618  TYR619  PRO620  LYS621  CYS622 
 ASP623  PHE694  ASN695  SER759  ASP760  ASP761  ALA762  ILE779  LEU786  VAL792 
 PHE793  MET794  SER795  GLU796  ALA797  LYS798  CYS799  TRP800  GLU811  SER814 

> <Gold.Protein.RotatedAtoms>
  152.4384  134.5639  159.9901 H   0  0  0  0  0  0  0  0  0  0  0  0  # atno 6907 bound_to 6896
  151.5743  133.3380  159.3004 H   0  0  0  0  0  0  0  0  0  0  0  0  # atno 6908 bound_to 6896
  150.8286  134.7564  159.6899 H   0  0  0  0  0  0  0  0  0  0  0  0  # atno 6909 bound_to 6896
  144.9377  140.7202  143.4866 H   0  0  0  0  0  0  0  0  0  0  0  0  # atno 7974 bound_to 7965
  155.8821  140.3443  155.5895 H   0  0  0  0  0  0  0  0  0  0  0  0  # atno 8008 bound_to 7997
  155.7707  140.0845  157.2128 H   0  0  0  0  0  0  0  0  0  0  0  0  # atno 8009 bound_to 7997
  154.4025  140.1519  156.2926 H   0  0  0  0  0  0  0  0  0  0  0  0  # atno 8010 bound_to 7997
  140.7147  143.5599  150.9207 H   0  0  0  0  0  0  0  0  0  0  0  0  # atno 10167 bound_to 10162
  156.2034  130.6872  151.0565 H   0  0  0  0  0  0  0  0  0  0  0  0  # atno 10718 bound_to 10713
  154.4882  135.5827  153.6439 H   0  0  0  0  0  0  0  0  0  0  0  0  # atno 10763 bound_to 10752
  152.9858  135.6106  154.3159 H   0  0  0  0  0  0  0  0  0  0  0  0  # atno 10764 bound_to 10752
  154.3056  135.2846  155.2570 H   0  0  0  0  0  0  0  0  0  0  0  0  # atno 10765 bound_to 10752
  140.2787  134.7768  157.3739 H   0  0  0  0  0  0  0  0  0  0  0  0  # atno 11005 bound_to 11000
  145.3041  139.1840  143.4674 LP  0  0  0  0  0  0  0  0  0  0  0  0  # atno 17320 bound_to 7965
  146.3273  140.3036  142.8622 LP  0  0  0  0  0  0  0  0  0  0  0  0  # atno 17321 bound_to 7965
  139.9324  143.6477  152.3073 LP  0  0  0  0  0  0  0  0  0  0  0  0  # atno 17342 bound_to 10162
  139.6933  144.7644  151.1400 LP  0  0  0  0  0  0  0  0  0  0  0  0  # atno 17343 bound_to 10162
  157.6998  131.0780  150.6855 LP  0  0  0  0  0  0  0  0  0  0  0  0  # atno 17370 bound_to 10713
  156.6913  130.4596  149.5599 LP  0  0  0  0  0  0  0  0  0  0  0  0  # atno 17371 bound_to 10713
  140.1304  134.5103  155.8110 LP  0  0  0  0  0  0  0  0  0  0  0  0  # atno 17394 bound_to 11000
  141.2166  133.6788  156.7028 LP  0  0  0  0  0  0  0  0  0  0  0  0  # atno 17395 bound_to 11000

$$$$
