AV-unprocessed.smi:965|AV-procd|sdf|4281|dock1
  -GOLD-   22720 2183D 1   1.00000     0.00000
 Structure written by MMmdl.
 29 30  0  0  0  0  0  0  0  0  2 V2000
  152.9283  142.4989  159.2808 C   0  0  0  0  0  0  0  0  0  0  0  0
  152.6961  140.9847  159.2423 C   0  0  0  0  0  0  0  0  0  0  0  0
  152.2998  140.5031  157.8871 C   0  0  0  0  0  0  0  0  0  0  0  0
  151.2067  140.8355  157.2047 N   0  0  0  0  0  0  0  0  0  0  0  0
  151.4103  140.1612  156.0385 C   0  0  0  0  0  0  0  0  0  0  0  0
  150.4480  140.2060  154.8919 C   0  0  2  0  0  0  0  0  0  0  0  0
  149.2346  141.1076  155.1887 C   0  0  0  0  0  0  0  0  0  0  0  0
  148.2715  141.1203  153.9915 C   0  0  0  0  0  0  0  0  0  0  0  0
  147.8734  139.6899  153.5900 C   0  0  0  0  0  0  0  0  0  0  0  0
  149.0731  138.8735  153.3013 N   0  3  0  0  0  0  0  0  0  0  0  0
  150.0108  138.7966  154.4437 C   0  0  0  0  0  0  0  0  0  0  0  0
  152.5366  139.4626  155.9639 N   0  0  0  0  0  0  0  0  0  0  0  0
  153.1484  139.6988  157.2033 O   0  0  0  0  0  0  0  0  0  0  0  0
  153.2184  142.8224  160.2806 H   0  0  0  0  0  0  0  0  0  0  0  0
  152.0242  143.0418  159.0037 H   0  0  0  0  0  0  0  0  0  0  0  0
  153.7206  142.7933  158.5919 H   0  0  0  0  0  0  0  0  0  0  0  0
  153.6019  140.4609  159.5493 H   0  0  0  0  0  0  0  0  0  0  0  0
  151.9180  140.7089  159.9547 H   0  0  0  0  0  0  0  0  0  0  0  0
  150.9753  140.6553  154.0479 H   0  0  0  0  0  0  0  0  0  0  0  0
  148.7080  140.7447  156.0726 H   0  0  0  0  0  0  0  0  0  0  0  0
  149.5624  142.1229  155.4158 H   0  0  0  0  0  0  0  0  0  0  0  0
  147.3817  141.7014  154.2358 H   0  0  0  0  0  0  0  0  0  0  0  0
  148.7450  141.6205  153.1457 H   0  0  0  0  0  0  0  0  0  0  0  0
  147.2998  139.2169  154.3883 H   0  0  0  0  0  0  0  0  0  0  0  0
  147.2351  139.7090  152.7064 H   0  0  0  0  0  0  0  0  0  0  0  0
  148.7821  137.9385  153.0531 H   0  0  0  0  0  0  0  0  0  0  0  0
  150.8775  138.2038  154.1500 H   0  0  0  0  0  0  0  0  0  0  0  0
  149.5248  138.2662  155.2639 H   0  0  0  0  0  0  0  0  0  0  0  0
  149.5575  139.2831  152.5153 H   0  0  0  0  0  0  0  0  0  0  0  0
  1  2  1  0  0  0  0
  1 14  1  0  0  0  0
  1 15  1  0  0  0  0
  1 16  1  0  0  0  0
  2  3  1  0  0  0  0
  2 17  1  0  0  0  0
  2 18  1  0  0  0  0
  3 13  1  0  0  0  0
  3  4  2  0  0  0  0
  4  5  1  0  0  0  0
  5  6  1  0  0  0  0
  5 12  2  0  0  0  0
  6 11  1  0  0  0  0
  6  7  1  0  0  0  0
  6 19  1  0  0  0  0
  7  8  1  0  0  0  0
  7 20  1  0  0  0  0
  7 21  1  0  0  0  0
  8  9  1  0  0  0  0
  8 22  1  0  0  0  0
  8 23  1  0  0  0  0
  9 10  1  0  0  0  0
  9 24  1  0  0  0  0
  9 25  1  0  0  0  0
 10 11  1  0  0  0  0
 10 26  1  0  0  0  0
 10 29  1  0  0  0  0
 11 27  1  0  0  0  0
 11 28  1  0  0  0  0
 12 13  1  0  0  0  0
M  CHG  1  10   1
M  END
> <s_m_source_file>
AV-unprocessed.smi

> <i_m_source_file_index>
965

> <i_lp_mmshare_version>
43012

> <i_f3d_flags>
0

> <s_epik_input>
W0NIM11bQ0gyXWMxbmMobm8xKVtDQEBIXTJbQ0gyXVtDSDJdW0NIMl1bTkhdW0NIMl0y

> <s_epik_cmdline>
J2VwaWtfcHl0aG9uJywgJy1waCcsICc3LjAnLCAnLXRuJywgJzgnLCAnLW1hJywgJzIwMCcsICctbWV0YWxfYmluZGluZycsICctaW1hZScsICc8aW5maWxlLm1hZT4nLCAnLW9tYWUnLCAnPG91dGZpbGUubWFlPic=

> <r_lp_tautomer_probability>
1

> <r_epik_Ionization_Penalty>
0.000532935

> <r_epik_Ionization_Penalty_Charging>
0.000532935

> <r_epik_Ionization_Penalty_Neutral>
3.47051e-13

> <r_epik_State_Penalty>
0.000332992

> <r_epik_Charging_Adjusted_Penalty>
0.000865928

> <i_epik_Tot_Q>
1

> <i_epik_Tot_abs_Q>
1

> <r_epik_Metal_State_Penalty>
-0

> <b_epik_Metal_Only>
0

> <s_lp_Force_Field>
OPLS_2005

> <r_lp_Energy>
5.54084

> <b_lp_Chiralities_Consistent>
1

> <s_lp_Variant>
AV-unprocessed.smi:965-1

> <Gold.Version>
5.8.1

> <Gold.Id.Protein>
6NUR|6NUR_protein|mol2

> <Gold.PLP.Fitness>
37.7895

> <Gold.PLP.PLP>
-25.8696

> <Gold.PLP.part.hbond>
-3.8656

> <Gold.PLP.part.metal>
0.0000

> <Gold.PLP.part.buried>
-0.4587

> <Gold.PLP.part.nonpolar>
-21.7005

> <Gold.PLP.part.repulsive>
0.0997

> <Gold.PLP.ligand.clash>
0.0000

> <Gold.PLP.ligand.torsion>
0.0540

> <Gold.PLP.Chemscore.Hbond>
3.9920

> <Gold.PLP.Chemscore.CHOScore>
0.0000

> <Gold.PLP.Chemscore.Metal>
0.0000

> <Gold.Chemscore.Hbonds>
donor molecule, donor type, donor heavy atom, donor atom, acceptor molecule, acceptor atom, score
      L1  H    10    26       P1  7948  1.81
      L1  H    10    29       P1  7957  1.00
      P1  H  7997  8009       L1    13  0.83

> <Gold.PLP.Chemscore.Internal.Correction>
0.0519

> <Gold.Rescore>
     Score         DG    S(hbond)    S(metal)    S(lipo)     H(rot)  DE(clash)    DE(int)     intcor
     16.39     -16.85       2.58        0.00      50.57       1.24       0.03       0.43       ----

> <Gold.Chemscore.Fitness>
16.3929

> <Gold.Chemscore.DG>
-16.8465

> <Gold.Chemscore.ZeroCoef>
-5.4800

> <Gold.Chemscore.Hbond>
2.5813

> <Gold.Chemscore.Metal>
0.0000

> <Gold.Chemscore.Lipo>
50.5744

> <Gold.Chemscore.Internal_Hbond>
0.0000

> <Gold.Chemscore.DEClash>
0.0270

> <Gold.Chemscore.DEInternal>
0.4266

> <Gold.Chemscore.Rot>
1.2392

> <Gold.Chemscore.Internal.Correction>
   9.000000E+99

> <Gold.Chemscore.Hbonds>
donor molecule, donor type, donor heavy atom, donor atom, acceptor molecule, acceptor atom, score
      L1  H    10    26       P1  7948  0.81
      L1  H    10    29       P1  7957  0.91
      P1  H  7997  8009       L1    13  0.57

> <Gold.Chemscore.Hbond.Weighted>
-8.6216

> <Gold.Chemscore.Metal.Weighted>
-0.0000

> <Gold.Chemscore.Lipo.Weighted>
-5.9172

> <Gold.Chemscore.Internal_Hbond.Weighted>
0.0000

> <Gold.Chemscore.DEClash.Weighted>
0.0270

> <Gold.Chemscore.DEInternal.Weighted>
0.4266

> <Gold.Chemscore.Rot.Weighted>
3.1723

> <Gold.Chemscore.Internal.Correction.Weighted>
   9.000000E+99

> <Gold.Protein.RotatedTorsions>
[ 6907 6896 6895 6894 ] final  -30.61 input  -60.11 | X-H torsion
[ 7974 7965 7964 7962 ] final  -54.59 input  175.53 | X-H torsion
[ 8008 7997 7996 7995 ] final  153.98 input   59.86 | X-H torsion
[ 10167 10162 10161 10158 ] final  145.43 input  -65.29 | X-H torsion
[ 10718 10713 10712 10709 ] final  -53.09 input   66.30 | X-H torsion
[ 10763 10752 10751 10750 ] final -147.12 input  -60.55 | X-H torsion
[ 11005 11000 10999 10996 ] final -104.24 input  -57.11 | X-H torsion

> <Gold.Protein.ActiveResidues>
 VAL166  LYS551  ARG553  GLY616  TRP617  ASP618  TYR619  PRO620  LYS621  CYS622 
 ASP623  PHE694  ASN695  SER759  ASP760  ASP761  ALA762  ILE779  LEU786  VAL792 
 PHE793  MET794  SER795  GLU796  ALA797  LYS798  CYS799  TRP800  GLU811  SER814 

> <Gold.Protein.RotatedAtoms>
  151.1033  134.9984  159.8458 H   0  0  0  0  0  0  0  0  0  0  0  0  # atno 6907 bound_to 6896
  152.5438  134.1924  159.8689 H   0  0  0  0  0  0  0  0  0  0  0  0  # atno 6908 bound_to 6896
  151.1969  133.4589  159.2629 H   0  0  0  0  0  0  0  0  0  0  0  0  # atno 6909 bound_to 6896
  145.8838  140.8124  142.9826 H   0  0  0  0  0  0  0  0  0  0  0  0  # atno 7974 bound_to 7965
  156.2554  140.1979  156.6575 H   0  0  0  0  0  0  0  0  0  0  0  0  # atno 8008 bound_to 7997
  154.6490  140.0574  156.9958 H   0  0  0  0  0  0  0  0  0  0  0  0  # atno 8009 bound_to 7997
  155.1447  140.3246  155.4447 H   0  0  0  0  0  0  0  0  0  0  0  0  # atno 8010 bound_to 7997
  139.4926  144.5902  151.6696 H   0  0  0  0  0  0  0  0  0  0  0  0  # atno 10167 bound_to 10162
  156.1565  130.4150  149.9861 H   0  0  0  0  0  0  0  0  0  0  0  0  # atno 10718 bound_to 10713
  154.8302  135.3368  154.6768 H   0  0  0  0  0  0  0  0  0  0  0  0  # atno 10763 bound_to 10752
  153.7389  135.6947  153.4976 H   0  0  0  0  0  0  0  0  0  0  0  0  # atno 10764 bound_to 10752
  153.2258  135.4433  155.0492 H   0  0  0  0  0  0  0  0  0  0  0  0  # atno 10765 bound_to 10752
  141.1110  133.8706  157.1586 H   0  0  0  0  0  0  0  0  0  0  0  0  # atno 11005 bound_to 11000
  144.6728  140.1424  143.7436 LP  0  0  0  0  0  0  0  0  0  0  0  0  # atno 17320 bound_to 7965
  145.8992  139.2420  143.1504 LP  0  0  0  0  0  0  0  0  0  0  0  0  # atno 17321 bound_to 7965
  140.5527  144.0399  150.6134 LP  0  0  0  0  0  0  0  0  0  0  0  0  # atno 17342 bound_to 10162
  140.3458  143.2992  152.0540 LP  0  0  0  0  0  0  0  0  0  0  0  0  # atno 17343 bound_to 10162
  156.7703  130.9184  151.3644 LP  0  0  0  0  0  0  0  0  0  0  0  0  # atno 17370 bound_to 10713
  157.6699  130.9041  150.0016 LP  0  0  0  0  0  0  0  0  0  0  0  0  # atno 17371 bound_to 10713
  140.0003  135.0030  157.0176 LP  0  0  0  0  0  0  0  0  0  0  0  0  # atno 17394 bound_to 11000
  140.4776  134.1322  155.7212 LP  0  0  0  0  0  0  0  0  0  0  0  0  # atno 17395 bound_to 11000

$$$$
