AV-unprocessed.smi:55|AV-procd|sdf|562|dock2
  -GOLD-   2262016463D 1   1.00000     0.00000
 Structure written by MMmdl.
 31 32  0  0  0  0  0  0  0  0  1 V2000
  150.9686  144.7500  159.2124 C   0  0  0  0  0  0  0  0  0  0  0  0
  151.4760  143.3815  158.7889 C   0  0  0  0  0  0  0  0  0  0  0  0
  151.0187  142.7476  157.6791 C   0  0  0  0  0  0  0  0  0  0  0  0
  151.4617  141.4987  157.2661 N   0  0  0  0  0  0  0  0  0  0  0  0
  150.9078  140.8459  156.0200 C   0  0  1  0  0  0  0  0  0  0  0  0
  150.1921  139.5385  156.3624 C   0  0  0  0  0  0  0  0  0  0  0  0
  149.0122  139.5887  155.4149 C   0  0  1  0  0  0  0  0  0  0  0  0
  147.9390  138.8092  155.9016 O   0  0  0  0  0  0  0  0  0  0  0  0
  148.6860  141.0840  155.3901 C   0  0  2  0  0  0  0  0  0  0  0  0
  147.9378  141.5269  154.1237 C   0  0  0  0  0  0  0  0  0  0  0  0
  147.7765  142.9292  154.1229 O   0  0  0  0  0  0  0  0  0  0  0  0
  149.9718  141.7029  155.4335 O   0  0  0  0  0  0  0  0  0  0  0  0
  152.4306  140.8208  158.0352 C   0  0  0  0  0  0  0  0  0  0  0  0
  152.8544  139.7018  157.7484 O   0  0  0  0  0  0  0  0  0  0  0  0
  152.9032  141.4725  159.1732 N   0  0  0  0  0  0  0  0  0  0  0  0
  152.4932  142.7311  159.6196 C   0  0  0  0  0  0  0  0  0  0  0  0
  152.9855  143.2022  160.6434 O   0  0  0  0  0  0  0  0  0  0  0  0
  151.7249  140.7197  155.3082 H   0  0  0  0  0  0  0  0  0  0  0  0
  149.3124  139.2416  154.4249 H   0  0  0  0  0  0  0  0  0  0  0  0
  148.1267  141.3488  156.2896 H   0  0  0  0  0  0  0  0  0  0  0  0
  153.5992  140.9922  159.7246 H   0  0  0  0  0  0  0  0  0  0  0  0
  150.2309  145.1427  158.5120 H   0  0  0  0  0  0  0  0  0  0  0  0
  151.7921  145.4632  159.2637 H   0  0  0  0  0  0  0  0  0  0  0  0
  150.5004  144.6951  160.1958 H   0  0  0  0  0  0  0  0  0  0  0  0
  150.2644  143.2451  157.0888 H   0  0  0  0  0  0  0  0  0  0  0  0
  150.8447  138.6773  156.2156 H   0  0  0  0  0  0  0  0  0  0  0  0
  149.8584  139.5611  157.4016 H   0  0  0  0  0  0  0  0  0  0  0  0
  147.5516  139.2567  156.6386 H   0  0  0  0  0  0  0  0  0  0  0  0
  148.4571  141.2018  153.2216 H   0  0  0  0  0  0  0  0  0  0  0  0
  146.9415  141.0840  154.1021 H   0  0  0  0  0  0  0  0  0  0  0  0
  148.2824  143.2901  154.8348 H   0  0  0  0  0  0  0  0  0  0  0  0
  1  2  1  0  0  0  0
  1 22  1  0  0  0  0
  1 23  1  0  0  0  0
  1 24  1  0  0  0  0
  2 16  1  0  0  0  0
  2  3  2  0  0  0  0
  3  4  1  0  0  0  0
  3 25  1  0  0  0  0
  4  5  1  0  0  0  0
  4 13  1  0  0  0  0
  5 18  1  0  0  0  0
  5 12  1  0  0  0  0
  5  6  1  0  0  0  0
  6  7  1  0  0  0  0
  6 26  1  0  0  0  0
  6 27  1  0  0  0  0
  7 19  1  0  0  0  0
  7  8  1  0  0  0  0
  7  9  1  0  0  0  0
  8 28  1  0  0  0  0
  9 20  1  0  0  0  0
  9 10  1  0  0  0  0
  9 12  1  0  0  0  0
 10 11  1  0  0  0  0
 10 29  1  0  0  0  0
 10 30  1  0  0  0  0
 11 31  1  0  0  0  0
 13 14  2  0  0  0  0
 13 15  1  0  0  0  0
 15 21  1  0  0  0  0
 15 16  1  0  0  0  0
 16 17  2  0  0  0  0
M  END
> <s_m_source_file>
AV-unprocessed.smi

> <i_m_source_file_index>
55

> <i_lp_mmshare_version>
43012

> <i_f3d_flags>
0

> <s_epik_input>
Tz1jMVtuSF1jKD1PKW4oW2NIXWMxW0NIM10pW0NAQEhdMltDSDJdW0NAQEhdKFtPSF0pW0NAQEhdKE8yKVtDSDJdW09IXQ==

> <s_epik_cmdline>
J2VwaWtfcHl0aG9uJywgJy1waCcsICc3LjAnLCAnLXRuJywgJzgnLCAnLW1hJywgJzIwMCcsICctbWV0YWxfYmluZGluZycsICctaW1hZScsICc8aW5maWxlLm1hZT4nLCAnLW9tYWUnLCAnPG91dGZpbGUubWFlPic=

> <r_lp_tautomer_probability>
0.999537

> <r_epik_Ionization_Penalty>
0.00121888

> <r_epik_Ionization_Penalty_Charging>
0.00121876

> <r_epik_Ionization_Penalty_Neutral>
1.19946e-07

> <r_epik_State_Penalty>
0.000805124

> <r_epik_Charging_Adjusted_Penalty>
0.00202389

> <i_epik_Tot_Q>
0

> <i_epik_Tot_abs_Q>
0

> <r_epik_Metal_State_Penalty>
0.662472

> <b_epik_Metal_Only>
0

> <s_epik_Chemistry_Notes>
This compound contains an acetal/aminal-like group ( X-CH(R)-Y where X, Y are N, S, or O) that may be acid/base labile, releasing an aldehyde.

> <s_lp_Force_Field>
OPLS_2005

> <r_lp_Energy>
25.0544

> <b_lp_Chiralities_Consistent>
1

> <s_lp_Variant>
AV-unprocessed.smi:55-2

> <Gold.Version>
5.8.1

> <Gold.Id.Protein>
6NUR|6NUR_protein|mol2

> <Gold.PLP.Fitness>
37.3998

> <Gold.PLP.PLP>
-28.5813

> <Gold.PLP.part.hbond>
-4.1277

> <Gold.PLP.part.metal>
0.0000

> <Gold.PLP.part.buried>
-3.9086

> <Gold.PLP.part.nonpolar>
-21.3291

> <Gold.PLP.part.repulsive>
0.2215

> <Gold.PLP.ligand.clash>
0.0000

> <Gold.PLP.ligand.torsion>
0.0116

> <Gold.PLP.Chemscore.Hbond>
1.9440

> <Gold.PLP.Chemscore.CHOScore>
1.0000

> <Gold.PLP.Chemscore.Metal>
0.0000

> <Gold.Chemscore.Hbonds>
donor molecule, donor type, donor heavy atom, donor atom, acceptor molecule, acceptor atom, score
      L1  H    11    31       P1  8028  0.93
      P1  H  7997  8008       L1    14  1.00
      L1  C     3    25       P1  8028  1.00

> <Gold.PLP.Chemscore.Internal.Correction>
0.0096

> <Gold.Rescore>
     Score         DG    S(hbond)    S(metal)    S(lipo)     H(rot)  DE(clash)    DE(int)     intcor
      9.93     -10.10       1.87        0.00      45.69       2.73       0.05       0.13       ----

> <Gold.Chemscore.Fitness>
9.9267

> <Gold.Chemscore.DG>
-10.1021

> <Gold.Chemscore.ZeroCoef>
-5.4800

> <Gold.Chemscore.Hbond>
1.8721

> <Gold.Chemscore.Metal>
0.0000

> <Gold.Chemscore.Lipo>
45.6926

> <Gold.Chemscore.Internal_Hbond>
0.0000

> <Gold.Chemscore.DEClash>
0.0456

> <Gold.Chemscore.DEInternal>
0.1299

> <Gold.Chemscore.Rot>
2.7253

> <Gold.Chemscore.Internal.Correction>
   9.000000E+99

> <Gold.Chemscore.Hbonds>
donor molecule, donor type, donor heavy atom, donor atom, acceptor molecule, acceptor atom, score
      L1  H    11    31       P1  8028  0.88
      P1  H  7997  8008       L1    14  0.45

> <Gold.Chemscore.Hbond.Weighted>
-6.2529

> <Gold.Chemscore.Metal.Weighted>
-0.0000

> <Gold.Chemscore.Lipo.Weighted>
-5.3460

> <Gold.Chemscore.Internal_Hbond.Weighted>
0.0000

> <Gold.Chemscore.DEClash.Weighted>
0.0456

> <Gold.Chemscore.DEInternal.Weighted>
0.1299

> <Gold.Chemscore.Rot.Weighted>
6.9769

> <Gold.Chemscore.Internal.Correction.Weighted>
   9.000000E+99

> <Gold.Protein.RotatedTorsions>
[ 6907 6896 6895 6894 ] final -121.80 input  -60.11 | X-H torsion
[ 7974 7965 7964 7962 ] final -122.21 input  175.53 | X-H torsion
[ 8008 7997 7996 7995 ] final  -81.12 input   59.86 | X-H torsion
[ 10167 10162 10161 10158 ] final  109.68 input  -65.29 | X-H torsion
[ 10718 10713 10712 10709 ] final   71.21 input   66.30 | X-H torsion
[ 10763 10752 10751 10750 ] final -177.19 input  -60.55 | X-H torsion
[ 11005 11000 10999 10996 ] final   29.98 input  -57.11 | X-H torsion

> <Gold.Protein.ActiveResidues>
 VAL166  LYS551  ARG553  GLY616  TRP617  ASP618  TYR619  PRO620  LYS621  CYS622 
 ASP623  PHE694  ASN695  SER759  ASP760  ASP761  ALA762  ILE779  LEU786  VAL792 
 PHE793  MET794  SER795  GLU796  ALA797  LYS798  CYS799  TRP800  GLU811  SER814 

> <Gold.Protein.RotatedAtoms>
  150.8517  133.7777  159.3023 H   0  0  0  0  0  0  0  0  0  0  0  0  # atno 6907 bound_to 6896
  151.5447  135.1066  159.9944 H   0  0  0  0  0  0  0  0  0  0  0  0  # atno 6908 bound_to 6896
  152.4557  133.7676  159.6837 H   0  0  0  0  0  0  0  0  0  0  0  0  # atno 6909 bound_to 6896
  145.0319  140.8074  143.4318 H   0  0  0  0  0  0  0  0  0  0  0  0  # atno 7974 bound_to 7965
  154.5951  140.0652  156.9292 H   0  0  0  0  0  0  0  0  0  0  0  0  # atno 8008 bound_to 7997
  155.2228  140.3331  155.4295 H   0  0  0  0  0  0  0  0  0  0  0  0  # atno 8009 bound_to 7997
  156.2282  140.1828  156.7295 H   0  0  0  0  0  0  0  0  0  0  0  0  # atno 8010 bound_to 7997
  139.6747  144.7123  151.1623 H   0  0  0  0  0  0  0  0  0  0  0  0  # atno 10167 bound_to 10162
  157.6440  130.9517  150.0758 H   0  0  0  0  0  0  0  0  0  0  0  0  # atno 10718 bound_to 10713
  154.5631  135.2822  155.0900 H   0  0  0  0  0  0  0  0  0  0  0  0  # atno 10763 bound_to 10752
  154.2301  135.6375  153.5176 H   0  0  0  0  0  0  0  0  0  0  0  0  # atno 10764 bound_to 10752
  153.0035  135.5535  154.6232 H   0  0  0  0  0  0  0  0  0  0  0  0  # atno 10765 bound_to 10752
  140.2992  134.2776  155.7758 H   0  0  0  0  0  0  0  0  0  0  0  0  # atno 11005 bound_to 11000
  145.1760  139.2378  143.5317 LP  0  0  0  0  0  0  0  0  0  0  0  0  # atno 17320 bound_to 7965
  146.3499  140.1522  142.8592 LP  0  0  0  0  0  0  0  0  0  0  0  0  # atno 17321 bound_to 7965
  140.7631  143.5789  150.8915 LP  0  0  0  0  0  0  0  0  0  0  0  0  # atno 17342 bound_to 10162
  139.9457  143.6330  152.3042 LP  0  0  0  0  0  0  0  0  0  0  0  0  # atno 17343 bound_to 10162
  156.1749  130.3648  149.9115 LP  0  0  0  0  0  0  0  0  0  0  0  0  # atno 17370 bound_to 10713
  156.7081  130.8959  151.3606 LP  0  0  0  0  0  0  0  0  0  0  0  0  # atno 17371 bound_to 10713
  141.2131  133.7635  156.9741 LP  0  0  0  0  0  0  0  0  0  0  0  0  # atno 17394 bound_to 11000
  140.1125  134.9468  157.2086 LP  0  0  0  0  0  0  0  0  0  0  0  0  # atno 17395 bound_to 11000

$$$$
