AV-unprocessed.smi:739|AV-procd|sdf|3545|dock9
  -GOLD-   22720 0543D 1   1.00000     0.00000
 Structure written by MMmdl.
 33 35  0  0  0  0  0  0  0  0  2 V2000
  149.5331  142.2186  158.3026 O   0  0  0  0  0  0  0  0  0  0  0  0
  150.2122  142.5332  157.1021 C   0  0  1  0  0  0  0  0  0  0  0  0
  151.4332  143.4207  157.4143 C   0  0  0  0  0  0  0  0  0  0  0  0
  151.4118  143.9602  158.7801 N   0  0  0  0  0  0  0  0  0  0  0  0
  150.7171  145.0109  159.2948 C   0  0  0  0  0  0  0  0  0  0  0  0
  151.0416  145.1101  160.6141 N   0  3  0  0  0  0  0  0  0  0  0  0
  151.9571  144.1084  160.9460 C   0  0  0  0  0  0  0  0  0  0  0  0
  152.5770  143.8012  162.1531 C   0  0  0  0  0  0  0  0  0  0  0  0
  153.4663  142.7061  162.1499 C   0  0  0  0  0  0  0  0  0  0  0  0
  154.0955  142.3627  163.2985 F   0  0  0  0  0  0  0  0  0  0  0  0
  153.7120  141.9631  160.9754 C   0  0  0  0  0  0  0  0  0  0  0  0
  154.5733  140.9190  161.0161 F   0  0  0  0  0  0  0  0  0  0  0  0
  153.0781  142.2847  159.7571 C   0  0  0  0  0  0  0  0  0  0  0  0
  152.1998  143.3669  159.7710 C   0  0  0  0  0  0  0  0  0  0  0  0
  150.6186  141.2906  156.3260 C   0  0  0  0  0  0  0  0  0  0  0  0
  151.7710  140.5692  156.7057 C   0  0  0  0  0  0  0  0  0  0  0  0
  152.1497  139.4118  155.9979 C   0  0  0  0  0  0  0  0  0  0  0  0
  151.3766  138.9672  154.9082 C   0  0  0  0  0  0  0  0  0  0  0  0
  151.7411  137.8544  154.2286 F   0  0  0  0  0  0  0  0  0  0  0  0
  150.2234  139.6799  154.5273 C   0  0  0  0  0  0  0  0  0  0  0  0
  149.8448  140.8380  155.2341 C   0  0  0  0  0  0  0  0  0  0  0  0
  148.8609  141.5830  158.1081 H   0  0  0  0  0  0  0  0  0  0  0  0
  149.5100  143.1007  156.4902 H   0  0  0  0  0  0  0  0  0  0  0  0
  152.3573  142.8518  157.3019 H   0  0  0  0  0  0  0  0  0  0  0  0
  151.4981  144.2558  156.7155 H   0  0  0  0  0  0  0  0  0  0  0  0
  150.0355  145.6516  158.7535 H   0  0  0  0  0  0  0  0  0  0  0  0
  152.3921  144.3678  163.0539 H   0  0  0  0  0  0  0  0  0  0  0  0
  153.2735  141.7105  158.8638 H   0  0  0  0  0  0  0  0  0  0  0  0
  152.3697  140.8998  157.5420 H   0  0  0  0  0  0  0  0  0  0  0  0
  153.0331  138.8643  156.2918 H   0  0  0  0  0  0  0  0  0  0  0  0
  149.6284  139.3379  153.6935 H   0  0  0  0  0  0  0  0  0  0  0  0
  148.9566  141.3756  154.9359 H   0  0  0  0  0  0  0  0  0  0  0  0
  150.6642  145.8118  161.2383 H   0  0  0  0  0  0  0  0  0  0  0  0
  1  2  1  0  0  0  0
  1 22  1  0  0  0  0
  2  3  1  0  0  0  0
  2 15  1  0  0  0  0
  2 23  1  0  0  0  0
  3  4  1  0  0  0  0
  3 24  1  0  0  0  0
  3 25  1  0  0  0  0
  4 14  1  0  0  0  0
  4  5  1  0  0  0  0
  5  6  2  0  0  0  0
  5 26  1  0  0  0  0
  6  7  1  0  0  0  0
  6 33  1  0  0  0  0
  7 14  2  0  0  0  0
  7  8  1  0  0  0  0
  8  9  2  0  0  0  0
  8 27  1  0  0  0  0
  9 10  1  0  0  0  0
  9 11  1  0  0  0  0
 11 12  1  0  0  0  0
 11 13  2  0  0  0  0
 13 14  1  0  0  0  0
 13 28  1  0  0  0  0
 15 21  1  0  0  0  0
 15 16  2  0  0  0  0
 16 17  1  0  0  0  0
 16 29  1  0  0  0  0
 17 18  2  0  0  0  0
 17 30  1  0  0  0  0
 18 19  1  0  0  0  0
 18 20  1  0  0  0  0
 20 21  2  0  0  0  0
 20 31  1  0  0  0  0
 21 32  1  0  0  0  0
M  CHG  1   6   1
M  END
> <s_m_source_file>
AV-unprocessed.smi

> <i_m_source_file_index>
739

> <i_lp_mmshare_version>
43012

> <i_f3d_flags>
0

> <s_epik_input>
W2NIXTFbY0hdYyhGKVtjSF1bY0hdYzFbQ0BIXShbT0hdKVtDSDJdbihbY0hdbjIpYyhjMjMpW2NIXWMoRiljKEYpW2NIXTM=

> <s_epik_cmdline>
J2VwaWtfcHl0aG9uJywgJy1waCcsICc3LjAnLCAnLXRuJywgJzgnLCAnLW1hJywgJzIwMCcsICctbWV0YWxfYmluZGluZycsICctaW1hZScsICc8aW5maWxlLm1hZT4nLCAnLW9tYWUnLCAnPG91dGZpbGUubWFlPic=

> <r_epik_Ionization_Penalty>
2.16139

> <r_epik_Ionization_Penalty_Charging>
2.16138

> <r_epik_Ionization_Penalty_Neutral>
1.79538e-06

> <r_epik_State_Penalty>
2.30198

> <r_epik_Charging_Adjusted_Penalty>
4.46337

> <i_epik_Tot_Q>
1

> <i_epik_Tot_abs_Q>
1

> <r_epik_Metal_State_Penalty>
6.38245

> <b_epik_Metal_Only>
0

> <s_lp_Force_Field>
OPLS_2005

> <r_lp_Energy>
14.9103

> <b_lp_Chiralities_Consistent>
1

> <s_lp_Variant>
AV-unprocessed.smi:739-4

> <Gold.Version>
5.8.1

> <Gold.Id.Protein>
6NUR|6NUR_protein|mol2

> <Gold.PLP.Fitness>
57.1199

> <Gold.PLP.PLP>
-57.5381

> <Gold.PLP.part.hbond>
-0.9072

> <Gold.PLP.part.metal>
0.0000

> <Gold.PLP.part.buried>
-1.4165

> <Gold.PLP.part.nonpolar>
-55.2167

> <Gold.PLP.part.repulsive>
0.1649

> <Gold.PLP.ligand.clash>
0.0000

> <Gold.PLP.ligand.torsion>
1.4121

> <Gold.PLP.Chemscore.Hbond>
0.0000

> <Gold.PLP.Chemscore.CHOScore>
0.7950

> <Gold.PLP.Chemscore.Metal>
0.0000

> <Gold.Chemscore.Hbonds>
donor molecule, donor type, donor heavy atom, donor atom, acceptor molecule, acceptor atom, score
      L1  C     5    26       P1  8029  0.83

> <Gold.PLP.Chemscore.Internal.Correction>
0.0210

> <Gold.Rescore>
     Score         DG    S(hbond)    S(metal)    S(lipo)     H(rot)  DE(clash)    DE(int)     intcor
     12.73     -15.00       0.00        0.00     127.70       2.12       1.01       1.26       ----

> <Gold.Chemscore.Fitness>
12.7289

> <Gold.Chemscore.DG>
-15.0000

> <Gold.Chemscore.ZeroCoef>
-5.4800

> <Gold.Chemscore.Hbond>
0.0000

> <Gold.Chemscore.Metal>
0.0000

> <Gold.Chemscore.Lipo>
127.7016

> <Gold.Chemscore.Internal_Hbond>
0.0000

> <Gold.Chemscore.DEClash>
1.0104

> <Gold.Chemscore.DEInternal>
1.2607

> <Gold.Chemscore.Rot>
2.1176

> <Gold.Chemscore.Internal.Correction>
   9.000000E+99

> <Gold.Chemscore.Hbond.Weighted>
-0.0000

> <Gold.Chemscore.Metal.Weighted>
-0.0000

> <Gold.Chemscore.Lipo.Weighted>
-14.9411

> <Gold.Chemscore.Internal_Hbond.Weighted>
0.0000

> <Gold.Chemscore.DEClash.Weighted>
1.0104

> <Gold.Chemscore.DEInternal.Weighted>
1.2607

> <Gold.Chemscore.Rot.Weighted>
5.4211

> <Gold.Chemscore.Internal.Correction.Weighted>
   9.000000E+99

> <Gold.Protein.RotatedTorsions>
[ 6907 6896 6895 6894 ] final   60.92 input  -60.11 | X-H torsion
[ 7974 7965 7964 7962 ] final   37.74 input  175.53 | X-H torsion
[ 8008 7997 7996 7995 ] final -177.54 input   59.86 | X-H torsion
[ 10167 10162 10161 10158 ] final -148.45 input  -65.29 | X-H torsion
[ 10718 10713 10712 10709 ] final -139.21 input   66.30 | X-H torsion
[ 10763 10752 10751 10750 ] final   51.82 input  -60.55 | X-H torsion
[ 11005 11000 10999 10996 ] final  -24.15 input  -57.11 | X-H torsion

> <Gold.Protein.ActiveResidues>
 VAL166  LYS551  ARG553  GLY616  TRP617  ASP618  TYR619  PRO620  LYS621  CYS622 
 ASP623  PHE694  ASN695  SER759  ASP760  ASP761  ALA762  ILE779  LEU786  VAL792 
 PHE793  MET794  SER795  GLU796  ALA797  LYS798  CYS799  TRP800  GLU811  SER814 

> <Gold.Protein.RotatedAtoms>
  152.4045  134.6231  160.0055 H   0  0  0  0  0  0  0  0  0  0  0  0  # atno 6907 bound_to 6896
  151.6426  133.3319  159.3141 H   0  0  0  0  0  0  0  0  0  0  0  0  # atno 6908 bound_to 6896
  150.7941  134.7029  159.6605 H   0  0  0  0  0  0  0  0  0  0  0  0  # atno 6909 bound_to 6896
  146.1115  139.5857  142.9349 H   0  0  0  0  0  0  0  0  0  0  0  0  # atno 7974 bound_to 7965
  156.0082  140.1235  157.0481 H   0  0  0  0  0  0  0  0  0  0  0  0  # atno 8008 bound_to 7997
  154.4266  140.1093  156.5861 H   0  0  0  0  0  0  0  0  0  0  0  0  # atno 8009 bound_to 7997
  155.6118  140.3471  155.4627 H   0  0  0  0  0  0  0  0  0  0  0  0  # atno 8010 bound_to 7997
  139.7530  143.8489  152.2591 H   0  0  0  0  0  0  0  0  0  0  0  0  # atno 10167 bound_to 10162
  156.3082  130.7467  151.1536 H   0  0  0  0  0  0  0  0  0  0  0  0  # atno 10718 bound_to 10713
  152.9786  135.5833  154.4478 H   0  0  0  0  0  0  0  0  0  0  0  0  # atno 10763 bound_to 10752
  154.4071  135.2769  155.2062 H   0  0  0  0  0  0  0  0  0  0  0  0  # atno 10764 bound_to 10752
  154.3868  135.6134  153.5875 H   0  0  0  0  0  0  0  0  0  0  0  0  # atno 10765 bound_to 10752
  140.8818  133.7648  156.0312 H   0  0  0  0  0  0  0  0  0  0  0  0  # atno 11005 bound_to 11000
  145.5655  141.0400  143.2203 LP  0  0  0  0  0  0  0  0  0  0  0  0  # atno 17320 bound_to 7965
  144.7515  139.7181  143.7271 LP  0  0  0  0  0  0  0  0  0  0  0  0  # atno 17321 bound_to 7965
  139.8473  144.7181  150.9257 LP  0  0  0  0  0  0  0  0  0  0  0  0  # atno 17342 bound_to 10162
  140.7800  143.3930  151.1278 LP  0  0  0  0  0  0  0  0  0  0  0  0  # atno 17343 bound_to 10162
  157.7385  131.0540  150.5293 LP  0  0  0  0  0  0  0  0  0  0  0  0  # atno 17370 bound_to 10713
  156.5429  130.4212  149.6145 LP  0  0  0  0  0  0  0  0  0  0  0  0  # atno 17371 bound_to 10713
  140.8451  134.3020  157.5298 LP  0  0  0  0  0  0  0  0  0  0  0  0  # atno 17394 bound_to 11000
  139.8720  134.9437  156.3862 LP  0  0  0  0  0  0  0  0  0  0  0  0  # atno 17395 bound_to 11000

$$$$
