AV-unprocessed.smi:1959|AV-procd|sdf|7914|dock2
  -GOLD-   2272010 83D 1   1.00000     0.00000
 Structure written by MMmdl.
 45 46  0  0  0  0  0  0  0  0  2 V2000
  154.6541  140.8996  160.1451 C   0  0  0  0  0  0  0  0  0  0  0  0
  153.6913  141.9820  159.7555 C   0  0  0  0  0  0  0  0  0  0  0  0
  153.3067  143.1302  160.5030 C   0  0  0  0  0  0  0  0  0  0  0  0
  152.4196  143.7794  159.6916 C   0  0  0  0  0  0  0  0  0  0  0  0
  151.6669  145.0507  159.9086 C   0  0  0  0  0  0  0  0  0  0  0  0
  152.3071  143.0264  158.5366 N   0  0  0  0  0  0  0  0  0  0  0  0
  151.4973  143.2775  157.3534 C   0  0  0  0  0  0  0  0  0  0  0  0
  150.8772  141.9976  156.7806 C   0  0  0  0  0  0  0  0  0  0  0  0
  151.2834  140.8863  157.1230 O   0  0  0  0  0  0  0  0  0  0  0  0
  149.8662  142.1738  155.9151 N   0  0  0  0  0  0  0  0  0  0  0  0
  149.1122  141.1136  155.2450 C   0  0  2  0  0  0  0  0  0  0  0  0
  150.0936  140.1753  154.5303 C   0  0  0  0  0  0  0  0  0  0  0  0
  148.0778  141.7025  154.2583 C   0  0  0  0  0  0  0  0  0  0  0  0
  147.0309  142.5138  154.9298 N   0  3  0  0  0  0  0  0  0  0  0  0
  145.8797  142.8223  154.0499 C   0  0  0  0  0  0  0  0  0  0  0  0
  144.8756  143.7267  154.7847 C   0  0  0  0  0  0  0  0  0  0  0  0
  144.4553  143.0962  155.9885 O   0  0  0  0  0  0  0  0  0  0  0  0
  145.5418  142.8672  156.8781 C   0  0  0  0  0  0  0  0  0  0  0  0
  146.5635  141.9314  156.2112 C   0  0  0  0  0  0  0  0  0  0  0  0
  153.0877  141.9244  158.5795 N   0  0  0  0  0  0  0  0  0  0  0  0
  155.0310  141.0526  161.1564 H   0  0  0  0  0  0  0  0  0  0  0  0
  155.5113  140.8769  159.4719 H   0  0  0  0  0  0  0  0  0  0  0  0
  154.1780  139.9194  160.1137 H   0  0  0  0  0  0  0  0  0  0  0  0
  153.6344  143.4328  161.4866 H   0  0  0  0  0  0  0  0  0  0  0  0
  151.9499  145.5146  160.8535 H   0  0  0  0  0  0  0  0  0  0  0  0
  150.5928  144.8664  159.9341 H   0  0  0  0  0  0  0  0  0  0  0  0
  151.8716  145.7650  159.1109 H   0  0  0  0  0  0  0  0  0  0  0  0
  150.7012  143.9797  157.6053 H   0  0  0  0  0  0  0  0  0  0  0  0
  152.1194  143.7614  156.5996 H   0  0  0  0  0  0  0  0  0  0  0  0
  149.6024  143.1233  155.6932 H   0  0  0  0  0  0  0  0  0  0  0  0
  148.5928  140.5130  155.9933 H   0  0  0  0  0  0  0  0  0  0  0  0
  149.5671  139.3501  154.0498 H   0  0  0  0  0  0  0  0  0  0  0  0
  150.8069  139.7436  155.2333 H   0  0  0  0  0  0  0  0  0  0  0  0
  150.6602  140.7008  153.7608 H   0  0  0  0  0  0  0  0  0  0  0  0
  148.6129  142.3321  153.5455 H   0  0  0  0  0  0  0  0  0  0  0  0
  147.6084  140.9122  153.6702 H   0  0  0  0  0  0  0  0  0  0  0  0
  146.2272  143.3230  153.1455 H   0  0  0  0  0  0  0  0  0  0  0  0
  145.3951  141.8950  153.7397 H   0  0  0  0  0  0  0  0  0  0  0  0
  145.3168  144.7004  155.0048 H   0  0  0  0  0  0  0  0  0  0  0  0
  144.0031  143.9073  154.1568 H   0  0  0  0  0  0  0  0  0  0  0  0
  146.0058  143.8145  157.1584 H   0  0  0  0  0  0  0  0  0  0  0  0
  145.1602  142.4157  157.7939 H   0  0  0  0  0  0  0  0  0  0  0  0
  146.1111  140.9553  156.0291 H   0  0  0  0  0  0  0  0  0  0  0  0
  147.4045  141.7724  156.8856 H   0  0  0  0  0  0  0  0  0  0  0  0
  147.4601  143.4013  155.1518 H   0  0  0  0  0  0  0  0  0  0  0  0
  1  2  1  0  0  0  0
  1 21  1  0  0  0  0
  1 22  1  0  0  0  0
  1 23  1  0  0  0  0
  2 20  2  0  0  0  0
  2  3  1  0  0  0  0
  3  4  2  0  0  0  0
  3 24  1  0  0  0  0
  4  5  1  0  0  0  0
  4  6  1  0  0  0  0
  5 25  1  0  0  0  0
  5 26  1  0  0  0  0
  5 27  1  0  0  0  0
  6  7  1  0  0  0  0
  6 20  1  0  0  0  0
  7  8  1  0  0  0  0
  7 28  1  0  0  0  0
  7 29  1  0  0  0  0
  8  9  2  0  0  0  0
  8 10  1  0  0  0  0
 10 11  1  0  0  0  0
 10 30  1  0  0  0  0
 11 12  1  0  0  0  0
 11 13  1  0  0  0  0
 11 31  1  0  0  0  0
 12 32  1  0  0  0  0
 12 33  1  0  0  0  0
 12 34  1  0  0  0  0
 13 14  1  0  0  0  0
 13 35  1  0  0  0  0
 13 36  1  0  0  0  0
 14 19  1  0  0  0  0
 14 15  1  0  0  0  0
 14 45  1  0  0  0  0
 15 16  1  0  0  0  0
 15 37  1  0  0  0  0
 15 38  1  0  0  0  0
 16 17  1  0  0  0  0
 16 39  1  0  0  0  0
 16 40  1  0  0  0  0
 17 18  1  0  0  0  0
 18 19  1  0  0  0  0
 18 41  1  0  0  0  0
 18 42  1  0  0  0  0
 19 43  1  0  0  0  0
 19 44  1  0  0  0  0
M  CHG  1  14   1
M  END
> <s_m_source_file>
AV-unprocessed.smi

> <i_m_source_file_index>
1959

> <i_lp_mmshare_version>
43012

> <i_f3d_flags>
0

> <s_epik_input>
W0NIM11jMVtjSF1jKFtDSDNdKW4objEpW0NIMl1DKD1PKVtOSF1bQ0BIXShbQ0gzXSlbQ0gyXU4yW0NIMl1bQ0gyXU9bQ0gyXVtDSDJdMg==

> <s_epik_cmdline>
J2VwaWtfcHl0aG9uJywgJy1waCcsICc3LjAnLCAnLXRuJywgJzgnLCAnLW1hJywgJzIwMCcsICctbWV0YWxfYmluZGluZycsICctaW1hZScsICc8aW5maWxlLm1hZT4nLCAnLW9tYWUnLCAnPG91dGZpbGUubWFlPic=

> <r_lp_tautomer_probability>
1

> <r_epik_Ionization_Penalty>
0.748605

> <r_epik_Ionization_Penalty_Charging>
0.748396

> <r_epik_Ionization_Penalty_Neutral>
0.000208859

> <r_epik_State_Penalty>
0.775162

> <r_epik_Charging_Adjusted_Penalty>
1.52356

> <i_epik_Tot_Q>
1

> <i_epik_Tot_abs_Q>
1

> <r_epik_Metal_State_Penalty>
0.775281

> <b_epik_Metal_Only>
0

> <s_lp_Force_Field>
OPLS_2005

> <r_lp_Energy>
20.8934

> <b_lp_Chiralities_Consistent>
1

> <s_lp_Variant>
AV-unprocessed.smi:1959-3

> <Gold.Version>
5.8.1

> <Gold.Id.Protein>
6NUR|6NUR_protein|mol2

> <Gold.PLP.Fitness>
55.5290

> <Gold.PLP.PLP>
-47.7708

> <Gold.PLP.part.hbond>
-2.0000

> <Gold.PLP.part.metal>
0.0000

> <Gold.PLP.part.buried>
-6.7201

> <Gold.PLP.part.nonpolar>
-39.2914

> <Gold.PLP.part.repulsive>
0.4317

> <Gold.PLP.ligand.clash>
0.0000

> <Gold.PLP.ligand.torsion>
0.6638

> <Gold.PLP.Chemscore.Hbond>
3.0000

> <Gold.PLP.Chemscore.CHOScore>
0.0000

> <Gold.PLP.Chemscore.Metal>
0.0000

> <Gold.Chemscore.Hbonds>
donor molecule, donor type, donor heavy atom, donor atom, acceptor molecule, acceptor atom, score
      L1  H    10    30       P1  8028  1.00
      L1  H    14    45       P1  8028  1.60

> <Gold.PLP.Chemscore.Internal.Correction>
0.0859

> <Gold.Rescore>
     Score         DG    S(hbond)    S(metal)    S(lipo)     H(rot)  DE(clash)    DE(int)     intcor
     15.03     -18.06       1.51        0.00     103.09       1.77       0.13       2.89       ----

> <Gold.Chemscore.Fitness>
15.0310

> <Gold.Chemscore.DG>
-18.0557

> <Gold.Chemscore.ZeroCoef>
-5.4800

> <Gold.Chemscore.Hbond>
1.5138

> <Gold.Chemscore.Metal>
0.0000

> <Gold.Chemscore.Lipo>
103.0942

> <Gold.Chemscore.Internal_Hbond>
0.0000

> <Gold.Chemscore.DEClash>
0.1322

> <Gold.Chemscore.DEInternal>
2.8925

> <Gold.Chemscore.Rot>
1.7744

> <Gold.Chemscore.Internal.Correction>
   9.000000E+99

> <Gold.Chemscore.Hbonds>
donor molecule, donor type, donor heavy atom, donor atom, acceptor molecule, acceptor atom, score
      L1  H    10    30       P1  8028  1.00
      L1  H    14    45       P1  8028  0.12

> <Gold.Chemscore.Hbond.Weighted>
-5.0561

> <Gold.Chemscore.Metal.Weighted>
-0.0000

> <Gold.Chemscore.Lipo.Weighted>
-12.0620

> <Gold.Chemscore.Internal_Hbond.Weighted>
0.0000

> <Gold.Chemscore.DEClash.Weighted>
0.1322

> <Gold.Chemscore.DEInternal.Weighted>
2.8925

> <Gold.Chemscore.Rot.Weighted>
4.5424

> <Gold.Chemscore.Internal.Correction.Weighted>
   9.000000E+99

> <Gold.Protein.RotatedTorsions>
[ 6907 6896 6895 6894 ] final  168.88 input  -60.11 | X-H torsion
[ 7974 7965 7964 7962 ] final   39.84 input  175.53 | X-H torsion
[ 8008 7997 7996 7995 ] final   73.10 input   59.86 | X-H torsion
[ 10167 10162 10161 10158 ] final  -81.50 input  -65.29 | X-H torsion
[ 10718 10713 10712 10709 ] final  -73.92 input   66.30 | X-H torsion
[ 10763 10752 10751 10750 ] final  -14.59 input  -60.55 | X-H torsion
[ 11005 11000 10999 10996 ] final   89.15 input  -57.11 | X-H torsion

> <Gold.Protein.ActiveResidues>
 VAL166  LYS551  ARG553  GLY616  TRP617  ASP618  TYR619  PRO620  LYS621  CYS622 
 ASP623  PHE694  ASN695  SER759  ASP760  ASP761  ALA762  ILE779  LEU786  VAL792 
 PHE793  MET794  SER795  GLU796  ALA797  LYS798  CYS799  TRP800  GLU811  SER814 

> <Gold.Protein.RotatedAtoms>
  151.8406  133.3423  159.3641 H   0  0  0  0  0  0  0  0  0  0  0  0  # atno 6907 bound_to 6896
  150.7236  134.5395  159.5749 H   0  0  0  0  0  0  0  0  0  0  0  0  # atno 6908 bound_to 6896
  152.2868  134.7768  160.0437 H   0  0  0  0  0  0  0  0  0  0  0  0  # atno 6909 bound_to 6896
  146.0952  139.5603  142.9450 H   0  0  0  0  0  0  0  0  0  0  0  0  # atno 7974 bound_to 7965
  155.7787  140.3482  155.5285 H   0  0  0  0  0  0  0  0  0  0  0  0  # atno 8008 bound_to 7997
  155.8750  140.0993  157.1545 H   0  0  0  0  0  0  0  0  0  0  0  0  # atno 8009 bound_to 7997
  154.4020  140.1333  156.4113 H   0  0  0  0  0  0  0  0  0  0  0  0  # atno 8010 bound_to 7997
  140.4406  143.2516  151.8631 H   0  0  0  0  0  0  0  0  0  0  0  0  # atno 10167 bound_to 10162
  156.0262  130.4405  150.2814 H   0  0  0  0  0  0  0  0  0  0  0  0  # atno 10718 bound_to 10713
  153.5306  135.7014  153.5685 H   0  0  0  0  0  0  0  0  0  0  0  0  # atno 10763 bound_to 10752
  153.3694  135.3949  155.1777 H   0  0  0  0  0  0  0  0  0  0  0  0  # atno 10764 bound_to 10752
  154.8685  135.3808  154.4803 H   0  0  0  0  0  0  0  0  0  0  0  0  # atno 10765 bound_to 10752
  139.8881  134.8533  156.3101 H   0  0  0  0  0  0  0  0  0  0  0  0  # atno 11005 bound_to 11000
  145.5962  141.0362  143.2043 LP  0  0  0  0  0  0  0  0  0  0  0  0  # atno 17320 bound_to 7965
  144.7390  139.7503  143.7318 LP  0  0  0  0  0  0  0  0  0  0  0  0  # atno 17321 bound_to 7965
  139.4789  144.5233  151.8771 LP  0  0  0  0  0  0  0  0  0  0  0  0  # atno 17342 bound_to 10162
  140.4322  144.2100  150.5888 LP  0  0  0  0  0  0  0  0  0  0  0  0  # atno 17343 bound_to 10162
  157.0918  131.0171  151.3119 LP  0  0  0  0  0  0  0  0  0  0  0  0  # atno 17370 bound_to 10713
  157.4848  130.7787  149.7449 LP  0  0  0  0  0  0  0  0  0  0  0  0  # atno 17371 bound_to 10713
  140.9856  133.7240  156.0737 LP  0  0  0  0  0  0  0  0  0  0  0  0  # atno 17394 bound_to 11000
  140.7692  134.3851  157.5511 LP  0  0  0  0  0  0  0  0  0  0  0  0  # atno 17395 bound_to 11000

$$$$
