AV-unprocessed.smi:2846|AV-procd|sdf|10952|dock5
  -GOLD-   2272015403D 1   1.00000     0.00000
 Structure written by MMmdl.
 49 51  0  0  0  0  0  0  0  0  2 V2000
  150.4451  136.7703  158.9737 O   0  0  0  0  0  0  0  0  0  0  0  0
  149.3131  136.8115  158.4912 C   0  0  0  0  0  0  0  0  0  0  0  0
  148.3184  135.6729  158.7304 C   0  0  0  0  0  0  0  0  0  0  0  0
  147.9524  135.3920  160.1788 C   0  0  0  0  0  0  0  0  0  0  0  0
  148.1495  136.2981  161.1564 C   0  0  0  0  0  0  0  0  0  0  0  0
  147.7901  136.0701  162.6138 C   0  0  0  0  0  0  0  0  0  0  0  0
  146.8643  134.8568  162.8041 C   0  0  0  0  0  0  0  0  0  0  0  0
  147.3293  133.6663  161.9559 C   0  0  0  0  0  0  0  0  0  0  0  0
  147.3560  134.0176  160.4573 C   0  0  0  0  0  0  0  0  0  0  0  0
  148.8683  137.8322  157.7428 N   0  0  0  0  0  0  0  0  0  0  0  0
  149.6397  139.0216  157.3849 C   0  0  0  0  0  0  0  0  0  0  0  0
  149.8707  139.1726  155.8545 C   0  0  0  0  0  0  0  0  0  0  0  0
  148.5711  139.6275  155.1715 C   0  0  0  0  0  0  0  0  0  0  0  0
  148.5464  140.8177  154.4043 C   0  0  0  0  0  0  0  0  0  0  0  0
  147.3534  141.2155  153.7677 C   0  0  0  0  0  0  0  0  0  0  0  0
  146.2435  140.4564  153.8847 N   0  3  0  0  0  0  0  0  0  0  0  0
  146.2177  139.3078  154.5929 C   0  0  0  0  0  0  0  0  0  0  0  0
  147.3813  138.8612  155.2513 C   0  0  0  0  0  0  0  0  0  0  0  0
  151.0714  140.0952  155.5420 C   0  0  0  0  0  0  0  0  0  0  0  0
  152.3307  139.2530  155.7625 C   0  0  0  0  0  0  0  0  0  0  0  0
  151.9011  137.7998  155.5362 C   0  0  0  0  0  0  0  0  0  0  0  0
  150.3899  137.8399  155.2735 C   0  0  0  0  0  0  0  0  0  0  0  0
  147.4053  135.9225  158.1882 H   0  0  0  0  0  0  0  0  0  0  0  0
  148.6968  134.7560  158.2765 H   0  0  0  0  0  0  0  0  0  0  0  0
  148.5992  137.2515  160.9208 H   0  0  0  0  0  0  0  0  0  0  0  0
  148.7168  135.9289  163.1709 H   0  0  0  0  0  0  0  0  0  0  0  0
  147.3137  136.9663  163.0119 H   0  0  0  0  0  0  0  0  0  0  0  0
  146.8234  134.5804  163.8580 H   0  0  0  0  0  0  0  0  0  0  0  0
  145.8474  135.1256  162.5153 H   0  0  0  0  0  0  0  0  0  0  0  0
  148.3285  133.3686  162.2766 H   0  0  0  0  0  0  0  0  0  0  0  0
  146.6825  132.8048  162.1241 H   0  0  0  0  0  0  0  0  0  0  0  0
  146.3441  134.0013  160.0517 H   0  0  0  0  0  0  0  0  0  0  0  0
  147.9241  133.2585  159.9184 H   0  0  0  0  0  0  0  0  0  0  0  0
  147.9255  137.7773  157.3852 H   0  0  0  0  0  0  0  0  0  0  0  0
  149.1826  139.9177  157.8072 H   0  0  0  0  0  0  0  0  0  0  0  0
  150.6037  138.9267  157.8859 H   0  0  0  0  0  0  0  0  0  0  0  0
  149.4326  141.4254  154.2965 H   0  0  0  0  0  0  0  0  0  0  0  0
  147.2559  142.1096  153.1693 H   0  0  0  0  0  0  0  0  0  0  0  0
  145.2745  138.7815  154.6083 H   0  0  0  0  0  0  0  0  0  0  0  0
  147.3478  137.9338  155.8036 H   0  0  0  0  0  0  0  0  0  0  0  0
  151.0487  140.3764  154.4877 H   0  0  0  0  0  0  0  0  0  0  0  0
  151.0819  141.0224  156.1140 H   0  0  0  0  0  0  0  0  0  0  0  0
  153.1383  139.5529  155.0941 H   0  0  0  0  0  0  0  0  0  0  0  0
  152.6903  139.3780  156.7847 H   0  0  0  0  0  0  0  0  0  0  0  0
  152.4346  137.3443  154.7012 H   0  0  0  0  0  0  0  0  0  0  0  0
  152.1185  137.2056  156.4246 H   0  0  0  0  0  0  0  0  0  0  0  0
  149.8762  136.9637  155.6708 H   0  0  0  0  0  0  0  0  0  0  0  0
  150.2398  137.8332  154.1924 H   0  0  0  0  0  0  0  0  0  0  0  0
  145.3905  140.7611  153.4149 H   0  0  0  0  0  0  0  0  0  0  0  0
  1  2  2  0  0  0  0
  2  3  1  0  0  0  0
  2 10  1  0  0  0  0
  3  4  1  0  0  0  0
  3 23  1  0  0  0  0
  3 24  1  0  0  0  0
  4  9  1  0  0  0  0
  4  5  2  0  0  0  0
  5  6  1  0  0  0  0
  5 25  1  0  0  0  0
  6  7  1  0  0  0  0
  6 26  1  0  0  0  0
  6 27  1  0  0  0  0
  7  8  1  0  0  0  0
  7 28  1  0  0  0  0
  7 29  1  0  0  0  0
  8  9  1  0  0  0  0
  8 30  1  0  0  0  0
  8 31  1  0  0  0  0
  9 32  1  0  0  0  0
  9 33  1  0  0  0  0
 10 11  1  0  0  0  0
 10 34  1  0  0  0  0
 11 12  1  0  0  0  0
 11 35  1  0  0  0  0
 11 36  1  0  0  0  0
 12 22  1  0  0  0  0
 12 13  1  0  0  0  0
 12 19  1  0  0  0  0
 13 18  1  0  0  0  0
 13 14  2  0  0  0  0
 14 15  1  0  0  0  0
 14 37  1  0  0  0  0
 15 16  2  0  0  0  0
 15 38  1  0  0  0  0
 16 17  1  0  0  0  0
 16 49  1  0  0  0  0
 17 18  2  0  0  0  0
 17 39  1  0  0  0  0
 18 40  1  0  0  0  0
 19 20  1  0  0  0  0
 19 41  1  0  0  0  0
 19 42  1  0  0  0  0
 20 21  1  0  0  0  0
 20 43  1  0  0  0  0
 20 44  1  0  0  0  0
 21 22  1  0  0  0  0
 21 45  1  0  0  0  0
 21 46  1  0  0  0  0
 22 47  1  0  0  0  0
 22 48  1  0  0  0  0
M  CHG  1  16   1
M  END
> <s_m_source_file>
AV-unprocessed.smi

> <i_m_source_file_index>
2846

> <i_lp_mmshare_version>
43012

> <i_f3d_flags>
0

> <s_epik_input>
W0NIMl0xW0NIMl1bQ0gyXVtDSDJdW0NIXT1DMVtDSDJdQyg9TylbTkhdW0NIMl1DMihbQ0gyXVtDSDJdW0NIMl1bQ0gyXTIpYzNbY0hdW2NIXW5bY0hdW2NIXTM=

> <s_epik_cmdline>
J2VwaWtfcHl0aG9uJywgJy1waCcsICc3LjAnLCAnLXRuJywgJzgnLCAnLW1hJywgJzIwMCcsICctbWV0YWxfYmluZGluZycsICctaW1hZScsICc8aW5maWxlLm1hZT4nLCAnLW9tYWUnLCAnPG91dGZpbGUubWFlPic=

> <r_epik_Ionization_Penalty>
1.37043

> <r_epik_Ionization_Penalty_Charging>
1.37043

> <r_epik_Ionization_Penalty_Neutral>
1.66368e-08

> <r_epik_State_Penalty>
1.45009

> <r_epik_Charging_Adjusted_Penalty>
2.82052

> <i_epik_Tot_Q>
1

> <i_epik_Tot_abs_Q>
1

> <r_epik_Metal_State_Penalty>
1.50668

> <b_epik_Metal_Only>
0

> <s_lp_Force_Field>
OPLS_2005

> <r_lp_Energy>
37.4584

> <b_lp_Chiralities_Consistent>
1

> <s_lp_Variant>
AV-unprocessed.smi:2846-2

> <Gold.Version>
5.8.1

> <Gold.Id.Protein>
6NUR|6NUR_protein|mol2

> <Gold.PLP.Fitness>
46.7008

> <Gold.PLP.PLP>
-38.5635

> <Gold.PLP.part.hbond>
-2.0000

> <Gold.PLP.part.metal>
0.0000

> <Gold.PLP.part.buried>
-5.4294

> <Gold.PLP.part.nonpolar>
-33.0007

> <Gold.PLP.part.repulsive>
0.0675

> <Gold.PLP.ligand.clash>
0.0000

> <Gold.PLP.ligand.torsion>
0.4881

> <Gold.PLP.Chemscore.Hbond>
3.0000

> <Gold.PLP.Chemscore.CHOScore>
0.0000

> <Gold.PLP.Chemscore.Metal>
0.0000

> <Gold.Chemscore.Hbonds>
donor molecule, donor type, donor heavy atom, donor atom, acceptor molecule, acceptor atom, score
      L1  H    16    49       P1 10175  2.00
      P1  H  6896  6907       L1     1  1.00

> <Gold.PLP.Chemscore.Internal.Correction>
0.1136

> <Gold.Rescore>
     Score         DG    S(hbond)    S(metal)    S(lipo)     H(rot)  DE(clash)    DE(int)     intcor
     19.78     -20.36       1.96        0.00     103.14       1.46       0.03       0.55       ----

> <Gold.Chemscore.Fitness>
19.7823

> <Gold.Chemscore.DG>
-20.3593

> <Gold.Chemscore.ZeroCoef>
-5.4800

> <Gold.Chemscore.Hbond>
1.9630

> <Gold.Chemscore.Metal>
0.0000

> <Gold.Chemscore.Lipo>
103.1361

> <Gold.Chemscore.Internal_Hbond>
0.0000

> <Gold.Chemscore.DEClash>
0.0278

> <Gold.Chemscore.DEInternal>
0.5492

> <Gold.Chemscore.Rot>
1.4625

> <Gold.Chemscore.Internal.Correction>
   9.000000E+99

> <Gold.Chemscore.Hbonds>
donor molecule, donor type, donor heavy atom, donor atom, acceptor molecule, acceptor atom, score
      L1  H    16    49       P1 10175  0.83
      P1  H  6896  6907       L1     1  0.85

> <Gold.Chemscore.Hbond.Weighted>
-6.5565

> <Gold.Chemscore.Metal.Weighted>
-0.0000

> <Gold.Chemscore.Lipo.Weighted>
-12.0669

> <Gold.Chemscore.Internal_Hbond.Weighted>
0.0000

> <Gold.Chemscore.DEClash.Weighted>
0.0278

> <Gold.Chemscore.DEInternal.Weighted>
0.5492

> <Gold.Chemscore.Rot.Weighted>
3.7441

> <Gold.Chemscore.Internal.Correction.Weighted>
   9.000000E+99

> <Gold.Protein.RotatedTorsions>
[ 6907 6896 6895 6894 ] final  -39.39 input  -60.11 | X-H torsion
[ 7974 7965 7964 7962 ] final  164.29 input  175.53 | X-H torsion
[ 8008 7997 7996 7995 ] final -116.64 input   59.86 | X-H torsion
[ 10167 10162 10161 10158 ] final -111.64 input  -65.29 | X-H torsion
[ 10718 10713 10712 10709 ] final -106.99 input   66.30 | X-H torsion
[ 10763 10752 10751 10750 ] final  -31.41 input  -60.55 | X-H torsion
[ 11005 11000 10999 10996 ] final   65.90 input  -57.11 | X-H torsion

> <Gold.Protein.ActiveResidues>
 VAL166  LYS551  ARG553  GLY616  TRP617  ASP618  TYR619  PRO620  LYS621  CYS622 
 ASP623  PHE694  ASN695  SER759  ASP760  ASP761  ALA762  ILE779  LEU786  VAL792 
 PHE793  MET794  SER795  GLU796  ALA797  LYS798  CYS799  TRP800  GLU811  SER814 

> <Gold.Protein.RotatedAtoms>
  150.9910  134.9244  159.7899 H   0  0  0  0  0  0  0  0  0  0  0  0  # atno 6907 bound_to 6896
  152.5251  134.3282  159.9183 H   0  0  0  0  0  0  0  0  0  0  0  0  # atno 6908 bound_to 6896
  151.3288  133.3968  159.2695 H   0  0  0  0  0  0  0  0  0  0  0  0  # atno 6909 bound_to 6896
  144.7552  139.8304  143.6352 H   0  0  0  0  0  0  0  0  0  0  0  0  # atno 7974 bound_to 7965
  155.0711  140.0393  157.2608 H   0  0  0  0  0  0  0  0  0  0  0  0  # atno 8008 bound_to 7997
  154.6982  140.2668  155.6721 H   0  0  0  0  0  0  0  0  0  0  0  0  # atno 8009 bound_to 7997
  156.2751  140.2746  156.1584 H   0  0  0  0  0  0  0  0  0  0  0  0  # atno 8010 bound_to 7997
  140.1314  143.4357  152.1625 H   0  0  0  0  0  0  0  0  0  0  0  0  # atno 10167 bound_to 10162
  156.0416  130.5640  150.7759 H   0  0  0  0  0  0  0  0  0  0  0  0  # atno 10718 bound_to 10713
  153.7968  135.6893  153.4862 H   0  0  0  0  0  0  0  0  0  0  0  0  # atno 10763 bound_to 10752
  153.1714  135.4541  154.9905 H   0  0  0  0  0  0  0  0  0  0  0  0  # atno 10764 bound_to 10752
  154.8022  135.3342  154.7460 H   0  0  0  0  0  0  0  0  0  0  0  0  # atno 10765 bound_to 10752
  139.9865  134.6659  156.0167 H   0  0  0  0  0  0  0  0  0  0  0  0  # atno 11005 bound_to 11000
  146.1552  139.4648  143.0023 LP  0  0  0  0  0  0  0  0  0  0  0  0  # atno 17320 bound_to 7965
  145.6805  141.0192  143.1609 LP  0  0  0  0  0  0  0  0  0  0  0  0  # atno 17321 bound_to 7965
  139.5518  144.7343  151.4413 LP  0  0  0  0  0  0  0  0  0  0  0  0  # atno 17342 bound_to 10162
  140.6815  143.8072  150.7127 LP  0  0  0  0  0  0  0  0  0  0  0  0  # atno 17343 bound_to 10162
  157.5240  131.0933  151.0042 LP  0  0  0  0  0  0  0  0  0  0  0  0  # atno 17370 bound_to 10713
  157.0365  130.5732  149.5350 LP  0  0  0  0  0  0  0  0  0  0  0  0  # atno 17371 bound_to 10713
  141.1529  133.6546  156.4070 LP  0  0  0  0  0  0  0  0  0  0  0  0  # atno 17394 bound_to 11000
  140.4992  134.6502  157.5242 LP  0  0  0  0  0  0  0  0  0  0  0  0  # atno 17395 bound_to 11000

$$$$
