AV-unprocessed.smi:2046|AV-procd|sdf|8314|dock2
  -GOLD-   2272010583D 1   1.00000     0.00000
 Structure written by MMmdl.
 29 30  0  0  0  0  0  0  0  0  2 V2000
  151.0697  139.9498  158.2768 O   0  0  0  0  0  0  0  0  0  0  0  0
  152.2747  140.1115  158.4841 C   0  0  0  0  0  0  0  0  0  0  0  0
  153.2565  139.2125  158.2450 N   0  5  0  0  0  0  0  0  0  0  0  0
  153.5041  138.2375  159.1351 C   0  0  0  0  0  0  0  0  0  0  0  0
  153.4242  136.9355  158.8166 N   0  0  0  0  0  0  0  0  0  0  0  0
  153.7148  136.0941  159.8822 N   0  0  0  0  0  0  0  0  0  0  0  0
  153.9998  136.7869  160.9845 C   0  0  0  0  0  0  0  0  0  0  0  0
  153.9346  138.5292  160.8227 S   0  0  0  0  0  0  0  0  0  0  0  0
  152.7168  141.2731  158.9904 N   0  0  0  0  0  0  0  0  0  0  0  0
  151.8955  142.4376  159.3342 C   0  0  1  0  0  0  0  0  0  0  0  0
  152.8526  143.5797  159.7469 C   0  0  0  0  0  0  0  0  0  0  0  0
  152.1949  144.6538  160.6314 C   0  0  0  0  0  0  0  0  0  0  0  0
  151.0742  145.4577  159.9542 C   0  0  0  0  0  0  0  0  0  0  0  0
  149.8692  144.6015  159.5284 C   0  0  0  0  0  0  0  0  0  0  0  0
  150.1314  143.8600  158.3022 N   0  0  0  0  0  0  0  0  0  0  0  0
  151.0475  142.8962  158.1240 C   0  0  0  0  0  0  0  0  0  0  0  0
  151.2102  142.3942  157.0119 O   0  0  0  0  0  0  0  0  0  0  0  0
  154.2459  136.2691  161.8994 H   0  0  0  0  0  0  0  0  0  0  0  0
  153.7115  141.3616  159.1379 H   0  0  0  0  0  0  0  0  0  0  0  0
  151.2449  142.1742  160.1700 H   0  0  0  0  0  0  0  0  0  0  0  0
  153.6808  143.1592  160.3196 H   0  0  0  0  0  0  0  0  0  0  0  0
  153.3109  144.0411  158.8701 H   0  0  0  0  0  0  0  0  0  0  0  0
  151.8084  144.1875  161.5385 H   0  0  0  0  0  0  0  0  0  0  0  0
  152.9673  145.3490  160.9623 H   0  0  0  0  0  0  0  0  0  0  0  0
  150.7276  146.2141  160.6588 H   0  0  0  0  0  0  0  0  0  0  0  0
  151.4679  146.0058  159.0973 H   0  0  0  0  0  0  0  0  0  0  0  0
  149.5604  143.9259  160.3273 H   0  0  0  0  0  0  0  0  0  0  0  0
  149.0179  145.2534  159.3320 H   0  0  0  0  0  0  0  0  0  0  0  0
  149.5859  144.1254  157.4952 H   0  0  0  0  0  0  0  0  0  0  0  0
  1  2  2  0  0  0  0
  2  3  1  0  0  0  0
  2  9  1  0  0  0  0
  3  4  1  0  0  0  0
  4  8  1  0  0  0  0
  4  5  2  0  0  0  0
  5  6  1  0  0  0  0
  6  7  2  0  0  0  0
  7  8  1  0  0  0  0
  7 18  1  0  0  0  0
  9 10  1  0  0  0  0
  9 19  1  0  0  0  0
 10 16  1  0  0  0  0
 10 11  1  0  0  0  0
 10 20  1  0  0  0  0
 11 12  1  0  0  0  0
 11 21  1  0  0  0  0
 11 22  1  0  0  0  0
 12 13  1  0  0  0  0
 12 23  1  0  0  0  0
 12 24  1  0  0  0  0
 13 14  1  0  0  0  0
 13 25  1  0  0  0  0
 13 26  1  0  0  0  0
 14 15  1  0  0  0  0
 14 27  1  0  0  0  0
 14 28  1  0  0  0  0
 15 16  1  0  0  0  0
 15 29  1  0  0  0  0
 16 17  2  0  0  0  0
M  CHG  1   3  -1
M  END
> <s_m_source_file>
AV-unprocessed.smi

> <i_m_source_file_index>
2046

> <i_lp_mmshare_version>
43012

> <i_f3d_flags>
0

> <s_epik_input>
czFbY0hdbm5jMVtOSF1DKD1PKVtOSF1bQ0BASF0yW0NIMl1bQ0gyXVtDSDJdW0NIMl1bTkhdQzI9Tw==

> <s_epik_cmdline>
J2VwaWtfcHl0aG9uJywgJy1waCcsICc3LjAnLCAnLXRuJywgJzgnLCAnLW1hJywgJzIwMCcsICctbWV0YWxfYmluZGluZycsICctaW1hZScsICc8aW5maWxlLm1hZT4nLCAnLW9tYWUnLCAnPG91dGZpbGUubWFlPic=

> <r_lp_tautomer_probability>
1

> <r_epik_Ionization_Penalty>
4.05949

> <r_epik_Ionization_Penalty_Charging>
4.01916

> <r_epik_Ionization_Penalty_Neutral>
0.0403285

> <r_epik_State_Penalty>
4.01849

> <r_epik_Charging_Adjusted_Penalty>
8.03765

> <i_epik_Tot_Q>
-1

> <i_epik_Tot_abs_Q>
1

> <r_epik_Metal_State_Penalty>
0.626741

> <b_epik_Metal_Only>
1

> <s_lp_Force_Field>
OPLS_2005

> <r_lp_Energy>
8.7811

> <b_lp_Chiralities_Consistent>
1

> <s_lp_Variant>
AV-unprocessed.smi:2046-4

> <Gold.Version>
5.8.1

> <Gold.Id.Protein>
6NUR|6NUR_protein|mol2

> <Gold.PLP.Fitness>
37.5593

> <Gold.PLP.PLP>
-28.1724

> <Gold.PLP.part.hbond>
-3.4012

> <Gold.PLP.part.metal>
0.0000

> <Gold.PLP.part.buried>
-4.7856

> <Gold.PLP.part.nonpolar>
-20.5725

> <Gold.PLP.part.repulsive>
0.2330

> <Gold.PLP.ligand.clash>
0.0000

> <Gold.PLP.ligand.torsion>
1.3092

> <Gold.PLP.Chemscore.Hbond>
4.0000

> <Gold.PLP.Chemscore.CHOScore>
0.0000

> <Gold.PLP.Chemscore.Metal>
0.0000

> <Gold.Chemscore.Hbonds>
donor molecule, donor type, donor heavy atom, donor atom, acceptor molecule, acceptor atom, score
      L1  H    15    29       P1  8028  1.00
      P1  H  6896  6909       L1     6  1.00
      P1  H  7997  8009       L1     3  2.00

> <Gold.PLP.Chemscore.Internal.Correction>
0.0053

> <Gold.Rescore>
     Score         DG    S(hbond)    S(metal)    S(lipo)     H(rot)  DE(clash)    DE(int)     intcor
     12.44     -17.74       2.27        0.00      61.80       1.00       0.23       5.07       ----

> <Gold.Chemscore.Fitness>
12.4390

> <Gold.Chemscore.DG>
-17.7446

> <Gold.Chemscore.ZeroCoef>
-5.4800

> <Gold.Chemscore.Hbond>
2.2735

> <Gold.Chemscore.Metal>
0.0000

> <Gold.Chemscore.Lipo>
61.8032

> <Gold.Chemscore.Internal_Hbond>
0.0000

> <Gold.Chemscore.DEClash>
0.2317

> <Gold.Chemscore.DEInternal>
5.0739

> <Gold.Chemscore.Rot>
1.0000

> <Gold.Chemscore.Internal.Correction>
   9.000000E+99

> <Gold.Chemscore.Hbonds>
donor molecule, donor type, donor heavy atom, donor atom, acceptor molecule, acceptor atom, score
      L1  H    15    29       P1  8028  0.24
      P1  H  6896  6909       L1     6  0.66
      P1  H  7997  8009       L1     3  0.68

> <Gold.Chemscore.Hbond.Weighted>
-7.5936

> <Gold.Chemscore.Metal.Weighted>
-0.0000

> <Gold.Chemscore.Lipo.Weighted>
-7.2310

> <Gold.Chemscore.Internal_Hbond.Weighted>
0.0000

> <Gold.Chemscore.DEClash.Weighted>
0.2317

> <Gold.Chemscore.DEInternal.Weighted>
5.0739

> <Gold.Chemscore.Rot.Weighted>
2.5600

> <Gold.Chemscore.Internal.Correction.Weighted>
   9.000000E+99

> <Gold.Protein.RotatedTorsions>
[ 6907 6896 6895 6894 ] final  171.34 input  -60.11 | X-H torsion
[ 7974 7965 7964 7962 ] final  -86.07 input  175.53 | X-H torsion
[ 8008 7997 7996 7995 ] final  154.93 input   59.86 | X-H torsion
[ 10167 10162 10161 10158 ] final -106.93 input  -65.29 | X-H torsion
[ 10718 10713 10712 10709 ] final   46.44 input   66.30 | X-H torsion
[ 10763 10752 10751 10750 ] final  -77.16 input  -60.55 | X-H torsion
[ 11005 11000 10999 10996 ] final   38.77 input  -57.11 | X-H torsion

> <Gold.Protein.ActiveResidues>
 VAL166  LYS551  ARG553  GLY616  TRP617  ASP618  TYR619  PRO620  LYS621  CYS622 
 ASP623  PHE694  ASN695  SER759  ASP760  ASP761  ALA762  ILE779  LEU786  VAL792 
 PHE793  MET794  SER795  GLU796  ALA797  LYS798  CYS799  TRP800  GLU811  SER814 

> <Gold.Protein.RotatedAtoms>
  151.8017  133.3371  159.3528 H   0  0  0  0  0  0  0  0  0  0  0  0  # atno 6907 bound_to 6896
  150.7356  134.5747  159.5917 H   0  0  0  0  0  0  0  0  0  0  0  0  # atno 6908 bound_to 6896
  152.3138  134.7466  160.0381 H   0  0  0  0  0  0  0  0  0  0  0  0  # atno 6909 bound_to 6896
  145.4848  140.9555  143.1844 H   0  0  0  0  0  0  0  0  0  0  0  0  # atno 7974 bound_to 7965
  156.2505  140.1953  156.6723 H   0  0  0  0  0  0  0  0  0  0  0  0  # atno 8008 bound_to 7997
  154.6383  140.0587  156.9841 H   0  0  0  0  0  0  0  0  0  0  0  0  # atno 8009 bound_to 7997
  155.1602  140.3259  155.4415 H   0  0  0  0  0  0  0  0  0  0  0  0  # atno 8010 bound_to 7997
  140.1824  143.3956  152.1271 H   0  0  0  0  0  0  0  0  0  0  0  0  # atno 10167 bound_to 10162
  157.4481  130.8121  149.7761 H   0  0  0  0  0  0  0  0  0  0  0  0  # atno 10718 bound_to 10713
  154.5093  135.5773  153.6592 H   0  0  0  0  0  0  0  0  0  0  0  0  # atno 10763 bound_to 10752
  152.9894  135.6155  154.2900 H   0  0  0  0  0  0  0  0  0  0  0  0  # atno 10764 bound_to 10752
  154.2813  135.2851  155.2675 H   0  0  0  0  0  0  0  0  0  0  0  0  # atno 10765 bound_to 10752
  140.2093  134.3775  155.8057 H   0  0  0  0  0  0  0  0  0  0  0  0  # atno 11005 bound_to 11000
  144.7868  139.6411  143.7131 LP  0  0  0  0  0  0  0  0  0  0  0  0  # atno 17320 bound_to 7965
  146.2319  139.5831  142.9549 LP  0  0  0  0  0  0  0  0  0  0  0  0  # atno 17321 bound_to 7965
  139.5290  144.7137  151.5123 LP  0  0  0  0  0  0  0  0  0  0  0  0  # atno 17342 bound_to 10162
  140.6511  143.8695  150.6786 LP  0  0  0  0  0  0  0  0  0  0  0  0  # atno 17343 bound_to 10162
  155.9975  130.3899  150.2736 LP  0  0  0  0  0  0  0  0  0  0  0  0  # atno 17370 bound_to 10713
  157.0905  131.0168  151.3123 LP  0  0  0  0  0  0  0  0  0  0  0  0  # atno 17371 bound_to 10713
  141.2226  133.7134  156.8391 LP  0  0  0  0  0  0  0  0  0  0  0  0  # atno 17394 bound_to 11000
  140.1968  134.8926  157.3124 LP  0  0  0  0  0  0  0  0  0  0  0  0  # atno 17395 bound_to 11000

$$$$
