AV-unprocessed.smi:2010|AV-procd|sdf|8152|dock5
  -GOLD-   2272010393D 1   1.00000     0.00000
 Structure written by MMmdl.
 40 41  0  0  0  0  0  0  0  0  2 V2000
  150.7985  145.3167  160.8126 C   0  0  0  0  0  0  0  0  0  0  0  0
  151.9482  144.4154  160.3412 C   0  0  0  0  0  0  0  0  0  0  0  0
  151.7062  143.8890  158.9180 C   0  0  0  0  0  0  0  0  0  0  0  0
  152.8466  142.9642  158.4545 C   0  0  0  0  0  0  0  0  0  0  0  0
  153.0813  141.8606  159.4096 N   0  0  0  0  0  0  0  0  0  0  0  0
  152.3601  140.3023  159.1076 S   0  0  0  0  0  0  0  0  0  0  0  0
  152.9762  139.3745  160.0702 O   0  0  0  0  0  0  0  0  0  0  0  0
  150.9027  140.4947  159.1819 O   0  0  0  0  0  0  0  0  0  0  0  0
  152.8960  140.1150  157.5897 N   0  5  0  0  0  0  0  0  0  0  0  0
  151.9581  139.9489  156.4903 C   0  0  1  0  0  0  0  0  0  0  0  0
  151.2722  138.5815  156.6358 C   0  0  0  0  0  0  0  0  0  0  0  0
  150.9540  141.1347  156.4428 C   0  0  0  0  0  0  0  0  0  0  0  0
  149.8789  141.0089  155.4602 N   0  0  0  0  0  0  0  0  0  0  0  0
  148.7122  141.7421  155.3553 C   0  0  0  0  0  0  0  0  0  0  0  0
  148.0107  141.2504  154.2922 C   0  0  0  0  0  0  0  0  0  0  0  0
  148.8278  140.1906  153.8104 C   0  0  0  0  0  0  0  0  0  0  0  0
  149.9343  140.0379  154.5181 N   0  0  0  0  0  0  0  0  0  0  0  0
  153.2971  142.3065  160.8020 C   0  0  0  0  0  0  0  0  0  0  0  0
  152.1621  143.2258  161.2907 C   0  0  0  0  0  0  0  0  0  0  0  0
  149.8544  144.7716  160.8382 H   0  0  0  0  0  0  0  0  0  0  0  0
  150.6717  146.1714  160.1479 H   0  0  0  0  0  0  0  0  0  0  0  0
  150.9880  145.7026  161.8145 H   0  0  0  0  0  0  0  0  0  0  0  0
  152.8606  145.0130  160.3327 H   0  0  0  0  0  0  0  0  0  0  0  0
  150.7554  143.3577  158.8769 H   0  0  0  0  0  0  0  0  0  0  0  0
  151.6141  144.7244  158.2234 H   0  0  0  0  0  0  0  0  0  0  0  0
  152.6295  142.5673  157.4632 H   0  0  0  0  0  0  0  0  0  0  0  0
  153.7678  143.5400  158.3608 H   0  0  0  0  0  0  0  0  0  0  0  0
  152.4843  139.9346  155.5352 H   0  0  0  0  0  0  0  0  0  0  0  0
  150.5349  138.4291  155.8476 H   0  0  0  0  0  0  0  0  0  0  0  0
  150.7624  138.4819  157.5946 H   0  0  0  0  0  0  0  0  0  0  0  0
  151.9984  137.7710  156.5656 H   0  0  0  0  0  0  0  0  0  0  0  0
  150.5108  141.2978  157.4256 H   0  0  0  0  0  0  0  0  0  0  0  0
  151.4982  142.0519  156.2153 H   0  0  0  0  0  0  0  0  0  0  0  0
  148.4869  142.5503  156.0354 H   0  0  0  0  0  0  0  0  0  0  0  0
  147.0588  141.5947  153.9171 H   0  0  0  0  0  0  0  0  0  0  0  0
  148.6490  139.5283  152.9764 H   0  0  0  0  0  0  0  0  0  0  0  0
  153.3981  141.4458  161.4626 H   0  0  0  0  0  0  0  0  0  0  0  0
  154.2451  142.8426  160.8478 H   0  0  0  0  0  0  0  0  0  0  0  0
  152.3976  143.5885  162.2914 H   0  0  0  0  0  0  0  0  0  0  0  0
  151.2378  142.6558  161.3870 H   0  0  0  0  0  0  0  0  0  0  0  0
  1  2  1  0  0  0  0
  1 20  1  0  0  0  0
  1 21  1  0  0  0  0
  1 22  1  0  0  0  0
  2 19  1  0  0  0  0
  2  3  1  0  0  0  0
  2 23  1  0  0  0  0
  3  4  1  0  0  0  0
  3 24  1  0  0  0  0
  3 25  1  0  0  0  0
  4  5  1  0  0  0  0
  4 26  1  0  0  0  0
  4 27  1  0  0  0  0
  5  6  1  0  0  0  0
  5 18  1  0  0  0  0
  6  7  2  0  0  0  0
  6  8  2  0  0  0  0
  6  9  1  0  0  0  0
  9 10  1  0  0  0  0
 10 11  1  0  0  0  0
 10 12  1  0  0  0  0
 10 28  1  0  0  0  0
 11 29  1  0  0  0  0
 11 30  1  0  0  0  0
 11 31  1  0  0  0  0
 12 13  1  0  0  0  0
 12 32  1  0  0  0  0
 12 33  1  0  0  0  0
 13 17  1  0  0  0  0
 13 14  1  0  0  0  0
 14 15  2  0  0  0  0
 14 34  1  0  0  0  0
 15 16  1  0  0  0  0
 15 35  1  0  0  0  0
 16 17  2  0  0  0  0
 16 36  1  0  0  0  0
 18 19  1  0  0  0  0
 18 37  1  0  0  0  0
 18 38  1  0  0  0  0
 19 39  1  0  0  0  0
 19 40  1  0  0  0  0
M  CHG  1   9  -1
M  END
> <s_m_source_file>
AV-unprocessed.smi

> <i_m_source_file_index>
2010

> <i_lp_mmshare_version>
43012

> <i_f3d_flags>
0

> <s_epik_input>
W0NIM11bQ0hdMVtDSDJdW0NIMl1OKFtDSDJdW0NIMl0xKVMoPU8pKD1PKVtOSF1bQ0BIXShbQ0gzXSlbQ0gyXW4yW2NIXVtjSF1bY0hdbjI=

> <s_epik_cmdline>
J2VwaWtfcHl0aG9uJywgJy1waCcsICc3LjAnLCAnLXRuJywgJzgnLCAnLW1hJywgJzIwMCcsICctbWV0YWxfYmluZGluZycsICctaW1hZScsICc8aW5maWxlLm1hZT4nLCAnLW9tYWUnLCAnPG91dGZpbGUubWFlPic=

> <r_lp_tautomer_probability>
1

> <r_epik_Ionization_Penalty>
1.75622

> <r_epik_Ionization_Penalty_Charging>
1.7562

> <r_epik_Ionization_Penalty_Neutral>
2.39925e-05

> <r_epik_State_Penalty>
1.86645

> <r_epik_Charging_Adjusted_Penalty>
3.62264

> <i_epik_Tot_Q>
-1

> <i_epik_Tot_abs_Q>
1

> <r_epik_Metal_State_Penalty>
0.460135

> <b_epik_Metal_Only>
0

> <s_lp_Force_Field>
OPLS_2005

> <r_lp_Energy>
3.33366

> <b_lp_Chiralities_Consistent>
1

> <s_lp_Variant>
AV-unprocessed.smi:2010-4

> <Gold.Version>
5.8.1

> <Gold.Id.Protein>
6NUR|6NUR_protein|mol2

> <Gold.PLP.Fitness>
46.5929

> <Gold.PLP.PLP>
-34.1076

> <Gold.PLP.part.hbond>
-2.0000

> <Gold.PLP.part.metal>
0.0000

> <Gold.PLP.part.buried>
5.6912

> <Gold.PLP.part.nonpolar>
-38.2923

> <Gold.PLP.part.repulsive>
0.1108

> <Gold.PLP.ligand.clash>
0.0000

> <Gold.PLP.ligand.torsion>
1.8720

> <Gold.PLP.Chemscore.Hbond>
2.7659

> <Gold.PLP.Chemscore.CHOScore>
1.6045

> <Gold.PLP.Chemscore.Metal>
0.0000

> <Gold.Chemscore.Hbonds>
donor molecule, donor type, donor heavy atom, donor atom, acceptor molecule, acceptor atom, score
      P1  H  7989  7998       L1    17  0.54
      P1  H  7997  8010       L1     9  1.88
      L1  C    14    34       P1  8028  0.92
      L1  C    16    36       P1  7957  0.73

> <Gold.PLP.Chemscore.Internal.Correction>
3.1181

> <Gold.Rescore>
     Score         DG    S(hbond)    S(metal)    S(lipo)     H(rot)  DE(clash)    DE(int)     intcor
     11.00     -17.21       0.92        0.00     103.81       1.37       1.69       4.53       ----

> <Gold.Chemscore.Fitness>
10.9966

> <Gold.Chemscore.DG>
-17.2133

> <Gold.Chemscore.ZeroCoef>
-5.4800

> <Gold.Chemscore.Hbond>
0.9229

> <Gold.Chemscore.Metal>
0.0000

> <Gold.Chemscore.Lipo>
103.8092

> <Gold.Chemscore.Internal_Hbond>
0.0000

> <Gold.Chemscore.DEClash>
1.6875

> <Gold.Chemscore.DEInternal>
4.5292

> <Gold.Chemscore.Rot>
1.3652

> <Gold.Chemscore.Internal.Correction>
   9.000000E+99

> <Gold.Chemscore.Hbonds>
donor molecule, donor type, donor heavy atom, donor atom, acceptor molecule, acceptor atom, score
      P1  H  7989  7998       L1    17  0.05
      P1  H  7997  8010       L1     9  0.20

> <Gold.Chemscore.Hbond.Weighted>
-3.0825

> <Gold.Chemscore.Metal.Weighted>
-0.0000

> <Gold.Chemscore.Lipo.Weighted>
-12.1457

> <Gold.Chemscore.Internal_Hbond.Weighted>
0.0000

> <Gold.Chemscore.DEClash.Weighted>
1.6875

> <Gold.Chemscore.DEInternal.Weighted>
4.5292

> <Gold.Chemscore.Rot.Weighted>
3.4948

> <Gold.Chemscore.Internal.Correction.Weighted>
   9.000000E+99

> <Gold.Protein.RotatedTorsions>
[ 6907 6896 6895 6894 ] final  -20.41 input  -60.11 | X-H torsion
[ 7974 7965 7964 7962 ] final   70.44 input  175.53 | X-H torsion
[ 8008 7997 7996 7995 ] final   59.06 input   59.86 | X-H torsion
[ 10167 10162 10161 10158 ] final   52.35 input  -65.29 | X-H torsion
[ 10718 10713 10712 10709 ] final  -65.81 input   66.30 | X-H torsion
[ 10763 10752 10751 10750 ] final   59.62 input  -60.55 | X-H torsion
[ 11005 11000 10999 10996 ] final   18.04 input  -57.11 | X-H torsion

> <Gold.Protein.ActiveResidues>
 VAL166  LYS551  ARG553  GLY616  TRP617  ASP618  TYR619  PRO620  LYS621  CYS622 
 ASP623  PHE694  ASN695  SER759  ASP760  ASP761  ALA762  ILE779  LEU786  VAL792 
 PHE793  MET794  SER795  GLU796  ALA797  LYS798  CYS799  TRP800  GLU811  SER814 

> <Gold.Protein.RotatedAtoms>
  151.2485  135.0614  159.9052 H   0  0  0  0  0  0  0  0  0  0  0  0  # atno 6907 bound_to 6896
  152.5383  134.0357  159.8055 H   0  0  0  0  0  0  0  0  0  0  0  0  # atno 6908 bound_to 6896
  151.0562  133.5533  159.2669 H   0  0  0  0  0  0  0  0  0  0  0  0  # atno 6909 bound_to 6896
  145.7781  139.2874  143.1282 H   0  0  0  0  0  0  0  0  0  0  0  0  # atno 7974 bound_to 7965
  155.5601  140.3488  155.4489 H   0  0  0  0  0  0  0  0  0  0  0  0  # atno 8008 bound_to 7997
  156.0521  140.1320  157.0064 H   0  0  0  0  0  0  0  0  0  0  0  0  # atno 8009 bound_to 7997
  154.4439  140.1002  156.6376 H   0  0  0  0  0  0  0  0  0  0  0  0  # atno 8010 bound_to 7997
  140.2523  144.3465  150.6344 H   0  0  0  0  0  0  0  0  0  0  0  0  # atno 10167 bound_to 10162
  156.0648  130.4252  150.1617 H   0  0  0  0  0  0  0  0  0  0  0  0  # atno 10718 bound_to 10713
  152.9899  135.5565  154.5743 H   0  0  0  0  0  0  0  0  0  0  0  0  # atno 10763 bound_to 10752
  154.5137  135.2804  155.1323 H   0  0  0  0  0  0  0  0  0  0  0  0  # atno 10764 bound_to 10752
  154.2704  135.6364  153.5361 H   0  0  0  0  0  0  0  0  0  0  0  0  # atno 10765 bound_to 10752
  140.4292  134.1437  155.7679 H   0  0  0  0  0  0  0  0  0  0  0  0  # atno 11005 bound_to 11000
  146.0102  140.8442  142.9974 LP  0  0  0  0  0  0  0  0  0  0  0  0  # atno 17320 bound_to 7965
  144.6801  140.2479  143.7335 LP  0  0  0  0  0  0  0  0  0  0  0  0  # atno 17321 bound_to 7965
  140.6031  143.2167  151.7034 LP  0  0  0  0  0  0  0  0  0  0  0  0  # atno 17342 bound_to 10162
  139.5042  144.3761  152.0422 LP  0  0  0  0  0  0  0  0  0  0  0  0  # atno 17343 bound_to 10162
  156.9679  130.9825  151.3465 LP  0  0  0  0  0  0  0  0  0  0  0  0  # atno 17370 bound_to 10713
  157.5682  130.8292  149.8356 LP  0  0  0  0  0  0  0  0  0  0  0  0  # atno 17371 bound_to 10713
  141.1752  133.8528  157.1443 LP  0  0  0  0  0  0  0  0  0  0  0  0  # atno 17394 bound_to 11000
  140.0146  134.9973  157.0466 LP  0  0  0  0  0  0  0  0  0  0  0  0  # atno 17395 bound_to 11000

$$$$
