AV-unprocessed.smi:1047|AV-procd|sdf|4581|dock9
  -GOLD-   22720 3 53D 1   1.00000     0.00000
 Structure written by MMmdl.
 58 60  0  0  0  0  0  0  0  0  4 V2000
  143.7923  132.7195  151.2807 C   0  0  0  0  0  0  0  0  0  0  0  0
  144.8458  133.2553  152.2602 C   0  0  0  0  0  0  0  0  0  0  0  0
  144.2365  133.9761  153.4096 N   0  3  2  0  0  0  0  0  0  0  0  0
  143.2604  135.0172  153.0061 C   0  0  0  0  0  0  0  0  0  0  0  0
  143.9752  136.2918  152.5236 C   0  0  0  0  0  0  0  0  0  0  0  0
  144.8419  136.7645  153.5485 O   0  0  0  0  0  0  0  0  0  0  0  0
  145.8670  135.8302  153.8729 C   0  0  1  0  0  0  0  0  0  0  0  0
  146.7725  136.4682  154.9383 C   0  0  0  0  0  0  0  0  0  0  0  0
  147.7114  137.4376  154.3379 N   0  3  0  0  0  0  0  0  0  0  0  0
  148.6768  138.0143  155.2956 C   0  0  0  0  0  0  0  0  0  0  0  0
  150.0118  138.3565  154.6074 C   0  0  2  0  0  0  0  0  0  0  0  0
  150.5720  137.1699  154.0828 O   0  0  0  0  0  0  0  0  0  0  0  0
  151.0609  138.9910  155.5428 C   0  0  0  0  0  0  0  0  0  0  0  0
  150.7030  140.3486  155.9778 N   0  0  0  0  0  0  0  0  0  0  0  0
  149.8599  141.2476  155.4000 C   0  0  0  0  0  0  0  0  0  0  0  0
  149.8657  142.3709  156.1692 N   0  3  0  0  0  0  0  0  0  0  0  0
  150.7290  142.1904  157.2515 C   0  0  0  0  0  0  0  0  0  0  0  0
  151.0657  143.0414  158.2972 C   0  0  0  0  0  0  0  0  0  0  0  0
  151.9856  142.5560  159.2535 C   0  0  0  0  0  0  0  0  0  0  0  0
  152.3763  143.4621  160.4089 C   0  0  0  0  0  0  0  0  0  0  0  0
  152.5367  141.2534  159.1405 C   0  0  0  0  0  0  0  0  0  0  0  0
  153.5248  140.7413  160.1749 C   0  0  0  0  0  0  0  0  0  0  0  0
  152.1827  140.4034  158.0682 C   0  0  0  0  0  0  0  0  0  0  0  0
  151.2735  140.8963  157.1341 C   0  0  0  0  0  0  0  0  0  0  0  0
  145.2091  134.5294  154.3875 C   0  0  0  0  0  0  0  0  0  0  0  0
  144.2724  132.2775  150.4075 H   0  0  0  0  0  0  0  0  0  0  0  0
  143.1399  133.5190  150.9277 H   0  0  0  0  0  0  0  0  0  0  0  0
  143.1674  131.9479  151.7291 H   0  0  0  0  0  0  0  0  0  0  0  0
  145.4932  132.4482  152.6025 H   0  0  0  0  0  0  0  0  0  0  0  0
  145.4857  133.9446  151.7080 H   0  0  0  0  0  0  0  0  0  0  0  0
  142.5830  134.6373  152.2403 H   0  0  0  0  0  0  0  0  0  0  0  0
  142.6394  135.2585  153.8698 H   0  0  0  0  0  0  0  0  0  0  0  0
  144.5363  136.1098  151.6058 H   0  0  0  0  0  0  0  0  0  0  0  0
  143.2431  137.0670  152.2977 H   0  0  0  0  0  0  0  0  0  0  0  0
  146.4655  135.6206  152.9850 H   0  0  0  0  0  0  0  0  0  0  0  0
  146.1702  136.9638  155.7010 H   0  0  0  0  0  0  0  0  0  0  0  0
  147.3515  135.6918  155.4406 H   0  0  0  0  0  0  0  0  0  0  0  0
  148.2328  136.9771  153.6051 H   0  0  0  0  0  0  0  0  0  0  0  0
  148.2290  138.9143  155.7177 H   0  0  0  0  0  0  0  0  0  0  0  0
  148.8403  137.3193  156.1207 H   0  0  0  0  0  0  0  0  0  0  0  0
  149.8237  139.0361  153.7748 H   0  0  0  0  0  0  0  0  0  0  0  0
  149.9462  136.7686  153.4985 H   0  0  0  0  0  0  0  0  0  0  0  0
  151.2427  138.3663  156.4174 H   0  0  0  0  0  0  0  0  0  0  0  0
  152.0180  139.0696  155.0247 H   0  0  0  0  0  0  0  0  0  0  0  0
  149.2908  141.0990  154.4932 H   0  0  0  0  0  0  0  0  0  0  0  0
  150.6435  144.0329  158.3760 H   0  0  0  0  0  0  0  0  0  0  0  0
  153.4446  143.6783  160.3798 H   0  0  0  0  0  0  0  0  0  0  0  0
  152.1436  142.9904  161.3642 H   0  0  0  0  0  0  0  0  0  0  0  0
  151.8428  144.4125  160.3688 H   0  0  0  0  0  0  0  0  0  0  0  0
  153.8661  139.7333  159.9376 H   0  0  0  0  0  0  0  0  0  0  0  0
  153.0643  140.7122  161.1627 H   0  0  0  0  0  0  0  0  0  0  0  0
  154.4018  141.3871  160.2201 H   0  0  0  0  0  0  0  0  0  0  0  0
  152.6056  139.4134  157.9866 H   0  0  0  0  0  0  0  0  0  0  0  0
  144.6683  134.7409  155.3113 H   0  0  0  0  0  0  0  0  0  0  0  0
  145.9660  133.7900  154.6462 H   0  0  0  0  0  0  0  0  0  0  0  0
  147.1786  138.1910  153.9267 H   0  0  0  0  0  0  0  0  0  0  0  0
  143.7004  133.2745  153.9012 H   0  0  0  0  0  0  0  0  0  0  0  0
  149.3234  143.2009  155.9650 H   0  0  0  0  0  0  0  0  0  0  0  0
  1  2  1  0  0  0  0
  1 26  1  0  0  0  0
  1 27  1  0  0  0  0
  1 28  1  0  0  0  0
  2  3  1  0  0  0  0
  2 29  1  0  0  0  0
  2 30  1  0  0  0  0
  3 25  1  0  0  0  0
  3  4  1  0  0  0  0
  3 57  1  0  0  0  0
  4  5  1  0  0  0  0
  4 31  1  0  0  0  0
  4 32  1  0  0  0  0
  5  6  1  0  0  0  0
  5 33  1  0  0  0  0
  5 34  1  0  0  0  0
  6  7  1  0  0  0  0
  7  8  1  0  0  0  0
  7 25  1  0  0  0  0
  7 35  1  0  0  0  0
  8  9  1  0  0  0  0
  8 36  1  0  0  0  0
  8 37  1  0  0  0  0
  9 10  1  0  0  0  0
  9 38  1  0  0  0  0
  9 56  1  0  0  0  0
 10 11  1  0  0  0  0
 10 39  1  0  0  0  0
 10 40  1  0  0  0  0
 11 12  1  0  0  0  0
 11 13  1  0  0  0  0
 11 41  1  0  0  0  0
 12 42  1  0  0  0  0
 13 14  1  0  0  0  0
 13 43  1  0  0  0  0
 13 44  1  0  0  0  0
 14 24  1  0  0  0  0
 14 15  1  0  0  0  0
 15 16  2  0  0  0  0
 15 45  1  0  0  0  0
 16 17  1  0  0  0  0
 16 58  1  0  0  0  0
 17 24  2  0  0  0  0
 17 18  1  0  0  0  0
 18 19  2  0  0  0  0
 18 46  1  0  0  0  0
 19 20  1  0  0  0  0
 19 21  1  0  0  0  0
 20 47  1  0  0  0  0
 20 48  1  0  0  0  0
 20 49  1  0  0  0  0
 21 22  1  0  0  0  0
 21 23  2  0  0  0  0
 22 50  1  0  0  0  0
 22 51  1  0  0  0  0
 22 52  1  0  0  0  0
 23 24  1  0  0  0  0
 23 53  1  0  0  0  0
 25 54  1  0  0  0  0
 25 55  1  0  0  0  0
M  CHG  1   3   1
M  CHG  1   9   1
M  CHG  1  16   1
M  END
> <s_m_source_file>
AV-unprocessed.smi

> <i_m_source_file_index>
1047

> <i_lp_mmshare_version>
43012

> <i_f3d_flags>
0

> <s_epik_input>
W0NIM11bQ0gyXU4xW0NIMl1bQ0gyXU9bQ0BIXShbQ0gyXTEpW0NIMl1bTkhdW0NIMl1bQ0BIXShbT0hdKVtDSDJdbihbY0hdbjIpYyhjMjMpW2NIXWMoW0NIM10pYyhbY0hdMylbQ0gzXQ==

> <s_epik_cmdline>
J2VwaWtfcHl0aG9uJywgJy1waCcsICc3LjAnLCAnLXRuJywgJzgnLCAnLW1hJywgJzIwMCcsICctbWV0YWxfYmluZGluZycsICctaW1hZScsICc8aW5maWxlLm1hZT4nLCAnLW9tYWUnLCAnPG91dGZpbGUubWFlPic=

> <r_epik_Ionization_Penalty>
1.6114

> <r_epik_Ionization_Penalty_Charging>
1.61139

> <r_epik_Ionization_Penalty_Neutral>
5.04732e-06

> <r_epik_State_Penalty>
1.63724

> <r_epik_Charging_Adjusted_Penalty>
3.24864

> <i_epik_Tot_Q>
3

> <i_epik_Tot_abs_Q>
3

> <r_epik_Metal_State_Penalty>
5.64594

> <b_epik_Metal_Only>
0

> <s_lp_Force_Field>
OPLS_2005

> <r_lp_Energy>
44.3097

> <b_lp_Chiralities_Consistent>
1

> <s_lp_Variant>
AV-unprocessed.smi:1047-22

> <Gold.Version>
5.8.1

> <Gold.Id.Protein>
6NUR|6NUR_protein|mol2

> <Gold.PLP.Fitness>
63.8274

> <Gold.PLP.PLP>
-44.2445

> <Gold.PLP.part.hbond>
-4.9208

> <Gold.PLP.part.metal>
0.0000

> <Gold.PLP.part.buried>
-6.3364

> <Gold.PLP.part.nonpolar>
-35.0309

> <Gold.PLP.part.repulsive>
0.2321

> <Gold.PLP.ligand.clash>
0.0000

> <Gold.PLP.ligand.torsion>
0.7301

> <Gold.PLP.Chemscore.Hbond>
6.9500

> <Gold.PLP.Chemscore.CHOScore>
0.0000

> <Gold.PLP.Chemscore.Metal>
0.0000

> <Gold.Chemscore.Hbonds>
donor molecule, donor type, donor heavy atom, donor atom, acceptor molecule, acceptor atom, score
      L1  H     3    57       P1 10957  1.98
      L1  H     9    38       P1  7948  2.00
      L1  H    12    42       P1  7948  1.00
      L1  H    16    58       P1  8028  2.00

> <Gold.PLP.Chemscore.Internal.Correction>
0.1931

> <Gold.Rescore>
     Score         DG    S(hbond)    S(metal)    S(lipo)     H(rot)  DE(clash)    DE(int)     intcor
     21.14     -21.90       3.17        0.00     110.80       2.78       0.03       0.73       ----

> <Gold.Chemscore.Fitness>
21.1365

> <Gold.Chemscore.DG>
-21.9029

> <Gold.Chemscore.ZeroCoef>
-5.4800

> <Gold.Chemscore.Hbond>
3.1704

> <Gold.Chemscore.Metal>
0.0000

> <Gold.Chemscore.Lipo>
110.7950

> <Gold.Chemscore.Internal_Hbond>
0.0000

> <Gold.Chemscore.DEClash>
0.0348

> <Gold.Chemscore.DEInternal>
0.7316

> <Gold.Chemscore.Rot>
2.7848

> <Gold.Chemscore.Internal.Correction>
   9.000000E+99

> <Gold.Chemscore.Hbonds>
donor molecule, donor type, donor heavy atom, donor atom, acceptor molecule, acceptor atom, score
      L1  H     3    57       P1 10957  0.93
      L1  H     9    38       P1  7948  0.93
      L1  H    12    42       P1  7948  0.25
      L1  H    16    58       P1  8028  0.99

> <Gold.Chemscore.Hbond.Weighted>
-10.5890

> <Gold.Chemscore.Metal.Weighted>
-0.0000

> <Gold.Chemscore.Lipo.Weighted>
-12.9630

> <Gold.Chemscore.Internal_Hbond.Weighted>
0.0000

> <Gold.Chemscore.DEClash.Weighted>
0.0348

> <Gold.Chemscore.DEInternal.Weighted>
0.7316

> <Gold.Chemscore.Rot.Weighted>
7.1291

> <Gold.Chemscore.Internal.Correction.Weighted>
   9.000000E+99

> <Gold.Protein.RotatedTorsions>
[ 6907 6896 6895 6894 ] final -174.09 input  -60.11 | X-H torsion
[ 7974 7965 7964 7962 ] final   32.90 input  175.53 | X-H torsion
[ 8008 7997 7996 7995 ] final  136.55 input   59.86 | X-H torsion
[ 10167 10162 10161 10158 ] final  142.49 input  -65.29 | X-H torsion
[ 10718 10713 10712 10709 ] final  135.33 input   66.30 | X-H torsion
[ 10763 10752 10751 10750 ] final -161.52 input  -60.55 | X-H torsion
[ 11005 11000 10999 10996 ] final -105.04 input  -57.11 | X-H torsion

> <Gold.Protein.ActiveResidues>
 VAL166  LYS551  ARG553  GLY616  TRP617  ASP618  TYR619  PRO620  LYS621  CYS622 
 ASP623  PHE694  ASN695  SER759  ASP760  ASP761  ALA762  ILE779  LEU786  VAL792 
 PHE793  MET794  SER795  GLU796  ALA797  LYS798  CYS799  TRP800  GLU811  SER814 

> <Gold.Protein.RotatedAtoms>
  151.5667  133.3395  159.2981 H   0  0  0  0  0  0  0  0  0  0  0  0  # atno 6907 bound_to 6896
  150.8391  134.7679  159.6928 H   0  0  0  0  0  0  0  0  0  0  0  0  # atno 6908 bound_to 6896
  152.4462  134.5497  159.9915 H   0  0  0  0  0  0  0  0  0  0  0  0  # atno 6909 bound_to 6896
  146.1456  139.6466  142.9133 H   0  0  0  0  0  0  0  0  0  0  0  0  # atno 7974 bound_to 7965
  156.3004  140.2442  156.3763 H   0  0  0  0  0  0  0  0  0  0  0  0  # atno 8008 bound_to 7997
  154.8742  140.0415  157.1763 H   0  0  0  0  0  0  0  0  0  0  0  0  # atno 8009 bound_to 7997
  154.8763  140.2942  155.5455 H   0  0  0  0  0  0  0  0  0  0  0  0  # atno 8010 bound_to 7997
  139.4993  144.6103  151.6286 H   0  0  0  0  0  0  0  0  0  0  0  0  # atno 10167 bound_to 10162
  157.4581  131.1071  150.9953 H   0  0  0  0  0  0  0  0  0  0  0  0  # atno 10718 bound_to 10713
  154.7296  135.3043  154.8914 H   0  0  0  0  0  0  0  0  0  0  0  0  # atno 10763 bound_to 10752
  153.9761  135.6736  153.4752 H   0  0  0  0  0  0  0  0  0  0  0  0  # atno 10764 bound_to 10752
  153.0906  135.4961  154.8603 H   0  0  0  0  0  0  0  0  0  0  0  0  # atno 10765 bound_to 10752
  141.1072  133.8774  157.1685 H   0  0  0  0  0  0  0  0  0  0  0  0  # atno 11005 bound_to 11000
  145.4945  141.0438  143.2575 LP  0  0  0  0  0  0  0  0  0  0  0  0  # atno 17320 bound_to 7965
  144.7843  139.6460  143.7141 LP  0  0  0  0  0  0  0  0  0  0  0  0  # atno 17321 bound_to 7965
  140.5776  144.0002  150.6250 LP  0  0  0  0  0  0  0  0  0  0  0  0  # atno 17342 bound_to 10162
  140.3140  143.3180  152.0851 LP  0  0  0  0  0  0  0  0  0  0  0  0  # atno 17343 bound_to 10162
  157.0760  130.5883  149.5411 LP  0  0  0  0  0  0  0  0  0  0  0  0  # atno 17370 bound_to 10713
  156.0016  130.5096  150.7684 LP  0  0  0  0  0  0  0  0  0  0  0  0  # atno 17371 bound_to 10713
  139.9948  135.0051  157.0058 LP  0  0  0  0  0  0  0  0  0  0  0  0  # atno 17394 bound_to 11000
  140.4870  134.1231  155.7226 LP  0  0  0  0  0  0  0  0  0  0  0  0  # atno 17395 bound_to 11000

$$$$
