#       Name:                AV-unprocessed.smi:3133
#       Creating user name   scv26
#       Creation time:       Fri Mar 27 17:32:40 2020


#       File generated by GOLD software.
#

@<TRIPOS>MOLECULE
AV-unprocessed.smi:3133
    38    39     1
SMALL
NO_CHARGES


@<TRIPOS>ATOM
      1 ****        -2.4845  -1.9848  -1.3505 C.3            1 S1                 0.0000
      2 ****        -1.9962  -1.1492  -0.1493 C.3            1 S1                 0.0000
      3 ****        -0.4754  -0.9162  -0.1561 C.2            1 S1                 0.0000
      4 ****         0.2561  -1.5531  -0.9150 O.2            1 S1                 0.0000
      5 ****        -0.0140   0.0150   0.6947 N.am           1 S1                 0.0000
      6 ****         1.3850   0.3955   0.8608 C.3            1 S1                 0.0000
      7 ****         1.7248   1.6751   0.0787 C.3            1 S1                 0.0000
      8 ****         1.6404   1.5473  -1.4438 C.3            1 S1                 0.0000
      9 ****         2.5987   2.6254  -1.8940 C.3            1 S1                 0.0000
     10 ****         3.7070   2.5008  -0.8538 C.3            1 S1                 0.0000
     11 ****         3.0683   2.0711   0.3458 O.3            1 S1                 0.0000
     12 ****        -2.4214  -1.7242   1.1217 N.pl3          1 S1                 0.0000
     13 ****        -2.9867  -1.1409   2.1810 C.2            1 S1                 0.0000
     14 ****        -3.2055  -1.9640   3.1968 N.2            1 S1                 0.0000
     15 ****        -2.7091  -3.1199   2.6644 C.2            1 S1                 0.0000
     16 ****        -2.2198  -3.0303   1.4278 N.2            1 S1                 0.0000
     17 ****        -2.2136  -1.5126  -2.2954 H              1 S1                 0.0000
     18 ****        -3.5700  -2.0859  -1.3368 H              1 S1                 0.0000
     19 ****        -2.0601  -2.9897  -1.3494 H              1 S1                 0.0000
     20 ****        -2.4655  -0.1673  -0.2290 H              1 S1                 0.0000
     21 ****        -0.6838   0.4930   1.2795 H              1 S1                 0.0000
     22 ****         1.5562   0.5653   1.9239 H              1 S1                 0.0000
     23 ****         2.0533  -0.4179   0.5731 H              1 S1                 0.0000
     24 ****         1.0781   2.4913   0.4046 H              1 S1                 0.0000
     25 ****         2.0016   0.5710  -1.7700 H              1 S1                 0.0000
     26 ****         0.6294   1.6839  -1.8284 H              1 S1                 0.0000
     27 ****         2.9536   2.4875  -2.9156 H              1 S1                 0.0000
     28 ****         2.1227   3.6044  -1.8234 H              1 S1                 0.0000
     29 ****         4.4253   1.7373  -1.1550 H              1 S1                 0.0000
     30 ****         4.2478   3.4359  -0.7065 H              1 S1                 0.0000
     31 ****        -3.2393  -0.0912   2.2115 H              1 S1                 0.0000
     32 ****        -2.7035  -4.0539   3.2067 H              1 S1                 0.0000
     33 ****        -0.1369  -2.2309  -1.5363 LP             1 S1                 0.0000
     34 ****         1.2431  -1.3924  -0.9098 LP             1 S1                 0.0000
     35 ****         3.5710   1.2953   0.7272 LP             1 S1                 0.0000
     36 ****         3.0654   2.8230   1.0052 LP             1 S1                 0.0000
     37 ****        -3.6148  -1.7895   4.0924 LP             1 S1                 0.0000
     38 ****        -1.8070  -3.7471   0.8659 LP             1 S1                 0.0000
@<TRIPOS>BOND
    1    1    2 1     
    2    1   17 1     
    3    1   18 1     
    4    1   19 1     
    5    2    3 1     
    6    2   12 1     
    7    2   20 1     
    8    3    4 2     
    9    3    5 am    
   10    5    6 1     
   11    5   21 1     
   12    6    7 1     
   13    6   22 1     
   14    6   23 1     
   15    7   11 1     
   16    7    8 1     
   17    7   24 1     
   18    8    9 1     
   19    8   25 1     
   20    8   26 1     
   21    9   10 1     
   22    9   27 1     
   23    9   28 1     
   24   10   11 1     
   25   10   29 1     
   26   10   30 1     
   27   12   16 1     
   28   12   13 1     
   29   13   14 2     
   30   13   31 1     
   31   14   15 1     
   32   15   16 2     
   33   15   32 1     
   34    4   33 1     
   35    4   34 1     
   36   11   35 1     
   37   11   36 1     
   38   14   37 1     
   39   16   38 1     
@<TRIPOS>SUBSTRUCTURE
      1 S1             1
@<TRIPOS>SET
LONE_PAIRS      STATIC     ATOMS    <user>   **** ""
6 33 34 35 36 37 38
DONOR_HYDROGENS      STATIC     ATOMS    <user>   **** ""
1 21
ATOM$BLUE        STATIC     ATOMS    COLORGROUP SYSTEM
6 33 34 35 36 37 38
ATOM$RED        STATIC     ATOMS    COLORGROUP SYSTEM
1 21
