AV-unprocessed.smi:2346|AV-procd|sdf|9366|dock6
  -GOLD-   2272012593D 1   1.00000     0.00000
 Structure written by MMmdl.
 44 46  0  0  0  0  0  0  0  0  1 V2000
  146.8602  137.0567  162.7419 C   0  0  0  0  0  0  0  0  0  0  0  0
  147.6588  137.2577  161.5858 O   0  0  0  0  0  0  0  0  0  0  0  0
  147.7640  136.2286  160.6723 C   0  0  0  0  0  0  0  0  0  0  0  0
  147.0133  135.0281  160.7485 C   0  0  0  0  0  0  0  0  0  0  0  0
  147.1772  134.0197  159.7783 C   0  0  0  0  0  0  0  0  0  0  0  0
  146.4034  132.7925  159.8644 C   0  0  0  0  0  0  0  0  0  0  0  0
  145.7873  131.8157  159.9331 N   0  0  0  0  0  0  0  0  0  0  0  0
  148.0921  134.2029  158.7247 C   0  0  0  0  0  0  0  0  0  0  0  0
  148.8423  135.3900  158.6419 C   0  0  0  0  0  0  0  0  0  0  0  0
  148.6840  136.4081  159.6144 C   0  0  0  0  0  0  0  0  0  0  0  0
  149.3815  137.5958  159.5973 O   0  0  0  0  0  0  0  0  0  0  0  0
  150.3894  137.7877  158.6149 C   0  0  0  0  0  0  0  0  0  0  0  0
  149.7102  137.9973  157.2536 C   0  0  0  0  0  0  0  0  0  0  0  0
  150.1788  139.2083  156.5931 N   0  0  0  0  0  0  0  0  0  0  0  0
  150.4175  139.4125  155.2720 C   0  0  0  0  0  0  0  0  0  0  0  0
  150.1985  138.3417  154.2390 C   0  0  1  0  0  0  0  0  0  0  0  0
  151.0652  137.1039  154.5054 C   0  0  0  0  0  0  0  0  0  0  0  0
  148.8472  137.9328  154.1712 O   0  0  0  0  0  0  0  0  0  0  0  0
  150.8301  140.6395  154.9438 N   0  0  0  0  0  0  0  0  0  0  0  0
  150.8935  141.2793  156.1656 C   0  0  0  0  0  0  0  0  0  0  0  0
  151.2803  142.5987  156.4926 C   0  0  0  0  0  0  0  0  0  0  0  0
  151.2727  143.0330  157.8343 C   0  0  0  0  0  0  0  0  0  0  0  0
  150.8759  142.1573  158.8657 C   0  0  0  0  0  0  0  0  0  0  0  0
  150.4809  140.8411  158.5604 C   0  0  0  0  0  0  0  0  0  0  0  0
  150.4931  140.4112  157.2196 C   0  0  0  0  0  0  0  0  0  0  0  0
  146.8936  137.9538  163.3600 H   0  0  0  0  0  0  0  0  0  0  0  0
  147.2325  136.2273  163.3448 H   0  0  0  0  0  0  0  0  0  0  0  0
  145.8172  136.8751  162.4794 H   0  0  0  0  0  0  0  0  0  0  0  0
  146.3053  134.8627  161.5472 H   0  0  0  0  0  0  0  0  0  0  0  0
  148.2240  133.4364  157.9743 H   0  0  0  0  0  0  0  0  0  0  0  0
  149.5322  135.4984  157.8189 H   0  0  0  0  0  0  0  0  0  0  0  0
  150.9986  138.6591  158.8606 H   0  0  0  0  0  0  0  0  0  0  0  0
  151.0446  136.9170  158.5700 H   0  0  0  0  0  0  0  0  0  0  0  0
  149.8710  137.1382  156.6027 H   0  0  0  0  0  0  0  0  0  0  0  0
  148.6307  138.0748  157.3875 H   0  0  0  0  0  0  0  0  0  0  0  0
  150.4378  138.7375  153.2529 H   0  0  0  0  0  0  0  0  0  0  0  0
  152.1244  137.3630  154.5128 H   0  0  0  0  0  0  0  0  0  0  0  0
  150.9173  136.3459  153.7356 H   0  0  0  0  0  0  0  0  0  0  0  0
  150.8279  136.6525  155.4694 H   0  0  0  0  0  0  0  0  0  0  0  0
  148.7968  137.1677  153.6183 H   0  0  0  0  0  0  0  0  0  0  0  0
  151.5874  143.2763  155.7098 H   0  0  0  0  0  0  0  0  0  0  0  0
  151.5737  144.0423  158.0736 H   0  0  0  0  0  0  0  0  0  0  0  0
  150.8752  142.4963  159.8912 H   0  0  0  0  0  0  0  0  0  0  0  0
  150.1808  140.1667  159.3487 H   0  0  0  0  0  0  0  0  0  0  0  0
  1  2  1  0  0  0  0
  1 26  1  0  0  0  0
  1 27  1  0  0  0  0
  1 28  1  0  0  0  0
  2  3  1  0  0  0  0
  3 10  1  0  0  0  0
  3  4  2  0  0  0  0
  4  5  1  0  0  0  0
  4 29  1  0  0  0  0
  5  6  1  0  0  0  0
  5  8  2  0  0  0  0
  6  7  3  0  0  0  0
  8  9  1  0  0  0  0
  8 30  1  0  0  0  0
  9 10  2  0  0  0  0
  9 31  1  0  0  0  0
 10 11  1  0  0  0  0
 11 12  1  0  0  0  0
 12 13  1  0  0  0  0
 12 32  1  0  0  0  0
 12 33  1  0  0  0  0
 13 14  1  0  0  0  0
 13 34  1  0  0  0  0
 13 35  1  0  0  0  0
 14 25  1  0  0  0  0
 14 15  1  0  0  0  0
 15 16  1  0  0  0  0
 15 19  2  0  0  0  0
 16 17  1  0  0  0  0
 16 18  1  0  0  0  0
 16 36  1  0  0  0  0
 17 37  1  0  0  0  0
 17 38  1  0  0  0  0
 17 39  1  0  0  0  0
 18 40  1  0  0  0  0
 19 20  1  0  0  0  0
 20 25  2  0  0  0  0
 20 21  1  0  0  0  0
 21 22  2  0  0  0  0
 21 41  1  0  0  0  0
 22 23  1  0  0  0  0
 22 42  1  0  0  0  0
 23 24  2  0  0  0  0
 23 43  1  0  0  0  0
 24 25  1  0  0  0  0
 24 44  1  0  0  0  0
M  END
> <s_m_source_file>
AV-unprocessed.smi

> <i_m_source_file_index>
2346

> <i_lp_mmshare_version>
43012

> <i_f3d_flags>
0

> <s_epik_input>
W0NIM11PYzFbY0hdYyhDI04pW2NIXVtjSF1jMU9bQ0gyXVtDSDJdbihjKG4yKVtDQEhdKFtDSDNdKVtPSF0pYyhjMjMpW2NIXVtjSF1bY0hdW2NIXTM=

> <s_epik_cmdline>
J2VwaWtfcHl0aG9uJywgJy1waCcsICc3LjAnLCAnLXRuJywgJzgnLCAnLW1hJywgJzIwMCcsICctbWV0YWxfYmluZGluZycsICctaW1hZScsICc8aW5maWxlLm1hZT4nLCAnLW9tYWUnLCAnPG91dGZpbGUubWFlPic=

> <r_epik_Ionization_Penalty>
0.0419826

> <r_epik_Ionization_Penalty_Charging>
0

> <r_epik_Ionization_Penalty_Neutral>
0.0419826

> <r_epik_State_Penalty>
0.0354317

> <r_epik_Charging_Adjusted_Penalty>
0.0354317

> <i_epik_Tot_Q>
0

> <i_epik_Tot_abs_Q>
0

> <r_epik_Metal_State_Penalty>
3.65115e-05

> <b_epik_Metal_Only>
0

> <s_lp_Force_Field>
OPLS_2005

> <r_lp_Energy>
17.2355

> <b_lp_Chiralities_Consistent>
1

> <s_lp_Variant>
AV-unprocessed.smi:2346-2

> <Gold.Version>
5.8.1

> <Gold.Id.Protein>
6NUR|6NUR_protein|mol2

> <Gold.PLP.Fitness>
45.2177

> <Gold.PLP.PLP>
-35.8299

> <Gold.PLP.part.hbond>
-5.0000

> <Gold.PLP.part.metal>
0.0000

> <Gold.PLP.part.buried>
-2.6759

> <Gold.PLP.part.nonpolar>
-28.3878

> <Gold.PLP.part.repulsive>
0.0804

> <Gold.PLP.ligand.clash>
0.0000

> <Gold.PLP.ligand.torsion>
0.7969

> <Gold.PLP.Chemscore.Hbond>
3.6260

> <Gold.PLP.Chemscore.CHOScore>
0.0000

> <Gold.PLP.Chemscore.Metal>
0.0000

> <Gold.Chemscore.Hbonds>
donor molecule, donor type, donor heavy atom, donor atom, acceptor molecule, acceptor atom, score
      L1  H    18    40       P1  7948  1.00
      P1  H  6931  6943       L1     2  0.98
      P1  H  6934  6947       L1     2  0.75
      P1  H  7989  7998       L1    19  0.94

> <Gold.PLP.Chemscore.Internal.Correction>
0.1036

> <Gold.Rescore>
     Score         DG    S(hbond)    S(metal)    S(lipo)     H(rot)  DE(clash)    DE(int)     intcor
     19.19     -20.11       3.06        0.00      93.79       2.57       0.14       0.78       ----

> <Gold.Chemscore.Fitness>
19.1928

> <Gold.Chemscore.DG>
-20.1130

> <Gold.Chemscore.ZeroCoef>
-5.4800

> <Gold.Chemscore.Hbond>
3.0640

> <Gold.Chemscore.Metal>
0.0000

> <Gold.Chemscore.Lipo>
93.7924

> <Gold.Chemscore.Internal_Hbond>
0.0000

> <Gold.Chemscore.DEClash>
0.1423

> <Gold.Chemscore.DEInternal>
0.7779

> <Gold.Chemscore.Rot>
2.5681

> <Gold.Chemscore.Internal.Correction>
   9.000000E+99

> <Gold.Chemscore.Hbonds>
donor molecule, donor type, donor heavy atom, donor atom, acceptor molecule, acceptor atom, score
      L1  H    18    40       P1  7948  0.94
      P1  H  6931  6943       L1     2  0.74
      P1  H  6934  6947       L1     2  0.36
      P1  H  7989  7998       L1    19  0.89

> <Gold.Chemscore.Hbond.Weighted>
-10.2336

> <Gold.Chemscore.Metal.Weighted>
-0.0000

> <Gold.Chemscore.Lipo.Weighted>
-10.9737

> <Gold.Chemscore.Internal_Hbond.Weighted>
0.0000

> <Gold.Chemscore.DEClash.Weighted>
0.1423

> <Gold.Chemscore.DEInternal.Weighted>
0.7779

> <Gold.Chemscore.Rot.Weighted>
6.5743

> <Gold.Chemscore.Internal.Correction.Weighted>
   9.000000E+99

> <Gold.Protein.RotatedTorsions>
[ 6907 6896 6895 6894 ] final  -11.31 input  -60.11 | X-H torsion
[ 7974 7965 7964 7962 ] final  124.98 input  175.53 | X-H torsion
[ 8008 7997 7996 7995 ] final  -38.54 input   59.86 | X-H torsion
[ 10167 10162 10161 10158 ] final   33.86 input  -65.29 | X-H torsion
[ 10718 10713 10712 10709 ] final   17.01 input   66.30 | X-H torsion
[ 10763 10752 10751 10750 ] final  154.73 input  -60.55 | X-H torsion
[ 11005 11000 10999 10996 ] final  -16.83 input  -57.11 | X-H torsion

> <Gold.Protein.ActiveResidues>
 VAL166  LYS551  ARG553  GLY616  TRP617  ASP618  TYR619  PRO620  LYS621  CYS622 
 ASP623  PHE694  ASN695  SER759  ASP760  ASP761  ALA762  ILE779  LEU786  VAL792 
 PHE793  MET794  SER795  GLU796  ALA797  LYS798  CYS799  TRP800  GLU811  SER814 

> <Gold.Protein.RotatedAtoms>
  151.3883  135.0951  159.9517 H   0  0  0  0  0  0  0  0  0  0  0  0  # atno 6907 bound_to 6896
  152.5087  133.9005  159.7449 H   0  0  0  0  0  0  0  0  0  0  0  0  # atno 6908 bound_to 6896
  150.9453  133.6555  159.2811 H   0  0  0  0  0  0  0  0  0  0  0  0  # atno 6909 bound_to 6896
  145.0782  139.3677  143.4923 H   0  0  0  0  0  0  0  0  0  0  0  0  # atno 7974 bound_to 7965
  154.4035  140.1575  156.2716 H   0  0  0  0  0  0  0  0  0  0  0  0  # atno 8008 bound_to 7997
  155.8948  140.3436  155.5960 H   0  0  0  0  0  0  0  0  0  0  0  0  # atno 8009 bound_to 7997
  155.7517  140.0806  157.2189 H   0  0  0  0  0  0  0  0  0  0  0  0  # atno 8010 bound_to 7997
  140.4368  144.1245  150.6167 H   0  0  0  0  0  0  0  0  0  0  0  0  # atno 10167 bound_to 10162
  157.0760  130.6368  149.5816 H   0  0  0  0  0  0  0  0  0  0  0  0  # atno 10718 bound_to 10713
  154.1570  135.2812  155.3119 H   0  0  0  0  0  0  0  0  0  0  0  0  # atno 10763 bound_to 10752
  154.6175  135.5478  153.7542 H   0  0  0  0  0  0  0  0  0  0  0  0  # atno 10764 bound_to 10752
  153.0204  135.6430  154.1713 H   0  0  0  0  0  0  0  0  0  0  0  0  # atno 10765 bound_to 10752
  140.8108  133.8142  155.9561 H   0  0  0  0  0  0  0  0  0  0  0  0  # atno 11005 bound_to 11000
  146.3530  140.0560  142.8632 LP  0  0  0  0  0  0  0  0  0  0  0  0  # atno 17320 bound_to 7965
  145.1210  140.9462  143.4600 LP  0  0  0  0  0  0  0  0  0  0  0  0  # atno 17321 bound_to 7965
  140.4364  143.2545  151.9530 LP  0  0  0  0  0  0  0  0  0  0  0  0  # atno 17342 bound_to 10162
  139.4787  144.5696  151.8110 LP  0  0  0  0  0  0  0  0  0  0  0  0  # atno 17343 bound_to 10162
  155.9937  130.4999  150.7390 LP  0  0  0  0  0  0  0  0  0  0  0  0  # atno 17370 bound_to 10713
  157.4839  131.0905  151.0504 LP  0  0  0  0  0  0  0  0  0  0  0  0  # atno 17371 bound_to 10713
  140.9200  134.2154  157.4932 LP  0  0  0  0  0  0  0  0  0  0  0  0  # atno 17394 bound_to 11000
  139.8714  134.9788  156.5011 LP  0  0  0  0  0  0  0  0  0  0  0  0  # atno 17395 bound_to 11000

$$$$
