AV-unprocessed.smi:1843|AV-procd|sdf|7507|dock3
  -GOLD-   22720 9213D 1   1.00000     0.00000
 Structure written by MMmdl.
 36 38  0  0  0  0  0  0  0  0  2 V2000
  150.8224  134.1547  156.0582 O   0  0  0  0  0  0  0  0  0  0  0  0
  150.6024  134.9508  155.1425 C   0  0  0  0  0  0  0  0  0  0  0  0
  151.3224  136.0582  154.8525 N   0  5  0  0  0  0  0  0  0  0  0  0
  150.7072  137.2459  154.7291 C   0  0  0  0  0  0  0  0  0  0  0  0
  151.2928  138.3033  154.1497 N   0  0  0  0  0  0  0  0  0  0  0  0
  150.4801  139.4276  154.1215 N   0  0  0  0  0  0  0  0  0  0  0  0
  149.2870  139.2008  154.6760 C   0  0  0  0  0  0  0  0  0  0  0  0
  148.2347  140.2544  154.7706 C   0  0  0  0  0  0  0  0  0  0  0  0
  147.6267  140.8544  153.5237 C   0  0  0  0  0  0  0  0  0  0  0  0
  148.5210  141.6934  154.4002 C   0  0  0  0  0  0  0  0  0  0  0  0
  149.0623  137.5660  155.2765 S   0  0  0  0  0  0  0  0  0  0  0  0
  149.5577  134.7600  154.3246 N   0  0  0  0  0  0  0  0  0  0  0  0
  148.5942  133.6628  154.3963 C   0  0  1  0  0  0  0  0  0  0  0  0
  147.3865  134.0002  153.4924 C   0  0  0  0  0  0  0  0  0  0  0  0
  146.4038  132.8275  153.3661 C   0  0  0  0  0  0  0  0  0  0  0  0
  147.1169  131.5677  152.8586 C   0  0  0  0  0  0  0  0  0  0  0  0
  148.2780  131.1943  153.7891 C   0  0  0  0  0  0  0  0  0  0  0  0
  149.2816  132.3530  153.9446 C   0  0  2  0  0  0  0  0  0  0  0  0
  150.2339  131.9606  154.9131 O   0  0  0  0  0  0  0  0  0  0  0  0
  147.5801  140.0684  155.6196 H   0  0  0  0  0  0  0  0  0  0  0  0
  148.0242  140.5335  152.5627 H   0  0  0  0  0  0  0  0  0  0  0  0
  146.5603  141.0692  153.5395 H   0  0  0  0  0  0  0  0  0  0  0  0
  148.0515  142.4686  155.0021 H   0  0  0  0  0  0  0  0  0  0  0  0
  149.5074  141.9389  154.0121 H   0  0  0  0  0  0  0  0  0  0  0  0
  149.4168  135.4404  153.5924 H   0  0  0  0  0  0  0  0  0  0  0  0
  148.2428  133.5390  155.4228 H   0  0  0  0  0  0  0  0  0  0  0  0
  146.8609  134.8740  153.8794 H   0  0  0  0  0  0  0  0  0  0  0  0
  147.7397  134.2732  152.4970 H   0  0  0  0  0  0  0  0  0  0  0  0
  145.9452  132.6272  154.3353 H   0  0  0  0  0  0  0  0  0  0  0  0
  145.5928  133.0948  152.6883 H   0  0  0  0  0  0  0  0  0  0  0  0
  146.4103  130.7400  152.7943 H   0  0  0  0  0  0  0  0  0  0  0  0
  147.4922  131.7360  151.8485 H   0  0  0  0  0  0  0  0  0  0  0  0
  147.8761  130.9208  154.7663 H   0  0  0  0  0  0  0  0  0  0  0  0
  148.7861  130.3080  153.4067 H   0  0  0  0  0  0  0  0  0  0  0  0
  149.7940  132.5123  152.9945 H   0  0  0  0  0  0  0  0  0  0  0  0
  149.7746  131.5581  155.6349 H   0  0  0  0  0  0  0  0  0  0  0  0
  1  2  2  0  0  0  0
  2  3  1  0  0  0  0
  2 12  1  0  0  0  0
  3  4  1  0  0  0  0
  4 11  1  0  0  0  0
  4  5  2  0  0  0  0
  5  6  1  0  0  0  0
  6  7  2  0  0  0  0
  7  8  1  0  0  0  0
  7 11  1  0  0  0  0
  8 10  1  0  0  0  0
  8  9  1  0  0  0  0
  8 20  1  0  0  0  0
  9 10  1  0  0  0  0
  9 21  1  0  0  0  0
  9 22  1  0  0  0  0
 10 23  1  0  0  0  0
 10 24  1  0  0  0  0
 12 13  1  0  0  0  0
 12 25  1  0  0  0  0
 13 18  1  0  0  0  0
 13 14  1  0  0  0  0
 13 26  1  0  0  0  0
 14 15  1  0  0  0  0
 14 27  1  0  0  0  0
 14 28  1  0  0  0  0
 15 16  1  0  0  0  0
 15 29  1  0  0  0  0
 15 30  1  0  0  0  0
 16 17  1  0  0  0  0
 16 31  1  0  0  0  0
 16 32  1  0  0  0  0
 17 18  1  0  0  0  0
 17 33  1  0  0  0  0
 17 34  1  0  0  0  0
 18 19  1  0  0  0  0
 18 35  1  0  0  0  0
 19 36  1  0  0  0  0
M  CHG  1   3  -1
M  END
> <s_m_source_file>
AV-unprocessed.smi

> <i_m_source_file_index>
1843

> <i_lp_mmshare_version>
43012

> <i_f3d_flags>
0

> <s_epik_input>
W09IXVtDQEBIXTFbQ0gyXVtDSDJdW0NIMl1bQ0gyXVtDQEhdMVtOSF1DKD1PKVtOSF1jMm5uYyhzMilbQ0hdM1tDSDJdW0NIMl0z

> <s_epik_cmdline>
J2VwaWtfcHl0aG9uJywgJy1waCcsICc3LjAnLCAnLXRuJywgJzgnLCAnLW1hJywgJzIwMCcsICctbWV0YWxfYmluZGluZycsICctaW1hZScsICc8aW5maWxlLm1hZT4nLCAnLW9tYWUnLCAnPG91dGZpbGUubWFlPic=

> <r_lp_tautomer_probability>
1

> <r_epik_Ionization_Penalty>
4.7996

> <r_epik_Ionization_Penalty_Charging>
4.64516

> <r_epik_Ionization_Penalty_Neutral>
0.154442

> <r_epik_State_Penalty>
4.64493

> <r_epik_Charging_Adjusted_Penalty>
9.29009

> <i_epik_Tot_Q>
-1

> <i_epik_Tot_abs_Q>
1

> <r_epik_Metal_State_Penalty>
0.896144

> <b_epik_Metal_Only>
1

> <s_lp_Force_Field>
OPLS_2005

> <r_lp_Energy>
6.73246

> <b_lp_Chiralities_Consistent>
1

> <s_lp_Variant>
AV-unprocessed.smi:1843-8

> <Gold.Version>
5.8.1

> <Gold.Id.Protein>
6NUR|6NUR_protein|mol2

> <Gold.PLP.Fitness>
38.5168

> <Gold.PLP.PLP>
-27.8033

> <Gold.PLP.part.hbond>
-3.0000

> <Gold.PLP.part.metal>
0.0000

> <Gold.PLP.part.buried>
-2.2804

> <Gold.PLP.part.nonpolar>
-22.5063

> <Gold.PLP.part.repulsive>
0.5541

> <Gold.PLP.ligand.clash>
0.0000

> <Gold.PLP.ligand.torsion>
0.7280

> <Gold.PLP.Chemscore.Hbond>
4.0000

> <Gold.PLP.Chemscore.CHOScore>
0.0000

> <Gold.PLP.Chemscore.Metal>
0.0000

> <Gold.Chemscore.Hbonds>
donor molecule, donor type, donor heavy atom, donor atom, acceptor molecule, acceptor atom, score
      L1  H    12    25       P1  7948  0.95
      P1  H  7989  7998       L1     6  1.00
      P1  H 10752 10765       L1     3  2.00

> <Gold.PLP.Chemscore.Internal.Correction>
0.1694

> <Gold.Rescore>
     Score         DG    S(hbond)    S(metal)    S(lipo)     H(rot)  DE(clash)    DE(int)     intcor
     14.20     -15.64       2.39        0.00      56.08       1.72       0.46       0.99       ----

> <Gold.Chemscore.Fitness>
14.1992

> <Gold.Chemscore.DG>
-15.6416

> <Gold.Chemscore.ZeroCoef>
-5.4800

> <Gold.Chemscore.Hbond>
2.3933

> <Gold.Chemscore.Metal>
0.0000

> <Gold.Chemscore.Lipo>
56.0751

> <Gold.Chemscore.Internal_Hbond>
0.0000

> <Gold.Chemscore.DEClash>
0.4552

> <Gold.Chemscore.DEInternal>
0.9872

> <Gold.Chemscore.Rot>
1.7160

> <Gold.Chemscore.Internal.Correction>
   9.000000E+99

> <Gold.Chemscore.Hbonds>
donor molecule, donor type, donor heavy atom, donor atom, acceptor molecule, acceptor atom, score
      L1  H    12    25       P1  7948  0.21
      P1  H  7989  7998       L1     6  0.49
      P1  H 10752 10765       L1     3  0.65

> <Gold.Chemscore.Hbond.Weighted>
-7.9937

> <Gold.Chemscore.Metal.Weighted>
-0.0000

> <Gold.Chemscore.Lipo.Weighted>
-6.5608

> <Gold.Chemscore.Internal_Hbond.Weighted>
0.0000

> <Gold.Chemscore.DEClash.Weighted>
0.4552

> <Gold.Chemscore.DEInternal.Weighted>
0.9872

> <Gold.Chemscore.Rot.Weighted>
4.3930

> <Gold.Chemscore.Internal.Correction.Weighted>
   9.000000E+99

> <Gold.Protein.RotatedTorsions>
[ 6907 6896 6895 6894 ] final -144.64 input  -60.11 | X-H torsion
[ 7974 7965 7964 7962 ] final -120.48 input  175.53 | X-H torsion
[ 8008 7997 7996 7995 ] final   -9.25 input   59.86 | X-H torsion
[ 10167 10162 10161 10158 ] final -127.11 input  -65.29 | X-H torsion
[ 10718 10713 10712 10709 ] final  -67.37 input   66.30 | X-H torsion
[ 10763 10752 10751 10750 ] final  177.57 input  -60.55 | X-H torsion
[ 11005 11000 10999 10996 ] final   -6.27 input  -57.11 | X-H torsion

> <Gold.Protein.ActiveResidues>
 VAL166  LYS551  ARG553  GLY616  TRP617  ASP618  TYR619  PRO620  LYS621  CYS622 
 ASP623  PHE694  ASN695  SER759  ASP760  ASP761  ALA762  ILE779  LEU786  VAL792 
 PHE793  MET794  SER795  GLU796  ALA797  LYS798  CYS799  TRP800  GLU811  SER814 

> <Gold.Protein.RotatedAtoms>
  151.1169  133.5132  159.2603 H   0  0  0  0  0  0  0  0  0  0  0  0  # atno 6907 bound_to 6896
  151.1905  135.0400  159.8840 H   0  0  0  0  0  0  0  0  0  0  0  0  # atno 6908 bound_to 6896
  152.5453  134.1009  159.8371 H   0  0  0  0  0  0  0  0  0  0  0  0  # atno 6909 bound_to 6896
  145.0509  140.8217  143.4210 H   0  0  0  0  0  0  0  0  0  0  0  0  # atno 7974 bound_to 7965
  154.5665  140.2360  155.8256 H   0  0  0  0  0  0  0  0  0  0  0  0  # atno 8008 bound_to 7997
  156.2072  140.3036  155.9611 H   0  0  0  0  0  0  0  0  0  0  0  0  # atno 8009 bound_to 7997
  155.2792  140.0421  157.3004 H   0  0  0  0  0  0  0  0  0  0  0  0  # atno 8010 bound_to 7997
  139.9643  143.5915  152.2434 H   0  0  0  0  0  0  0  0  0  0  0  0  # atno 10167 bound_to 10162
  156.0561  130.4277  150.1844 H   0  0  0  0  0  0  0  0  0  0  0  0  # atno 10718 bound_to 10713
  154.4962  135.2781  155.1457 H   0  0  0  0  0  0  0  0  0  0  0  0  # atno 10763 bound_to 10752
  154.3109  135.6229  153.5469 H   0  0  0  0  0  0  0  0  0  0  0  0  # atno 10764 bound_to 10752
  152.9895  135.5719  154.5395 H   0  0  0  0  0  0  0  0  0  0  0  0  # atno 10765 bound_to 10752
  140.7002  133.8996  155.8678 H   0  0  0  0  0  0  0  0  0  0  0  0  # atno 11005 bound_to 11000
  145.1529  139.2504  143.5432 LP  0  0  0  0  0  0  0  0  0  0  0  0  # atno 17320 bound_to 7965
  146.3518  140.1236  142.8599 LP  0  0  0  0  0  0  0  0  0  0  0  0  # atno 17321 bound_to 7965
  139.6530  144.7661  151.2111 LP  0  0  0  0  0  0  0  0  0  0  0  0  # atno 17342 bound_to 10162
  140.7543  143.6131  150.8586 LP  0  0  0  0  0  0  0  0  0  0  0  0  # atno 17343 bound_to 10162
  156.9920  130.9896  151.3412 LP  0  0  0  0  0  0  0  0  0  0  0  0  # atno 17370 bound_to 10713
  157.5532  130.8196  149.8172 LP  0  0  0  0  0  0  0  0  0  0  0  0  # atno 17371 bound_to 10713
  141.0170  134.0942  157.4161 LP  0  0  0  0  0  0  0  0  0  0  0  0  # atno 17394 bound_to 11000
  139.8899  135.0108  156.6704 LP  0  0  0  0  0  0  0  0  0  0  0  0  # atno 17395 bound_to 11000

$$$$
