AV-unprocessed.smi:69|AV-procd|sdf|645|dock4
  -GOLD-   2262016543D 1   1.00000     0.00000
 Structure written by MMmdl.
 32 34  0  0  0  0  0  0  0  0  1 V2000
  152.4566  139.6905  159.0578 N   0  0  0  0  0  0  0  0  0  0  0  0
  152.1298  139.6354  157.7592 C   0  0  0  0  0  0  0  0  0  0  0  0
  152.9492  138.9617  156.9187 N   0  0  0  0  0  0  0  0  0  0  0  0
  152.6441  138.8910  155.6192 C   0  0  0  0  0  0  0  0  0  0  0  0
  151.5953  139.4131  154.9781 N   0  0  0  0  0  0  0  0  0  0  0  0
  150.7681  140.0927  155.8254 C   0  0  0  0  0  0  0  0  0  0  0  0
  150.9677  140.2484  157.2259 C   0  0  0  0  0  0  0  0  0  0  0  0
  149.9336  140.9956  157.7713 N   0  0  0  0  0  0  0  0  0  0  0  0
  149.1656  141.2598  156.7489 C   0  0  0  0  0  0  0  0  0  0  0  0
  149.5936  140.7620  155.5366 N   0  0  0  0  0  0  0  0  0  0  0  0
  148.9029  140.8947  154.2131 C   0  0  2  0  0  0  0  0  0  0  0  0
  148.2355  142.1224  154.1906 O   0  0  0  0  0  0  0  0  0  0  0  0
  146.8262  141.9321  154.0709 C   0  0  1  0  0  0  0  0  0  0  0  0
  146.1676  143.1180  153.3438 C   0  0  0  0  0  0  0  0  0  0  0  0
  144.8630  143.3282  153.8408 O   0  0  0  0  0  0  0  0  0  0  0  0
  146.7057  140.5724  153.3712 C   0  0  1  0  0  0  0  0  0  0  0  0
  146.8498  140.7199  151.9667 O   0  0  0  0  0  0  0  0  0  0  0  0
  147.8564  139.7905  153.9968 C   0  0  1  0  0  0  0  0  0  0  0  0
  148.3002  138.7457  153.1507 O   0  0  0  0  0  0  0  0  0  0  0  0
  149.6978  140.9014  153.4658 H   0  0  0  0  0  0  0  0  0  0  0  0
  146.3941  141.8326  155.0666 H   0  0  0  0  0  0  0  0  0  0  0  0
  145.7431  140.0993  153.5679 H   0  0  0  0  0  0  0  0  0  0  0  0
  147.5411  139.3781  154.9554 H   0  0  0  0  0  0  0  0  0  0  0  0
  151.8613  140.1869  159.7052 H   0  0  0  0  0  0  0  0  0  0  0  0
  153.2938  139.2318  159.3867 H   0  0  0  0  0  0  0  0  0  0  0  0
  153.3393  138.3379  155.0050 H   0  0  0  0  0  0  0  0  0  0  0  0
  148.2548  141.8314  156.8538 H   0  0  0  0  0  0  0  0  0  0  0  0
  146.7612  144.0271  153.4447 H   0  0  0  0  0  0  0  0  0  0  0  0
  146.0786  142.9028  152.2786 H   0  0  0  0  0  0  0  0  0  0  0  0
  144.2464  143.1689  153.1426 H   0  0  0  0  0  0  0  0  0  0  0  0
  147.7715  140.6871  151.7585 H   0  0  0  0  0  0  0  0  0  0  0  0
  148.7366  139.1297  152.4058 H   0  0  0  0  0  0  0  0  0  0  0  0
  1  2  1  0  0  0  0
  1 24  1  0  0  0  0
  1 25  1  0  0  0  0
  2  7  1  0  0  0  0
  2  3  2  0  0  0  0
  3  4  1  0  0  0  0
  4  5  2  0  0  0  0
  4 26  1  0  0  0  0
  5  6  1  0  0  0  0
  6 10  1  0  0  0  0
  6  7  2  0  0  0  0
  7  8  1  0  0  0  0
  8  9  2  0  0  0  0
  9 10  1  0  0  0  0
  9 27  1  0  0  0  0
 10 11  1  0  0  0  0
 11 20  1  0  0  0  0
 11 18  1  0  0  0  0
 11 12  1  0  0  0  0
 12 13  1  0  0  0  0
 13 21  1  0  0  0  0
 13 14  1  0  0  0  0
 13 16  1  0  0  0  0
 14 15  1  0  0  0  0
 14 28  1  0  0  0  0
 14 29  1  0  0  0  0
 15 30  1  0  0  0  0
 16 22  1  0  0  0  0
 16 17  1  0  0  0  0
 16 18  1  0  0  0  0
 17 31  1  0  0  0  0
 18 23  1  0  0  0  0
 18 19  1  0  0  0  0
 19 32  1  0  0  0  0
M  END
> <s_m_source_file>
AV-unprocessed.smi

> <i_m_source_file_index>
69

> <i_lp_mmshare_version>
43012

> <i_f3d_flags>
0

> <s_epik_input>
bjFbY0hdbmMoW05IMl0pYyhjMTIpbltjSF1uMltDQEBIXTNPW0NASF0oW0NIMl1bT0hdKVtDQEBIXShbT0hdKVtDQEhdM1tPSF0=

> <s_epik_cmdline>
J2VwaWtfcHl0aG9uJywgJy1waCcsICc3LjAnLCAnLXRuJywgJzgnLCAnLW1hJywgJzIwMCcsICctbWV0YWxfYmluZGluZycsICctaW1hZScsICc8aW5maWxlLm1hZT4nLCAnLW9tYWUnLCAnPG91dGZpbGUubWFlPic=

> <r_lp_tautomer_probability>
1

> <r_epik_Ionization_Penalty>
0.000428445

> <r_epik_Ionization_Penalty_Charging>
0

> <r_epik_Ionization_Penalty_Neutral>
0.000428445

> <r_epik_State_Penalty>
-0

> <r_epik_Charging_Adjusted_Penalty>
0

> <i_epik_Tot_Q>
0

> <i_epik_Tot_abs_Q>
0

> <r_epik_Metal_State_Penalty>
-0

> <b_epik_Metal_Only>
0

> <s_epik_Chemistry_Notes>
This compound contains an acetal/aminal-like group ( X-CH(R)-Y where X, Y are N, S, or O) that may be acid/base labile, releasing an aldehyde.

> <s_lp_Force_Field>
OPLS_2005

> <r_lp_Energy>
42.3633

> <b_lp_Chiralities_Consistent>
1

> <s_lp_Variant>
AV-unprocessed.smi:69-3

> <Gold.Version>
5.8.1

> <Gold.Id.Protein>
6NUR|6NUR_protein|mol2

> <Gold.PLP.Fitness>
38.8710

> <Gold.PLP.PLP>
-30.6450

> <Gold.PLP.part.hbond>
-7.6209

> <Gold.PLP.part.metal>
0.0000

> <Gold.PLP.part.buried>
0.1319

> <Gold.PLP.part.nonpolar>
-23.0388

> <Gold.PLP.part.repulsive>
0.9716

> <Gold.PLP.ligand.clash>
0.0000

> <Gold.PLP.ligand.torsion>
1.1785

> <Gold.PLP.Chemscore.Hbond>
3.5251

> <Gold.PLP.Chemscore.CHOScore>
0.0000

> <Gold.PLP.Chemscore.Metal>
0.0000

> <Gold.Chemscore.Hbonds>
donor molecule, donor type, donor heavy atom, donor atom, acceptor molecule, acceptor atom, score
      L1  H    15    30       P1 10174  0.50
      L1  H    17    31       P1  7957  1.00
      L1  H    19    32       P1  7957  1.00
      P1  H  7989  7998       L1     5  0.77

> <Gold.PLP.Chemscore.Internal.Correction>
0.0075

> <Gold.Rescore>
     Score         DG    S(hbond)    S(metal)    S(lipo)     H(rot)  DE(clash)    DE(int)     intcor
      2.75      -6.55       2.35        0.00      30.21       4.03       2.69       1.11       ----

> <Gold.Chemscore.Fitness>
2.7459

> <Gold.Chemscore.DG>
-6.5464

> <Gold.Chemscore.ZeroCoef>
-5.4800

> <Gold.Chemscore.Hbond>
2.3482

> <Gold.Chemscore.Metal>
0.0000

> <Gold.Chemscore.Lipo>
30.2085

> <Gold.Chemscore.Internal_Hbond>
0.0000

> <Gold.Chemscore.DEClash>
2.6893

> <Gold.Chemscore.DEInternal>
1.1112

> <Gold.Chemscore.Rot>
4.0277

> <Gold.Chemscore.Internal.Correction>
   9.000000E+99

> <Gold.Chemscore.Hbonds>
donor molecule, donor type, donor heavy atom, donor atom, acceptor molecule, acceptor atom, score
      L1  H    15    30       P1 10174  0.02
      L1  H    17    31       P1  7957  0.96
      L1  H    19    32       P1  7957  1.00
      P1  H  7989  7998       L1     5  0.13

> <Gold.Chemscore.Hbond.Weighted>
-7.8430

> <Gold.Chemscore.Metal.Weighted>
-0.0000

> <Gold.Chemscore.Lipo.Weighted>
-3.5344

> <Gold.Chemscore.Internal_Hbond.Weighted>
0.0000

> <Gold.Chemscore.DEClash.Weighted>
2.6893

> <Gold.Chemscore.DEInternal.Weighted>
1.1112

> <Gold.Chemscore.Rot.Weighted>
10.3110

> <Gold.Chemscore.Internal.Correction.Weighted>
   9.000000E+99

> <Gold.Protein.RotatedTorsions>
[ 6907 6896 6895 6894 ] final   25.26 input  -60.11 | X-H torsion
[ 7974 7965 7964 7962 ] final  -25.01 input  175.53 | X-H torsion
[ 8008 7997 7996 7995 ] final  -30.72 input   59.86 | X-H torsion
[ 10167 10162 10161 10158 ] final  -59.57 input  -65.29 | X-H torsion
[ 10718 10713 10712 10709 ] final   -6.90 input   66.30 | X-H torsion
[ 10763 10752 10751 10750 ] final   65.27 input  -60.55 | X-H torsion
[ 11005 11000 10999 10996 ] final  -66.66 input  -57.11 | X-H torsion

> <Gold.Protein.ActiveResidues>
 VAL166  LYS551  ARG553  GLY616  TRP617  ASP618  TYR619  PRO620  LYS621  CYS622 
 ASP623  PHE694  ASN695  SER759  ASP760  ASP761  ALA762  ILE779  LEU786  VAL792 
 PHE793  MET794  SER795  GLU796  ALA797  LYS798  CYS799  TRP800  GLU811  SER814 

> <Gold.Protein.RotatedAtoms>
  151.9698  135.0082  160.0551 H   0  0  0  0  0  0  0  0  0  0  0  0  # atno 6907 bound_to 6896
  152.1793  133.4692  159.4958 H   0  0  0  0  0  0  0  0  0  0  0  0  # atno 6908 bound_to 6896
  150.6914  134.1771  159.4277 H   0  0  0  0  0  0  0  0  0  0  0  0  # atno 6909 bound_to 6896
  146.1519  140.4828  142.8608 H   0  0  0  0  0  0  0  0  0  0  0  0  # atno 7974 bound_to 7965
  154.4240  140.1784  156.1451 H   0  0  0  0  0  0  0  0  0  0  0  0  # atno 8008 bound_to 7997
  155.9960  140.3364  155.6774 H   0  0  0  0  0  0  0  0  0  0  0  0  # atno 8009 bound_to 7997
  155.6308  140.0669  157.2640 H   0  0  0  0  0  0  0  0  0  0  0  0  # atno 8010 bound_to 7997
  140.6127  143.2392  151.5671 H   0  0  0  0  0  0  0  0  0  0  0  0  # atno 10167 bound_to 10162
  156.7251  130.5163  149.5859 H   0  0  0  0  0  0  0  0  0  0  0  0  # atno 10718 bound_to 10713
  153.0090  135.5363  154.6642 H   0  0  0  0  0  0  0  0  0  0  0  0  # atno 10763 bound_to 10752
  154.5843  135.2853  155.0703 H   0  0  0  0  0  0  0  0  0  0  0  0  # atno 10764 bound_to 10752
  154.1821  135.6514  153.5089 H   0  0  0  0  0  0  0  0  0  0  0  0  # atno 10765 bound_to 10752
  141.1488  133.6704  156.6174 H   0  0  0  0  0  0  0  0  0  0  0  0  # atno 11005 bound_to 11000
  144.7914  140.6039  143.6539 LP  0  0  0  0  0  0  0  0  0  0  0  0  # atno 17320 bound_to 7965
  145.4803  139.1496  143.3765 LP  0  0  0  0  0  0  0  0  0  0  0  0  # atno 17321 bound_to 7965
  139.5374  144.2743  152.1279 LP  0  0  0  0  0  0  0  0  0  0  0  0  # atno 17342 bound_to 10162
  140.1946  144.4718  150.6462 LP  0  0  0  0  0  0  0  0  0  0  0  0  # atno 17343 bound_to 10162
  156.1568  130.6347  151.0667 LP  0  0  0  0  0  0  0  0  0  0  0  0  # atno 17370 bound_to 10713
  157.6882  131.0818  150.7183 LP  0  0  0  0  0  0  0  0  0  0  0  0  # atno 17371 bound_to 10713
  140.3567  134.7722  157.4505 LP  0  0  0  0  0  0  0  0  0  0  0  0  # atno 17394 bound_to 11000
  140.0817  134.5721  155.8533 LP  0  0  0  0  0  0  0  0  0  0  0  0  # atno 17395 bound_to 11000

$$$$
