#       Name:                AV-unprocessed.smi:72
#       Creating user name   scv26
#       Creation time:       Thu Mar 26 16:56:24 2020


#       File generated by GOLD software.
#

@<TRIPOS>MOLECULE
AV-unprocessed.smi:72
    41    42     1
SMALL
NO_CHARGES


@<TRIPOS>ATOM
      1 ****        -2.0883   4.5276  -0.8977 N.2            1 S1                 0.0000
      2 ****        -1.6349   3.3766  -0.5492 C.2            1 S1                 0.0000
      3 ****        -0.2913   2.9784  -0.6219 N.2            1 S1                 0.0000
      4 ****         0.0271   1.7861  -0.2214 C.2            1 S1                 0.0000
      5 ****        -0.9598   0.8571   0.3070 N.am           1 S1                 0.0000
      6 ****        -0.5676  -0.5315   0.7580 C.3            1 S1                 0.0000
      7 ****         0.7150  -0.4876   1.3153 O.3            1 S1                 0.0000
      8 ****         1.5139  -1.5149   0.7422 C.3            1 S1                 0.0000
      9 ****         3.0117  -1.1773   0.8557 C.3            1 S1                 0.0000
     10 ****         3.3996  -0.1588  -0.0436 O.3            1 S1                 0.0000
     11 ****         0.9455  -1.7067  -0.6657 C.3            1 S1                 0.0000
     12 ****         1.2632  -2.9675  -1.2248 O.3            1 S1                 0.0000
     13 ****        -0.5500  -1.5025  -0.4378 C.3            1 S1                 0.0000
     14 ****        -1.2264  -2.7045  -0.1181 O.3            1 S1                 0.0000
     15 ****        -2.3248   1.2303   0.3555 C.2            1 S1                 0.0000
     16 ****        -3.2072   0.4672   0.7482 O.2            1 S1                 0.0000
     17 ****        -2.6014   2.4829  -0.0677 N.am           1 S1                 0.0000
     18 ****        -1.2731  -0.8122   1.5419 H              1 S1                 0.0000
     19 ****         1.3167  -2.4139   1.3294 H              1 S1                 0.0000
     20 ****         1.3036  -0.9233  -1.3342 H              1 S1                 0.0000
     21 ****        -1.0334  -1.0614  -1.3109 H              1 S1                 0.0000
     22 ****        -3.0866   4.5739  -0.7549 H              1 S1                 0.0000
     23 ****         1.0482   1.4053  -0.2588 H              1 S1                 0.0000
     24 ****         3.2617  -0.8802   1.8746 H              1 S1                 0.0000
     25 ****         3.6038  -2.0641   0.6282 H              1 S1                 0.0000
     26 ****         4.3264  -0.0050   0.0587 H              1 S1                 0.0000
     27 ****         0.8022  -3.0561  -2.0449 H              1 S1                 0.0000
     28 ****        -2.1291  -2.4994   0.0724 H              1 S1                 0.0000
     29 ****        -3.5653   2.7811  -0.0389 H              1 S1                 0.0000
     30 ****        -1.5297   5.2737  -1.2599 LP             1 S1                 0.0000
     31 ****         0.4068   3.6011  -0.9753 LP             1 S1                 0.0000
     32 ****         0.6541  -0.6246   2.3040 LP             1 S1                 0.0000
     33 ****         1.1304   0.4023   1.1271 LP             1 S1                 0.0000
     34 ****         2.8942   0.6800   0.1586 LP             1 S1                 0.0000
     35 ****         3.2070  -0.4461  -0.9818 LP             1 S1                 0.0000
     36 ****         0.9814  -3.6948  -0.5990 LP             1 S1                 0.0000
     37 ****         2.2487  -3.0276  -1.3834 LP             1 S1                 0.0000
     38 ****        -0.8009  -3.1285   0.6814 LP             1 S1                 0.0000
     39 ****        -1.1800  -3.3341  -0.8936 LP             1 S1                 0.0000
     40 ****        -2.9716  -0.4569   1.0492 LP             1 S1                 0.0000
     41 ****        -4.1596   0.7713   0.7663 LP             1 S1                 0.0000
@<TRIPOS>BOND
    1    1    2 2     
    2    1   22 1     
    3    2   17 1     
    4    2    3 1     
    5    3    4 2     
    6    4    5 1     
    7    4   23 1     
    8    5    6 1     
    9    5   15 am    
   10    6   18 1     
   11    6   13 1     
   12    6    7 1     
   13    7    8 1     
   14    8   19 1     
   15    8    9 1     
   16    8   11 1     
   17    9   10 1     
   18    9   24 1     
   19    9   25 1     
   20   10   26 1     
   21   11   20 1     
   22   11   12 1     
   23   11   13 1     
   24   12   27 1     
   25   13   21 1     
   26   13   14 1     
   27   14   28 1     
   28   15   16 2     
   29   15   17 am    
   30   17   29 1     
   31    1   30 1     
   32    3   31 1     
   33    7   32 1     
   34    7   33 1     
   35   10   34 1     
   36   10   35 1     
   37   12   36 1     
   38   12   37 1     
   39   14   38 1     
   40   14   39 1     
   41   16   40 1     
   42   16   41 1     
@<TRIPOS>SUBSTRUCTURE
      1 S1             1
@<TRIPOS>SET
LONE_PAIRS      STATIC     ATOMS    <user>   **** ""
12 30 31 32 33 34 35 36 37 38 39 40 41
DONOR_HYDROGENS      STATIC     ATOMS    <user>   **** ""
5 22 26 27 28 29
ATOM$BLUE        STATIC     ATOMS    COLORGROUP SYSTEM
12 30 31 32 33 34 35 36 37 38 39 40 41
ATOM$RED        STATIC     ATOMS    COLORGROUP SYSTEM
5 22 26 27 28 29
