AV-unprocessed.smi:1818|AV-procd|sdf|7381|dock6
  -GOLD-   22720 9 53D 1   1.00000     0.00000
 Structure written by MMmdl.
 37 38  0  0  0  0  0  0  0  0  2 V2000
  152.3904  139.9304  158.7966 N   0  0  0  0  0  0  0  0  0  0  0  0
  151.8326  140.8702  158.4164 C   0  0  0  0  0  0  0  0  0  0  0  0
  151.1217  142.0698  157.9313 C   0  0  0  0  0  0  0  0  0  0  0  0
  150.6201  141.8507  156.5708 N   0  0  0  0  0  0  0  0  0  0  0  0
  149.8189  140.8573  156.1502 C   0  0  0  0  0  0  0  0  0  0  0  0
  149.3709  139.9801  156.8866 O   0  0  0  0  0  0  0  0  0  0  0  0
  149.4883  140.8382  154.6583 C   0  0  0  0  0  0  0  0  0  0  0  0
  148.0947  141.2284  154.4251 N   0  0  0  0  0  0  0  0  0  0  0  0
  147.3964  142.2341  155.0442 C   0  0  0  0  0  0  0  0  0  0  0  0
  146.1393  142.2315  154.4964 C   0  0  0  0  0  0  0  0  0  0  0  0
  146.1234  141.2266  153.5664 N   0  3  0  0  0  0  0  0  0  0  0  0
  147.3130  140.6178  153.5245 C   0  0  0  0  0  0  0  0  0  0  0  0
  149.8919  142.2747  158.8496 C   0  0  0  0  0  0  0  0  0  0  0  0
  149.2786  143.6864  158.8532 C   0  0  0  0  0  0  0  0  0  0  0  0
  149.9187  144.6034  159.9111 C   0  0  0  0  0  0  0  0  0  0  0  0
  151.3462  145.0712  159.5866 C   0  0  0  0  0  0  0  0  0  0  0  0
  152.3481  143.9420  159.2865 C   0  0  0  0  0  0  0  0  0  0  0  0
  152.0920  143.2808  157.9218 C   0  0  0  0  0  0  0  0  0  0  0  0
  150.9240  142.5204  155.8793 H   0  0  0  0  0  0  0  0  0  0  0  0
  150.1382  141.5265  154.1154 H   0  0  0  0  0  0  0  0  0  0  0  0
  149.6443  139.8422  154.2409 H   0  0  0  0  0  0  0  0  0  0  0  0
  147.8341  142.8612  155.8075 H   0  0  0  0  0  0  0  0  0  0  0  0
  145.2780  142.8536  154.6927 H   0  0  0  0  0  0  0  0  0  0  0  0
  147.5897  139.7976  152.8858 H   0  0  0  0  0  0  0  0  0  0  0  0
  149.1200  141.5565  158.5681 H   0  0  0  0  0  0  0  0  0  0  0  0
  150.1495  142.0040  159.8749 H   0  0  0  0  0  0  0  0  0  0  0  0
  149.3149  144.1383  157.8615 H   0  0  0  0  0  0  0  0  0  0  0  0
  148.2201  143.5923  159.0981 H   0  0  0  0  0  0  0  0  0  0  0  0
  149.2912  145.4868  160.0331 H   0  0  0  0  0  0  0  0  0  0  0  0
  149.9107  144.1044  160.8809 H   0  0  0  0  0  0  0  0  0  0  0  0
  151.3191  145.7677  158.7477 H   0  0  0  0  0  0  0  0  0  0  0  0
  151.7159  145.6493  160.4342 H   0  0  0  0  0  0  0  0  0  0  0  0
  153.3451  144.3836  159.2663 H   0  0  0  0  0  0  0  0  0  0  0  0
  152.3662  143.2030  160.0882 H   0  0  0  0  0  0  0  0  0  0  0  0
  153.0516  142.9473  157.5244 H   0  0  0  0  0  0  0  0  0  0  0  0
  151.7480  144.0400  157.2176 H   0  0  0  0  0  0  0  0  0  0  0  0
  145.3279  140.9784  152.9915 H   0  0  0  0  0  0  0  0  0  0  0  0
  1  2  3  0  0  0  0
  2  3  1  0  0  0  0
  3 18  1  0  0  0  0
  3  4  1  0  0  0  0
  3 13  1  0  0  0  0
  4  5  1  0  0  0  0
  4 19  1  0  0  0  0
  5  6  2  0  0  0  0
  5  7  1  0  0  0  0
  7  8  1  0  0  0  0
  7 20  1  0  0  0  0
  7 21  1  0  0  0  0
  8 12  1  0  0  0  0
  8  9  1  0  0  0  0
  9 10  2  0  0  0  0
  9 22  1  0  0  0  0
 10 11  1  0  0  0  0
 10 23  1  0  0  0  0
 11 12  2  0  0  0  0
 11 37  1  0  0  0  0
 12 24  1  0  0  0  0
 13 14  1  0  0  0  0
 13 25  1  0  0  0  0
 13 26  1  0  0  0  0
 14 15  1  0  0  0  0
 14 27  1  0  0  0  0
 14 28  1  0  0  0  0
 15 16  1  0  0  0  0
 15 29  1  0  0  0  0
 15 30  1  0  0  0  0
 16 17  1  0  0  0  0
 16 31  1  0  0  0  0
 16 32  1  0  0  0  0
 17 18  1  0  0  0  0
 17 33  1  0  0  0  0
 17 34  1  0  0  0  0
 18 35  1  0  0  0  0
 18 36  1  0  0  0  0
M  CHG  1  11   1
M  END
> <s_m_source_file>
AV-unprocessed.smi

> <i_m_source_file_index>
1818

> <i_lp_mmshare_version>
43012

> <i_f3d_flags>
0

> <s_epik_input>
W0NIMl0xW0NIMl1bQ0gyXVtDSDJdW0NIMl1bQ0gyXUMxKEMjTilbTkhdQyg9TylbQ0gyXW4yW2NIXVtjSF1uW2NIXTI=

> <s_epik_cmdline>
J2VwaWtfcHl0aG9uJywgJy1waCcsICc3LjAnLCAnLXRuJywgJzgnLCAnLW1hJywgJzIwMCcsICctbWV0YWxfYmluZGluZycsICctaW1hZScsICc8aW5maWxlLm1hZT4nLCAnLW9tYWUnLCAnPG91dGZpbGUubWFlPic=

> <r_lp_tautomer_probability>
1

> <r_epik_Ionization_Penalty>
0.70502

> <r_epik_Ionization_Penalty_Charging>
0

> <r_epik_Ionization_Penalty_Neutral>
0.70502

> <r_epik_State_Penalty>
0.72808

> <r_epik_Charging_Adjusted_Penalty>
0.72808

> <i_epik_Tot_Q>
1

> <i_epik_Tot_abs_Q>
1

> <r_epik_Metal_State_Penalty>
0.891186

> <b_epik_Metal_Only>
0

> <s_lp_Force_Field>
OPLS_2005

> <r_lp_Energy>
19.4839

> <b_lp_Chiralities_Consistent>
1

> <s_lp_Variant>
AV-unprocessed.smi:1818-2

> <Gold.Version>
5.8.1

> <Gold.Id.Protein>
6NUR|6NUR_protein|mol2

> <Gold.PLP.Fitness>
47.4691

> <Gold.PLP.PLP>
-34.1222

> <Gold.PLP.part.hbond>
-2.5749

> <Gold.PLP.part.metal>
0.0000

> <Gold.PLP.part.buried>
0.0328

> <Gold.PLP.part.nonpolar>
-31.4675

> <Gold.PLP.part.repulsive>
0.1158

> <Gold.PLP.ligand.clash>
0.0000

> <Gold.PLP.ligand.torsion>
0.4161

> <Gold.PLP.Chemscore.Hbond>
2.7441

> <Gold.PLP.Chemscore.CHOScore>
1.9793

> <Gold.PLP.Chemscore.Metal>
0.0000

> <Gold.Chemscore.Hbonds>
donor molecule, donor type, donor heavy atom, donor atom, acceptor molecule, acceptor atom, score
      L1  H    11    37       P1 10175  2.00
      L1  C     9    22       P1  8028  1.00
      L1  C    12    24       P1  7957  0.57

> <Gold.PLP.Chemscore.Internal.Correction>
0.0087

> <Gold.Rescore>
     Score         DG    S(hbond)    S(metal)    S(lipo)     H(rot)  DE(clash)    DE(int)     intcor
     14.10     -16.41       1.79        0.00      79.33       1.69       0.72       1.59       ----

> <Gold.Chemscore.Fitness>
14.0987

> <Gold.Chemscore.DG>
-16.4092

> <Gold.Chemscore.ZeroCoef>
-5.4800

> <Gold.Chemscore.Hbond>
1.7923

> <Gold.Chemscore.Metal>
0.0000

> <Gold.Chemscore.Lipo>
79.3302

> <Gold.Chemscore.Internal_Hbond>
0.0000

> <Gold.Chemscore.DEClash>
0.7247

> <Gold.Chemscore.DEInternal>
1.5858

> <Gold.Chemscore.Rot>
1.6947

> <Gold.Chemscore.Internal.Correction>
   9.000000E+99

> <Gold.Chemscore.Hbonds>
donor molecule, donor type, donor heavy atom, donor atom, acceptor molecule, acceptor atom, score
      L1  H    11    37       P1 10175  0.30

> <Gold.Chemscore.Hbond.Weighted>
-5.9862

> <Gold.Chemscore.Metal.Weighted>
-0.0000

> <Gold.Chemscore.Lipo.Weighted>
-9.2816

> <Gold.Chemscore.Internal_Hbond.Weighted>
0.0000

> <Gold.Chemscore.DEClash.Weighted>
0.7247

> <Gold.Chemscore.DEInternal.Weighted>
1.5858

> <Gold.Chemscore.Rot.Weighted>
4.3386

> <Gold.Chemscore.Internal.Correction.Weighted>
   9.000000E+99

> <Gold.Protein.RotatedTorsions>
[ 6907 6896 6895 6894 ] final -174.82 input  -60.11 | X-H torsion
[ 7974 7965 7964 7962 ] final   15.47 input  175.53 | X-H torsion
[ 8008 7997 7996 7995 ] final  154.45 input   59.86 | X-H torsion
[ 10167 10162 10161 10158 ] final -111.12 input  -65.29 | X-H torsion
[ 10718 10713 10712 10709 ] final  149.89 input   66.30 | X-H torsion
[ 10763 10752 10751 10750 ] final   24.20 input  -60.55 | X-H torsion
[ 11005 11000 10999 10996 ] final  117.44 input  -57.11 | X-H torsion

> <Gold.Protein.ActiveResidues>
 VAL166  LYS551  ARG553  GLY616  TRP617  ASP618  TYR619  PRO620  LYS621  CYS622 
 ASP623  PHE694  ASN695  SER759  ASP760  ASP761  ALA762  ILE779  LEU786  VAL792 
 PHE793  MET794  SER795  GLU796  ALA797  LYS798  CYS799  TRP800  GLU811  SER814 

> <Gold.Protein.RotatedAtoms>
  151.5785  133.3380  159.3003 H   0  0  0  0  0  0  0  0  0  0  0  0  # atno 6907 bound_to 6896
  150.8327  134.7589  159.6878 H   0  0  0  0  0  0  0  0  0  0  0  0  # atno 6908 bound_to 6896
  152.4408  134.5602  159.9943 H   0  0  0  0  0  0  0  0  0  0  0  0  # atno 6909 bound_to 6896
  146.2277  139.8890  142.8558 H   0  0  0  0  0  0  0  0  0  0  0  0  # atno 7974 bound_to 7965
  156.2530  140.1966  156.6649 H   0  0  0  0  0  0  0  0  0  0  0  0  # atno 8008 bound_to 7997
  154.6437  140.0580  156.9900 H   0  0  0  0  0  0  0  0  0  0  0  0  # atno 8009 bound_to 7997
  155.1524  140.3252  155.4431 H   0  0  0  0  0  0  0  0  0  0  0  0  # atno 8010 bound_to 7997
  140.1370  143.4311  152.1588 H   0  0  0  0  0  0  0  0  0  0  0  0  # atno 10167 bound_to 10162
  157.2904  131.0852  151.1466 H   0  0  0  0  0  0  0  0  0  0  0  0  # atno 10718 bound_to 10713
  153.0781  135.6610  154.0102 H   0  0  0  0  0  0  0  0  0  0  0  0  # atno 10763 bound_to 10752
  153.9731  135.2962  155.3427 H   0  0  0  0  0  0  0  0  0  0  0  0  # atno 10764 bound_to 10752
  154.7174  135.5179  153.8830 H   0  0  0  0  0  0  0  0  0  0  0  0  # atno 10765 bound_to 10752
  139.9075  134.9610  156.7351 H   0  0  0  0  0  0  0  0  0  0  0  0  # atno 11005 bound_to 11000
  145.2436  141.0018  143.3921 LP  0  0  0  0  0  0  0  0  0  0  0  0  # atno 17320 bound_to 7965
  144.9431  139.4166  143.6439 LP  0  0  0  0  0  0  0  0  0  0  0  0  # atno 17321 bound_to 7965
  139.5491  144.7323  151.4491 LP  0  0  0  0  0  0  0  0  0  0  0  0  # atno 17342 bound_to 10162
  140.6783  143.8140  150.7087 LP  0  0  0  0  0  0  0  0  0  0  0  0  # atno 17343 bound_to 10162
  157.2865  130.6775  149.6092 LP  0  0  0  0  0  0  0  0  0  0  0  0  # atno 17370 bound_to 10713
  155.9667  130.4434  150.5419 LP  0  0  0  0  0  0  0  0  0  0  0  0  # atno 17371 bound_to 10713
  140.6894  133.9404  155.7957 LP  0  0  0  0  0  0  0  0  0  0  0  0  # atno 17394 bound_to 11000
  141.0453  134.0563  157.3852 LP  0  0  0  0  0  0  0  0  0  0  0  0  # atno 17395 bound_to 11000

$$$$
