AV-unprocessed.smi:102|AV-procd|sdf|947|dock4
  -GOLD-   2262017473D 1   1.00000     0.00000
 Structure written by MMmdl.
 44 45  0  0  0  0  0  0  0  0  1 V2000
  150.2755  132.2676  155.1922 C   0  0  0  0  0  0  0  0  0  0  0  0
  150.3267  132.8901  156.5809 C   0  0  0  0  0  0  0  0  0  0  0  0
  151.2080  132.5928  157.3872 O   0  0  0  0  0  0  0  0  0  0  0  0
  149.3283  133.7592  156.7895 O   0  0  0  0  0  0  0  0  0  0  0  0
  149.2201  134.4191  158.0414 C   0  0  0  0  0  0  0  0  0  0  0  0
  147.9516  135.2828  158.0870 C   0  0  2  0  0  0  0  0  0  0  0  0
  147.8153  136.0454  156.8901 O   0  0  0  0  0  0  0  0  0  0  0  0
  147.7350  137.4111  157.1750 C   0  0  2  0  0  0  0  0  0  0  0  0
  149.1100  138.0196  156.9322 N   0  0  0  0  0  0  0  0  0  0  0  0
  149.9110  138.5726  157.9294 C   0  0  0  0  0  0  0  0  0  0  0  0
  151.1508  139.0643  157.6950 C   0  0  0  0  0  0  0  0  0  0  0  0
  151.8632  139.5780  158.7121 F   0  0  0  0  0  0  0  0  0  0  0  0
  151.7270  139.0313  156.3557 C   0  0  0  0  0  0  0  0  0  0  0  0
  152.8408  139.4507  156.0476 O   0  0  0  0  0  0  0  0  0  0  0  0
  150.8994  138.4573  155.3888 N   0  0  0  0  0  0  0  0  0  0  0  0
  149.6216  137.9451  155.6159 C   0  0  0  0  0  0  0  0  0  0  0  0
  148.9879  137.4514  154.6838 O   0  0  0  0  0  0  0  0  0  0  0  0
  147.2382  137.5052  158.6272 C   0  0  1  0  0  0  0  0  0  0  0  0
  145.8163  137.4067  158.6423 O   0  0  0  0  0  0  0  0  0  0  0  0
  145.1328  137.5947  159.7844 C   0  0  0  0  0  0  0  0  0  0  0  0
  143.6276  137.6439  159.5593 C   0  0  0  0  0  0  0  0  0  0  0  0
  145.6199  137.7269  160.9071 O   0  0  0  0  0  0  0  0  0  0  0  0
  147.8778  136.2694  159.2575 C   0  0  1  0  0  0  0  0  0  0  0  0
  147.1256  135.7542  160.3502 O   0  0  0  0  0  0  0  0  0  0  0  0
  147.5773  135.9021  161.6080 C   0  0  0  0  0  0  0  0  0  0  0  0
  147.1105  134.7838  162.5303 C   0  0  0  0  0  0  0  0  0  0  0  0
  148.2821  136.8236  162.0201 O   0  0  0  0  0  0  0  0  0  0  0  0
  151.2577  138.4047  154.4465 H   0  0  0  0  0  0  0  0  0  0  0  0
  150.1355  133.0377  154.4336 H   0  0  0  0  0  0  0  0  0  0  0  0
  149.4486  131.5606  155.1266 H   0  0  0  0  0  0  0  0  0  0  0  0
  151.2023  131.7356  154.9770 H   0  0  0  0  0  0  0  0  0  0  0  0
  149.1963  133.6834  158.8464 H   0  0  0  0  0  0  0  0  0  0  0  0
  150.0990  135.0460  158.1982 H   0  0  0  0  0  0  0  0  0  0  0  0
  147.0825  134.6246  158.1197 H   0  0  0  0  0  0  0  0  0  0  0  0
  147.0807  137.9314  156.4722 H   0  0  0  0  0  0  0  0  0  0  0  0
  149.5724  138.6321  158.9502 H   0  0  0  0  0  0  0  0  0  0  0  0
  147.5458  138.4326  159.1098 H   0  0  0  0  0  0  0  0  0  0  0  0
  143.3256  136.8976  158.8242 H   0  0  0  0  0  0  0  0  0  0  0  0
  143.3332  138.6284  159.1964 H   0  0  0  0  0  0  0  0  0  0  0  0
  143.0958  137.4452  160.4900 H   0  0  0  0  0  0  0  0  0  0  0  0
  148.8908  136.5038  159.5836 H   0  0  0  0  0  0  0  0  0  0  0  0
  147.0728  133.8347  161.9952 H   0  0  0  0  0  0  0  0  0  0  0  0
  146.1153  135.0051  162.9157 H   0  0  0  0  0  0  0  0  0  0  0  0
  147.7924  134.6761  163.3740 H   0  0  0  0  0  0  0  0  0  0  0  0
  1  2  1  0  0  0  0
  1 29  1  0  0  0  0
  1 30  1  0  0  0  0
  1 31  1  0  0  0  0
  2  3  2  0  0  0  0
  2  4  1  0  0  0  0
  4  5  1  0  0  0  0
  5  6  1  0  0  0  0
  5 32  1  0  0  0  0
  5 33  1  0  0  0  0
  6 23  1  0  0  0  0
  6  7  1  0  0  0  0
  6 34  1  0  0  0  0
  7  8  1  0  0  0  0
  8  9  1  0  0  0  0
  8 18  1  0  0  0  0
  8 35  1  0  0  0  0
  9 16  1  0  0  0  0
  9 10  1  0  0  0  0
 10 11  2  0  0  0  0
 10 36  1  0  0  0  0
 11 12  1  0  0  0  0
 11 13  1  0  0  0  0
 13 14  2  0  0  0  0
 13 15  1  0  0  0  0
 15 28  1  0  0  0  0
 15 16  1  0  0  0  0
 16 17  2  0  0  0  0
 18 19  1  0  0  0  0
 18 23  1  0  0  0  0
 18 37  1  0  0  0  0
 19 20  1  0  0  0  0
 20 21  1  0  0  0  0
 20 22  2  0  0  0  0
 21 38  1  0  0  0  0
 21 39  1  0  0  0  0
 21 40  1  0  0  0  0
 23 24  1  0  0  0  0
 23 41  1  0  0  0  0
 24 25  1  0  0  0  0
 25 26  1  0  0  0  0
 25 27  2  0  0  0  0
 26 42  1  0  0  0  0
 26 43  1  0  0  0  0
 26 44  1  0  0  0  0
M  END
> <s_m_source_file>
AV-unprocessed.smi

> <i_m_source_file_index>
102

> <i_lp_mmshare_version>
43012

> <i_f3d_flags>
0

> <s_epik_input>
W0NIM11DKD1PKU9bQ0gyXVtDQEBIXTFPW0NASF0oW0NAQEhdKE9DKD1PKVtDSDNdKVtDQEhdMU9DKD1PKVtDSDNdKW4yW2NIXWMoRiljKD1PKVtuSF1jMj1P

> <s_epik_cmdline>
J2VwaWtfcHl0aG9uJywgJy1waCcsICc3LjAnLCAnLXRuJywgJzgnLCAnLW1hJywgJzIwMCcsICctbWV0YWxfYmluZGluZycsICctaW1hZScsICc8aW5maWxlLm1hZT4nLCAnLW9tYWUnLCAnPG91dGZpbGUubWFlPic=

> <r_lp_tautomer_probability>
0.999537

> <r_epik_Ionization_Penalty>
0.058267

> <r_epik_Ionization_Penalty_Charging>
0.058267

> <r_epik_Ionization_Penalty_Neutral>
6.57791e-16

> <r_epik_State_Penalty>
0.0503774

> <r_epik_Charging_Adjusted_Penalty>
0.108644

> <i_epik_Tot_Q>
0

> <i_epik_Tot_abs_Q>
0

> <r_epik_Metal_State_Penalty>
2.6644

> <b_epik_Metal_Only>
0

> <s_epik_Chemistry_Notes>
This compound has an ester and may undergo hydrolysis at high or low pH. This compound contains an acetal/aminal-like group ( X-CH(R)-Y where X, Y are N, S, or O) that may be acid/base labile, releasing an aldehyde.

> <s_lp_Force_Field>
OPLS_2005

> <r_lp_Energy>
12.8292

> <b_lp_Chiralities_Consistent>
1

> <s_lp_Variant>
AV-unprocessed.smi:102-3

> <Gold.Version>
5.8.1

> <Gold.Id.Protein>
6NUR|6NUR_protein|mol2

> <Gold.PLP.Fitness>
35.0277

> <Gold.PLP.PLP>
-25.5603

> <Gold.PLP.part.hbond>
-4.0924

> <Gold.PLP.part.metal>
0.0000

> <Gold.PLP.part.buried>
-4.1705

> <Gold.PLP.part.nonpolar>
-18.1619

> <Gold.PLP.part.repulsive>
0.2356

> <Gold.PLP.ligand.clash>
0.0000

> <Gold.PLP.ligand.torsion>
1.2633

> <Gold.PLP.Chemscore.Hbond>
3.9280

> <Gold.PLP.Chemscore.CHOScore>
0.0000

> <Gold.PLP.Chemscore.Metal>
0.0000

> <Gold.Chemscore.Hbonds>
donor molecule, donor type, donor heavy atom, donor atom, acceptor molecule, acceptor atom, score
      P1  H  6896  6909       L1     3  1.00
      P1  H  6931  6943       L1    27  1.00
      P1  H  6934  6947       L1    22  0.99
      P1  H  7997  8008       L1    14  1.00

> <Gold.PLP.Chemscore.Internal.Correction>
0.2101

> <Gold.Rescore>
     Score         DG    S(hbond)    S(metal)    S(lipo)     H(rot)  DE(clash)    DE(int)     intcor
      6.50     -10.95       3.70        0.00      29.90       4.05       0.04       4.41       ----

> <Gold.Chemscore.Fitness>
6.5028

> <Gold.Chemscore.DG>
-10.9516

> <Gold.Chemscore.ZeroCoef>
-5.4800

> <Gold.Chemscore.Hbond>
3.6966

> <Gold.Chemscore.Metal>
0.0000

> <Gold.Chemscore.Lipo>
29.8987

> <Gold.Chemscore.Internal_Hbond>
0.0000

> <Gold.Chemscore.DEClash>
0.0370

> <Gold.Chemscore.DEInternal>
4.4119

> <Gold.Chemscore.Rot>
4.0520

> <Gold.Chemscore.Internal.Correction>
   9.000000E+99

> <Gold.Chemscore.Hbonds>
donor molecule, donor type, donor heavy atom, donor atom, acceptor molecule, acceptor atom, score
      P1  H  6896  6909       L1     3  0.90
      P1  H  6931  6943       L1    27  0.99
      P1  H  6934  6947       L1    22  0.74
      P1  H  7997  8008       L1    14  1.00

> <Gold.Chemscore.Hbond.Weighted>
-12.3467

> <Gold.Chemscore.Metal.Weighted>
-0.0000

> <Gold.Chemscore.Lipo.Weighted>
-3.4981

> <Gold.Chemscore.Internal_Hbond.Weighted>
0.0000

> <Gold.Chemscore.DEClash.Weighted>
0.0370

> <Gold.Chemscore.DEInternal.Weighted>
4.4119

> <Gold.Chemscore.Rot.Weighted>
10.3732

> <Gold.Chemscore.Internal.Correction.Weighted>
   9.000000E+99

> <Gold.Protein.RotatedTorsions>
[ 6907 6896 6895 6894 ] final  -30.13 input  -60.11 | X-H torsion
[ 7974 7965 7964 7962 ] final  -58.23 input  175.53 | X-H torsion
[ 8008 7997 7996 7995 ] final  -49.05 input   59.86 | X-H torsion
[ 10167 10162 10161 10158 ] final -146.40 input  -65.29 | X-H torsion
[ 10718 10713 10712 10709 ] final  -15.23 input   66.30 | X-H torsion
[ 10763 10752 10751 10750 ] final  129.17 input  -60.55 | X-H torsion
[ 11005 11000 10999 10996 ] final -141.07 input  -57.11 | X-H torsion

> <Gold.Protein.ActiveResidues>
 VAL166  LYS551  ARG553  GLY616  TRP617  ASP618  TYR619  PRO620  LYS621  CYS622 
 ASP623  PHE694  ASN695  SER759  ASP760  ASP761  ALA762  ILE779  LEU786  VAL792 
 PHE793  MET794  SER795  GLU796  ALA797  LYS798  CYS799  TRP800  GLU811  SER814 

> <Gold.Protein.RotatedAtoms>
  151.1097  135.0019  159.8487 H   0  0  0  0  0  0  0  0  0  0  0  0  # atno 6907 bound_to 6896
  152.5442  134.1851  159.8661 H   0  0  0  0  0  0  0  0  0  0  0  0  # atno 6908 bound_to 6896
  151.1900  133.4628  159.2628 H   0  0  0  0  0  0  0  0  0  0  0  0  # atno 6909 bound_to 6896
  145.8417  140.8412  143.0031 H   0  0  0  0  0  0  0  0  0  0  0  0  # atno 7974 bound_to 7965
  154.4038  140.1306  156.4439 H   0  0  0  0  0  0  0  0  0  0  0  0  # atno 8008 bound_to 7997
  155.7432  140.3489  155.5094 H   0  0  0  0  0  0  0  0  0  0  0  0  # atno 8009 bound_to 7997
  155.9019  140.1021  157.1334 H   0  0  0  0  0  0  0  0  0  0  0  0  # atno 8010 bound_to 7997
  139.7716  143.8229  152.2625 H   0  0  0  0  0  0  0  0  0  0  0  0  # atno 10167 bound_to 10162
  156.6047  130.4833  149.6225 H   0  0  0  0  0  0  0  0  0  0  0  0  # atno 10718 bound_to 10713
  153.7375  135.3229  155.3297 H   0  0  0  0  0  0  0  0  0  0  0  0  # atno 10763 bound_to 10752
  154.8306  135.4536  154.1060 H   0  0  0  0  0  0  0  0  0  0  0  0  # atno 10764 bound_to 10752
  153.2225  135.6950  153.8065 H   0  0  0  0  0  0  0  0  0  0  0  0  # atno 10765 bound_to 10752
  140.8360  134.2459  157.4834 H   0  0  0  0  0  0  0  0  0  0  0  0  # atno 11005 bound_to 11000
  144.6733  140.0823  143.7469 LP  0  0  0  0  0  0  0  0  0  0  0  0  # atno 17320 bound_to 7965
  145.9457  139.2699  143.1242 LP  0  0  0  0  0  0  0  0  0  0  0  0  # atno 17321 bound_to 7965
  139.8265  144.7273  150.9505 LP  0  0  0  0  0  0  0  0  0  0  0  0  # atno 17342 bound_to 10162
  140.7814  143.4110  151.0993 LP  0  0  0  0  0  0  0  0  0  0  0  0  # atno 17343 bound_to 10162
  156.2440  130.6868  151.1582 LP  0  0  0  0  0  0  0  0  0  0  0  0  # atno 17370 bound_to 10713
  157.7270  131.0642  150.5883 LP  0  0  0  0  0  0  0  0  0  0  0  0  # atno 17371 bound_to 10713
  139.8704  134.9611  156.4385 LP  0  0  0  0  0  0  0  0  0  0  0  0  # atno 17394 bound_to 11000
  140.8947  133.7823  155.9611 LP  0  0  0  0  0  0  0  0  0  0  0  0  # atno 17395 bound_to 11000

$$$$
