AV-unprocessed.smi:3212|AV-procd|sdf|12281|dock10
  -GOLD-   2272018113D 1   1.00000     0.00000
 Structure written by MMmdl.
 39 39  0  0  0  0  0  0  0  0  1 V2000
  144.4706  137.6996  153.6232 C   0  0  0  0  0  0  0  0  0  0  0  0
  145.9824  137.4757  153.4642 C   0  0  1  0  0  0  0  0  0  0  0  0
  146.3101  137.2989  152.0350 N   0  0  0  0  0  0  0  0  0  0  0  0
  145.6298  136.2077  151.3351 C   0  0  0  0  0  0  0  0  0  0  0  0
  146.0012  134.8077  151.8664 C   0  0  0  0  0  0  0  0  0  0  0  0
  145.3576  133.7392  151.1239 N   0  0  0  0  0  0  0  0  0  0  0  0
  145.9385  132.6431  150.5218 C   0  0  0  0  0  0  0  0  0  0  0  0
  144.9360  131.9186  149.9438 C   0  0  0  0  0  0  0  0  0  0  0  0
  143.7620  132.6619  150.2499 C   0  0  0  0  0  0  0  0  0  0  0  0
  144.0179  133.7531  150.9532 N   0  0  0  0  0  0  0  0  0  0  0  0
  146.7699  138.6101  154.1400 C   0  0  0  0  0  0  0  0  0  0  0  0
  147.6459  138.3437  154.9626 O   0  0  0  0  0  0  0  0  0  0  0  0
  146.4148  139.8618  153.7992 N   0  0  0  0  0  0  0  0  0  0  0  0
  146.9408  141.1326  154.3097 C   0  0  0  0  0  0  0  0  0  0  0  0
  146.7088  141.1310  155.8308 C   0  0  0  0  0  0  0  0  0  0  0  0
  146.1887  142.3288  153.6890 C   0  0  0  0  0  0  0  0  0  0  0  0
  148.4551  141.2375  154.0327 C   0  0  0  0  0  0  0  0  0  0  0  0
  144.1945  137.8175  154.6717 H   0  0  0  0  0  0  0  0  0  0  0  0
  143.9081  136.8505  153.2330 H   0  0  0  0  0  0  0  0  0  0  0  0
  144.1362  138.5899  153.0887 H   0  0  0  0  0  0  0  0  0  0  0  0
  146.2176  136.5448  153.9816 H   0  0  0  0  0  0  0  0  0  0  0  0
  147.3065  137.1936  151.9070 H   0  0  0  0  0  0  0  0  0  0  0  0
  144.5576  136.3619  151.4602 H   0  0  0  0  0  0  0  0  0  0  0  0
  145.8071  136.2652  150.2610 H   0  0  0  0  0  0  0  0  0  0  0  0
  147.0804  134.6663  151.7964 H   0  0  0  0  0  0  0  0  0  0  0  0
  145.7543  134.7034  152.9228 H   0  0  0  0  0  0  0  0  0  0  0  0
  147.0042  132.4709  150.5573 H   0  0  0  0  0  0  0  0  0  0  0  0
  145.0268  130.9972  149.3883 H   0  0  0  0  0  0  0  0  0  0  0  0
  142.7387  132.4436  149.9826 H   0  0  0  0  0  0  0  0  0  0  0  0
  145.6770  139.9447  153.1151 H   0  0  0  0  0  0  0  0  0  0  0  0
  147.0784  142.0482  156.2908 H   0  0  0  0  0  0  0  0  0  0  0  0
  147.2205  140.2956  156.3106 H   0  0  0  0  0  0  0  0  0  0  0  0
  145.6481  141.0489  156.0715 H   0  0  0  0  0  0  0  0  0  0  0  0
  145.1122  142.2427  153.8401 H   0  0  0  0  0  0  0  0  0  0  0  0
  146.3653  142.4155  152.6169 H   0  0  0  0  0  0  0  0  0  0  0  0
  146.5086  143.2688  154.1400 H   0  0  0  0  0  0  0  0  0  0  0  0
  148.8754  142.1360  154.4854 H   0  0  0  0  0  0  0  0  0  0  0  0
  148.6742  141.2852  152.9661 H   0  0  0  0  0  0  0  0  0  0  0  0
  148.9936  140.3817  154.4415 H   0  0  0  0  0  0  0  0  0  0  0  0
  1  2  1  0  0  0  0
  1 18  1  0  0  0  0
  1 19  1  0  0  0  0
  1 20  1  0  0  0  0
  2  3  1  0  0  0  0
  2 11  1  0  0  0  0
  2 21  1  0  0  0  0
  3  4  1  0  0  0  0
  3 22  1  0  0  0  0
  4  5  1  0  0  0  0
  4 23  1  0  0  0  0
  4 24  1  0  0  0  0
  5  6  1  0  0  0  0
  5 25  1  0  0  0  0
  5 26  1  0  0  0  0
  6 10  1  0  0  0  0
  6  7  1  0  0  0  0
  7  8  2  0  0  0  0
  7 27  1  0  0  0  0
  8  9  1  0  0  0  0
  8 28  1  0  0  0  0
  9 10  2  0  0  0  0
  9 29  1  0  0  0  0
 11 12  2  0  0  0  0
 11 13  1  0  0  0  0
 13 14  1  0  0  0  0
 13 30  1  0  0  0  0
 14 15  1  0  0  0  0
 14 16  1  0  0  0  0
 14 17  1  0  0  0  0
 15 31  1  0  0  0  0
 15 32  1  0  0  0  0
 15 33  1  0  0  0  0
 16 34  1  0  0  0  0
 16 35  1  0  0  0  0
 16 36  1  0  0  0  0
 17 37  1  0  0  0  0
 17 38  1  0  0  0  0
 17 39  1  0  0  0  0
M  END
> <s_m_source_file>
AV-unprocessed.smi

> <i_m_source_file_index>
3212

> <i_lp_mmshare_version>
43012

> <i_f3d_flags>
0

> <s_epik_input>
W0NIM11DKFtDSDNdKShbQ0gzXSlbTkhdQyg9TylbQ0BIXShbQ0gzXSlbTkhdW0NIMl1bQ0gyXW4xW2NIXVtjSF1bY0hdbjE=

> <s_epik_cmdline>
J2VwaWtfcHl0aG9uJywgJy1waCcsICc3LjAnLCAnLXRuJywgJzgnLCAnLW1hJywgJzIwMCcsICctbWV0YWxfYmluZGluZycsICctaW1hZScsICc8aW5maWxlLm1hZT4nLCAnLW9tYWUnLCAnPG91dGZpbGUubWFlPic=

> <r_lp_tautomer_probability>
1

> <r_epik_Ionization_Penalty>
0.745735

> <r_epik_Ionization_Penalty_Charging>
0

> <r_epik_Ionization_Penalty_Neutral>
0.745735

> <r_epik_State_Penalty>
0.771152

> <r_epik_Charging_Adjusted_Penalty>
0.771152

> <i_epik_Tot_Q>
0

> <i_epik_Tot_abs_Q>
0

> <r_epik_Metal_State_Penalty>
0.770403

> <b_epik_Metal_Only>
0

> <s_lp_Force_Field>
OPLS_2005

> <r_lp_Energy>
7.05168

> <b_lp_Chiralities_Consistent>
1

> <s_lp_Variant>
AV-unprocessed.smi:3212-4

> <Gold.Version>
5.8.1

> <Gold.Id.Protein>
6NUR|6NUR_protein|mol2

> <Gold.PLP.Fitness>
37.9376

> <Gold.PLP.PLP>
-28.1574

> <Gold.PLP.part.hbond>
-1.7060

> <Gold.PLP.part.metal>
0.0000

> <Gold.PLP.part.buried>
-4.6137

> <Gold.PLP.part.nonpolar>
-23.7092

> <Gold.PLP.part.repulsive>
0.2367

> <Gold.PLP.ligand.clash>
0.0000

> <Gold.PLP.ligand.torsion>
0.2376

> <Gold.PLP.Chemscore.Hbond>
1.6500

> <Gold.PLP.Chemscore.CHOScore>
1.7454

> <Gold.PLP.Chemscore.Metal>
0.0000

> <Gold.Chemscore.Hbonds>
donor molecule, donor type, donor heavy atom, donor atom, acceptor molecule, acceptor atom, score
      L1  H     3    22       P1  7948  1.00
      L1  H    13    30       P1 10175  0.68
      L1  C     7    27       P1 10747  0.93
      L1  C     9    29       P1 10186  0.56
      L1  C     9    29       P1 10952  0.17

> <Gold.PLP.Chemscore.Internal.Correction>
0.0693

> <Gold.Rescore>
     Score         DG    S(hbond)    S(metal)    S(lipo)     H(rot)  DE(clash)    DE(int)     intcor
     14.73     -15.27       1.90        0.00      72.98       1.99       0.29       0.25       ----

> <Gold.Chemscore.Fitness>
14.7313

> <Gold.Chemscore.DG>
-15.2703

> <Gold.Chemscore.ZeroCoef>
-5.4800

> <Gold.Chemscore.Hbond>
1.8986

> <Gold.Chemscore.Metal>
0.0000

> <Gold.Chemscore.Lipo>
72.9756

> <Gold.Chemscore.Internal_Hbond>
0.0000

> <Gold.Chemscore.DEClash>
0.2910

> <Gold.Chemscore.DEInternal>
0.2479

> <Gold.Chemscore.Rot>
1.9880

> <Gold.Chemscore.Internal.Correction>
   9.000000E+99

> <Gold.Chemscore.Hbonds>
donor molecule, donor type, donor heavy atom, donor atom, acceptor molecule, acceptor atom, score
      L1  H     3    22       P1  7948  0.98
      L1  H    13    30       P1 10175  0.65

> <Gold.Chemscore.Hbond.Weighted>
-6.3414

> <Gold.Chemscore.Metal.Weighted>
-0.0000

> <Gold.Chemscore.Lipo.Weighted>
-8.5381

> <Gold.Chemscore.Internal_Hbond.Weighted>
0.0000

> <Gold.Chemscore.DEClash.Weighted>
0.2910

> <Gold.Chemscore.DEInternal.Weighted>
0.2479

> <Gold.Chemscore.Rot.Weighted>
5.0893

> <Gold.Chemscore.Internal.Correction.Weighted>
   9.000000E+99

> <Gold.Protein.RotatedTorsions>
[ 6907 6896 6895 6894 ] final  -48.15 input  -60.11 | X-H torsion
[ 7974 7965 7964 7962 ] final -142.38 input  175.53 | X-H torsion
[ 8008 7997 7996 7995 ] final  -17.36 input   59.86 | X-H torsion
[ 10167 10162 10161 10158 ] final   59.78 input  -65.29 | X-H torsion
[ 10718 10713 10712 10709 ] final  157.92 input   66.30 | X-H torsion
[ 10763 10752 10751 10750 ] final  -74.57 input  -60.55 | X-H torsion
[ 11005 11000 10999 10996 ] final   95.21 input  -57.11 | X-H torsion

> <Gold.Protein.ActiveResidues>
 VAL166  LYS551  ARG553  GLY616  TRP617  ASP618  TYR619  PRO620  LYS621  CYS622 
 ASP623  PHE694  ASN695  SER759  ASP760  ASP761  ALA762  ILE779  LEU786  VAL792 
 PHE793  MET794  SER795  GLU796  ALA797  LYS798  CYS799  TRP800  GLU811  SER814 

> <Gold.Protein.RotatedAtoms>
  150.8935  134.8341  159.7309 H   0  0  0  0  0  0  0  0  0  0  0  0  # atno 6907 bound_to 6896
  152.4851  134.4612  159.9615 H   0  0  0  0  0  0  0  0  0  0  0  0  # atno 6908 bound_to 6896
  151.4671  133.3539  159.2853 H   0  0  0  0  0  0  0  0  0  0  0  0  # atno 6909 bound_to 6896
  144.8448  140.5965  143.5428 H   0  0  0  0  0  0  0  0  0  0  0  0  # atno 7974 bound_to 7965
  154.4984  140.2145  155.9398 H   0  0  0  0  0  0  0  0  0  0  0  0  # atno 8008 bound_to 7997
  156.1401  140.3181  155.8450 H   0  0  0  0  0  0  0  0  0  0  0  0  # atno 8009 bound_to 7997
  155.4136  140.0492  157.3021 H   0  0  0  0  0  0  0  0  0  0  0  0  # atno 8010 bound_to 7997
  140.1727  144.4260  150.6653 H   0  0  0  0  0  0  0  0  0  0  0  0  # atno 10167 bound_to 10162
  157.1850  131.0641  151.2111 H   0  0  0  0  0  0  0  0  0  0  0  0  # atno 10718 bound_to 10713
  154.4749  135.5860  153.6348 H   0  0  0  0  0  0  0  0  0  0  0  0  # atno 10763 bound_to 10752
  152.9839  135.6076  154.3320 H   0  0  0  0  0  0  0  0  0  0  0  0  # atno 10764 bound_to 10752
  154.3205  135.2843  155.2501 H   0  0  0  0  0  0  0  0  0  0  0  0  # atno 10765 bound_to 10752
  139.8791  134.8887  156.3978 H   0  0  0  0  0  0  0  0  0  0  0  0  # atno 11005 bound_to 11000
  145.4619  139.1512  143.3861 LP  0  0  0  0  0  0  0  0  0  0  0  0  # atno 17320 bound_to 7965
  146.2734  140.4750  142.8805 LP  0  0  0  0  0  0  0  0  0  0  0  0  # atno 17321 bound_to 7965
  140.6571  143.2241  151.5943 LP  0  0  0  0  0  0  0  0  0  0  0  0  # atno 17342 bound_to 10162
  139.5330  144.2860  152.1191 LP  0  0  0  0  0  0  0  0  0  0  0  0  # atno 17343 bound_to 10162
  157.3916  130.7285  149.6702 LP  0  0  0  0  0  0  0  0  0  0  0  0  # atno 17370 bound_to 10713
  155.9719  130.4145  150.4134 LP  0  0  0  0  0  0  0  0  0  0  0  0  # atno 17371 bound_to 10713
  140.9288  133.7593  155.9999 LP  0  0  0  0  0  0  0  0  0  0  0  0  # atno 17394 bound_to 11000
  140.8354  134.3129  157.5333 LP  0  0  0  0  0  0  0  0  0  0  0  0  # atno 17395 bound_to 11000

$$$$
