AV-unprocessed.smi:1585|AV-procd|sdf|6371|dock4
  -GOLD-   22720 7 03D 1   1.00000     0.00000
 Structure written by MMmdl.
 42 43  0  0  0  0  0  0  0  0  3 V2000
  151.5962  140.7062  158.3946 C   0  0  0  0  0  0  0  0  0  0  0  0
  151.0836  140.7706  156.9965 C   0  0  0  0  0  0  0  0  0  0  0  0
  150.1247  141.5342  156.3936 C   0  0  0  0  0  0  0  0  0  0  0  0
  150.1397  141.0723  155.0491 C   0  0  0  0  0  0  0  0  0  0  0  0
  149.3696  141.5270  154.0484 N   0  5  0  0  0  0  0  0  0  0  0  0
  148.0824  141.1250  153.9449 C   0  0  0  0  0  0  0  0  0  0  0  0
  147.1063  141.6401  154.4947 O   0  0  0  0  0  0  0  0  0  0  0  0
  147.9146  140.0555  153.1567 N   0  0  0  0  0  0  0  0  0  0  0  0
  146.6385  139.4055  152.8893 C   0  0  0  0  0  0  0  0  0  0  0  0
  146.8389  138.1228  152.0644 C   0  0  2  0  0  0  0  0  0  0  0  0
  146.6867  138.4510  150.6969 O   0  0  0  0  0  0  0  0  0  0  0  0
  145.7757  137.0612  152.4124 C   0  0  0  0  0  0  0  0  0  0  0  0
  146.2598  135.6717  152.2077 N   0  3  0  0  0  0  0  0  0  0  0  0
  145.5135  134.9714  151.1300 C   0  0  0  0  0  0  0  0  0  0  0  0
  146.1260  133.5923  150.8334 C   0  0  0  0  0  0  0  0  0  0  0  0
  146.1866  132.7322  152.1020 C   0  0  0  0  0  0  0  0  0  0  0  0
  146.9304  133.4873  153.2110 C   0  0  0  0  0  0  0  0  0  0  0  0
  146.2974  134.8669  153.4588 C   0  0  0  0  0  0  0  0  0  0  0  0
  151.0409  140.1249  154.8498 N   0  0  0  0  0  0  0  0  0  0  0  0
  151.6457  139.9203  156.0958 O   0  0  0  0  0  0  0  0  0  0  0  0
  151.6405  141.7019  158.8361 H   0  0  0  0  0  0  0  0  0  0  0  0
  152.5988  140.2791  158.4251 H   0  0  0  0  0  0  0  0  0  0  0  0
  150.9461  140.0892  159.0147 H   0  0  0  0  0  0  0  0  0  0  0  0
  149.5063  142.2969  156.8423 H   0  0  0  0  0  0  0  0  0  0  0  0
  148.7370  139.6620  152.7232 H   0  0  0  0  0  0  0  0  0  0  0  0
  146.1891  139.1511  153.8508 H   0  0  0  0  0  0  0  0  0  0  0  0
  145.9530  140.0954  152.3938 H   0  0  0  0  0  0  0  0  0  0  0  0
  147.8419  137.7324  152.2354 H   0  0  0  0  0  0  0  0  0  0  0  0
  145.8268  138.1732  150.4173 H   0  0  0  0  0  0  0  0  0  0  0  0
  145.4437  137.1741  153.4455 H   0  0  0  0  0  0  0  0  0  0  0  0
  144.8964  137.2408  151.7914 H   0  0  0  0  0  0  0  0  0  0  0  0
  144.4669  134.8656  151.4206 H   0  0  0  0  0  0  0  0  0  0  0  0
  145.5309  135.5708  150.2191 H   0  0  0  0  0  0  0  0  0  0  0  0
  145.5435  133.0831  150.0652 H   0  0  0  0  0  0  0  0  0  0  0  0
  147.1307  133.7181  150.4273 H   0  0  0  0  0  0  0  0  0  0  0  0
  145.1756  132.4910  152.4334 H   0  0  0  0  0  0  0  0  0  0  0  0
  146.6823  131.7837  151.8923 H   0  0  0  0  0  0  0  0  0  0  0  0
  146.9209  132.9014  154.1306 H   0  0  0  0  0  0  0  0  0  0  0  0
  147.9781  133.6098  152.9328 H   0  0  0  0  0  0  0  0  0  0  0  0
  146.8708  135.3818  154.2284 H   0  0  0  0  0  0  0  0  0  0  0  0
  145.2847  134.7488  153.8476 H   0  0  0  0  0  0  0  0  0  0  0  0
  147.2121  135.7551  151.8806 H   0  0  0  0  0  0  0  0  0  0  0  0
  1  2  1  0  0  0  0
  1 21  1  0  0  0  0
  1 22  1  0  0  0  0
  1 23  1  0  0  0  0
  2 20  1  0  0  0  0
  2  3  2  0  0  0  0
  3  4  1  0  0  0  0
  3 24  1  0  0  0  0
  4  5  1  0  0  0  0
  4 19  2  0  0  0  0
  5  6  1  0  0  0  0
  6  7  2  0  0  0  0
  6  8  1  0  0  0  0
  8  9  1  0  0  0  0
  8 25  1  0  0  0  0
  9 10  1  0  0  0  0
  9 26  1  0  0  0  0
  9 27  1  0  0  0  0
 10 11  1  0  0  0  0
 10 12  1  0  0  0  0
 10 28  1  0  0  0  0
 11 29  1  0  0  0  0
 12 13  1  0  0  0  0
 12 30  1  0  0  0  0
 12 31  1  0  0  0  0
 13 18  1  0  0  0  0
 13 14  1  0  0  0  0
 13 42  1  0  0  0  0
 14 15  1  0  0  0  0
 14 32  1  0  0  0  0
 14 33  1  0  0  0  0
 15 16  1  0  0  0  0
 15 34  1  0  0  0  0
 15 35  1  0  0  0  0
 16 17  1  0  0  0  0
 16 36  1  0  0  0  0
 16 37  1  0  0  0  0
 17 18  1  0  0  0  0
 17 38  1  0  0  0  0
 17 39  1  0  0  0  0
 18 40  1  0  0  0  0
 18 41  1  0  0  0  0
 19 20  1  0  0  0  0
M  CHG  1   5  -1
M  CHG  1  13   1
M  END
> <s_m_source_file>
AV-unprocessed.smi

> <i_m_source_file_index>
1585

> <i_lp_mmshare_version>
43012

> <i_f3d_flags>
0

> <s_epik_input>
W0NIM11jMVtjSF1jKG5vMSlbTkhdQyg9TylbTkhdW0NIMl1bQ0BIXShbT0hdKVtDSDJdTjJbQ0gyXVtDSDJdW0NIMl1bQ0gyXVtDSDJdMg==

> <s_epik_cmdline>
J2VwaWtfcHl0aG9uJywgJy1waCcsICc3LjAnLCAnLXRuJywgJzgnLCAnLW1hJywgJzIwMCcsICctbWV0YWxfYmluZGluZycsICctaW1hZScsICc8aW5maWxlLm1hZT4nLCAnLW9tYWUnLCAnPG91dGZpbGUubWFlPic=

> <r_epik_Ionization_Penalty>
6.29903

> <r_epik_Ionization_Penalty_Charging>
6.29893

> <r_epik_Ionization_Penalty_Neutral>
0.000107719

> <r_epik_State_Penalty>
6.29786

> <r_epik_Charging_Adjusted_Penalty>
12.5968

> <i_epik_Tot_Q>
0

> <i_epik_Tot_abs_Q>
2

> <r_epik_Metal_State_Penalty>
2.22942

> <b_epik_Metal_Only>
1

> <s_lp_Force_Field>
OPLS_2005

> <r_lp_Energy>
8.76377

> <b_lp_Chiralities_Consistent>
1

> <s_lp_Variant>
AV-unprocessed.smi:1585-3

> <Gold.Version>
5.8.1

> <Gold.Id.Protein>
6NUR|6NUR_protein|mol2

> <Gold.PLP.Fitness>
48.1415

> <Gold.PLP.PLP>
-35.1379

> <Gold.PLP.part.hbond>
-6.9038

> <Gold.PLP.part.metal>
0.0000

> <Gold.PLP.part.buried>
-1.9856

> <Gold.PLP.part.nonpolar>
-27.0506

> <Gold.PLP.part.repulsive>
0.5172

> <Gold.PLP.ligand.clash>
0.0000

> <Gold.PLP.ligand.torsion>
3.0118

> <Gold.PLP.Chemscore.Hbond>
6.2720

> <Gold.PLP.Chemscore.CHOScore>
0.0000

> <Gold.PLP.Chemscore.Metal>
0.0000

> <Gold.Chemscore.Hbonds>
donor molecule, donor type, donor heavy atom, donor atom, acceptor molecule, acceptor atom, score
      L1  H     8    25       P1  7957  0.64
      L1  H    11    29       P1 10171  0.89
      L1  H    13    42       P1  7948  2.00
      P1  H  7954  7966       L1    11  0.93
      P1  H  7989  7998       L1    19  0.65
      P1  H  8011  8017       L1     5  0.66

> <Gold.PLP.Chemscore.Internal.Correction>
0.2111

> <Gold.Rescore>
     Score         DG    S(hbond)    S(metal)    S(lipo)     H(rot)  DE(clash)    DE(int)     intcor
     17.01     -21.38       4.39        0.00      64.03       2.45       1.34       3.02       ----

> <Gold.Chemscore.Fitness>
17.0133

> <Gold.Chemscore.DG>
-21.3766

> <Gold.Chemscore.ZeroCoef>
-5.4800

> <Gold.Chemscore.Hbond>
4.3911

> <Gold.Chemscore.Metal>
0.0000

> <Gold.Chemscore.Lipo>
64.0340

> <Gold.Chemscore.Internal_Hbond>
0.0000

> <Gold.Chemscore.DEClash>
1.3438

> <Gold.Chemscore.DEInternal>
3.0196

> <Gold.Chemscore.Rot>
2.4459

> <Gold.Chemscore.Internal.Correction>
   9.000000E+99

> <Gold.Chemscore.Hbonds>
donor molecule, donor type, donor heavy atom, donor atom, acceptor molecule, acceptor atom, score
      L1  H     8    25       P1  7957  0.64
      L1  H    11    29       P1 10171  0.83
      L1  H    13    42       P1  7948  1.00
      P1  H  7954  7966       L1    11  0.53
      P1  H  7989  7998       L1    19  0.06
      P1  H  8011  8017       L1     5  0.36

> <Gold.Chemscore.Hbond.Weighted>
-14.6662

> <Gold.Chemscore.Metal.Weighted>
-0.0000

> <Gold.Chemscore.Lipo.Weighted>
-7.4920

> <Gold.Chemscore.Internal_Hbond.Weighted>
0.0000

> <Gold.Chemscore.DEClash.Weighted>
1.3438

> <Gold.Chemscore.DEInternal.Weighted>
3.0196

> <Gold.Chemscore.Rot.Weighted>
6.2615

> <Gold.Chemscore.Internal.Correction.Weighted>
   9.000000E+99

> <Gold.Protein.RotatedTorsions>
[ 6907 6896 6895 6894 ] final   88.42 input  -60.11 | X-H torsion
[ 7974 7965 7964 7962 ] final   21.24 input  175.53 | X-H torsion
[ 8008 7997 7996 7995 ] final   66.64 input   59.86 | X-H torsion
[ 10167 10162 10161 10158 ] final -144.08 input  -65.29 | X-H torsion
[ 10718 10713 10712 10709 ] final  143.67 input   66.30 | X-H torsion
[ 10763 10752 10751 10750 ] final   40.04 input  -60.55 | X-H torsion
[ 11005 11000 10999 10996 ] final   50.73 input  -57.11 | X-H torsion

> <Gold.Protein.ActiveResidues>
 VAL166  LYS551  ARG553  GLY616  TRP617  ASP618  TYR619  PRO620  LYS621  CYS622 
 ASP623  PHE694  ASN695  SER759  ASP760  ASP761  ALA762  ILE779  LEU786  VAL792 
 PHE793  MET794  SER795  GLU796  ALA797  LYS798  CYS799  TRP800  GLU811  SER814 

> <Gold.Protein.RotatedAtoms>
  152.5425  134.2124  159.8754 H   0  0  0  0  0  0  0  0  0  0  0  0  # atno 6907 bound_to 6896
  151.2106  133.4551  159.2605 H   0  0  0  0  0  0  0  0  0  0  0  0  # atno 6908 bound_to 6896
  151.0901  134.9923  159.8454 H   0  0  0  0  0  0  0  0  0  0  0  0  # atno 6909 bound_to 6896
  146.2079  139.8055  142.8711 H   0  0  0  0  0  0  0  0  0  0  0  0  # atno 7974 bound_to 7965
  155.6805  140.3496  155.4853 H   0  0  0  0  0  0  0  0  0  0  0  0  # atno 8008 bound_to 7997
  155.9611  140.1137  157.0917 H   0  0  0  0  0  0  0  0  0  0  0  0  # atno 8009 bound_to 7997
  154.4143  140.1175  156.5166 H   0  0  0  0  0  0  0  0  0  0  0  0  # atno 8010 bound_to 7997
  139.7932  143.7937  152.2652 H   0  0  0  0  0  0  0  0  0  0  0  0  # atno 10167 bound_to 10162
  157.3662  131.0972  151.0870 H   0  0  0  0  0  0  0  0  0  0  0  0  # atno 10718 bound_to 10713
  152.9948  135.6203  154.2562 H   0  0  0  0  0  0  0  0  0  0  0  0  # atno 10763 bound_to 10752
  154.2299  135.2792  155.2895 H   0  0  0  0  0  0  0  0  0  0  0  0  # atno 10764 bound_to 10752
  154.5458  135.5747  153.6937 H   0  0  0  0  0  0  0  0  0  0  0  0  # atno 10765 bound_to 10752
  140.0992  134.5104  155.8778 H   0  0  0  0  0  0  0  0  0  0  0  0  # atno 11005 bound_to 11000
  145.3251  141.0253  143.3478 LP  0  0  0  0  0  0  0  0  0  0  0  0  # atno 17320 bound_to 7965
  144.8839  139.4867  143.6710 LP  0  0  0  0  0  0  0  0  0  0  0  0  # atno 17321 bound_to 7965
  139.8034  144.7365  150.9794 LP  0  0  0  0  0  0  0  0  0  0  0  0  # atno 17342 bound_to 10162
  140.7820  143.4322  151.0677 LP  0  0  0  0  0  0  0  0  0  0  0  0  # atno 17343 bound_to 10162
  157.1991  130.6386  149.5732 LP  0  0  0  0  0  0  0  0  0  0  0  0  # atno 17370 bound_to 10713
  155.9746  130.4697  150.6403 LP  0  0  0  0  0  0  0  0  0  0  0  0  # atno 17371 bound_to 10713
  141.2101  133.6691  156.6484 LP  0  0  0  0  0  0  0  0  0  0  0  0  # atno 17394 bound_to 11000
  140.3243  134.7982  157.4277 LP  0  0  0  0  0  0  0  0  0  0  0  0  # atno 17395 bound_to 11000

$$$$
