AV-unprocessed.smi:67|AV-procd|sdf|631|dock4
  -GOLD-   2262016523D 1   1.00000     0.00000
 Structure written by MMmdl.
 49 51  0  0  0  0  0  0  0  0  3 V2000
  148.6090  138.2115  153.0308 O   0  0  0  0  0  0  0  0  0  0  0  0
  147.5718  139.0580  153.4967 C   0  0  1  0  0  0  0  0  0  0  0  0
  147.9035  139.4847  154.9461 C   0  0  0  0  0  0  0  0  0  0  0  0
  149.3264  139.8884  155.1159 N   0  3  2  0  0  0  0  0  0  0  0  0
  150.1801  138.7866  155.6308 C   0  0  0  0  0  0  0  0  0  0  0  0
  151.6646  139.1923  155.6511 C   0  0  0  0  0  0  0  0  0  0  0  0
  151.8964  140.4777  156.4612 C   0  0  2  0  0  0  0  0  0  0  0  0
  151.6231  140.1814  157.8294 O   0  0  0  0  0  0  0  0  0  0  0  0
  152.1263  140.9918  158.8269 C   0  0  0  0  0  0  0  0  0  0  0  0
  153.0003  140.5594  159.8559 C   0  0  0  0  0  0  0  0  0  0  0  0
  153.4536  141.4664  160.8325 C   0  0  0  0  0  0  0  0  0  0  0  0
  153.0437  142.8116  160.7957 C   0  0  0  0  0  0  0  0  0  0  0  0
  152.1774  143.2598  159.7764 C   0  0  0  0  0  0  0  0  0  0  0  0
  151.7175  144.7092  159.7271 C   0  0  0  0  0  0  0  0  0  0  0  0
  152.0614  145.2661  158.5654 F   0  0  0  0  0  0  0  0  0  0  0  0
  150.3915  144.7530  159.8488 F   0  0  0  0  0  0  0  0  0  0  0  0
  152.2623  145.4262  160.7108 F   0  0  0  0  0  0  0  0  0  0  0  0
  151.7222  142.3426  158.8052 C   0  0  0  0  0  0  0  0  0  0  0  0
  150.9633  141.5858  155.9326 C   0  0  0  0  0  0  0  0  0  0  0  0
  149.4954  141.1271  155.9202 C   0  0  0  0  0  0  0  0  0  0  0  0
  147.3586  140.2069  152.5053 C   0  0  0  0  0  0  0  0  0  0  0  0
  146.5206  139.5808  151.3901 C   0  0  0  0  0  0  0  0  0  0  0  0
  145.7047  138.5360  152.0362 N   0  3  0  0  0  0  0  0  0  0  0  0
  146.2453  138.2837  153.3887 C   0  0  0  0  0  0  0  0  0  0  0  0
  148.9246  138.5392  152.2016 H   0  0  0  0  0  0  0  0  0  0  0  0
  147.2448  140.2910  155.2724 H   0  0  0  0  0  0  0  0  0  0  0  0
  147.6765  138.6438  155.6039 H   0  0  0  0  0  0  0  0  0  0  0  0
  149.8500  138.5050  156.6323 H   0  0  0  0  0  0  0  0  0  0  0  0
  150.0629  137.9055  154.9985 H   0  0  0  0  0  0  0  0  0  0  0  0
  152.2675  138.3806  156.0595 H   0  0  0  0  0  0  0  0  0  0  0  0
  152.0099  139.3434  154.6273 H   0  0  0  0  0  0  0  0  0  0  0  0
  152.9423  140.7579  156.3341 H   0  0  0  0  0  0  0  0  0  0  0  0
  153.3405  139.5379  159.9228 H   0  0  0  0  0  0  0  0  0  0  0  0
  154.1173  141.1277  161.6145 H   0  0  0  0  0  0  0  0  0  0  0  0
  153.3962  143.4938  161.5552 H   0  0  0  0  0  0  0  0  0  0  0  0
  151.0506  142.6790  158.0288 H   0  0  0  0  0  0  0  0  0  0  0  0
  151.0578  142.4943  156.5264 H   0  0  0  0  0  0  0  0  0  0  0  0
  151.2636  141.8562  154.9195 H   0  0  0  0  0  0  0  0  0  0  0  0
  148.8784  141.9279  155.5159 H   0  0  0  0  0  0  0  0  0  0  0  0
  149.1495  140.9516  156.9402 H   0  0  0  0  0  0  0  0  0  0  0  0
  146.7776  141.0005  152.9773 H   0  0  0  0  0  0  0  0  0  0  0  0
  148.2884  140.6455  152.1402 H   0  0  0  0  0  0  0  0  0  0  0  0
  145.9007  140.3113  150.8697 H   0  0  0  0  0  0  0  0  0  0  0  0
  147.1703  139.1051  150.6544 H   0  0  0  0  0  0  0  0  0  0  0  0
  144.7474  138.8485  152.1153 H   0  0  0  0  0  0  0  0  0  0  0  0
  146.3519  137.2161  153.5861 H   0  0  0  0  0  0  0  0  0  0  0  0
  145.5199  138.6746  154.1036 H   0  0  0  0  0  0  0  0  0  0  0  0
  145.7399  137.6922  151.4816 H   0  0  0  0  0  0  0  0  0  0  0  0
  149.6701  140.0911  154.1876 H   0  0  0  0  0  0  0  0  0  0  0  0
  1  2  1  0  0  0  0
  1 25  1  0  0  0  0
  2 24  1  0  0  0  0
  2  3  1  0  0  0  0
  2 21  1  0  0  0  0
  3  4  1  0  0  0  0
  3 26  1  0  0  0  0
  3 27  1  0  0  0  0
  4 20  1  0  0  0  0
  4  5  1  0  0  0  0
  4 49  1  0  0  0  0
  5  6  1  0  0  0  0
  5 28  1  0  0  0  0
  5 29  1  0  0  0  0
  6  7  1  0  0  0  0
  6 30  1  0  0  0  0
  6 31  1  0  0  0  0
  7  8  1  0  0  0  0
  7 19  1  0  0  0  0
  7 32  1  0  0  0  0
  8  9  1  0  0  0  0
  9 18  1  0  0  0  0
  9 10  2  0  0  0  0
 10 11  1  0  0  0  0
 10 33  1  0  0  0  0
 11 12  2  0  0  0  0
 11 34  1  0  0  0  0
 12 13  1  0  0  0  0
 12 35  1  0  0  0  0
 13 14  1  0  0  0  0
 13 18  2  0  0  0  0
 14 15  1  0  0  0  0
 14 16  1  0  0  0  0
 14 17  1  0  0  0  0
 18 36  1  0  0  0  0
 19 20  1  0  0  0  0
 19 37  1  0  0  0  0
 19 38  1  0  0  0  0
 20 39  1  0  0  0  0
 20 40  1  0  0  0  0
 21 22  1  0  0  0  0
 21 41  1  0  0  0  0
 21 42  1  0  0  0  0
 22 23  1  0  0  0  0
 22 43  1  0  0  0  0
 22 44  1  0  0  0  0
 23 24  1  0  0  0  0
 23 45  1  0  0  0  0
 23 48  1  0  0  0  0
 24 46  1  0  0  0  0
 24 47  1  0  0  0  0
M  CHG  1   4   1
M  CHG  1  23   1
M  END
> <s_m_source_file>
AV-unprocessed.smi

> <i_m_source_file_index>
67

> <i_lp_mmshare_version>
43012

> <i_f3d_flags>
0

> <s_epik_input>
W0NIMl0xW05IXVtDSDJdW0NIMl1bQ0BAXTEoW09IXSlbQ0gyXU4yW0NIMl1bQ0gyXVtDSF0oW0NIMl1bQ0gyXTIpT2MzW2NIXVtjSF1bY0hdYyhDKEYpKEYpRilbY0hdMw==

> <s_epik_cmdline>
J2VwaWtfcHl0aG9uJywgJy1waCcsICc3LjAnLCAnLXRuJywgJzgnLCAnLW1hJywgJzIwMCcsICctbWV0YWxfYmluZGluZycsICctaW1hZScsICc8aW5maWxlLm1hZT4nLCAnLW9tYWUnLCAnPG91dGZpbGUubWFlPic=

> <r_lp_tautomer_probability>
1

> <r_epik_Ionization_Penalty>
0.0989853

> <r_epik_Ionization_Penalty_Charging>
0.0989662

> <r_epik_Ionization_Penalty_Neutral>
1.91014e-05

> <r_epik_State_Penalty>
0.0852826

> <r_epik_Charging_Adjusted_Penalty>
0.184249

> <i_epik_Tot_Q>
2

> <i_epik_Tot_abs_Q>
2

> <r_epik_Metal_State_Penalty>
0.0849414

> <b_epik_Metal_Only>
0

> <s_lp_Force_Field>
OPLS_2005

> <r_lp_Energy>
57.962

> <b_lp_Chiralities_Consistent>
1

> <s_lp_Variant>
AV-unprocessed.smi:67-3

> <Gold.Version>
5.8.1

> <Gold.Id.Protein>
6NUR|6NUR_protein|mol2

> <Gold.PLP.Fitness>
55.0192

> <Gold.PLP.PLP>
-48.5305

> <Gold.PLP.part.hbond>
-3.2434

> <Gold.PLP.part.metal>
0.0000

> <Gold.PLP.part.buried>
-0.6956

> <Gold.PLP.part.nonpolar>
-43.6465

> <Gold.PLP.part.repulsive>
0.1083

> <Gold.PLP.ligand.clash>
0.7167

> <Gold.PLP.ligand.torsion>
0.9569

> <Gold.PLP.Chemscore.Hbond>
2.6640

> <Gold.PLP.Chemscore.CHOScore>
0.0000

> <Gold.PLP.Chemscore.Metal>
0.0000

> <Gold.Chemscore.Hbonds>
donor molecule, donor type, donor heavy atom, donor atom, acceptor molecule, acceptor atom, score
      L1  H     1    25       P1  7957  0.99
      L1  H    23    45       P1 10175  1.70

> <Gold.PLP.Chemscore.Internal.Correction>
1.1272

> <Gold.Rescore>
     Score         DG    S(hbond)    S(metal)    S(lipo)     H(rot)  DE(clash)    DE(int)     intcor
     17.52     -21.62       1.69        0.00     138.56       2.24       3.12       0.98       ----

> <Gold.Chemscore.Fitness>
17.5183

> <Gold.Chemscore.DG>
-21.6199

> <Gold.Chemscore.ZeroCoef>
-5.4800

> <Gold.Chemscore.Hbond>
1.6916

> <Gold.Chemscore.Metal>
0.0000

> <Gold.Chemscore.Lipo>
138.5643

> <Gold.Chemscore.Internal_Hbond>
0.0000

> <Gold.Chemscore.DEClash>
3.1177

> <Gold.Chemscore.DEInternal>
0.9839

> <Gold.Chemscore.Rot>
2.2352

> <Gold.Chemscore.Internal.Correction>
   9.000000E+99

> <Gold.Chemscore.Hbonds>
donor molecule, donor type, donor heavy atom, donor atom, acceptor molecule, acceptor atom, score
      L1  H     1    25       P1  7957  0.61
      L1  H    23    45       P1 10175  0.82

> <Gold.Chemscore.Hbond.Weighted>
-5.6500

> <Gold.Chemscore.Metal.Weighted>
-0.0000

> <Gold.Chemscore.Lipo.Weighted>
-16.2120

> <Gold.Chemscore.Internal_Hbond.Weighted>
0.0000

> <Gold.Chemscore.DEClash.Weighted>
3.1177

> <Gold.Chemscore.DEInternal.Weighted>
0.9839

> <Gold.Chemscore.Rot.Weighted>
5.7221

> <Gold.Chemscore.Internal.Correction.Weighted>
   9.000000E+99

> <Gold.Protein.RotatedTorsions>
[ 6907 6896 6895 6894 ] final   58.28 input  -60.11 | X-H torsion
[ 7974 7965 7964 7962 ] final  -27.01 input  175.53 | X-H torsion
[ 8008 7997 7996 7995 ] final  -53.54 input   59.86 | X-H torsion
[ 10167 10162 10161 10158 ] final  121.35 input  -65.29 | X-H torsion
[ 10718 10713 10712 10709 ] final -117.99 input   66.30 | X-H torsion
[ 10763 10752 10751 10750 ] final  -80.62 input  -60.55 | X-H torsion
[ 11005 11000 10999 10996 ] final -175.30 input  -57.11 | X-H torsion

> <Gold.Protein.ActiveResidues>
 VAL166  LYS551  ARG553  GLY616  TRP617  ASP618  TYR619  PRO620  LYS621  CYS622 
 ASP623  PHE694  ASN695  SER759  ASP760  ASP761  ALA762  ILE779  LEU786  VAL792 
 PHE793  MET794  SER795  GLU796  ALA797  LYS798  CYS799  TRP800  GLU811  SER814 

> <Gold.Protein.RotatedAtoms>
  152.3810  134.6590  160.0142 H   0  0  0  0  0  0  0  0  0  0  0  0  # atno 6907 bound_to 6896
  151.6854  133.3306  159.3237 H   0  0  0  0  0  0  0  0  0  0  0  0  # atno 6908 bound_to 6896
  150.7747  134.6681  159.6421 H   0  0  0  0  0  0  0  0  0  0  0  0  # atno 6909 bound_to 6896
  146.1387  140.5096  142.8661 H   0  0  0  0  0  0  0  0  0  0  0  0  # atno 7974 bound_to 7965
  154.4136  140.1197  156.5170 H   0  0  0  0  0  0  0  0  0  0  0  0  # atno 8008 bound_to 7997
  155.6741  140.3496  155.4810 H   0  0  0  0  0  0  0  0  0  0  0  0  # atno 8009 bound_to 7997
  155.9607  140.1122  157.0887 H   0  0  0  0  0  0  0  0  0  0  0  0  # atno 8010 bound_to 7997
  139.5925  144.7030  151.3256 H   0  0  0  0  0  0  0  0  0  0  0  0  # atno 10167 bound_to 10162
  156.1074  130.6221  150.9234 H   0  0  0  0  0  0  0  0  0  0  0  0  # atno 10718 bound_to 10713
  154.5534  135.5655  153.6943 H   0  0  0  0  0  0  0  0  0  0  0  0  # atno 10763 bound_to 10752
  152.9996  135.6256  154.2342 H   0  0  0  0  0  0  0  0  0  0  0  0  # atno 10764 bound_to 10752
  154.2278  135.2867  155.2881 H   0  0  0  0  0  0  0  0  0  0  0  0  # atno 10765 bound_to 10752
  140.4649  134.6220  157.4858 H   0  0  0  0  0  0  0  0  0  0  0  0  # atno 11005 bound_to 11000
  144.7768  140.5756  143.6633 LP  0  0  0  0  0  0  0  0  0  0  0  0  # atno 17320 bound_to 7965
  145.5098  139.1480  143.3611 LP  0  0  0  0  0  0  0  0  0  0  0  0  # atno 17321 bound_to 7965
  140.7185  143.7202  150.7702 LP  0  0  0  0  0  0  0  0  0  0  0  0  # atno 17342 bound_to 10162
  140.0761  143.5014  152.2555 LP  0  0  0  0  0  0  0  0  0  0  0  0  # atno 17343 bound_to 10162
  157.6252  131.0926  150.8548 LP  0  0  0  0  0  0  0  0  0  0  0  0  # atno 17370 bound_to 10713
  156.8664  130.5131  149.5300 LP  0  0  0  0  0  0  0  0  0  0  0  0  # atno 17371 bound_to 10713
  139.9922  134.6968  155.9670 LP  0  0  0  0  0  0  0  0  0  0  0  0  # atno 17394 bound_to 11000
  141.1604  133.6539  156.4300 LP  0  0  0  0  0  0  0  0  0  0  0  0  # atno 17395 bound_to 11000

$$$$
