AV-unprocessed.smi:116|AV-procd|sdf|1127|dock7
  -GOLD-   2262018253D 1   1.00000     0.00000
 Structure written by MMmdl.
 38 41  0  0  0  0  0  0  0  0  1 V2000
  150.9522  139.8312  154.7725 O   0  0  0  0  0  0  0  0  0  0  0  0
  150.3655  139.2810  155.7059 C   0  0  0  0  0  0  0  0  0  0  0  0
  149.0541  138.6564  155.5674 C   0  0  0  0  0  0  0  0  0  0  0  0
  148.4290  138.6812  154.3781 F   0  0  0  0  0  0  0  0  0  0  0  0
  148.4585  138.0431  156.6126 C   0  0  0  0  0  0  0  0  0  0  0  0
  149.0321  137.9668  157.8711 N   0  0  0  0  0  0  0  0  0  0  0  0
  148.3496  137.2434  159.0121 C   0  0  2  0  0  0  0  0  0  0  0  0
  148.0662  135.7887  158.6211 C   0  0  0  0  0  0  0  0  0  0  0  0
  146.6738  135.8931  158.0389 C   0  0  0  0  0  0  0  0  0  0  0  0
  146.0500  136.9661  158.9249 C   0  0  0  0  0  0  0  0  0  0  0  0
  147.1155  137.8494  159.2715 O   0  0  0  0  0  0  0  0  0  0  0  0
  150.2989  138.5465  158.0982 C   0  0  0  0  0  0  0  0  0  0  0  0
  150.8374  138.4729  159.2056 O   0  0  0  0  0  0  0  0  0  0  0  0
  150.9245  139.1923  157.0056 N   0  0  0  0  0  0  0  0  0  0  0  0
  152.2580  139.7326  157.2212 C   0  0  0  0  0  0  0  0  0  0  0  0
  152.1988  140.9757  158.0574 C   0  0  0  0  0  0  0  0  0  0  0  0
  151.5922  142.0947  157.6386 N   0  0  0  0  0  0  0  0  0  0  0  0
  151.7164  143.0957  158.5977 C   0  0  0  0  0  0  0  0  0  0  0  0
  151.2228  144.4186  158.5146 C   0  0  0  0  0  0  0  0  0  0  0  0
  151.4232  145.3383  159.5634 C   0  0  0  0  0  0  0  0  0  0  0  0
  152.1230  144.9507  160.7217 C   0  0  0  0  0  0  0  0  0  0  0  0
  152.6240  143.6408  160.8322 C   0  0  0  0  0  0  0  0  0  0  0  0
  152.4224  142.7274  159.7808 C   0  0  0  0  0  0  0  0  0  0  0  0
  152.9417  141.0500  159.6608 S   0  0  0  0  0  0  0  0  0  0  0  0
  147.4932  137.5915  156.4404 H   0  0  0  0  0  0  0  0  0  0  0  0
  149.0080  137.3548  159.8753 H   0  0  0  0  0  0  0  0  0  0  0  0
  148.8092  135.3869  157.9310 H   0  0  0  0  0  0  0  0  0  0  0  0
  148.0581  135.1804  159.5262 H   0  0  0  0  0  0  0  0  0  0  0  0
  146.7223  136.2359  157.0045 H   0  0  0  0  0  0  0  0  0  0  0  0
  146.1271  134.9501  158.0608 H   0  0  0  0  0  0  0  0  0  0  0  0
  145.2361  137.4962  158.4302 H   0  0  0  0  0  0  0  0  0  0  0  0
  145.6578  136.5200  159.8396 H   0  0  0  0  0  0  0  0  0  0  0  0
  152.8880  138.9767  157.6909 H   0  0  0  0  0  0  0  0  0  0  0  0
  152.6986  139.9337  156.2430 H   0  0  0  0  0  0  0  0  0  0  0  0
  150.6843  144.7292  157.6314 H   0  0  0  0  0  0  0  0  0  0  0  0
  151.0389  146.3441  159.4781 H   0  0  0  0  0  0  0  0  0  0  0  0
  152.2753  145.6580  161.5240 H   0  0  0  0  0  0  0  0  0  0  0  0
  153.1617  143.3376  161.7186 H   0  0  0  0  0  0  0  0  0  0  0  0
  1  2  2  0  0  0  0
  2 14  1  0  0  0  0
  2  3  1  0  0  0  0
  3  4  1  0  0  0  0
  3  5  2  0  0  0  0
  5  6  1  0  0  0  0
  5 25  1  0  0  0  0
  6  7  1  0  0  0  0
  6 12  1  0  0  0  0
  7 11  1  0  0  0  0
  7  8  1  0  0  0  0
  7 26  1  0  0  0  0
  8  9  1  0  0  0  0
  8 27  1  0  0  0  0
  8 28  1  0  0  0  0
  9 10  1  0  0  0  0
  9 29  1  0  0  0  0
  9 30  1  0  0  0  0
 10 11  1  0  0  0  0
 10 31  1  0  0  0  0
 10 32  1  0  0  0  0
 12 13  2  0  0  0  0
 12 14  1  0  0  0  0
 14 15  1  0  0  0  0
 15 16  1  0  0  0  0
 15 33  1  0  0  0  0
 15 34  1  0  0  0  0
 16 24  1  0  0  0  0
 16 17  2  0  0  0  0
 17 18  1  0  0  0  0
 18 23  2  0  0  0  0
 18 19  1  0  0  0  0
 19 20  2  0  0  0  0
 19 35  1  0  0  0  0
 20 21  1  0  0  0  0
 20 36  1  0  0  0  0
 21 22  2  0  0  0  0
 21 37  1  0  0  0  0
 22 23  1  0  0  0  0
 22 38  1  0  0  0  0
 23 24  1  0  0  0  0
M  END
> <s_m_source_file>
AV-unprocessed.smi

> <i_m_source_file_index>
116

> <i_lp_mmshare_version>
43012

> <i_f3d_flags>
0

> <s_epik_input>
TzFbQ0gyXVtDSDJdW0NIMl1bQ0BIXTFuKFtjSF1jKEYpYzI9TyljKD1PKW4yW0NIMl1jKG4zKXNjKGMzNClbY0hdW2NIXVtjSF1bY0hdNA==

> <s_epik_cmdline>
J2VwaWtfcHl0aG9uJywgJy1waCcsICc3LjAnLCAnLXRuJywgJzgnLCAnLW1hJywgJzIwMCcsICctbWV0YWxfYmluZGluZycsICctaW1hZScsICc8aW5maWxlLm1hZT4nLCAnLW9tYWUnLCAnPG91dGZpbGUubWFlPic=

> <r_lp_tautomer_probability>
1

> <r_epik_Ionization_Penalty>
4.2492e-05

> <r_epik_Ionization_Penalty_Charging>
2.84664e-09

> <r_epik_Ionization_Penalty_Neutral>
4.24891e-05

> <r_epik_State_Penalty>
-0

> <r_epik_Charging_Adjusted_Penalty>
2.84664e-09

> <i_epik_Tot_Q>
0

> <i_epik_Tot_abs_Q>
0

> <r_epik_Metal_State_Penalty>
-0

> <b_epik_Metal_Only>
0

> <s_epik_Chemistry_Notes>
This compound contains an acetal/aminal-like group ( X-CH(R)-Y where X, Y are N, S, or O) that may be acid/base labile, releasing an aldehyde.

> <s_lp_Force_Field>
OPLS_2005

> <r_lp_Energy>
31.0424

> <b_lp_Chiralities_Consistent>
1

> <s_lp_Variant>
AV-unprocessed.smi:116-1

> <Gold.Version>
5.8.1

> <Gold.Id.Protein>
6NUR|6NUR_protein|mol2

> <Gold.PLP.Fitness>
41.8868

> <Gold.PLP.PLP>
-37.1728

> <Gold.PLP.part.hbond>
-2.5212

> <Gold.PLP.part.metal>
0.0000

> <Gold.PLP.part.buried>
-6.1098

> <Gold.PLP.part.nonpolar>
-28.0829

> <Gold.PLP.part.repulsive>
0.0994

> <Gold.PLP.ligand.clash>
0.0000

> <Gold.PLP.ligand.torsion>
0.1584

> <Gold.PLP.Chemscore.Hbond>
1.6720

> <Gold.PLP.Chemscore.CHOScore>
0.0000

> <Gold.PLP.Chemscore.Metal>
0.0000

> <Gold.Chemscore.Hbonds>
donor molecule, donor type, donor heavy atom, donor atom, acceptor molecule, acceptor atom, score
      P1  H  6934  6947       L1    11  0.66
      P1  H  7989  7998       L1     1  1.00

> <Gold.PLP.Chemscore.Internal.Correction>
0.0148

> <Gold.Rescore>
     Score         DG    S(hbond)    S(metal)    S(lipo)     H(rot)  DE(clash)    DE(int)     intcor
     18.99     -19.33       1.76        0.00     101.18       1.52       0.13       0.20       ----

> <Gold.Chemscore.Fitness>
18.9948

> <Gold.Chemscore.DG>
-19.3276

> <Gold.Chemscore.ZeroCoef>
-5.4800

> <Gold.Chemscore.Hbond>
1.7647

> <Gold.Chemscore.Metal>
0.0000

> <Gold.Chemscore.Lipo>
101.1762

> <Gold.Chemscore.Internal_Hbond>
0.0000

> <Gold.Chemscore.DEClash>
0.1316

> <Gold.Chemscore.DEInternal>
0.2012

> <Gold.Chemscore.Rot>
1.5172

> <Gold.Chemscore.Internal.Correction>
   9.000000E+99

> <Gold.Chemscore.Hbonds>
donor molecule, donor type, donor heavy atom, donor atom, acceptor molecule, acceptor atom, score
      P1  H  6934  6947       L1    11  0.52
      P1  H  7989  7998       L1     1  1.00

> <Gold.Chemscore.Hbond.Weighted>
-5.8941

> <Gold.Chemscore.Metal.Weighted>
-0.0000

> <Gold.Chemscore.Lipo.Weighted>
-11.8376

> <Gold.Chemscore.Internal_Hbond.Weighted>
0.0000

> <Gold.Chemscore.DEClash.Weighted>
0.1316

> <Gold.Chemscore.DEInternal.Weighted>
0.2012

> <Gold.Chemscore.Rot.Weighted>
3.8841

> <Gold.Chemscore.Internal.Correction.Weighted>
   9.000000E+99

> <Gold.Protein.RotatedTorsions>
[ 6907 6896 6895 6894 ] final   75.01 input  -60.11 | X-H torsion
[ 7974 7965 7964 7962 ] final   27.07 input  175.53 | X-H torsion
[ 8008 7997 7996 7995 ] final   39.65 input   59.86 | X-H torsion
[ 10167 10162 10161 10158 ] final  101.45 input  -65.29 | X-H torsion
[ 10718 10713 10712 10709 ] final  110.88 input   66.30 | X-H torsion
[ 10763 10752 10751 10750 ] final -144.31 input  -60.55 | X-H torsion
[ 11005 11000 10999 10996 ] final  163.34 input  -57.11 | X-H torsion

> <Gold.Protein.ActiveResidues>
 VAL166  LYS551  ARG553  GLY616  TRP617  ASP618  TYR619  PRO620  LYS621  CYS622 
 ASP623  PHE694  ASN695  SER759  ASP760  ASP761  ALA762  ILE779  LEU786  VAL792 
 PHE793  MET794  SER795  GLU796  ALA797  LYS798  CYS799  TRP800  GLU811  SER814 

> <Gold.Protein.RotatedAtoms>
  152.5005  134.4185  159.9472 H   0  0  0  0  0  0  0  0  0  0  0  0  # atno 6907 bound_to 6896
  151.4156  133.3707  159.2757 H   0  0  0  0  0  0  0  0  0  0  0  0  # atno 6908 bound_to 6896
  150.9259  134.8698  159.7579 H   0  0  0  0  0  0  0  0  0  0  0  0  # atno 6909 bound_to 6896
  146.1804  139.7241  142.8905 H   0  0  0  0  0  0  0  0  0  0  0  0  # atno 7974 bound_to 7965
  155.2401  140.3345  155.4293 H   0  0  0  0  0  0  0  0  0  0  0  0  # atno 8008 bound_to 7997
  156.2259  140.1829  156.7409 H   0  0  0  0  0  0  0  0  0  0  0  0  # atno 8009 bound_to 7997
  154.5898  140.0640  156.9208 H   0  0  0  0  0  0  0  0  0  0  0  0  # atno 8010 bound_to 7997
  139.7437  144.7004  151.0537 H   0  0  0  0  0  0  0  0  0  0  0  0  # atno 10167 bound_to 10162
  157.6472  131.0940  150.6666 H   0  0  0  0  0  0  0  0  0  0  0  0  # atno 10718 bound_to 10713
  154.8433  135.3444  154.6326 H   0  0  0  0  0  0  0  0  0  0  0  0  # atno 10763 bound_to 10752
  153.6936  135.6973  153.5087 H   0  0  0  0  0  0  0  0  0  0  0  0  # atno 10764 bound_to 10752
  153.2576  135.4333  155.0817 H   0  0  0  0  0  0  0  0  0  0  0  0  # atno 10765 bound_to 10752
  140.2348  134.8096  157.3353 H   0  0  0  0  0  0  0  0  0  0  0  0  # atno 11005 bound_to 11000
  145.4093  141.0394  143.3026 LP  0  0  0  0  0  0  0  0  0  0  0  0  # atno 17320 bound_to 7965
  144.8305  139.5637  143.6946 LP  0  0  0  0  0  0  0  0  0  0  0  0  # atno 17321 bound_to 7965
  140.7789  143.4893  150.9914 LP  0  0  0  0  0  0  0  0  0  0  0  0  # atno 17342 bound_to 10162
  139.8581  143.7350  152.3175 LP  0  0  0  0  0  0  0  0  0  0  0  0  # atno 17343 bound_to 10162
  156.6982  130.4615  149.5580 LP  0  0  0  0  0  0  0  0  0  0  0  0  # atno 17370 bound_to 10713
  156.1814  130.6501  151.0955 LP  0  0  0  0  0  0  0  0  0  0  0  0  # atno 17371 bound_to 10713
  140.1713  134.4605  155.7830 LP  0  0  0  0  0  0  0  0  0  0  0  0  # atno 17394 bound_to 11000
  141.2215  133.6943  156.7712 LP  0  0  0  0  0  0  0  0  0  0  0  0  # atno 17395 bound_to 11000

$$$$
