#       Name:                AV-unprocessed.smi:870
#       Creating user name   scv26
#       Creation time:       Fri Mar 27 01:49:24 2020


#       File generated by GOLD software.
#

@<TRIPOS>MOLECULE
AV-unprocessed.smi:870
    53    55     1
SMALL
NO_CHARGES


@<TRIPOS>ATOM
      1 ****        -1.6571   0.9633  -5.7416 C.3            1 S1                 0.0000
      2 ****        -1.9871   1.6154  -4.5285 O.3            1 S1                 0.0000
      3 ****        -1.7644   0.7924  -3.3935 C.3            1 S1                 0.0000
      4 ****        -2.1387   1.5671  -2.1617 C.2            1 S1                 0.0000
      5 ****        -2.7168   2.7702  -2.2046 N.2            1 S1                 0.0000
      6 ****        -2.8766   3.0823  -0.8693 C.ar           1 S1                 0.0000
      7 ****        -3.4314   4.2268  -0.2531 C.ar           1 S1                 0.0000
      8 ****        -3.4907   4.3222   1.1528 C.ar           1 S1                 0.0000
      9 ****        -2.9979   3.2769   1.9607 C.ar           1 S1                 0.0000
     10 ****        -2.4414   2.1279   1.3665 C.ar           1 S1                 0.0000
     11 ****        -2.3840   2.0383  -0.0373 C.ar           1 S1                 0.0000
     12 ****        -1.9107   1.0717  -0.9186 N.pl3          1 S1                 0.0000
     13 ****        -1.3078  -0.2015  -0.5451 C.3            1 S1                 0.0000
     14 ****         0.1439  -0.0476  -0.0485 C.3            1 S1                 0.0000
     15 ****         0.9351   0.4943  -1.0881 O.3            1 S1                 0.0000
     16 ****         0.7488  -1.3947   0.3778 C.3            1 S1                 0.0000
     17 ****         1.8319  -1.1511   1.2653 O.3            1 S1                 0.0000
     18 ****         2.5081  -2.2319   1.7933 C.ar           1 S1                 0.0000
     19 ****         2.1955  -3.5818   1.4891 C.ar           1 S1                 0.0000
     20 ****         2.9291  -4.6347   2.0682 C.ar           1 S1                 0.0000
     21 ****         3.9826  -4.3557   2.9567 C.ar           1 S1                 0.0000
     22 ****         4.3021  -3.0213   3.2660 C.ar           1 S1                 0.0000
     23 ****         3.5704  -1.9624   2.6882 C.ar           1 S1                 0.0000
     24 ****         3.9279  -0.5289   3.0339 C.3            1 S1                 0.0000
     25 ****        -1.8485   1.6317  -6.5808 H              1 S1                 0.0000
     26 ****        -2.2590   0.0648  -5.8825 H              1 S1                 0.0000
     27 ****        -0.6026   0.6859  -5.7652 H              1 S1                 0.0000
     28 ****        -2.3738  -0.1107  -3.4509 H              1 S1                 0.0000
     29 ****        -0.7149   0.5012  -3.3388 H              1 S1                 0.0000
     30 ****        -3.8117   5.0323  -0.8637 H              1 S1                 0.0000
     31 ****        -3.9165   5.2016   1.6133 H              1 S1                 0.0000
     32 ****        -3.0468   3.3579   3.0367 H              1 S1                 0.0000
     33 ****        -2.0621   1.3259   1.9822 H              1 S1                 0.0000
     34 ****        -1.9229  -0.6403   0.2416 H              1 S1                 0.0000
     35 ****        -1.3556  -0.8952  -1.3844 H              1 S1                 0.0000
     36 ****         0.1583   0.6406   0.7978 H              1 S1                 0.0000
     37 ****         0.9508  -0.1203  -1.8057 H              1 S1                 0.0000
     38 ****        -0.0061  -1.9752   0.9108 H              1 S1                 0.0000
     39 ****         1.0613  -1.9729  -0.4938 H              1 S1                 0.0000
     40 ****         1.3944  -3.8388   0.8131 H              1 S1                 0.0000
     41 ****         2.6821  -5.6588   1.8298 H              1 S1                 0.0000
     42 ****         4.5447  -5.1638   3.4010 H              1 S1                 0.0000
     43 ****         5.1122  -2.8147   3.9501 H              1 S1                 0.0000
     44 ****         4.7902  -0.4811   3.6995 H              1 S1                 0.0000
     45 ****         3.0891  -0.0395   3.5297 H              1 S1                 0.0000
     46 ****         4.1677   0.0310   2.1296 H              1 S1                 0.0000
     47 ****        -2.9533   1.8721  -4.5544 LP             1 S1                 0.0000
     48 ****        -1.4257   2.4386  -4.4433 LP             1 S1                 0.0000
     49 ****        -2.9712   3.3114  -3.0060 LP             1 S1                 0.0000
     50 ****         1.8658   0.6500  -0.7572 LP             1 S1                 0.0000
     51 ****         0.5411   1.3607  -1.3949 LP             1 S1                 0.0000
     52 ****         1.4700  -0.6250   2.0349 LP             1 S1                 0.0000
     53 ****         2.5012  -0.5982   0.7690 LP             1 S1                 0.0000
@<TRIPOS>BOND
    1    1    2 1     
    2    1   25 1     
    3    1   26 1     
    4    1   27 1     
    5    2    3 1     
    6    3    4 1     
    7    3   28 1     
    8    3   29 1     
    9    4   12 1     
   10    4    5 2     
   11    5    6 1     
   12    6   11 ar    
   13    6    7 ar    
   14    7    8 ar    
   15    7   30 1     
   16    8    9 ar    
   17    8   31 1     
   18    9   10 ar    
   19    9   32 1     
   20   10   11 ar    
   21   10   33 1     
   22   11   12 1     
   23   12   13 1     
   24   13   14 1     
   25   13   34 1     
   26   13   35 1     
   27   14   15 1     
   28   14   16 1     
   29   14   36 1     
   30   15   37 1     
   31   16   17 1     
   32   16   38 1     
   33   16   39 1     
   34   17   18 1     
   35   18   23 ar    
   36   18   19 ar    
   37   19   20 ar    
   38   19   40 1     
   39   20   21 ar    
   40   20   41 1     
   41   21   22 ar    
   42   21   42 1     
   43   22   23 ar    
   44   22   43 1     
   45   23   24 1     
   46   24   44 1     
   47   24   45 1     
   48   24   46 1     
   49    2   47 1     
   50    2   48 1     
   51    5   49 1     
   52   15   50 1     
   53   15   51 1     
   54   17   52 1     
   55   17   53 1     
@<TRIPOS>SUBSTRUCTURE
      1 S1             1
@<TRIPOS>SET
LONE_PAIRS      STATIC     ATOMS    <user>   **** ""
7 47 48 49 50 51 52 53
DONOR_HYDROGENS      STATIC     ATOMS    <user>   **** ""
1 37
ATOM$BLUE        STATIC     ATOMS    COLORGROUP SYSTEM
7 47 48 49 50 51 52 53
ATOM$RED        STATIC     ATOMS    COLORGROUP SYSTEM
1 37
