AV-unprocessed.smi:2390|AV-procd|sdf|9473|dock1
  -GOLD-   2272013103D 1   1.00000     0.00000
 Structure written by MMmdl.
 45 46  0  0  0  0  0  0  0  0  1 V2000
  153.5900  140.9592  159.8104 C   0  0  0  0  0  0  0  0  0  0  0  0
  152.8698  142.1846  159.2882 C   0  0  0  0  0  0  0  0  0  0  0  0
  153.1901  143.4716  159.7626 C   0  0  0  0  0  0  0  0  0  0  0  0
  152.4834  144.5670  159.2344 C   0  0  0  0  0  0  0  0  0  0  0  0
  151.4917  144.3320  158.2623 C   0  0  0  0  0  0  0  0  0  0  0  0
  151.2283  143.0081  157.8441 C   0  0  0  0  0  0  0  0  0  0  0  0
  150.2059  142.8751  156.8669 N   0  0  0  0  0  0  0  0  0  0  0  0
  149.5119  141.7712  156.5373 C   0  0  0  0  0  0  0  0  0  0  0  0
  149.6779  140.6550  157.0300 O   0  0  0  0  0  0  0  0  0  0  0  0
  148.5958  142.0389  155.5948 N   0  0  0  0  0  0  0  0  0  0  0  0
  147.6234  141.0915  155.0478 C   0  0  2  0  0  0  0  0  0  0  0  0
  148.0645  140.6683  153.6350 C   0  0  0  0  0  0  0  0  0  0  0  0
  146.1749  141.6766  155.1080 C   0  0  2  0  0  0  0  0  0  0  0  0
  146.1370  143.0492  154.3856 C   0  0  0  0  0  0  0  0  0  0  0  0
  145.6039  141.7336  156.4776 N   0  0  0  0  0  0  0  0  0  0  0  0
  146.2441  142.7439  157.3294 C   0  0  0  0  0  0  0  0  0  0  0  0
  145.6476  142.7910  158.7465 C   0  0  0  0  0  0  0  0  0  0  0  0
  145.7525  141.5107  159.3537 O   0  0  0  0  0  0  0  0  0  0  0  0
  145.0881  140.5069  158.5991 C   0  0  0  0  0  0  0  0  0  0  0  0
  145.6798  140.4472  157.1801 C   0  0  0  0  0  0  0  0  0  0  0  0
  151.9172  141.9589  158.3584 N   0  0  0  0  0  0  0  0  0  0  0  0
  154.4585  141.2368  160.4081 H   0  0  0  0  0  0  0  0  0  0  0  0
  153.9328  140.3365  158.9833 H   0  0  0  0  0  0  0  0  0  0  0  0
  152.9209  140.3655  160.4336 H   0  0  0  0  0  0  0  0  0  0  0  0
  153.9561  143.6183  160.5099 H   0  0  0  0  0  0  0  0  0  0  0  0
  152.6974  145.5711  159.5693 H   0  0  0  0  0  0  0  0  0  0  0  0
  150.9394  145.1628  157.8477 H   0  0  0  0  0  0  0  0  0  0  0  0
  149.9599  143.7231  156.3782 H   0  0  0  0  0  0  0  0  0  0  0  0
  148.5379  142.9862  155.2514 H   0  0  0  0  0  0  0  0  0  0  0  0
  147.6654  140.1592  155.6063 H   0  0  0  0  0  0  0  0  0  0  0  0
  147.3239  140.0162  153.1713 H   0  0  0  0  0  0  0  0  0  0  0  0
  149.0033  140.1148  153.6770 H   0  0  0  0  0  0  0  0  0  0  0  0
  148.2277  141.5175  152.9725 H   0  0  0  0  0  0  0  0  0  0  0  0
  145.5460  141.0029  154.5238 H   0  0  0  0  0  0  0  0  0  0  0  0
  146.6350  143.0256  153.4186 H   0  0  0  0  0  0  0  0  0  0  0  0
  146.6125  143.8291  154.9813 H   0  0  0  0  0  0  0  0  0  0  0  0
  145.1178  143.3683  154.1712 H   0  0  0  0  0  0  0  0  0  0  0  0
  147.3156  142.5495  157.3930 H   0  0  0  0  0  0  0  0  0  0  0  0
  146.1293  143.7413  156.9137 H   0  0  0  0  0  0  0  0  0  0  0  0
  146.1807  143.5190  159.3580 H   0  0  0  0  0  0  0  0  0  0  0  0
  144.6028  143.1045  158.7146 H   0  0  0  0  0  0  0  0  0  0  0  0
  145.2087  139.5468  159.1010 H   0  0  0  0  0  0  0  0  0  0  0  0
  144.0177  140.7159  158.5617 H   0  0  0  0  0  0  0  0  0  0  0  0
  145.1282  139.6799  156.6396 H   0  0  0  0  0  0  0  0  0  0  0  0
  146.7176  140.1150  157.2332 H   0  0  0  0  0  0  0  0  0  0  0  0
  1  2  1  0  0  0  0
  1 22  1  0  0  0  0
  1 23  1  0  0  0  0
  1 24  1  0  0  0  0
  2 21  1  0  0  0  0
  2  3  2  0  0  0  0
  3  4  1  0  0  0  0
  3 25  1  0  0  0  0
  4  5  2  0  0  0  0
  4 26  1  0  0  0  0
  5  6  1  0  0  0  0
  5 27  1  0  0  0  0
  6  7  1  0  0  0  0
  6 21  2  0  0  0  0
  7  8  1  0  0  0  0
  7 28  1  0  0  0  0
  8  9  2  0  0  0  0
  8 10  1  0  0  0  0
 10 11  1  0  0  0  0
 10 29  1  0  0  0  0
 11 12  1  0  0  0  0
 11 13  1  0  0  0  0
 11 30  1  0  0  0  0
 12 31  1  0  0  0  0
 12 32  1  0  0  0  0
 12 33  1  0  0  0  0
 13 14  1  0  0  0  0
 13 15  1  0  0  0  0
 13 34  1  0  0  0  0
 14 35  1  0  0  0  0
 14 36  1  0  0  0  0
 14 37  1  0  0  0  0
 15 20  1  0  0  0  0
 15 16  1  0  0  0  0
 16 17  1  0  0  0  0
 16 38  1  0  0  0  0
 16 39  1  0  0  0  0
 17 18  1  0  0  0  0
 17 40  1  0  0  0  0
 17 41  1  0  0  0  0
 18 19  1  0  0  0  0
 19 20  1  0  0  0  0
 19 42  1  0  0  0  0
 19 43  1  0  0  0  0
 20 44  1  0  0  0  0
 20 45  1  0  0  0  0
M  END
> <s_m_source_file>
AV-unprocessed.smi

> <i_m_source_file_index>
2390

> <i_lp_mmshare_version>
43012

> <i_f3d_flags>
0

> <s_epik_input>
W0NIM11jMVtjSF1bY0hdW2NIXWMobjEpW05IXUMoPU8pW05IXVtDQEhdKFtDSDNdKVtDQEhdKFtDSDNdKU4yW0NIMl1bQ0gyXU9bQ0gyXVtDSDJdMg==

> <s_epik_cmdline>
J2VwaWtfcHl0aG9uJywgJy1waCcsICc3LjAnLCAnLXRuJywgJzgnLCAnLW1hJywgJzIwMCcsICctbWV0YWxfYmluZGluZycsICctaW1hZScsICc8aW5maWxlLm1hZT4nLCAnLW9tYWUnLCAnPG91dGZpbGUubWFlPic=

> <r_epik_Ionization_Penalty>
0.266074

> <r_epik_Ionization_Penalty_Charging>
0

> <r_epik_Ionization_Penalty_Neutral>
0.266074

> <r_epik_State_Penalty>
0.257924

> <r_epik_Charging_Adjusted_Penalty>
0.257924

> <i_epik_Tot_Q>
0

> <i_epik_Tot_abs_Q>
0

> <r_epik_Metal_State_Penalty>
0.257919

> <b_epik_Metal_Only>
0

> <s_lp_Force_Field>
OPLS_2005

> <r_lp_Energy>
37.1524

> <b_lp_Chiralities_Consistent>
1

> <s_lp_Variant>
AV-unprocessed.smi:2390-1

> <Gold.Version>
5.8.1

> <Gold.Id.Protein>
6NUR|6NUR_protein|mol2

> <Gold.PLP.Fitness>
45.3354

> <Gold.PLP.PLP>
-37.3332

> <Gold.PLP.part.hbond>
-3.0000

> <Gold.PLP.part.metal>
0.0000

> <Gold.PLP.part.buried>
-4.0927

> <Gold.PLP.part.nonpolar>
-31.0173

> <Gold.PLP.part.repulsive>
0.2264

> <Gold.PLP.ligand.clash>
0.0000

> <Gold.PLP.ligand.torsion>
0.3758

> <Gold.PLP.Chemscore.Hbond>
2.8800

> <Gold.PLP.Chemscore.CHOScore>
0.0000

> <Gold.PLP.Chemscore.Metal>
0.0000

> <Gold.Chemscore.Hbonds>
donor molecule, donor type, donor heavy atom, donor atom, acceptor molecule, acceptor atom, score
      L1  H     7    28       P1  8028  1.00
      L1  H    10    29       P1  8028  0.91
      P1  H  6934  6946       L1    18  0.96

> <Gold.PLP.Chemscore.Internal.Correction>
0.1138

> <Gold.Rescore>
     Score         DG    S(hbond)    S(metal)    S(lipo)     H(rot)  DE(clash)    DE(int)     intcor
     18.17     -20.91       2.86        0.00      81.64       1.44       0.06       2.67       ----

> <Gold.Chemscore.Fitness>
18.1723

> <Gold.Chemscore.DG>
-20.9098

> <Gold.Chemscore.ZeroCoef>
-5.4800

> <Gold.Chemscore.Hbond>
2.8631

> <Gold.Chemscore.Metal>
0.0000

> <Gold.Chemscore.Lipo>
81.6448

> <Gold.Chemscore.Internal_Hbond>
0.0000

> <Gold.Chemscore.DEClash>
0.0640

> <Gold.Chemscore.DEInternal>
2.6735

> <Gold.Chemscore.Rot>
1.4396

> <Gold.Chemscore.Internal.Correction>
   9.000000E+99

> <Gold.Chemscore.Hbonds>
donor molecule, donor type, donor heavy atom, donor atom, acceptor molecule, acceptor atom, score
      L1  H     7    28       P1  8028  0.96
      L1  H    10    29       P1  8028  0.88
      P1  H  6934  6946       L1    18  0.81

> <Gold.Chemscore.Hbond.Weighted>
-9.5629

> <Gold.Chemscore.Metal.Weighted>
-0.0000

> <Gold.Chemscore.Lipo.Weighted>
-9.5524

> <Gold.Chemscore.Internal_Hbond.Weighted>
0.0000

> <Gold.Chemscore.DEClash.Weighted>
0.0640

> <Gold.Chemscore.DEInternal.Weighted>
2.6735

> <Gold.Chemscore.Rot.Weighted>
3.6855

> <Gold.Chemscore.Internal.Correction.Weighted>
   9.000000E+99

> <Gold.Protein.RotatedTorsions>
[ 6907 6896 6895 6894 ] final  -80.29 input  -60.11 | X-H torsion
[ 7974 7965 7964 7962 ] final   31.59 input  175.53 | X-H torsion
[ 8008 7997 7996 7995 ] final -157.35 input   59.86 | X-H torsion
[ 10167 10162 10161 10158 ] final -140.19 input  -65.29 | X-H torsion
[ 10718 10713 10712 10709 ] final  -74.94 input   66.30 | X-H torsion
[ 10763 10752 10751 10750 ] final  -42.01 input  -60.55 | X-H torsion
[ 11005 11000 10999 10996 ] final  139.09 input  -57.11 | X-H torsion

> <Gold.Protein.ActiveResidues>
 VAL166  LYS551  ARG553  GLY616  TRP617  ASP618  TYR619  PRO620  LYS621  CYS622 
 ASP623  PHE694  ASN695  SER759  ASP760  ASP761  ALA762  ILE779  LEU786  VAL792 
 PHE793  MET794  SER795  GLU796  ALA797  LYS798  CYS799  TRP800  GLU811  SER814 

> <Gold.Protein.RotatedAtoms>
  150.6932  134.3991  159.5110 H   0  0  0  0  0  0  0  0  0  0  0  0  # atno 6907 bound_to 6896
  152.1768  134.8785  160.0539 H   0  0  0  0  0  0  0  0  0  0  0  0  # atno 6908 bound_to 6896
  151.9791  133.3717  159.4137 H   0  0  0  0  0  0  0  0  0  0  0  0  # atno 6909 bound_to 6896
  146.1540  139.6636  142.9079 H   0  0  0  0  0  0  0  0  0  0  0  0  # atno 7974 bound_to 7965
  155.7311  140.0802  157.2288 H   0  0  0  0  0  0  0  0  0  0  0  0  # atno 8008 bound_to 7997
  154.4033  140.1595  156.2564 H   0  0  0  0  0  0  0  0  0  0  0  0  # atno 8009 bound_to 7997
  155.9108  140.3404  155.6100 H   0  0  0  0  0  0  0  0  0  0  0  0  # atno 8010 bound_to 7997
  139.8306  143.7452  152.2666 H   0  0  0  0  0  0  0  0  0  0  0  0  # atno 10167 bound_to 10162
  156.0225  130.4429  150.2967 H   0  0  0  0  0  0  0  0  0  0  0  0  # atno 10718 bound_to 10713
  153.9720  135.6727  153.4747 H   0  0  0  0  0  0  0  0  0  0  0  0  # atno 10763 bound_to 10752
  153.0788  135.4934  154.8457 H   0  0  0  0  0  0  0  0  0  0  0  0  # atno 10764 bound_to 10752
  154.7214  135.3118  154.9002 H   0  0  0  0  0  0  0  0  0  0  0  0  # atno 10765 bound_to 10752
  140.0230  134.9388  157.0511 H   0  0  0  0  0  0  0  0  0  0  0  0  # atno 11005 bound_to 11000
  145.4753  141.0437  143.2676 LP  0  0  0  0  0  0  0  0  0  0  0  0  # atno 17320 bound_to 7965
  144.7940  139.6271  143.7101 LP  0  0  0  0  0  0  0  0  0  0  0  0  # atno 17321 bound_to 7965
  139.7659  144.7492  151.0296 LP  0  0  0  0  0  0  0  0  0  0  0  0  # atno 17342 bound_to 10162
  140.7807  143.4699  151.0161 LP  0  0  0  0  0  0  0  0  0  0  0  0  # atno 17343 bound_to 10162
  157.1070  131.0211  151.3063 LP  0  0  0  0  0  0  0  0  0  0  0  0  # atno 17370 bound_to 10713
  157.4734  130.7722  149.7345 LP  0  0  0  0  0  0  0  0  0  0  0  0  # atno 17371 bound_to 10713
  140.4355  134.1736  155.7170 LP  0  0  0  0  0  0  0  0  0  0  0  0  # atno 17394 bound_to 11000
  141.1785  133.8463  157.1339 LP  0  0  0  0  0  0  0  0  0  0  0  0  # atno 17395 bound_to 11000

$$$$
