AV-unprocessed.smi:1824|AV-procd|sdf|7403|dock9
  -GOLD-   22720 9 73D 1   1.00000     0.00000
 Structure written by MMmdl.
 45 47  0  0  0  0  0  0  0  0  2 V2000
  149.2169  140.1822  154.4008 C   0  0  0  0  0  0  0  0  0  0  0  0
  148.6599  138.7881  154.0929 C   0  0  2  0  0  0  0  0  0  0  0  0
  147.4150  138.8457  153.1874 C   0  0  0  0  0  0  0  0  0  0  0  0
  146.8627  137.4870  152.9761 N   0  3  2  0  0  0  0  0  0  0  0  0
  145.7005  137.4823  152.0512 C   0  0  0  0  0  0  0  0  0  0  0  0
  145.5988  136.1800  151.2327 C   0  0  2  0  0  0  0  0  0  0  0  0
  145.5102  136.5144  149.8605 O   0  0  0  0  0  0  0  0  0  0  0  0
  144.3663  135.3481  151.6362 C   0  0  0  0  0  0  0  0  0  0  0  0
  144.6264  133.9193  151.6110 N   0  0  0  0  0  0  0  0  0  0  0  0
  143.8872  132.9730  151.0007 C   0  0  0  0  0  0  0  0  0  0  0  0
  144.3040  131.7145  151.1030 N   0  0  0  0  0  0  0  0  0  0  0  0
  145.4508  131.8597  151.8644 C   0  0  0  0  0  0  0  0  0  0  0  0
  146.3712  130.8936  152.3297 C   0  0  0  0  0  0  0  0  0  0  0  0
  147.4845  131.2816  153.1041 C   0  0  0  0  0  0  0  0  0  0  0  0
  148.3568  130.3431  153.5418 F   0  0  0  0  0  0  0  0  0  0  0  0
  147.6931  132.6397  153.4248 C   0  0  0  0  0  0  0  0  0  0  0  0
  148.7638  133.0038  154.1692 F   0  0  0  0  0  0  0  0  0  0  0  0
  146.7890  133.6201  152.9728 C   0  0  0  0  0  0  0  0  0  0  0  0
  145.6808  133.2285  152.1992 C   0  0  0  0  0  0  0  0  0  0  0  0
  146.5890  136.8340  154.2801 C   0  0  0  0  0  0  0  0  0  0  0  0
  147.8557  136.8296  155.1568 C   0  0  2  0  0  0  0  0  0  0  0  0
  147.5965  136.2354  156.5456 C   0  0  0  0  0  0  0  0  0  0  0  0
  148.3087  138.1684  155.3253 O   0  0  0  0  0  0  0  0  0  0  0  0
  149.5062  140.7005  153.4864 H   0  0  0  0  0  0  0  0  0  0  0  0
  150.0989  140.1168  155.0384 H   0  0  0  0  0  0  0  0  0  0  0  0
  148.4790  140.7979  154.9161 H   0  0  0  0  0  0  0  0  0  0  0  0
  149.4420  138.2026  153.6065 H   0  0  0  0  0  0  0  0  0  0  0  0
  146.6502  139.4838  153.6335 H   0  0  0  0  0  0  0  0  0  0  0  0
  147.6821  139.2872  152.2262 H   0  0  0  0  0  0  0  0  0  0  0  0
  144.7863  137.6489  152.6230 H   0  0  0  0  0  0  0  0  0  0  0  0
  145.7793  138.3207  151.3569 H   0  0  0  0  0  0  0  0  0  0  0  0
  146.4893  135.5688  151.3768 H   0  0  0  0  0  0  0  0  0  0  0  0
  145.6415  135.7290  149.3506 H   0  0  0  0  0  0  0  0  0  0  0  0
  144.0463  135.6165  152.6439 H   0  0  0  0  0  0  0  0  0  0  0  0
  143.5245  135.5624  150.9764 H   0  0  0  0  0  0  0  0  0  0  0  0
  142.9903  133.2221  150.4523 H   0  0  0  0  0  0  0  0  0  0  0  0
  146.2214  129.8511  152.0909 H   0  0  0  0  0  0  0  0  0  0  0  0
  146.9472  134.6596  153.2184 H   0  0  0  0  0  0  0  0  0  0  0  0
  145.7821  137.3632  154.7899 H   0  0  0  0  0  0  0  0  0  0  0  0
  146.2516  135.8093  154.1288 H   0  0  0  0  0  0  0  0  0  0  0  0
  148.6377  136.2439  154.6702 H   0  0  0  0  0  0  0  0  0  0  0  0
  147.2582  135.2013  156.4740 H   0  0  0  0  0  0  0  0  0  0  0  0
  146.8340  136.8010  157.0819 H   0  0  0  0  0  0  0  0  0  0  0  0
  148.5043  136.2457  157.1493 H   0  0  0  0  0  0  0  0  0  0  0  0
  147.5907  136.9545  152.5209 H   0  0  0  0  0  0  0  0  0  0  0  0
  1  2  1  0  0  0  0
  1 24  1  0  0  0  0
  1 25  1  0  0  0  0
  1 26  1  0  0  0  0
  2 23  1  0  0  0  0
  2  3  1  0  0  0  0
  2 27  1  0  0  0  0
  3  4  1  0  0  0  0
  3 28  1  0  0  0  0
  3 29  1  0  0  0  0
  4  5  1  0  0  0  0
  4 20  1  0  0  0  0
  4 45  1  0  0  0  0
  5  6  1  0  0  0  0
  5 30  1  0  0  0  0
  5 31  1  0  0  0  0
  6  7  1  0  0  0  0
  6  8  1  0  0  0  0
  6 32  1  0  0  0  0
  7 33  1  0  0  0  0
  8  9  1  0  0  0  0
  8 34  1  0  0  0  0
  8 35  1  0  0  0  0
  9 19  1  0  0  0  0
  9 10  1  0  0  0  0
 10 11  2  0  0  0  0
 10 36  1  0  0  0  0
 11 12  1  0  0  0  0
 12 19  2  0  0  0  0
 12 13  1  0  0  0  0
 13 14  2  0  0  0  0
 13 37  1  0  0  0  0
 14 15  1  0  0  0  0
 14 16  1  0  0  0  0
 16 17  1  0  0  0  0
 16 18  2  0  0  0  0
 18 19  1  0  0  0  0
 18 38  1  0  0  0  0
 20 21  1  0  0  0  0
 20 39  1  0  0  0  0
 20 40  1  0  0  0  0
 21 22  1  0  0  0  0
 21 23  1  0  0  0  0
 21 41  1  0  0  0  0
 22 42  1  0  0  0  0
 22 43  1  0  0  0  0
 22 44  1  0  0  0  0
M  CHG  1   4   1
M  END
> <s_m_source_file>
AV-unprocessed.smi

> <i_m_source_file_index>
1824

> <i_lp_mmshare_version>
43012

> <i_f3d_flags>
0

> <s_epik_input>
W0NIM11bQ0BASF0xW0NIMl1OKFtDSDJdW0NASF0oTzEpW0NIM10pW0NIMl1bQ0BIXShbT0hdKVtDSDJdbihbY0hdbjIpYyhjMjMpW2NIXWMoRiljKEYpW2NIXTM=

> <s_epik_cmdline>
J2VwaWtfcHl0aG9uJywgJy1waCcsICc3LjAnLCAnLXRuJywgJzgnLCAnLW1hJywgJzIwMCcsICctbWV0YWxfYmluZGluZycsICctaW1hZScsICc8aW5maWxlLm1hZT4nLCAnLW9tYWUnLCAnPG91dGZpbGUubWFlPic=

> <r_epik_Ionization_Penalty>
0.61967

> <r_epik_Ionization_Penalty_Charging>
0.608065

> <r_epik_Ionization_Penalty_Neutral>
0.0116057

> <r_epik_State_Penalty>
0.664205

> <r_epik_Charging_Adjusted_Penalty>
1.27227

> <i_epik_Tot_Q>
1

> <i_epik_Tot_abs_Q>
1

> <r_epik_Metal_State_Penalty>
0.654947

> <b_epik_Metal_Only>
0

> <s_lp_Force_Field>
OPLS_2005

> <r_lp_Energy>
19.9364

> <b_lp_Chiralities_Consistent>
1

> <s_lp_Variant>
AV-unprocessed.smi:1824-11

> <Gold.Version>
5.8.1

> <Gold.Id.Protein>
6NUR|6NUR_protein|mol2

> <Gold.PLP.Fitness>
45.9766

> <Gold.PLP.PLP>
-37.2602

> <Gold.PLP.part.hbond>
-3.0000

> <Gold.PLP.part.metal>
0.0000

> <Gold.PLP.part.buried>
-2.9434

> <Gold.PLP.part.nonpolar>
-31.8547

> <Gold.PLP.part.repulsive>
0.2514

> <Gold.PLP.ligand.clash>
0.0000

> <Gold.PLP.ligand.torsion>
1.6511

> <Gold.PLP.Chemscore.Hbond>
3.0000

> <Gold.PLP.Chemscore.CHOScore>
0.9951

> <Gold.PLP.Chemscore.Metal>
0.0000

> <Gold.Chemscore.Hbonds>
donor molecule, donor type, donor heavy atom, donor atom, acceptor molecule, acceptor atom, score
      L1  H     4    45       P1  7948  2.00
      L1  H     7    33       P1  7921  0.99
      L1  C    10    36       P1 10186  1.00

> <Gold.PLP.Chemscore.Internal.Correction>
0.0333

> <Gold.Rescore>
     Score         DG    S(hbond)    S(metal)    S(lipo)     H(rot)  DE(clash)    DE(int)     intcor
     13.37     -14.95       1.96        0.00      75.73       2.33       0.08       1.50       ----

> <Gold.Chemscore.Fitness>
13.3686

> <Gold.Chemscore.DG>
-14.9471

> <Gold.Chemscore.ZeroCoef>
-5.4800

> <Gold.Chemscore.Hbond>
1.9636

> <Gold.Chemscore.Metal>
0.0000

> <Gold.Chemscore.Lipo>
75.7337

> <Gold.Chemscore.Internal_Hbond>
0.0000

> <Gold.Chemscore.DEClash>
0.0801

> <Gold.Chemscore.DEInternal>
1.4983

> <Gold.Chemscore.Rot>
2.3251

> <Gold.Chemscore.Internal.Correction>
   9.000000E+99

> <Gold.Chemscore.Hbonds>
donor molecule, donor type, donor heavy atom, donor atom, acceptor molecule, acceptor atom, score
      L1  H     4    45       P1  7948  1.00
      L1  H     7    33       P1  7921  0.91

> <Gold.Chemscore.Hbond.Weighted>
-6.5585

> <Gold.Chemscore.Metal.Weighted>
-0.0000

> <Gold.Chemscore.Lipo.Weighted>
-8.8608

> <Gold.Chemscore.Internal_Hbond.Weighted>
0.0000

> <Gold.Chemscore.DEClash.Weighted>
0.0801

> <Gold.Chemscore.DEInternal.Weighted>
1.4983

> <Gold.Chemscore.Rot.Weighted>
5.9523

> <Gold.Chemscore.Internal.Correction.Weighted>
   9.000000E+99

> <Gold.Protein.RotatedTorsions>
[ 6907 6896 6895 6894 ] final -133.58 input  -60.11 | X-H torsion
[ 7974 7965 7964 7962 ] final  -81.42 input  175.53 | X-H torsion
[ 8008 7997 7996 7995 ] final  -37.73 input   59.86 | X-H torsion
[ 10167 10162 10161 10158 ] final -138.70 input  -65.29 | X-H torsion
[ 10718 10713 10712 10709 ] final  129.76 input   66.30 | X-H torsion
[ 10763 10752 10751 10750 ] final   91.89 input  -60.55 | X-H torsion
[ 11005 11000 10999 10996 ] final -116.20 input  -57.11 | X-H torsion

> <Gold.Protein.ActiveResidues>
 VAL166  LYS551  ARG553  GLY616  TRP617  ASP618  TYR619  PRO620  LYS621  CYS622 
 ASP623  PHE694  ASN695  SER759  ASP760  ASP761  ALA762  ILE779  LEU786  VAL792 
 PHE793  MET794  SER795  GLU796  ALA797  LYS798  CYS799  TRP800  GLU811  SER814 

> <Gold.Protein.RotatedAtoms>
  150.9756  133.6298  159.2730 H   0  0  0  0  0  0  0  0  0  0  0  0  # atno 6907 bound_to 6896
  151.3571  135.0895  159.9432 H   0  0  0  0  0  0  0  0  0  0  0  0  # atno 6908 bound_to 6896
  152.5198  133.9338  159.7647 H   0  0  0  0  0  0  0  0  0  0  0  0  # atno 6909 bound_to 6896
  145.5468  140.9502  143.1521 H   0  0  0  0  0  0  0  0  0  0  0  0  # atno 7974 bound_to 7965
  154.4048  140.1596  156.2585 H   0  0  0  0  0  0  0  0  0  0  0  0  # atno 8008 bound_to 7997
  155.9057  140.3430  155.6038 H   0  0  0  0  0  0  0  0  0  0  0  0  # atno 8009 bound_to 7997
  155.7395  140.0790  157.2243 H   0  0  0  0  0  0  0  0  0  0  0  0  # atno 8010 bound_to 7997
  139.8452  143.7270  152.2661 H   0  0  0  0  0  0  0  0  0  0  0  0  # atno 10167 bound_to 10162
  157.5124  131.1097  150.9273 H   0  0  0  0  0  0  0  0  0  0  0  0  # atno 10718 bound_to 10713
  153.2132  135.4381  155.0404 H   0  0  0  0  0  0  0  0  0  0  0  0  # atno 10763 bound_to 10752
  154.8211  135.3338  154.7038 H   0  0  0  0  0  0  0  0  0  0  0  0  # atno 10764 bound_to 10752
  153.7474  135.7000  153.5009 H   0  0  0  0  0  0  0  0  0  0  0  0  # atno 10765 bound_to 10752
  141.0438  133.9795  157.2952 H   0  0  0  0  0  0  0  0  0  0  0  0  # atno 11005 bound_to 11000
  144.7549  139.7100  143.7258 LP  0  0  0  0  0  0  0  0  0  0  0  0  # atno 17320 bound_to 7965
  146.1944  139.5201  142.9784 LP  0  0  0  0  0  0  0  0  0  0  0  0  # atno 17321 bound_to 7965
  139.7519  144.7531  151.0493 LP  0  0  0  0  0  0  0  0  0  0  0  0  # atno 17342 bound_to 10162
  140.7794  143.4850  150.9968 LP  0  0  0  0  0  0  0  0  0  0  0  0  # atno 17343 bound_to 10162
  156.9909  130.5563  149.5303 LP  0  0  0  0  0  0  0  0  0  0  0  0  # atno 17370 bound_to 10713
  156.0298  130.5390  150.8504 LP  0  0  0  0  0  0  0  0  0  0  0  0  # atno 17371 bound_to 10713
  139.9296  135.0200  156.8353 LP  0  0  0  0  0  0  0  0  0  0  0  0  # atno 17394 bound_to 11000
  140.6185  134.0016  155.7608 LP  0  0  0  0  0  0  0  0  0  0  0  0  # atno 17395 bound_to 11000

$$$$
