AV-unprocessed.smi:148|AV-procd|sdf|1208|dock8
  -GOLD-   2262018383D 1   1.00000     0.00000
 Structure written by MMmdl.
 63 67  0  0  0  0  0  0  0  0  1 V2000
  147.6581  134.8933  153.8851 O   0  0  0  0  0  0  0  0  0  0  0  0
  148.3824  133.6812  153.9121 C   0  0  0  0  0  0  0  0  0  0  0  0
  148.9528  133.3999  155.3209 C   0  0  2  0  0  0  0  0  0  0  0  0
  150.3558  134.0363  155.4984 C   0  0  0  0  0  0  0  0  0  0  0  0
  150.3007  135.3696  156.0713 N   0  0  0  0  0  0  0  0  0  0  0  0
  149.7557  135.7286  157.2845 C   0  0  0  0  0  0  0  0  0  0  0  0
  149.8207  137.0009  157.5697 N   0  0  0  0  0  0  0  0  0  0  0  0
  150.4542  137.5588  156.4671 C   0  0  0  0  0  0  0  0  0  0  0  0
  150.8304  138.8791  156.1088 C   0  0  0  0  0  0  0  0  0  0  0  0
  150.5869  139.9344  156.9161 N   0  0  0  0  0  0  0  0  0  0  0  0
  151.7809  140.2379  157.7084 C   0  0  0  0  0  0  0  0  0  0  0  0
  151.4696  141.2296  158.8331 C   0  0  0  0  0  0  0  0  0  0  0  0
  150.8478  142.4973  158.2463 C   0  0  0  0  0  0  0  0  0  0  0  0
  149.6037  142.1350  157.4255 C   0  0  0  0  0  0  0  0  0  0  0  0
  149.8977  141.0935  156.3108 C   0  0  2  0  0  0  0  0  0  0  0  0
  148.5752  140.7181  155.5529 C   0  0  1  0  0  0  0  0  0  0  0  0
  147.6280  141.8982  155.2609 C   0  0  0  0  0  0  0  0  0  0  0  0
  146.6626  141.4228  154.1689 C   0  0  0  0  0  0  0  0  0  0  0  0
  147.3042  140.1796  153.5434 C   0  0  0  0  0  0  0  0  0  0  0  0
  148.7055  140.0725  154.1536 C   0  0  1  0  0  0  0  0  0  0  0  0
  149.6124  140.7905  153.3375 O   0  0  0  0  0  0  0  0  0  0  0  0
  151.4577  139.0645  154.9170 N   0  0  0  0  0  0  0  0  0  0  0  0
  151.6831  138.0195  154.1147 C   0  0  0  0  0  0  0  0  0  0  0  0
  151.3753  136.7348  154.3099 N   0  0  0  0  0  0  0  0  0  0  0  0
  150.7600  136.5493  155.5134 C   0  0  0  0  0  0  0  0  0  0  0  0
  148.9146  131.8875  155.6739 C   0  0  2  0  0  0  0  0  0  0  0  0
  149.9042  131.0093  154.9051 C   0  0  0  0  0  0  0  0  0  0  0  0
  149.0454  129.8710  154.3553 C   0  0  0  0  0  0  0  0  0  0  0  0
  147.9311  129.8315  155.2314 O   0  0  0  0  0  0  0  0  0  0  0  0
  147.5663  131.1788  155.4797 C   0  0  0  0  0  0  0  0  0  0  0  0
  147.9808  135.4213  153.1706 H   0  0  0  0  0  0  0  0  0  0  0  0
  147.7377  132.8662  153.5824 H   0  0  0  0  0  0  0  0  0  0  0  0
  149.1817  133.7697  153.1766 H   0  0  0  0  0  0  0  0  0  0  0  0
  148.2883  133.8926  156.0324 H   0  0  0  0  0  0  0  0  0  0  0  0
  150.9880  133.4315  156.1470 H   0  0  0  0  0  0  0  0  0  0  0  0
  150.8727  134.1015  154.5412 H   0  0  0  0  0  0  0  0  0  0  0  0
  149.3075  135.0122  157.9577 H   0  0  0  0  0  0  0  0  0  0  0  0
  152.1866  139.3204  158.1383 H   0  0  0  0  0  0  0  0  0  0  0  0
  152.5535  140.6539  157.0599 H   0  0  0  0  0  0  0  0  0  0  0  0
  150.7838  140.7747  159.5490 H   0  0  0  0  0  0  0  0  0  0  0  0
  152.3800  141.4746  159.3807 H   0  0  0  0  0  0  0  0  0  0  0  0
  150.5842  143.1921  159.0441 H   0  0  0  0  0  0  0  0  0  0  0  0
  151.5738  143.0074  157.6120 H   0  0  0  0  0  0  0  0  0  0  0  0
  148.8344  141.7461  158.0943 H   0  0  0  0  0  0  0  0  0  0  0  0
  149.2079  143.0573  157.0012 H   0  0  0  0  0  0  0  0  0  0  0  0
  150.5894  141.5602  155.6083 H   0  0  0  0  0  0  0  0  0  0  0  0
  148.0176  140.0240  156.1849 H   0  0  0  0  0  0  0  0  0  0  0  0
  147.0909  142.2322  156.1493 H   0  0  0  0  0  0  0  0  0  0  0  0
  148.1995  142.7479  154.8844 H   0  0  0  0  0  0  0  0  0  0  0  0
  145.6904  141.1702  154.5937 H   0  0  0  0  0  0  0  0  0  0  0  0
  146.5015  142.2061  153.4276 H   0  0  0  0  0  0  0  0  0  0  0  0
  146.7225  139.3011  153.8255 H   0  0  0  0  0  0  0  0  0  0  0  0
  147.3172  140.2166  152.4532 H   0  0  0  0  0  0  0  0  0  0  0  0
  149.0134  139.0295  154.1863 H   0  0  0  0  0  0  0  0  0  0  0  0
  149.9951  140.1904  152.7159 H   0  0  0  0  0  0  0  0  0  0  0  0
  152.1775  138.2461  153.1818 H   0  0  0  0  0  0  0  0  0  0  0  0
  149.1800  131.7771  156.7262 H   0  0  0  0  0  0  0  0  0  0  0  0
  150.4402  131.5300  154.1117 H   0  0  0  0  0  0  0  0  0  0  0  0
  150.6551  130.6148  155.5909 H   0  0  0  0  0  0  0  0  0  0  0  0
  148.7026  130.0998  153.3447 H   0  0  0  0  0  0  0  0  0  0  0  0
  149.5740  128.9177  154.3300 H   0  0  0  0  0  0  0  0  0  0  0  0
  146.9204  131.2618  156.3541 H   0  0  0  0  0  0  0  0  0  0  0  0
  147.0160  131.5520  154.6166 H   0  0  0  0  0  0  0  0  0  0  0  0
  1  2  1  0  0  0  0
  1 31  1  0  0  0  0
  2  3  1  0  0  0  0
  2 32  1  0  0  0  0
  2 33  1  0  0  0  0
  3  4  1  0  0  0  0
  3 26  1  0  0  0  0
  3 34  1  0  0  0  0
  4  5  1  0  0  0  0
  4 35  1  0  0  0  0
  4 36  1  0  0  0  0
  5 25  1  0  0  0  0
  5  6  1  0  0  0  0
  6  7  2  0  0  0  0
  6 37  1  0  0  0  0
  7  8  1  0  0  0  0
  8 25  2  0  0  0  0
  8  9  1  0  0  0  0
  9 10  1  0  0  0  0
  9 22  2  0  0  0  0
 10 15  1  0  0  0  0
 10 11  1  0  0  0  0
 11 12  1  0  0  0  0
 11 38  1  0  0  0  0
 11 39  1  0  0  0  0
 12 13  1  0  0  0  0
 12 40  1  0  0  0  0
 12 41  1  0  0  0  0
 13 14  1  0  0  0  0
 13 42  1  0  0  0  0
 13 43  1  0  0  0  0
 14 15  1  0  0  0  0
 14 44  1  0  0  0  0
 14 45  1  0  0  0  0
 15 16  1  0  0  0  0
 15 46  1  0  0  0  0
 16 20  1  0  0  0  0
 16 17  1  0  0  0  0
 16 47  1  0  0  0  0
 17 18  1  0  0  0  0
 17 48  1  0  0  0  0
 17 49  1  0  0  0  0
 18 19  1  0  0  0  0
 18 50  1  0  0  0  0
 18 51  1  0  0  0  0
 19 20  1  0  0  0  0
 19 52  1  0  0  0  0
 19 53  1  0  0  0  0
 20 21  1  0  0  0  0
 20 54  1  0  0  0  0
 21 55  1  0  0  0  0
 22 23  1  0  0  0  0
 23 24  2  0  0  0  0
 23 56  1  0  0  0  0
 24 25  1  0  0  0  0
 26 30  1  0  0  0  0
 26 27  1  0  0  0  0
 26 57  1  0  0  0  0
 27 28  1  0  0  0  0
 27 58  1  0  0  0  0
 27 59  1  0  0  0  0
 28 29  1  0  0  0  0
 28 60  1  0  0  0  0
 28 61  1  0  0  0  0
 29 30  1  0  0  0  0
 30 62  1  0  0  0  0
 30 63  1  0  0  0  0
M  END
> <s_m_source_file>
AV-unprocessed.smi

> <i_m_source_file_index>
148

> <i_lp_mmshare_version>
43012

> <i_f3d_flags>
0

> <s_epik_input>
W0NIMl0xT1tDSDJdW0NIMl1bQ0BIXTFbQ0BIXShbQ0gyXVtPSF0pW0NIMl1uKFtjSF1uMiljKGMyMyluW2NIXW5jM040W0NIMl1bQ0gyXVtDSDJdW0NIMl1bQ0BIXTRbQ0BASF01W0NIMl1bQ0gyXVtDSDJdW0NASF01W09IXQ==

> <s_epik_cmdline>
J2VwaWtfcHl0aG9uJywgJy1waCcsICc3LjAnLCAnLXRuJywgJzgnLCAnLW1hJywgJzIwMCcsICctbWV0YWxfYmluZGluZycsICctaW1hZScsICc8aW5maWxlLm1hZT4nLCAnLW9tYWUnLCAnPG91dGZpbGUubWFlPic=

> <r_lp_tautomer_probability>
1

> <r_epik_Ionization_Penalty>
0.00556303

> <r_epik_Ionization_Penalty_Charging>
0

> <r_epik_Ionization_Penalty_Neutral>
0.00556303

> <r_epik_State_Penalty>
0.00401767

> <r_epik_Charging_Adjusted_Penalty>
0.00401767

> <i_epik_Tot_Q>
0

> <i_epik_Tot_abs_Q>
0

> <r_epik_Metal_State_Penalty>
-0

> <b_epik_Metal_Only>
0

> <s_lp_Force_Field>
OPLS_2005

> <r_lp_Energy>
70.8238

> <b_lp_Chiralities_Consistent>
1

> <s_lp_Variant>
AV-unprocessed.smi:148-7

> <Gold.Version>
5.8.1

> <Gold.Id.Protein>
6NUR|6NUR_protein|mol2

> <Gold.PLP.Fitness>
50.1735

> <Gold.PLP.PLP>
-41.1858

> <Gold.PLP.part.hbond>
-4.5883

> <Gold.PLP.part.metal>
0.0000

> <Gold.PLP.part.buried>
-4.7584

> <Gold.PLP.part.nonpolar>
-31.5049

> <Gold.PLP.part.repulsive>
1.3960

> <Gold.PLP.ligand.clash>
0.0000

> <Gold.PLP.ligand.torsion>
1.6833

> <Gold.PLP.Chemscore.Hbond>
3.8835

> <Gold.PLP.Chemscore.CHOScore>
0.0000

> <Gold.PLP.Chemscore.Metal>
0.0000

> <Gold.Chemscore.Hbonds>
donor molecule, donor type, donor heavy atom, donor atom, acceptor molecule, acceptor atom, score
      L1  H     1    31       P1  7948  1.00
      L1  H    21    55       P1  7957  0.54
      P1  H  7989  7998       L1    22  0.34
      P1  H  8011  8017       L1    21  0.90
      P1  H 10752 10763       L1    24  1.00

> <Gold.PLP.Chemscore.Internal.Correction>
0.7037

> <Gold.Rescore>
     Score         DG    S(hbond)    S(metal)    S(lipo)     H(rot)  DE(clash)    DE(int)     intcor
     15.15     -17.14       2.75        0.00      93.92       3.32       0.07       1.92       ----

> <Gold.Chemscore.Fitness>
15.1482

> <Gold.Chemscore.DG>
-17.1409

> <Gold.Chemscore.ZeroCoef>
-5.4800

> <Gold.Chemscore.Hbond>
2.7460

> <Gold.Chemscore.Metal>
0.0000

> <Gold.Chemscore.Lipo>
93.9240

> <Gold.Chemscore.Internal_Hbond>
0.0000

> <Gold.Chemscore.DEClash>
0.0694

> <Gold.Chemscore.DEInternal>
1.9233

> <Gold.Chemscore.Rot>
3.3203

> <Gold.Chemscore.Internal.Correction>
   9.000000E+99

> <Gold.Chemscore.Hbonds>
donor molecule, donor type, donor heavy atom, donor atom, acceptor molecule, acceptor atom, score
      L1  H     1    31       P1  7948  1.00
      L1  H    21    55       P1  7957  0.53
      P1  H  7989  7998       L1    22  0.14
      P1  H  8011  8017       L1    21  0.18
      P1  H 10752 10763       L1    24  0.55

> <Gold.Chemscore.Hbond.Weighted>
-9.1718

> <Gold.Chemscore.Metal.Weighted>
-0.0000

> <Gold.Chemscore.Lipo.Weighted>
-10.9891

> <Gold.Chemscore.Internal_Hbond.Weighted>
0.0000

> <Gold.Chemscore.DEClash.Weighted>
0.0694

> <Gold.Chemscore.DEInternal.Weighted>
1.9233

> <Gold.Chemscore.Rot.Weighted>
8.5000

> <Gold.Chemscore.Internal.Correction.Weighted>
   9.000000E+99

> <Gold.Protein.RotatedTorsions>
[ 6907 6896 6895 6894 ] final  -89.18 input  -60.11 | X-H torsion
[ 7974 7965 7964 7962 ] final -105.66 input  175.53 | X-H torsion
[ 8008 7997 7996 7995 ] final  167.21 input   59.86 | X-H torsion
[ 10167 10162 10161 10158 ] final   54.87 input  -65.29 | X-H torsion
[ 10718 10713 10712 10709 ] final -136.24 input   66.30 | X-H torsion
[ 10763 10752 10751 10750 ] final   30.05 input  -60.55 | X-H torsion
[ 11005 11000 10999 10996 ] final -129.54 input  -57.11 | X-H torsion

> <Gold.Protein.ActiveResidues>
 VAL166  LYS551  ARG553  GLY616  TRP617  ASP618  TYR619  PRO620  LYS621  CYS622 
 ASP623  PHE694  ASN695  SER759  ASP760  ASP761  ALA762  ILE779  LEU786  VAL792 
 PHE793  MET794  SER795  GLU796  ALA797  LYS798  CYS799  TRP800  GLU811  SER814 

> <Gold.Protein.RotatedAtoms>
  150.6872  134.2627  159.4555 H   0  0  0  0  0  0  0  0  0  0  0  0  # atno 6907 bound_to 6896
  152.0556  134.9624  160.0584 H   0  0  0  0  0  0  0  0  0  0  0  0  # atno 6908 bound_to 6896
  152.1071  133.4246  159.4651 H   0  0  0  0  0  0  0  0  0  0  0  0  # atno 6909 bound_to 6896
  145.2277  140.9158  143.3223 H   0  0  0  0  0  0  0  0  0  0  0  0  # atno 7974 bound_to 7965
  156.1653  140.1623  156.8542 H   0  0  0  0  0  0  0  0  0  0  0  0  # atno 8008 bound_to 7997
  154.5201  140.0780  156.8191 H   0  0  0  0  0  0  0  0  0  0  0  0  # atno 8009 bound_to 7997
  155.3624  140.3396  155.4243 H   0  0  0  0  0  0  0  0  0  0  0  0  # atno 8010 bound_to 7997
  140.2255  144.3743  150.6434 H   0  0  0  0  0  0  0  0  0  0  0  0  # atno 10167 bound_to 10162
  156.2749  130.7287  151.1266 H   0  0  0  0  0  0  0  0  0  0  0  0  # atno 10718 bound_to 10713
  153.0394  135.6474  154.0985 H   0  0  0  0  0  0  0  0  0  0  0  0  # atno 10763 bound_to 10752
  154.0694  135.2881  155.3312 H   0  0  0  0  0  0  0  0  0  0  0  0  # atno 10764 bound_to 10752
  154.6604  135.5393  153.8076 H   0  0  0  0  0  0  0  0  0  0  0  0  # atno 10765 bound_to 10752
  140.9423  134.1176  157.4139 H   0  0  0  0  0  0  0  0  0  0  0  0  # atno 11005 bound_to 11000
  144.9706  139.3884  143.6311 LP  0  0  0  0  0  0  0  0  0  0  0  0  # atno 17320 bound_to 7965
  146.3361  139.8802  142.8825 LP  0  0  0  0  0  0  0  0  0  0  0  0  # atno 17321 bound_to 7965
  140.6224  143.2177  151.6667 LP  0  0  0  0  0  0  0  0  0  0  0  0  # atno 17342 bound_to 10162
  139.5129  144.3462  152.0695 LP  0  0  0  0  0  0  0  0  0  0  0  0  # atno 17343 bound_to 10162
  157.7296  131.0623  150.5766 LP  0  0  0  0  0  0  0  0  0  0  0  0  # atno 17370 bound_to 10713
  156.5866  130.4318  149.5954 LP  0  0  0  0  0  0  0  0  0  0  0  0  # atno 17371 bound_to 10713
  139.8824  135.0040  156.6224 LP  0  0  0  0  0  0  0  0  0  0  0  0  # atno 17394 bound_to 11000
  140.7717  133.8733  155.8497 LP  0  0  0  0  0  0  0  0  0  0  0  0  # atno 17395 bound_to 11000

$$$$
