AV-unprocessed.smi:2654|AV-procd|sdf|10297|dock1
  -GOLD-   2272014313D 1   1.00000     0.00000
 Structure written by MMmdl.
 35 37  0  0  0  0  0  0  0  0  1 V2000
  149.4210  135.6478  156.4607 O   0  0  0  0  0  0  0  0  0  0  0  0
  149.4034  135.7883  155.2380 C   0  0  0  0  0  0  0  0  0  0  0  0
  149.5643  136.9527  154.5861 N   0  0  0  0  0  0  0  0  0  0  0  0
  149.7916  138.2491  155.1225 C   0  0  0  0  0  0  0  0  0  0  0  0
  149.9487  138.5321  156.4990 C   0  0  0  0  0  0  0  0  0  0  0  0
  150.1818  139.8625  156.8979 C   0  0  0  0  0  0  0  0  0  0  0  0
  150.2621  140.8802  155.9223 C   0  0  0  0  0  0  0  0  0  0  0  0
  150.4919  142.1861  156.4317 N   0  0  0  0  0  0  0  0  0  0  0  0
  151.2786  142.5555  157.4598 C   0  0  0  0  0  0  0  0  0  0  0  0
  151.9309  141.7729  158.1527 O   0  0  0  0  0  0  0  0  0  0  0  0
  151.2880  144.0314  157.6949 C   0  0  0  0  0  0  0  0  0  0  0  0
  152.4117  144.6015  158.5370 C   0  0  0  0  0  0  0  0  0  0  0  0
  151.0159  144.5224  159.1024 C   0  0  0  0  0  0  0  0  0  0  0  0
  150.1250  140.5997  154.6034 N   0  0  0  0  0  0  0  0  0  0  0  0
  149.9015  139.3256  154.2210 C   0  0  0  0  0  0  0  0  0  0  0  0
  149.2003  134.7803  154.3789 N   0  0  0  0  0  0  0  0  0  0  0  0
  148.9777  133.4170  154.7383 C   0  0  0  0  0  0  0  0  0  0  0  0
  150.0278  132.4033  154.3375 C   0  0  0  0  0  0  0  0  0  0  0  0
  148.7057  132.4324  153.6215 C   0  0  0  0  0  0  0  0  0  0  0  0
  149.4537  136.9163  153.5832 H   0  0  0  0  0  0  0  0  0  0  0  0
  149.9083  137.7631  157.2541 H   0  0  0  0  0  0  0  0  0  0  0  0
  150.3006  140.0930  157.9467 H   0  0  0  0  0  0  0  0  0  0  0  0
  150.0026  142.9299  155.9559 H   0  0  0  0  0  0  0  0  0  0  0  0
  150.9228  144.6566  156.8814 H   0  0  0  0  0  0  0  0  0  0  0  0
  153.1556  143.9190  158.9445 H   0  0  0  0  0  0  0  0  0  0  0  0
  152.7933  145.5802  158.2535 H   0  0  0  0  0  0  0  0  0  0  0  0
  150.4524  145.4477  159.2020 H   0  0  0  0  0  0  0  0  0  0  0  0
  150.8343  143.7876  159.8849 H   0  0  0  0  0  0  0  0  0  0  0  0
  149.8021  139.1631  153.1575 H   0  0  0  0  0  0  0  0  0  0  0  0
  149.1979  134.9930  153.3920 H   0  0  0  0  0  0  0  0  0  0  0  0
  148.4628  133.2252  155.6787 H   0  0  0  0  0  0  0  0  0  0  0  0
  150.9008  132.7607  153.7946 H   0  0  0  0  0  0  0  0  0  0  0  0
  150.2114  131.5760  155.0201 H   0  0  0  0  0  0  0  0  0  0  0  0
  148.0066  131.6239  153.8253 H   0  0  0  0  0  0  0  0  0  0  0  0
  148.6961  132.8092  152.6004 H   0  0  0  0  0  0  0  0  0  0  0  0
  1  2  2  0  0  0  0
  2  3  1  0  0  0  0
  2 16  1  0  0  0  0
  3  4  1  0  0  0  0
  3 20  1  0  0  0  0
  4 15  1  0  0  0  0
  4  5  2  0  0  0  0
  5  6  1  0  0  0  0
  5 21  1  0  0  0  0
  6  7  2  0  0  0  0
  6 22  1  0  0  0  0
  7  8  1  0  0  0  0
  7 14  1  0  0  0  0
  8  9  1  0  0  0  0
  8 23  1  0  0  0  0
  9 10  2  0  0  0  0
  9 11  1  0  0  0  0
 11 13  1  0  0  0  0
 11 12  1  0  0  0  0
 11 24  1  0  0  0  0
 12 13  1  0  0  0  0
 12 25  1  0  0  0  0
 12 26  1  0  0  0  0
 13 27  1  0  0  0  0
 13 28  1  0  0  0  0
 14 15  2  0  0  0  0
 15 29  1  0  0  0  0
 16 17  1  0  0  0  0
 16 30  1  0  0  0  0
 17 19  1  0  0  0  0
 17 18  1  0  0  0  0
 17 31  1  0  0  0  0
 18 19  1  0  0  0  0
 18 32  1  0  0  0  0
 18 33  1  0  0  0  0
 19 34  1  0  0  0  0
 19 35  1  0  0  0  0
M  END
> <s_m_source_file>
AV-unprocessed.smi

> <i_m_source_file_index>
2654

> <i_lp_mmshare_version>
43012

> <i_f3d_flags>
0

> <s_epik_input>
W0NIMl0xW0NIMl1bQ0hdMVtOSF1DKD1PKVtOSF1jMltjSF1bY0hdYyhuW2NIXTIpW05IXUMoPU8pW0NIXTNbQ0gyXVtDSDJdMw==

> <s_epik_cmdline>
J2VwaWtfcHl0aG9uJywgJy1waCcsICc3LjAnLCAnLXRuJywgJzgnLCAnLW1hJywgJzIwMCcsICctbWV0YWxfYmluZGluZycsICctaW1hZScsICc8aW5maWxlLm1hZT4nLCAnLW9tYWUnLCAnPG91dGZpbGUubWFlPic=

> <r_lp_tautomer_probability>
1

> <r_epik_Ionization_Penalty>
0.00116413

> <r_epik_Ionization_Penalty_Charging>
0

> <r_epik_Ionization_Penalty_Neutral>
0.00116413

> <r_epik_State_Penalty>
-0

> <r_epik_Charging_Adjusted_Penalty>
0

> <i_epik_Tot_Q>
0

> <i_epik_Tot_abs_Q>
0

> <r_epik_Metal_State_Penalty>
-0

> <b_epik_Metal_Only>
0

> <s_lp_Force_Field>
OPLS_2005

> <r_lp_Energy>
24.5982

> <b_lp_Chiralities_Consistent>
1

> <s_lp_Variant>
AV-unprocessed.smi:2654-1

> <Gold.Version>
5.8.1

> <Gold.Id.Protein>
6NUR|6NUR_protein|mol2

> <Gold.PLP.Fitness>
46.7000

> <Gold.PLP.PLP>
-34.2169

> <Gold.PLP.part.hbond>
-3.7886

> <Gold.PLP.part.metal>
0.0000

> <Gold.PLP.part.buried>
-4.5590

> <Gold.PLP.part.nonpolar>
-27.6472

> <Gold.PLP.part.repulsive>
0.2291

> <Gold.PLP.ligand.clash>
0.0000

> <Gold.PLP.ligand.torsion>
0.6076

> <Gold.PLP.Chemscore.Hbond>
3.5251

> <Gold.PLP.Chemscore.CHOScore>
1.0000

> <Gold.PLP.Chemscore.Metal>
0.0000

> <Gold.Chemscore.Hbonds>
donor molecule, donor type, donor heavy atom, donor atom, acceptor molecule, acceptor atom, score
      L1  H     3    20       P1  7948  1.00
      L1  H     8    23       P1  8028  0.75
      L1  H    16    30       P1  7948  0.80
      P1  H  7989  7998       L1    14  0.69
      L1  C    15    29       P1  7957  1.00

> <Gold.PLP.Chemscore.Internal.Correction>
0.1231

> <Gold.Rescore>
     Score         DG    S(hbond)    S(metal)    S(lipo)     H(rot)  DE(clash)    DE(int)     intcor
     17.25     -20.66       2.88        0.00      74.12       1.22       0.30       3.10       ----

> <Gold.Chemscore.Fitness>
17.2523

> <Gold.Chemscore.DG>
-20.6570

> <Gold.Chemscore.ZeroCoef>
-5.4800

> <Gold.Chemscore.Hbond>
2.8843

> <Gold.Chemscore.Metal>
0.0000

> <Gold.Chemscore.Lipo>
74.1216

> <Gold.Chemscore.Internal_Hbond>
0.0000

> <Gold.Chemscore.DEClash>
0.3028

> <Gold.Chemscore.DEInternal>
3.1020

> <Gold.Chemscore.Rot>
1.2222

> <Gold.Chemscore.Internal.Correction>
   9.000000E+99

> <Gold.Chemscore.Hbonds>
donor molecule, donor type, donor heavy atom, donor atom, acceptor molecule, acceptor atom, score
      L1  H     3    20       P1  7948  0.90
      L1  H     8    23       P1  8028  0.74
      L1  H    16    30       P1  7948  0.11
      P1  H  7989  7998       L1    14  0.10

> <Gold.Chemscore.Hbond.Weighted>
-9.6337

> <Gold.Chemscore.Metal.Weighted>
-0.0000

> <Gold.Chemscore.Lipo.Weighted>
-8.6722

> <Gold.Chemscore.Internal_Hbond.Weighted>
0.0000

> <Gold.Chemscore.DEClash.Weighted>
0.3028

> <Gold.Chemscore.DEInternal.Weighted>
3.1020

> <Gold.Chemscore.Rot.Weighted>
3.1289

> <Gold.Chemscore.Internal.Correction.Weighted>
   9.000000E+99

> <Gold.Protein.RotatedTorsions>
[ 6907 6896 6895 6894 ] final   42.81 input  -60.11 | X-H torsion
[ 7974 7965 7964 7962 ] final  -22.08 input  175.53 | X-H torsion
[ 8008 7997 7996 7995 ] final -147.66 input   59.86 | X-H torsion
[ 10167 10162 10161 10158 ] final   24.44 input  -65.29 | X-H torsion
[ 10718 10713 10712 10709 ] final -104.54 input   66.30 | X-H torsion
[ 10763 10752 10751 10750 ] final   32.38 input  -60.55 | X-H torsion
[ 11005 11000 10999 10996 ] final -136.86 input  -57.11 | X-H torsion

> <Gold.Protein.ActiveResidues>
 VAL166  LYS551  ARG553  GLY616  TRP617  ASP618  TYR619  PRO620  LYS621  CYS622 
 ASP623  PHE694  ASN695  SER759  ASP760  ASP761  ALA762  ILE779  LEU786  VAL792 
 PHE793  MET794  SER795  GLU796  ALA797  LYS798  CYS799  TRP800  GLU811  SER814 

> <Gold.Protein.RotatedAtoms>
  152.2125  134.8488  160.0495 H   0  0  0  0  0  0  0  0  0  0  0  0  # atno 6907 bound_to 6896
  151.9301  133.3604  159.3936 H   0  0  0  0  0  0  0  0  0  0  0  0  # atno 6908 bound_to 6896
  150.6980  134.4471  159.5363 H   0  0  0  0  0  0  0  0  0  0  0  0  # atno 6909 bound_to 6896
  146.1696  140.4429  142.8537 H   0  0  0  0  0  0  0  0  0  0  0  0  # atno 7974 bound_to 7965
  155.5792  140.0641  157.2787 H   0  0  0  0  0  0  0  0  0  0  0  0  # atno 8008 bound_to 7997
  154.4338  140.1855  156.1005 H   0  0  0  0  0  0  0  0  0  0  0  0  # atno 8009 bound_to 7997
  156.0318  140.3305  155.7151 H   0  0  0  0  0  0  0  0  0  0  0  0  # atno 8010 bound_to 7997
  140.5188  144.0038  150.6406 H   0  0  0  0  0  0  0  0  0  0  0  0  # atno 10167 bound_to 10162
  156.0308  130.5520  150.7411 H   0  0  0  0  0  0  0  0  0  0  0  0  # atno 10718 bound_to 10713
  153.0266  135.6415  154.1345 H   0  0  0  0  0  0  0  0  0  0  0  0  # atno 10763 bound_to 10752
  154.1073  135.2855  155.3240 H   0  0  0  0  0  0  0  0  0  0  0  0  # atno 10764 bound_to 10752
  154.6356  135.5477  153.7793 H   0  0  0  0  0  0  0  0  0  0  0  0  # atno 10765 bound_to 10752
  140.8766  134.1984  157.4618 H   0  0  0  0  0  0  0  0  0  0  0  0  # atno 11005 bound_to 11000
  144.8144  140.6442  143.6394 LP  0  0  0  0  0  0  0  0  0  0  0  0  # atno 17320 bound_to 7965
  145.4374  139.1540  143.3989 LP  0  0  0  0  0  0  0  0  0  0  0  0  # atno 17321 bound_to 7965
  140.3381  143.3036  152.0617 LP  0  0  0  0  0  0  0  0  0  0  0  0  # atno 17342 bound_to 10162
  139.4917  144.6462  151.6773 LP  0  0  0  0  0  0  0  0  0  0  0  0  # atno 17343 bound_to 10162
  157.4979  131.0916  151.0349 LP  0  0  0  0  0  0  0  0  0  0  0  0  # atno 17370 bound_to 10713
  157.0738  130.5875  149.5407 LP  0  0  0  0  0  0  0  0  0  0  0  0  # atno 17371 bound_to 10713
  139.8716  134.9798  156.5052 LP  0  0  0  0  0  0  0  0  0  0  0  0  # atno 17394 bound_to 11000
  140.8511  133.8131  155.9169 LP  0  0  0  0  0  0  0  0  0  0  0  0  # atno 17395 bound_to 11000

$$$$
