AV-unprocessed.smi:1419|AV-procd|sdf|5780|dock6
  -GOLD-   22720 5423D 1   1.00000     0.00000
 Structure written by MMmdl.
 41 42  0  0  0  0  0  0  0  0  1 V2000
  151.5612  140.0239  155.6290 C   0  0  0  0  0  0  0  0  0  0  0  0
  150.6789  141.0893  156.2931 C   0  0  2  0  0  0  0  0  0  0  0  0
  149.9919  141.9873  155.2423 C   0  0  0  0  0  0  0  0  0  0  0  0
  148.7645  141.4079  154.7260 N   0  0  0  0  0  0  0  0  0  0  0  0
  147.5353  142.0395  154.5872 C   0  0  0  0  0  0  0  0  0  0  0  0
  146.6666  141.1016  154.0773 C   0  0  0  0  0  0  0  0  0  0  0  0
  147.3376  139.8960  153.8872 N   0  0  0  0  0  0  0  0  0  0  0  0
  148.5752  140.1549  154.2897 C   0  0  0  0  0  0  0  0  0  0  0  0
  151.4986  141.8955  157.1971 N   0  0  0  0  0  0  0  0  0  0  0  0
  152.3865  141.4214  158.0891 C   0  0  0  0  0  0  0  0  0  0  0  0
  152.6836  140.2277  158.1518 O   0  0  0  0  0  0  0  0  0  0  0  0
  152.9246  142.3617  158.9041 N   0  0  0  0  0  0  0  0  0  0  0  0
  152.6403  143.8028  158.8819 C   0  0  0  0  0  0  0  0  0  0  0  0
  151.6975  144.1190  160.0609 C   0  0  2  0  0  0  0  0  0  0  0  0
  151.3732  145.6129  160.1605 C   0  0  0  0  0  0  0  0  0  0  0  0
  152.3233  143.7162  161.2794 O   0  0  0  0  0  0  0  0  0  0  0  0
  152.6689  142.3314  161.3225 C   0  0  2  0  0  0  0  0  0  0  0  0
  153.3119  142.0386  162.6821 C   0  0  0  0  0  0  0  0  0  0  0  0
  153.6155  142.0129  160.1471 C   0  0  0  0  0  0  0  0  0  0  0  0
  150.9737  139.3853  154.9688 H   0  0  0  0  0  0  0  0  0  0  0  0
  152.0310  139.3817  156.3748 H   0  0  0  0  0  0  0  0  0  0  0  0
  152.3538  140.4782  155.0331 H   0  0  0  0  0  0  0  0  0  0  0  0
  149.9073  140.5620  156.8568 H   0  0  0  0  0  0  0  0  0  0  0  0
  149.7628  142.9655  155.6679 H   0  0  0  0  0  0  0  0  0  0  0  0
  150.6630  142.1621  154.4004 H   0  0  0  0  0  0  0  0  0  0  0  0
  147.3824  143.0725  154.8627 H   0  0  0  0  0  0  0  0  0  0  0  0
  145.6192  141.2012  153.8337 H   0  0  0  0  0  0  0  0  0  0  0  0
  149.3598  139.4127  154.2773 H   0  0  0  0  0  0  0  0  0  0  0  0
  151.3277  142.8904  157.1943 H   0  0  0  0  0  0  0  0  0  0  0  0
  153.5757  144.3544  158.9890 H   0  0  0  0  0  0  0  0  0  0  0  0
  152.2022  144.1515  157.9468 H   0  0  0  0  0  0  0  0  0  0  0  0
  150.7636  143.5669  159.9435 H   0  0  0  0  0  0  0  0  0  0  0  0
  150.8789  145.9688  159.2563 H   0  0  0  0  0  0  0  0  0  0  0  0
  152.2784  146.2040  160.3030 H   0  0  0  0  0  0  0  0  0  0  0  0
  150.7094  145.8117  161.0023 H   0  0  0  0  0  0  0  0  0  0  0  0
  151.7580  141.7363  161.2323 H   0  0  0  0  0  0  0  0  0  0  0  0
  153.5830  140.9862  162.7682 H   0  0  0  0  0  0  0  0  0  0  0  0
  152.6249  142.2724  163.4956 H   0  0  0  0  0  0  0  0  0  0  0  0
  154.2156  142.6310  162.8277 H   0  0  0  0  0  0  0  0  0  0  0  0
  153.9201  140.9657  160.1783 H   0  0  0  0  0  0  0  0  0  0  0  0
  154.5356  142.5939  160.2287 H   0  0  0  0  0  0  0  0  0  0  0  0
  1  2  1  0  0  0  0
  1 20  1  0  0  0  0
  1 21  1  0  0  0  0
  1 22  1  0  0  0  0
  2  3  1  0  0  0  0
  2  9  1  0  0  0  0
  2 23  1  0  0  0  0
  3  4  1  0  0  0  0
  3 24  1  0  0  0  0
  3 25  1  0  0  0  0
  4  8  1  0  0  0  0
  4  5  1  0  0  0  0
  5  6  2  0  0  0  0
  5 26  1  0  0  0  0
  6  7  1  0  0  0  0
  6 27  1  0  0  0  0
  7  8  2  0  0  0  0
  8 28  1  0  0  0  0
  9 10  1  0  0  0  0
  9 29  1  0  0  0  0
 10 11  2  0  0  0  0
 10 12  1  0  0  0  0
 12 19  1  0  0  0  0
 12 13  1  0  0  0  0
 13 14  1  0  0  0  0
 13 30  1  0  0  0  0
 13 31  1  0  0  0  0
 14 15  1  0  0  0  0
 14 16  1  0  0  0  0
 14 32  1  0  0  0  0
 15 33  1  0  0  0  0
 15 34  1  0  0  0  0
 15 35  1  0  0  0  0
 16 17  1  0  0  0  0
 17 18  1  0  0  0  0
 17 19  1  0  0  0  0
 17 36  1  0  0  0  0
 18 37  1  0  0  0  0
 18 38  1  0  0  0  0
 18 39  1  0  0  0  0
 19 40  1  0  0  0  0
 19 41  1  0  0  0  0
M  END
> <s_m_source_file>
AV-unprocessed.smi

> <i_m_source_file_index>
1419

> <i_lp_mmshare_version>
43012

> <i_f3d_flags>
0

> <s_epik_input>
W2NIXTFuW2NIXVtjSF1uMVtDSDJdW0NAQEhdKFtDSDNdKVtOSF1DKD1PKU4yW0NIMl1bQ0BASF0oW0NIM10pT1tDQEBIXShbQ0gzXSlbQ0gyXTI=

> <s_epik_cmdline>
J2VwaWtfcHl0aG9uJywgJy1waCcsICc3LjAnLCAnLXRuJywgJzgnLCAnLW1hJywgJzIwMCcsICctbWV0YWxfYmluZGluZycsICctaW1hZScsICc8aW5maWxlLm1hZT4nLCAnLW9tYWUnLCAnPG91dGZpbGUubWFlPic=

> <r_lp_tautomer_probability>
1

> <r_epik_Ionization_Penalty>
0.625124

> <r_epik_Ionization_Penalty_Charging>
0.625093

> <r_epik_Ionization_Penalty_Neutral>
3.17415e-05

> <r_epik_State_Penalty>
0.641455

> <r_epik_Charging_Adjusted_Penalty>
1.26655

> <i_epik_Tot_Q>
0

> <i_epik_Tot_abs_Q>
0

> <r_epik_Metal_State_Penalty>
0.307717

> <b_epik_Metal_Only>
0

> <s_lp_Force_Field>
OPLS_2005

> <r_lp_Energy>
27.7679

> <b_lp_Chiralities_Consistent>
1

> <s_lp_Variant>
AV-unprocessed.smi:1419-7

> <Gold.Version>
5.8.1

> <Gold.Id.Protein>
6NUR|6NUR_protein|mol2

> <Gold.PLP.Fitness>
49.4690

> <Gold.PLP.PLP>
-42.6813

> <Gold.PLP.part.hbond>
-0.8256

> <Gold.PLP.part.metal>
0.0000

> <Gold.PLP.part.buried>
-3.5214

> <Gold.PLP.part.nonpolar>
-37.6406

> <Gold.PLP.part.repulsive>
0.3683

> <Gold.PLP.ligand.clash>
0.0000

> <Gold.PLP.ligand.torsion>
0.6131

> <Gold.PLP.Chemscore.Hbond>
0.6448

> <Gold.PLP.Chemscore.CHOScore>
2.0000

> <Gold.PLP.Chemscore.Metal>
0.0000

> <Gold.Chemscore.Hbonds>
donor molecule, donor type, donor heavy atom, donor atom, acceptor molecule, acceptor atom, score
      P1  H  7997  8010       L1    11  0.53
      L1  C     5    26       P1  8028  1.00
      L1  C     6    27       P1 10175  1.00

> <Gold.PLP.Chemscore.Internal.Correction>
0.0795

> <Gold.Rescore>
     Score         DG    S(hbond)    S(metal)    S(lipo)     H(rot)  DE(clash)    DE(int)     intcor
     12.66     -15.41       0.70        0.00      99.57       1.58       0.37       2.38       ----

> <Gold.Chemscore.Fitness>
12.6628

> <Gold.Chemscore.DG>
-15.4137

> <Gold.Chemscore.ZeroCoef>
-5.4800

> <Gold.Chemscore.Hbond>
0.6950

> <Gold.Chemscore.Metal>
0.0000

> <Gold.Chemscore.Lipo>
99.5661

> <Gold.Chemscore.Internal_Hbond>
0.0000

> <Gold.Chemscore.DEClash>
0.3740

> <Gold.Chemscore.DEInternal>
2.3769

> <Gold.Chemscore.Rot>
1.5769

> <Gold.Chemscore.Internal.Correction>
   9.000000E+99

> <Gold.Chemscore.Hbonds>
donor molecule, donor type, donor heavy atom, donor atom, acceptor molecule, acceptor atom, score
      P1  H  7997  8010       L1    11  0.23

> <Gold.Chemscore.Hbond.Weighted>
-2.3213

> <Gold.Chemscore.Metal.Weighted>
-0.0000

> <Gold.Chemscore.Lipo.Weighted>
-11.6492

> <Gold.Chemscore.Internal_Hbond.Weighted>
0.0000

> <Gold.Chemscore.DEClash.Weighted>
0.3740

> <Gold.Chemscore.DEInternal.Weighted>
2.3769

> <Gold.Chemscore.Rot.Weighted>
4.0369

> <Gold.Chemscore.Internal.Correction.Weighted>
   9.000000E+99

> <Gold.Protein.RotatedTorsions>
[ 6907 6896 6895 6894 ] final   38.48 input  -60.11 | X-H torsion
[ 7974 7965 7964 7962 ] final  102.16 input  175.53 | X-H torsion
[ 8008 7997 7996 7995 ] final   38.26 input   59.86 | X-H torsion
[ 10167 10162 10161 10158 ] final  119.87 input  -65.29 | X-H torsion
[ 10718 10713 10712 10709 ] final -173.19 input   66.30 | X-H torsion
[ 10763 10752 10751 10750 ] final -161.54 input  -60.55 | X-H torsion
[ 11005 11000 10999 10996 ] final   35.65 input  -57.11 | X-H torsion

> <Gold.Protein.ActiveResidues>
 VAL166  LYS551  ARG553  GLY616  TRP617  ASP618  TYR619  PRO620  LYS621  CYS622 
 ASP623  PHE694  ASN695  SER759  ASP760  ASP761  ALA762  ILE779  LEU786  VAL792 
 PHE793  MET794  SER795  GLU796  ALA797  LYS798  CYS799  TRP800  GLU811  SER814 

> <Gold.Protein.RotatedAtoms>
  152.1570  134.8943  160.0544 H   0  0  0  0  0  0  0  0  0  0  0  0  # atno 6907 bound_to 6896
  151.9953  133.3800  159.4168 H   0  0  0  0  0  0  0  0  0  0  0  0  # atno 6908 bound_to 6896
  150.6883  134.3815  159.5080 H   0  0  0  0  0  0  0  0  0  0  0  0  # atno 6909 bound_to 6896
  145.3628  139.2414  143.3497 H   0  0  0  0  0  0  0  0  0  0  0  0  # atno 7974 bound_to 7965
  155.2172  140.3328  155.4320 H   0  0  0  0  0  0  0  0  0  0  0  0  # atno 8008 bound_to 7997
  156.2347  140.1867  156.7198 H   0  0  0  0  0  0  0  0  0  0  0  0  # atno 8009 bound_to 7997
  154.6039  140.0619  156.9390 H   0  0  0  0  0  0  0  0  0  0  0  0  # atno 8010 bound_to 7997
  139.6018  144.7059  151.3045 H   0  0  0  0  0  0  0  0  0  0  0  0  # atno 10167 bound_to 10162
  156.7667  130.9433  151.3119 H   0  0  0  0  0  0  0  0  0  0  0  0  # atno 10718 bound_to 10713
  154.7294  135.3043  154.8916 H   0  0  0  0  0  0  0  0  0  0  0  0  # atno 10763 bound_to 10752
  153.9763  135.6735  153.4752 H   0  0  0  0  0  0  0  0  0  0  0  0  # atno 10764 bound_to 10752
  153.0905  135.4962  154.8600 H   0  0  0  0  0  0  0  0  0  0  0  0  # atno 10765 bound_to 10752
  140.2405  134.3421  155.7927 H   0  0  0  0  0  0  0  0  0  0  0  0  # atno 11005 bound_to 11000
  146.2920  140.4265  142.8736 LP  0  0  0  0  0  0  0  0  0  0  0  0  # atno 17320 bound_to 7965
  144.8634  140.7171  143.6093 LP  0  0  0  0  0  0  0  0  0  0  0  0  # atno 17321 bound_to 7965
  140.7255  143.7015  150.7841 LP  0  0  0  0  0  0  0  0  0  0  0  0  # atno 17342 bound_to 10162
  140.0593  143.5171  152.2635 LP  0  0  0  0  0  0  0  0  0  0  0  0  # atno 17343 bound_to 10162
  157.6710  130.9051  150.0040 LP  0  0  0  0  0  0  0  0  0  0  0  0  # atno 17370 bound_to 10713
  156.1304  130.3643  149.9741 LP  0  0  0  0  0  0  0  0  0  0  0  0  # atno 17371 bound_to 10713
  141.2211  133.7296  156.8877 LP  0  0  0  0  0  0  0  0  0  0  0  0  # atno 17394 bound_to 11000
  140.1658  134.9134  157.2772 LP  0  0  0  0  0  0  0  0  0  0  0  0  # atno 17395 bound_to 11000

$$$$
