AV-unprocessed.smi:101|AV-procd|sdf|933|dock1
  -GOLD-   2262017453D 1   1.00000     0.00000
 Structure written by MMmdl.
 43 45  0  0  0  0  0  0  0  0  2 V2000
  145.5576  136.7129  156.6003 C   0  0  0  0  0  0  0  0  0  0  0  0
  146.9222  136.7385  157.2669 C   0  0  0  0  0  0  0  0  0  0  0  0
  148.0580  136.9861  156.5770 C   0  0  0  0  0  0  0  0  0  0  0  0
  149.3030  137.0038  157.1865 N   0  0  0  0  0  0  0  0  0  0  0  0
  150.5779  137.3057  156.4130 C   0  0  2  0  0  0  0  0  0  0  0  0
  151.0822  138.5547  156.7817 O   0  0  0  0  0  0  0  0  0  0  0  0
  150.6099  139.5451  155.8791 C   0  0  1  0  0  0  0  0  0  0  0  0
  151.5266  140.7731  155.9423 C   0  0  0  0  0  0  0  0  0  0  0  0
  151.5223  141.2970  157.2603 O   0  0  0  0  0  0  0  0  0  0  0  0
  152.3986  140.8397  158.1748 C   0  0  0  0  0  0  0  0  0  0  0  0
  153.0174  139.7800  158.0572 O   0  0  0  0  0  0  0  0  0  0  0  0
  152.5404  141.7515  159.3466 C   0  0  0  0  0  0  0  0  0  0  0  0
  152.1595  143.1079  159.2200 C   0  0  0  0  0  0  0  0  0  0  0  0
  152.2857  143.9928  160.3085 C   0  0  0  0  0  0  0  0  0  0  0  0
  152.7943  143.5326  161.5369 C   0  0  0  0  0  0  0  0  0  0  0  0
  153.1753  142.1853  161.6761 C   0  0  0  0  0  0  0  0  0  0  0  0
  153.0491  141.2982  160.5892 C   0  0  0  0  0  0  0  0  0  0  0  0
  150.6128  138.8244  154.5295 C   0  0  2  0  0  0  0  0  0  0  0  0
  149.5988  139.3467  153.6936 O   0  0  0  0  0  0  0  0  0  0  0  0
  150.3135  137.3695  154.8908 C   0  0  1  0  0  0  0  0  0  0  0  0
  151.1784  136.5084  154.1783 O   0  0  0  0  0  0  0  0  0  0  0  0
  149.3886  136.8162  158.5923 C   0  0  0  0  0  0  0  0  0  0  0  0
  150.4979  136.9000  159.1194 O   0  0  0  0  0  0  0  0  0  0  0  0
  148.2498  136.5565  159.2950 N   0  5  0  0  0  0  0  0  0  0  0  0
  147.0199  136.4939  158.7103 C   0  0  0  0  0  0  0  0  0  0  0  0
  146.0012  136.2448  159.3542 O   0  0  0  0  0  0  0  0  0  0  0  0
  145.6322  136.9264  155.5336 H   0  0  0  0  0  0  0  0  0  0  0  0
  144.8998  137.4581  157.0487 H   0  0  0  0  0  0  0  0  0  0  0  0
  145.0971  135.7315  156.7169 H   0  0  0  0  0  0  0  0  0  0  0  0
  147.9713  137.1813  155.5198 H   0  0  0  0  0  0  0  0  0  0  0  0
  151.2753  136.5236  156.7187 H   0  0  0  0  0  0  0  0  0  0  0  0
  149.5925  139.8188  156.1629 H   0  0  0  0  0  0  0  0  0  0  0  0
  152.5460  140.4913  155.6765 H   0  0  0  0  0  0  0  0  0  0  0  0
  151.1977  141.5270  155.2256 H   0  0  0  0  0  0  0  0  0  0  0  0
  151.7674  143.4847  158.2864 H   0  0  0  0  0  0  0  0  0  0  0  0
  151.9919  145.0265  160.1998 H   0  0  0  0  0  0  0  0  0  0  0  0
  152.8920  144.2120  162.3708 H   0  0  0  0  0  0  0  0  0  0  0  0
  153.5651  141.8303  162.6188 H   0  0  0  0  0  0  0  0  0  0  0  0
  153.3502  140.2703  160.7307 H   0  0  0  0  0  0  0  0  0  0  0  0
  151.5878  138.9204  154.0488 H   0  0  0  0  0  0  0  0  0  0  0  0
  150.0092  139.7375  152.9374 H   0  0  0  0  0  0  0  0  0  0  0  0
  149.2763  137.1067  154.6756 H   0  0  0  0  0  0  0  0  0  0  0  0
  151.0684  136.6720  153.2544 H   0  0  0  0  0  0  0  0  0  0  0  0
  1  2  1  0  0  0  0
  1 27  1  0  0  0  0
  1 28  1  0  0  0  0
  1 29  1  0  0  0  0
  2 25  1  0  0  0  0
  2  3  2  0  0  0  0
  3  4  1  0  0  0  0
  3 30  1  0  0  0  0
  4  5  1  0  0  0  0
  4 22  1  0  0  0  0
  5 20  1  0  0  0  0
  5  6  1  0  0  0  0
  5 31  1  0  0  0  0
  6  7  1  0  0  0  0
  7  8  1  0  0  0  0
  7 18  1  0  0  0  0
  7 32  1  0  0  0  0
  8  9  1  0  0  0  0
  8 33  1  0  0  0  0
  8 34  1  0  0  0  0
  9 10  1  0  0  0  0
 10 11  2  0  0  0  0
 10 12  1  0  0  0  0
 12 17  1  0  0  0  0
 12 13  2  0  0  0  0
 13 14  1  0  0  0  0
 13 35  1  0  0  0  0
 14 15  2  0  0  0  0
 14 36  1  0  0  0  0
 15 16  1  0  0  0  0
 15 37  1  0  0  0  0
 16 17  2  0  0  0  0
 16 38  1  0  0  0  0
 17 39  1  0  0  0  0
 18 19  1  0  0  0  0
 18 20  1  0  0  0  0
 18 40  1  0  0  0  0
 19 41  1  0  0  0  0
 20 21  1  0  0  0  0
 20 42  1  0  0  0  0
 21 43  1  0  0  0  0
 22 23  2  0  0  0  0
 22 24  1  0  0  0  0
 24 25  1  0  0  0  0
 25 26  2  0  0  0  0
M  CHG  1  24  -1
M  END
> <s_m_source_file>
AV-unprocessed.smi

> <i_m_source_file_index>
101

> <i_lp_mmshare_version>
43012

> <i_f3d_flags>
0

> <s_epik_input>
Tz1jMVtuSF1jKD1PKW4oW2NIXWMxW0NIM10pW0NAQEhdMk9bQ0BIXShbQ0BASF0oW09IXSlbQ0BIXTJbT0hdKVtDSDJdT0MoPU8pYzNbY0hdW2NIXVtjSF1bY0hdW2NIXTM=

> <s_epik_cmdline>
J2VwaWtfcHl0aG9uJywgJy1waCcsICc3LjAnLCAnLXRuJywgJzgnLCAnLW1hJywgJzIwMCcsICctbWV0YWxfYmluZGluZycsICctaW1hZScsICc8aW5maWxlLm1hZT4nLCAnLW9tYWUnLCAnPG91dGZpbGUubWFlPic=

> <r_lp_tautomer_probability>
0.999537

> <r_epik_Ionization_Penalty>
3.21006

> <r_epik_Ionization_Penalty_Charging>
5.75142e-08

> <r_epik_Ionization_Penalty_Neutral>
3.21006

> <r_epik_State_Penalty>
3.20925

> <r_epik_Charging_Adjusted_Penalty>
3.20925

> <i_epik_Tot_Q>
-1

> <i_epik_Tot_abs_Q>
1

> <r_epik_Metal_State_Penalty>
0.119957

> <b_epik_Metal_Only>
1

> <s_epik_Chemistry_Notes>
This compound has an ester and may undergo hydrolysis at high or low pH. This compound contains an acetal/aminal-like group ( X-CH(R)-Y where X, Y are N, S, or O) that may be acid/base labile, releasing an aldehyde.

> <s_lp_Force_Field>
OPLS_2005

> <r_lp_Energy>
40.7876

> <b_lp_Chiralities_Consistent>
1

> <s_lp_Variant>
AV-unprocessed.smi:101-21

> <Gold.Version>
5.8.1

> <Gold.Id.Protein>
6NUR|6NUR_protein|mol2

> <Gold.PLP.Fitness>
54.4330

> <Gold.PLP.PLP>
-40.7370

> <Gold.PLP.part.hbond>
-5.1304

> <Gold.PLP.part.metal>
0.0000

> <Gold.PLP.part.buried>
-6.3163

> <Gold.PLP.part.nonpolar>
-28.7590

> <Gold.PLP.part.repulsive>
0.0302

> <Gold.PLP.ligand.clash>
0.0000

> <Gold.PLP.ligand.torsion>
0.7087

> <Gold.PLP.Chemscore.Hbond>
4.9840

> <Gold.PLP.Chemscore.CHOScore>
0.0000

> <Gold.PLP.Chemscore.Metal>
0.0000

> <Gold.Chemscore.Hbonds>
donor molecule, donor type, donor heavy atom, donor atom, acceptor molecule, acceptor atom, score
      L1  H    19    41       P1  7957  0.77
      L1  H    21    43       P1  7949  0.94
      P1  H  6896  6907       L1    23  0.93
      P1  H  7997  8009       L1    11  1.00
      P1  H 10752 10764       L1    21  1.00

> <Gold.PLP.Chemscore.Internal.Correction>
0.1615

> <Gold.Rescore>
     Score         DG    S(hbond)    S(metal)    S(lipo)     H(rot)  DE(clash)    DE(int)     intcor
     17.60     -22.31       4.34        0.00      91.34       3.27       0.01       4.71       ----

> <Gold.Chemscore.Fitness>
17.5961

> <Gold.Chemscore.DG>
-22.3110

> <Gold.Chemscore.ZeroCoef>
-5.4800

> <Gold.Chemscore.Hbond>
4.3426

> <Gold.Chemscore.Metal>
0.0000

> <Gold.Chemscore.Lipo>
91.3394

> <Gold.Chemscore.Internal_Hbond>
0.0000

> <Gold.Chemscore.DEClash>
0.0073

> <Gold.Chemscore.DEInternal>
4.7076

> <Gold.Chemscore.Rot>
3.2656

> <Gold.Chemscore.Internal.Correction>
   9.000000E+99

> <Gold.Chemscore.Hbonds>
donor molecule, donor type, donor heavy atom, donor atom, acceptor molecule, acceptor atom, score
      L1  H    19    41       P1  7957  0.78
      L1  H    21    43       P1  7949  0.32
      P1  H  6896  6907       L1    23  0.78
      P1  H  7997  8009       L1    11  0.70
      P1  H 10752 10764       L1    21  0.75

> <Gold.Chemscore.Hbond.Weighted>
-14.5041

> <Gold.Chemscore.Metal.Weighted>
-0.0000

> <Gold.Chemscore.Lipo.Weighted>
-10.6867

> <Gold.Chemscore.Internal_Hbond.Weighted>
0.0000

> <Gold.Chemscore.DEClash.Weighted>
0.0073

> <Gold.Chemscore.DEInternal.Weighted>
4.7076

> <Gold.Chemscore.Rot.Weighted>
8.3598

> <Gold.Chemscore.Internal.Correction.Weighted>
   9.000000E+99

> <Gold.Protein.RotatedTorsions>
[ 6907 6896 6895 6894 ] final  -22.57 input  -60.11 | X-H torsion
[ 7974 7965 7964 7962 ] final  146.23 input  175.53 | X-H torsion
[ 8008 7997 7996 7995 ] final  164.39 input   59.86 | X-H torsion
[ 10167 10162 10161 10158 ] final   42.65 input  -65.29 | X-H torsion
[ 10718 10713 10712 10709 ] final  -26.90 input   66.30 | X-H torsion
[ 10763 10752 10751 10750 ] final  -58.31 input  -60.55 | X-H torsion
[ 11005 11000 10999 10996 ] final  115.45 input  -57.11 | X-H torsion

> <Gold.Protein.ActiveResidues>
 VAL166  LYS551  ARG553  GLY616  TRP617  ASP618  TYR619  PRO620  LYS621  CYS622 
 ASP623  PHE694  ASN695  SER759  ASP760  ASP761  ALA762  ILE779  LEU786  VAL792 
 PHE793  MET794  SER795  GLU796  ALA797  LYS798  CYS799  TRP800  GLU811  SER814 

> <Gold.Protein.RotatedAtoms>
  151.2166  135.0502  159.8932 H   0  0  0  0  0  0  0  0  0  0  0  0  # atno 6907 bound_to 6896
  152.5419  134.0686  159.8194 H   0  0  0  0  0  0  0  0  0  0  0  0  # atno 6908 bound_to 6896
  151.0847  133.5314  159.2650 H   0  0  0  0  0  0  0  0  0  0  0  0  # atno 6909 bound_to 6896
  144.8688  139.5879  143.5896 H   0  0  0  0  0  0  0  0  0  0  0  0  # atno 7974 bound_to 7965
  156.1883  140.1698  156.8142 H   0  0  0  0  0  0  0  0  0  0  0  0  # atno 8008 bound_to 7997
  154.5441  140.0731  156.8591 H   0  0  0  0  0  0  0  0  0  0  0  0  # atno 8009 bound_to 7997
  155.3157  140.3370  155.4245 H   0  0  0  0  0  0  0  0  0  0  0  0  # atno 8010 bound_to 7997
  140.3523  144.2335  150.6144 H   0  0  0  0  0  0  0  0  0  0  0  0  # atno 10167 bound_to 10162
  156.4452  130.4472  149.7026 H   0  0  0  0  0  0  0  0  0  0  0  0  # atno 10718 bound_to 10713
  154.2361  135.6352  153.5191 H   0  0  0  0  0  0  0  0  0  0  0  0  # atno 10763 bound_to 10752
  152.9939  135.5531  154.5960 H   0  0  0  0  0  0  0  0  0  0  0  0  # atno 10764 bound_to 10752
  154.5455  135.2898  155.1031 H   0  0  0  0  0  0  0  0  0  0  0  0  # atno 10765 bound_to 10752
  139.9010  134.9584  156.7047 H   0  0  0  0  0  0  0  0  0  0  0  0  # atno 11005 bound_to 11000
  146.2915  139.7153  142.9157 LP  0  0  0  0  0  0  0  0  0  0  0  0  # atno 17320 bound_to 7965
  145.4170  141.0402  143.2985 LP  0  0  0  0  0  0  0  0  0  0  0  0  # atno 17321 bound_to 7965
  140.5207  143.2266  151.8392 LP  0  0  0  0  0  0  0  0  0  0  0  0  # atno 17342 bound_to 10162
  139.4825  144.4840  151.9271 LP  0  0  0  0  0  0  0  0  0  0  0  0  # atno 17343 bound_to 10162
  156.3875  130.7610  151.2608 LP  0  0  0  0  0  0  0  0  0  0  0  0  # atno 17370 bound_to 10713
  157.7505  131.0278  150.4020 LP  0  0  0  0  0  0  0  0  0  0  0  0  # atno 17371 bound_to 10713
  140.7123  133.9213  155.8092 LP  0  0  0  0  0  0  0  0  0  0  0  0  # atno 17394 bound_to 11000
  141.0291  134.0781  157.4035 LP  0  0  0  0  0  0  0  0  0  0  0  0  # atno 17395 bound_to 11000

$$$$
