#       Name:                AV-unprocessed.smi:2714
#       Creating user name   scv26
#       Creation time:       Fri Mar 27 14:52:27 2020


#       File generated by GOLD software.
#

@<TRIPOS>MOLECULE
AV-unprocessed.smi:2714
    52    53     1
SMALL
NO_CHARGES


@<TRIPOS>ATOM
      1 ****        -2.3471  -4.1316  -3.2432 C.3            1 S1                 0.0000
      2 ****        -1.8863  -2.7636  -2.7289 C.3            1 S1                 0.0000
      3 ****        -2.3906  -2.4706  -1.3038 C.3            1 S1                 0.0000
      4 ****        -2.0200  -1.0673  -0.7743 C.3            1 S1                 0.0000
      5 ****        -2.7074  -0.7884   0.5734 C.3            1 S1                 0.0000
      6 ****        -0.5015  -0.8869  -0.6335 C.2            1 S1                 0.0000
      7 ****         0.1417  -1.6249   0.1131 O.2            1 S1                 0.0000
      8 ****         0.0511   0.1010  -1.3547 N.am           1 S1                 0.0000
      9 ****         1.4558   0.4952  -1.3305 C.3            1 S1                 0.0000
     10 ****         1.6434   1.9051  -0.7863 C.ar           1 S1                 0.0000
     11 ****         1.9285   2.9596  -1.6801 C.ar           1 S1                 0.0000
     12 ****         2.0762   4.2656  -1.1789 C.ar           1 S1                 0.0000
     13 ****         1.9296   4.4684   0.2053 C.ar           1 S1                 0.0000
     14 ****         1.6576   3.4719   1.0727 N.ar           1 S1                 0.0000
     15 ****         1.5149   2.2115   0.5944 C.ar           1 S1                 0.0000
     16 ****         1.2572   1.1929   1.5275 N.3            1 S1                 0.0000
     17 ****         0.2353   1.4849   2.5261 C.3            1 S1                 0.0000
     18 ****        -0.0532   0.2256   3.3606 C.3            1 S1                 0.0000
     19 ****         1.1576  -0.2421   3.9488 O.3            1 S1                 0.0000
     20 ****         2.1281  -0.5958   2.9670 C.3            1 S1                 0.0000
     21 ****         2.4710   0.6335   2.1074 C.3            1 S1                 0.0000
     22 ****        -1.9738  -4.3139  -4.2511 H              1 S1                 0.0000
     23 ****        -3.4351  -4.1951  -3.2749 H              1 S1                 0.0000
     24 ****        -1.9824  -4.9356  -2.6033 H              1 S1                 0.0000
     25 ****        -0.7970  -2.7259  -2.7589 H              1 S1                 0.0000
     26 ****        -2.2408  -1.9878  -3.4085 H              1 S1                 0.0000
     27 ****        -3.4767  -2.5708  -1.2947 H              1 S1                 0.0000
     28 ****        -2.0171  -3.2358  -0.6211 H              1 S1                 0.0000
     29 ****        -2.3897  -0.3291  -1.4880 H              1 S1                 0.0000
     30 ****        -2.4337   0.1924   0.9646 H              1 S1                 0.0000
     31 ****        -2.4379  -1.5332   1.3234 H              1 S1                 0.0000
     32 ****        -3.7924  -0.8051   0.4682 H              1 S1                 0.0000
     33 ****        -0.5598   0.6486  -1.9433 H              1 S1                 0.0000
     34 ****         2.0669  -0.2021  -0.7562 H              1 S1                 0.0000
     35 ****         1.8340   0.4451  -2.3520 H              1 S1                 0.0000
     36 ****         2.0285   2.7740  -2.7396 H              1 S1                 0.0000
     37 ****         2.2932   5.0918  -1.8396 H              1 S1                 0.0000
     38 ****         2.0340   5.4567   0.6279 H              1 S1                 0.0000
     39 ****         0.5722   2.2899   3.1810 H              1 S1                 0.0000
     40 ****        -0.6757   1.8254   2.0323 H              1 S1                 0.0000
     41 ****        -0.7684   0.4536   4.1508 H              1 S1                 0.0000
     42 ****        -0.4972  -0.5578   2.7449 H              1 S1                 0.0000
     43 ****         3.0230  -0.9636   3.4690 H              1 S1                 0.0000
     44 ****         1.7531  -1.4121   2.3482 H              1 S1                 0.0000
     45 ****         3.1716   0.3544   1.3197 H              1 S1                 0.0000
     46 ****         2.9610   1.3919   2.7196 H              1 S1                 0.0000
     47 ****        -0.3247  -2.3434   0.6292 LP             1 S1                 0.0000
     48 ****         1.1304  -1.5059   0.2034 LP             1 S1                 0.0000
     49 ****         1.5629   3.6594   2.0504 LP             1 S1                 0.0000
     50 ****         0.8381   0.4748   0.9718 LP             1 S1                 0.0000
     51 ****         0.9552  -1.0468   4.5069 LP             1 S1                 0.0000
     52 ****         1.5342   0.4799   4.5292 LP             1 S1                 0.0000
@<TRIPOS>BOND
    1    1    2 1     
    2    1   22 1     
    3    1   23 1     
    4    1   24 1     
    5    2    3 1     
    6    2   25 1     
    7    2   26 1     
    8    3    4 1     
    9    3   27 1     
   10    3   28 1     
   11    4    5 1     
   12    4    6 1     
   13    4   29 1     
   14    5   30 1     
   15    5   31 1     
   16    5   32 1     
   17    6    7 2     
   18    6    8 am    
   19    8    9 1     
   20    8   33 1     
   21    9   10 1     
   22    9   34 1     
   23    9   35 1     
   24   10   15 ar    
   25   10   11 ar    
   26   11   12 ar    
   27   11   36 1     
   28   12   13 ar    
   29   12   37 1     
   30   13   14 ar    
   31   13   38 1     
   32   14   15 ar    
   33   15   16 1     
   34   16   21 1     
   35   16   17 1     
   36   17   18 1     
   37   17   39 1     
   38   17   40 1     
   39   18   19 1     
   40   18   41 1     
   41   18   42 1     
   42   19   20 1     
   43   20   21 1     
   44   20   43 1     
   45   20   44 1     
   46   21   45 1     
   47   21   46 1     
   48    7   47 1     
   49    7   48 1     
   50   14   49 1     
   51   16   50 1     
   52   19   51 1     
   53   19   52 1     
@<TRIPOS>SUBSTRUCTURE
      1 S1             1
@<TRIPOS>SET
LONE_PAIRS      STATIC     ATOMS    <user>   **** ""
6 47 48 49 50 51 52
DONOR_HYDROGENS      STATIC     ATOMS    <user>   **** ""
1 33
ATOM$BLUE        STATIC     ATOMS    COLORGROUP SYSTEM
6 47 48 49 50 51 52
ATOM$RED        STATIC     ATOMS    COLORGROUP SYSTEM
1 33
