#       Name:                AV-unprocessed.smi:690
#       Creating user name   scv26
#       Creation time:       Fri Mar 27 00:33:59 2020


#       File generated by GOLD software.
#

@<TRIPOS>MOLECULE
AV-unprocessed.smi:690
    52    54     1
SMALL
NO_CHARGES


@<TRIPOS>ATOM
      1 ****        -5.6574   1.8833   0.5663 C.3            1 S1                 0.0000
      2 ****        -4.1352   2.0015   0.4690 C.3            1 S1                 0.0000
      3 ****        -3.5834   0.7028   0.3338 O.3            1 S1                 0.0000
      4 ****        -2.1663   0.7097   0.2594 C.3            1 S1                 0.0000
      5 ****        -1.5951   1.1525  -1.0914 C.3            1 S1                 0.0000
      6 ****        -0.5628   0.0285  -0.9453 C.3            1 S1                 0.0000
      7 ****         0.6484   0.5087  -0.2788 N.am           1 S1                 0.0000
      8 ****         1.8468  -0.0887  -0.3453 C.2            1 S1                 0.0000
      9 ****         2.0508  -1.1247  -0.9790 O.2            1 S1                 0.0000
     10 ****         2.9753   0.5737   0.4560 C.3            1 S1                 0.0000
     11 ****         4.2962   0.4244  -0.1764 N.am           1 S1                 0.0000
     12 ****         5.1319  -0.6003   0.3112 C.2            1 S1                 0.0000
     13 ****         6.3578  -0.8161  -0.1915 C.2            1 S1                 0.0000
     14 ****         6.8170   0.0378  -1.2612 C.2            1 S1                 0.0000
     15 ****         6.0241   1.0180  -1.7379 C.2            1 S1                 0.0000
     16 ****         4.6814   1.2542  -1.1948 C.2            1 S1                 0.0000
     17 ****         3.9490   2.1449  -1.6268 O.2            1 S1                 0.0000
     18 ****        -1.5497  -0.6890   0.0133 C.3            1 S1                 0.0000
     19 ****        -2.4604  -1.7471  -0.6146 C.3            1 S1                 0.0000
     20 ****        -3.0769  -2.5533   0.5331 C.3            1 S1                 0.0000
     21 ****        -2.1630  -2.3234   1.7409 C.3            1 S1                 0.0000
     22 ****        -1.0201  -1.4422   1.2321 C.3            1 S1                 0.0000
     23 ****        -6.1188   2.8659   0.6660 H              1 S1                 0.0000
     24 ****        -5.9486   1.2864   1.4309 H              1 S1                 0.0000
     25 ****        -6.0703   1.4084  -0.3240 H              1 S1                 0.0000
     26 ****        -3.8652   2.6199  -0.3880 H              1 S1                 0.0000
     27 ****        -3.7420   2.4859   1.3638 H              1 S1                 0.0000
     28 ****        -1.6981   1.2240   1.1016 H              1 S1                 0.0000
     29 ****        -2.2854   0.9857  -1.9201 H              1 S1                 0.0000
     30 ****        -1.1889   2.1646  -1.1063 H              1 S1                 0.0000
     31 ****        -0.3821  -0.5049  -1.8802 H              1 S1                 0.0000
     32 ****         0.5664   1.3531   0.2685 H              1 S1                 0.0000
     33 ****         2.7508   1.6316   0.6065 H              1 S1                 0.0000
     34 ****         2.9773   0.1378   1.4559 H              1 S1                 0.0000
     35 ****         4.7118  -1.1978   1.1073 H              1 S1                 0.0000
     36 ****         6.9832  -1.6089   0.1916 H              1 S1                 0.0000
     37 ****         7.8007  -0.1102  -1.6818 H              1 S1                 0.0000
     38 ****         6.3848   1.6469  -2.5388 H              1 S1                 0.0000
     39 ****        -3.2298  -1.3189  -1.2581 H              1 S1                 0.0000
     40 ****        -1.8694  -2.4153  -1.2425 H              1 S1                 0.0000
     41 ****        -4.0818  -2.1915   0.7543 H              1 S1                 0.0000
     42 ****        -3.1576  -3.6101   0.2768 H              1 S1                 0.0000
     43 ****        -2.7147  -1.8029   2.5246 H              1 S1                 0.0000
     44 ****        -1.7935  -3.2583   2.1632 H              1 S1                 0.0000
     45 ****        -0.1801  -2.0747   0.9416 H              1 S1                 0.0000
     46 ****        -0.6576  -0.7739   2.0138 H              1 S1                 0.0000
     47 ****        -3.9447   0.2880  -0.5013 LP             1 S1                 0.0000
     48 ****        -3.8587   0.1554   1.1240 LP             1 S1                 0.0000
     49 ****         1.3020  -1.5617  -1.4772 LP             1 S1                 0.0000
     50 ****         2.9653  -1.5289  -0.9953 LP             1 S1                 0.0000
     51 ****         3.0402   2.2803  -1.2322 LP             1 S1                 0.0000
     52 ****         4.2631   2.7330  -2.3722 LP             1 S1                 0.0000
@<TRIPOS>BOND
    1    1    2 1     
    2    1   23 1     
    3    1   24 1     
    4    1   25 1     
    5    2    3 1     
    6    2   26 1     
    7    2   27 1     
    8    3    4 1     
    9    4   18 1     
   10    4    5 1     
   11    4   28 1     
   12    5    6 1     
   13    5   29 1     
   14    5   30 1     
   15    6    7 1     
   16    6   18 1     
   17    6   31 1     
   18    7    8 am    
   19    7   32 1     
   20    8    9 2     
   21    8   10 1     
   22   10   11 1     
   23   10   33 1     
   24   10   34 1     
   25   11   16 am    
   26   11   12 1     
   27   12   13 2     
   28   12   35 1     
   29   13   14 1     
   30   13   36 1     
   31   14   15 2     
   32   14   37 1     
   33   15   16 1     
   34   15   38 1     
   35   16   17 2     
   36   18   22 1     
   37   18   19 1     
   38   19   20 1     
   39   19   39 1     
   40   19   40 1     
   41   20   21 1     
   42   20   41 1     
   43   20   42 1     
   44   21   22 1     
   45   21   43 1     
   46   21   44 1     
   47   22   45 1     
   48   22   46 1     
   49    3   47 1     
   50    3   48 1     
   51    9   49 1     
   52    9   50 1     
   53   17   51 1     
   54   17   52 1     
@<TRIPOS>SUBSTRUCTURE
      1 S1             1
@<TRIPOS>SET
LONE_PAIRS      STATIC     ATOMS    <user>   **** ""
6 47 48 49 50 51 52
DONOR_HYDROGENS      STATIC     ATOMS    <user>   **** ""
1 32
ATOM$BLUE        STATIC     ATOMS    COLORGROUP SYSTEM
6 47 48 49 50 51 52
ATOM$RED        STATIC     ATOMS    COLORGROUP SYSTEM
1 32
