AV-unprocessed.smi:1028|AV-procd|sdf|4473|dock3
  -GOLD-   22720 2453D 1   1.00000     0.00000
 Structure written by MMmdl.
 43 44  0  0  0  0  0  0  0  0  1 V2000
  146.0195  131.8667  149.6759 C   0  0  0  0  0  0  0  0  0  0  0  0
  145.0611  132.0403  150.8706 C   0  0  0  0  0  0  0  0  0  0  0  0
  143.6781  132.5008  150.3700 C   0  0  0  0  0  0  0  0  0  0  0  0
  144.8889  130.6634  151.5469 C   0  0  0  0  0  0  0  0  0  0  0  0
  145.6251  133.0605  151.8400 C   0  0  0  0  0  0  0  0  0  0  0  0
  145.0754  134.2624  152.2242 C   0  0  0  0  0  0  0  0  0  0  0  0
  146.0710  135.1083  153.3769 S   0  0  0  0  0  0  0  0  0  0  0  0
  147.2328  133.7937  153.2888 C   0  0  0  0  0  0  0  0  0  0  0  0
  148.4842  133.7501  154.0991 C   0  0  0  0  0  0  0  0  0  0  0  0
  148.5913  134.9347  155.0720 C   0  0  0  0  0  0  0  0  0  0  0  0
  149.3636  136.0311  154.4997 N   0  0  0  0  0  0  0  0  0  0  0  0
  150.2226  136.8065  155.1791 C   0  0  0  0  0  0  0  0  0  0  0  0
  150.4490  136.6672  156.3816 O   0  0  0  0  0  0  0  0  0  0  0  0
  150.9288  137.9113  154.3761 C   0  0  0  0  0  0  0  0  0  0  0  0
  151.9392  138.7003  155.2419 C   0  0  0  0  0  0  0  0  0  0  0  0
  151.5005  140.1695  155.2122 C   0  0  0  0  0  0  0  0  0  0  0  0
  150.0253  140.1383  154.8251 C   0  0  0  0  0  0  0  0  0  0  0  0
  149.9303  138.9631  153.8539 C   0  0  0  0  0  0  0  0  0  0  0  0
  146.8544  132.8133  152.4659 N   0  0  0  0  0  0  0  0  0  0  0  0
  145.6456  131.1236  148.9708 H   0  0  0  0  0  0  0  0  0  0  0  0
  147.0071  131.5408  150.0044 H   0  0  0  0  0  0  0  0  0  0  0  0
  146.1482  132.7991  149.1250 H   0  0  0  0  0  0  0  0  0  0  0  0
  143.7384  133.4521  149.8404 H   0  0  0  0  0  0  0  0  0  0  0  0
  142.9802  132.6305  151.1979 H   0  0  0  0  0  0  0  0  0  0  0  0
  143.2422  131.7756  149.6821 H   0  0  0  0  0  0  0  0  0  0  0  0
  144.4854  129.9275  150.8503 H   0  0  0  0  0  0  0  0  0  0  0  0
  144.2038  130.7152  152.3939 H   0  0  0  0  0  0  0  0  0  0  0  0
  145.8402  130.2744  151.9120 H   0  0  0  0  0  0  0  0  0  0  0  0
  144.1427  134.7042  151.9062 H   0  0  0  0  0  0  0  0  0  0  0  0
  148.5135  132.8081  154.6482 H   0  0  0  0  0  0  0  0  0  0  0  0
  149.3352  133.7403  153.4172 H   0  0  0  0  0  0  0  0  0  0  0  0
  147.5986  135.2842  155.3606 H   0  0  0  0  0  0  0  0  0  0  0  0
  149.0869  134.6165  155.9897 H   0  0  0  0  0  0  0  0  0  0  0  0
  149.2363  136.2135  153.5148 H   0  0  0  0  0  0  0  0  0  0  0  0
  151.4434  137.4579  153.5269 H   0  0  0  0  0  0  0  0  0  0  0  0
  151.9540  138.3445  156.2737 H   0  0  0  0  0  0  0  0  0  0  0  0
  152.9560  138.5930  154.8626 H   0  0  0  0  0  0  0  0  0  0  0  0
  151.6732  140.6773  156.1614 H   0  0  0  0  0  0  0  0  0  0  0  0
  152.0649  140.7024  154.4458 H   0  0  0  0  0  0  0  0  0  0  0  0
  149.4140  139.9429  155.7071 H   0  0  0  0  0  0  0  0  0  0  0  0
  149.6864  141.0762  154.3839 H   0  0  0  0  0  0  0  0  0  0  0  0
  150.2344  139.2875  152.8578 H   0  0  0  0  0  0  0  0  0  0  0  0
  148.9080  138.5904  153.7686 H   0  0  0  0  0  0  0  0  0  0  0  0
  1  2  1  0  0  0  0
  1 20  1  0  0  0  0
  1 21  1  0  0  0  0
  1 22  1  0  0  0  0
  2  3  1  0  0  0  0
  2  4  1  0  0  0  0
  2  5  1  0  0  0  0
  3 23  1  0  0  0  0
  3 24  1  0  0  0  0
  3 25  1  0  0  0  0
  4 26  1  0  0  0  0
  4 27  1  0  0  0  0
  4 28  1  0  0  0  0
  5 19  1  0  0  0  0
  5  6  2  0  0  0  0
  6  7  1  0  0  0  0
  6 29  1  0  0  0  0
  7  8  1  0  0  0  0
  8  9  1  0  0  0  0
  8 19  2  0  0  0  0
  9 10  1  0  0  0  0
  9 30  1  0  0  0  0
  9 31  1  0  0  0  0
 10 11  1  0  0  0  0
 10 32  1  0  0  0  0
 10 33  1  0  0  0  0
 11 12  1  0  0  0  0
 11 34  1  0  0  0  0
 12 13  2  0  0  0  0
 12 14  1  0  0  0  0
 14 18  1  0  0  0  0
 14 15  1  0  0  0  0
 14 35  1  0  0  0  0
 15 16  1  0  0  0  0
 15 36  1  0  0  0  0
 15 37  1  0  0  0  0
 16 17  1  0  0  0  0
 16 38  1  0  0  0  0
 16 39  1  0  0  0  0
 17 18  1  0  0  0  0
 17 40  1  0  0  0  0
 17 41  1  0  0  0  0
 18 42  1  0  0  0  0
 18 43  1  0  0  0  0
M  END
> <s_m_source_file>
AV-unprocessed.smi

> <i_m_source_file_index>
1028

> <i_lp_mmshare_version>
43012

> <i_f3d_flags>
0

> <s_epik_input>
W0NIM11DKFtDSDNdKShbQ0gzXSljMVtjSF1zYyhuMSlbQ0gyXVtDSDJdW05IXUMoPU8pW0NIXTJbQ0gyXVtDSDJdW0NIMl1bQ0gyXTI=

> <s_epik_cmdline>
J2VwaWtfcHl0aG9uJywgJy1waCcsICc3LjAnLCAnLXRuJywgJzgnLCAnLW1hJywgJzIwMCcsICctbWV0YWxfYmluZGluZycsICctaW1hZScsICc8aW5maWxlLm1hZT4nLCAnLW9tYWUnLCAnPG91dGZpbGUubWFlPic=

> <r_epik_Ionization_Penalty>
0.000842107

> <r_epik_Ionization_Penalty_Charging>
0

> <r_epik_Ionization_Penalty_Neutral>
0.000842107

> <r_epik_State_Penalty>
0.000542609

> <r_epik_Charging_Adjusted_Penalty>
0.000542609

> <i_epik_Tot_Q>
0

> <i_epik_Tot_abs_Q>
0

> <r_epik_Metal_State_Penalty>
-0

> <b_epik_Metal_Only>
0

> <s_lp_Force_Field>
OPLS_2005

> <r_lp_Energy>
10.9616

> <b_lp_Chiralities_Consistent>
1

> <s_lp_Variant>
AV-unprocessed.smi:1028-1

> <Gold.Version>
5.8.1

> <Gold.Id.Protein>
6NUR|6NUR_protein|mol2

> <Gold.PLP.Fitness>
41.8902

> <Gold.PLP.PLP>
-39.7941

> <Gold.PLP.part.hbond>
-1.2271

> <Gold.PLP.part.metal>
0.0000

> <Gold.PLP.part.buried>
-4.0845

> <Gold.PLP.part.nonpolar>
-35.5781

> <Gold.PLP.part.repulsive>
0.2038

> <Gold.PLP.ligand.clash>
0.0000

> <Gold.PLP.ligand.torsion>
0.4598

> <Gold.PLP.Chemscore.Hbond>
1.0000

> <Gold.PLP.Chemscore.CHOScore>
0.0000

> <Gold.PLP.Chemscore.Metal>
0.0000

> <Gold.Chemscore.Hbonds>
donor molecule, donor type, donor heavy atom, donor atom, acceptor molecule, acceptor atom, score
      L1  H    11    34       P1  7948  1.00

> <Gold.PLP.Chemscore.Internal.Correction>
0.0158

> <Gold.Rescore>
     Score         DG    S(hbond)    S(metal)    S(lipo)     H(rot)  DE(clash)    DE(int)     intcor
     16.75     -17.12       0.91        0.00     104.59       1.42       0.04       0.33       ----

> <Gold.Chemscore.Fitness>
16.7457

> <Gold.Chemscore.DG>
-17.1166

> <Gold.Chemscore.ZeroCoef>
-5.4800

> <Gold.Chemscore.Hbond>
0.9105

> <Gold.Chemscore.Metal>
0.0000

> <Gold.Chemscore.Lipo>
104.5940

> <Gold.Chemscore.Internal_Hbond>
0.0000

> <Gold.Chemscore.DEClash>
0.0440

> <Gold.Chemscore.DEInternal>
0.3269

> <Gold.Chemscore.Rot>
1.4226

> <Gold.Chemscore.Internal.Correction>
   9.000000E+99

> <Gold.Chemscore.Hbonds>
donor molecule, donor type, donor heavy atom, donor atom, acceptor molecule, acceptor atom, score
      L1  H    11    34       P1  7948  0.88

> <Gold.Chemscore.Hbond.Weighted>
-3.0410

> <Gold.Chemscore.Metal.Weighted>
-0.0000

> <Gold.Chemscore.Lipo.Weighted>
-12.2375

> <Gold.Chemscore.Internal_Hbond.Weighted>
0.0000

> <Gold.Chemscore.DEClash.Weighted>
0.0440

> <Gold.Chemscore.DEInternal.Weighted>
0.3269

> <Gold.Chemscore.Rot.Weighted>
3.6419

> <Gold.Chemscore.Internal.Correction.Weighted>
   9.000000E+99

> <Gold.Protein.RotatedTorsions>
[ 6907 6896 6895 6894 ] final   -5.44 input  -60.11 | X-H torsion
[ 7974 7965 7964 7962 ] final -173.52 input  175.53 | X-H torsion
[ 8008 7997 7996 7995 ] final   26.97 input   59.86 | X-H torsion
[ 10167 10162 10161 10158 ] final  -44.11 input  -65.29 | X-H torsion
[ 10718 10713 10712 10709 ] final  -53.09 input   66.30 | X-H torsion
[ 10763 10752 10751 10750 ] final   37.53 input  -60.55 | X-H torsion
[ 11005 11000 10999 10996 ] final -100.99 input  -57.11 | X-H torsion

> <Gold.Protein.ActiveResidues>
 VAL166  LYS551  ARG553  GLY616  TRP617  ASP618  TYR619  PRO620  LYS621  CYS622 
 ASP623  PHE694  ASN695  SER759  ASP760  ASP761  ALA762  ILE779  LEU786  VAL792 
 PHE793  MET794  SER795  GLU796  ALA797  LYS798  CYS799  TRP800  GLU811  SER814 

> <Gold.Protein.RotatedAtoms>
  151.4816  135.1052  159.9779 H   0  0  0  0  0  0  0  0  0  0  0  0  # atno 6907 bound_to 6896
  152.4777  133.8173  159.7046 H   0  0  0  0  0  0  0  0  0  0  0  0  # atno 6908 bound_to 6896
  150.8826  133.7290  159.2954 H   0  0  0  0  0  0  0  0  0  0  0  0  # atno 6909 bound_to 6896
  144.7137  140.1610  143.6376 H   0  0  0  0  0  0  0  0  0  0  0  0  # atno 7974 bound_to 7965
  155.0356  140.3163  155.4742 H   0  0  0  0  0  0  0  0  0  0  0  0  # atno 8008 bound_to 7997
  156.2865  140.2172  156.5422 H   0  0  0  0  0  0  0  0  0  0  0  0  # atno 8009 bound_to 7997
  154.7333  140.0479  157.0734 H   0  0  0  0  0  0  0  0  0  0  0  0  # atno 8010 bound_to 7997
  140.6909  143.2947  151.3448 H   0  0  0  0  0  0  0  0  0  0  0  0  # atno 10167 bound_to 10162
  156.1565  130.4150  149.9861 H   0  0  0  0  0  0  0  0  0  0  0  0  # atno 10718 bound_to 10713
  153.0034  135.6275  154.2159 H   0  0  0  0  0  0  0  0  0  0  0  0  # atno 10763 bound_to 10752
  154.1902  135.2809  155.3026 H   0  0  0  0  0  0  0  0  0  0  0  0  # atno 10764 bound_to 10752
  154.5765  135.5660  153.7204 H   0  0  0  0  0  0  0  0  0  0  0  0  # atno 10765 bound_to 10752
  141.1249  133.8442  157.1174 H   0  0  0  0  0  0  0  0  0  0  0  0  # atno 11005 bound_to 11000
  145.9030  139.2442  143.1482 LP  0  0  0  0  0  0  0  0  0  0  0  0  # atno 17320 bound_to 7965
  145.9792  140.8697  143.0123 LP  0  0  0  0  0  0  0  0  0  0  0  0  # atno 17321 bound_to 7965
  139.6311  144.0719  152.2477 LP  0  0  0  0  0  0  0  0  0  0  0  0  # atno 17342 bound_to 10162
  140.0194  144.6164  150.7579 LP  0  0  0  0  0  0  0  0  0  0  0  0  # atno 17343 bound_to 10162
  156.7703  130.9183  151.3644 LP  0  0  0  0  0  0  0  0  0  0  0  0  # atno 17370 bound_to 10713
  157.6699  130.9041  150.0016 LP  0  0  0  0  0  0  0  0  0  0  0  0  # atno 17371 bound_to 10713
  140.0238  134.9933  157.0645 LP  0  0  0  0  0  0  0  0  0  0  0  0  # atno 17394 bound_to 11000
  140.4396  134.1695  155.7173 LP  0  0  0  0  0  0  0  0  0  0  0  0  # atno 17395 bound_to 11000

$$$$
