AV-unprocessed.smi:294|AV-procd|sdf|2253|dock4
  -GOLD-   2262022143D 1   1.00000     0.00000
 Structure written by MMmdl.
 29 30  0  0  0  0  0  0  0  0  1 V2000
  146.8938  143.0423  160.3222 N   0  0  0  0  0  0  0  0  0  0  0  0
  146.7071  142.9421  159.1845 C   0  0  0  0  0  0  0  0  0  0  0  0
  146.4726  142.8165  157.7560 C   0  0  0  0  0  0  0  0  0  0  0  0
  145.6444  143.6735  157.0911 N   0  0  0  0  0  0  0  0  0  0  0  0
  145.7581  143.1651  155.8703 C   0  0  0  0  0  0  0  0  0  0  0  0
  146.5748  142.1085  155.7958 N   0  0  0  0  0  0  0  0  0  0  0  0
  146.9628  141.2953  154.6575 C   0  0  0  0  0  0  0  0  0  0  0  0
  148.4724  141.0500  154.6431 C   0  0  0  0  0  0  0  0  0  0  0  0
  149.1582  141.4878  153.7199 O   0  0  0  0  0  0  0  0  0  0  0  0
  148.9753  140.3487  155.6711 N   0  0  0  0  0  0  0  0  0  0  0  0
  150.3855  140.0262  155.8578 C   0  0  1  0  0  0  0  0  0  0  0  0
  150.6391  139.4403  157.2589 C   0  0  0  0  0  0  0  0  0  0  0  0
  152.0317  138.7983  157.2767 C   0  0  0  0  0  0  0  0  0  0  0  0
  152.3277  138.1822  155.5757 S   0  0  0  0  0  0  0  0  0  0  0  0
  153.5623  138.7899  155.0566 O   0  0  0  0  0  0  0  0  0  0  0  0
  152.1256  136.7260  155.5373 O   0  0  0  0  0  0  0  0  0  0  0  0
  150.8763  139.0054  154.8192 C   0  0  0  0  0  0  0  0  0  0  0  0
  147.0597  141.8614  157.0375 N   0  0  0  0  0  0  0  0  0  0  0  0
  145.2414  143.5724  155.0133 H   0  0  0  0  0  0  0  0  0  0  0  0
  146.4313  140.3426  154.6878 H   0  0  0  0  0  0  0  0  0  0  0  0
  146.6572  141.8062  153.7435 H   0  0  0  0  0  0  0  0  0  0  0  0
  148.3349  140.0293  156.3840 H   0  0  0  0  0  0  0  0  0  0  0  0
  150.9849  140.9340  155.7650 H   0  0  0  0  0  0  0  0  0  0  0  0
  150.5367  140.1949  158.0395 H   0  0  0  0  0  0  0  0  0  0  0  0
  149.8975  138.6670  157.4646 H   0  0  0  0  0  0  0  0  0  0  0  0
  152.7969  139.5415  157.5020 H   0  0  0  0  0  0  0  0  0  0  0  0
  152.1159  137.9823  157.9946 H   0  0  0  0  0  0  0  0  0  0  0  0
  150.1231  138.2400  154.6285 H   0  0  0  0  0  0  0  0  0  0  0  0
  151.1556  139.4633  153.8699 H   0  0  0  0  0  0  0  0  0  0  0  0
  1  2  3  0  0  0  0
  2  3  1  0  0  0  0
  3 18  2  0  0  0  0
  3  4  1  0  0  0  0
  4  5  2  0  0  0  0
  5  6  1  0  0  0  0
  5 19  1  0  0  0  0
  6  7  1  0  0  0  0
  6 18  1  0  0  0  0
  7  8  1  0  0  0  0
  7 20  1  0  0  0  0
  7 21  1  0  0  0  0
  8  9  2  0  0  0  0
  8 10  1  0  0  0  0
 10 11  1  0  0  0  0
 10 22  1  0  0  0  0
 11 17  1  0  0  0  0
 11 12  1  0  0  0  0
 11 23  1  0  0  0  0
 12 13  1  0  0  0  0
 12 24  1  0  0  0  0
 12 25  1  0  0  0  0
 13 14  1  0  0  0  0
 13 26  1  0  0  0  0
 13 27  1  0  0  0  0
 14 15  2  0  0  0  0
 14 16  2  0  0  0  0
 14 17  1  0  0  0  0
 17 28  1  0  0  0  0
 17 29  1  0  0  0  0
M  END
> <s_m_source_file>
AV-unprocessed.smi

> <i_m_source_file_index>
294

> <i_lp_mmshare_version>
43012

> <i_f3d_flags>
0

> <s_epik_input>
TiNDYzFuW2NIXW4objEpW0NIMl1DKD1PKVtOSF1bQ0BASF0oW0NIMl0yKVtDSDJdW0NIMl1TMig9Tyk9Tw==

> <s_epik_cmdline>
J2VwaWtfcHl0aG9uJywgJy1waCcsICc3LjAnLCAnLXRuJywgJzgnLCAnLW1hJywgJzIwMCcsICctbWV0YWxfYmluZGluZycsICctaW1hZScsICc8aW5maWxlLm1hZT4nLCAnLW9tYWUnLCAnPG91dGZpbGUubWFlPic=

> <r_lp_tautomer_probability>
1

> <r_epik_Ionization_Penalty>
6.08231e-07

> <r_epik_Ionization_Penalty_Charging>
0

> <r_epik_Ionization_Penalty_Neutral>
6.08231e-07

> <r_epik_State_Penalty>
-0

> <r_epik_Charging_Adjusted_Penalty>
0

> <i_epik_Tot_Q>
0

> <i_epik_Tot_abs_Q>
0

> <r_epik_Metal_State_Penalty>
-0

> <b_epik_Metal_Only>
0

> <s_lp_Force_Field>
OPLS_2005

> <r_lp_Energy>
6.26763

> <b_lp_Chiralities_Consistent>
1

> <s_lp_Variant>
AV-unprocessed.smi:294-2

> <Gold.Version>
5.8.1

> <Gold.Id.Protein>
6NUR|6NUR_protein|mol2

> <Gold.PLP.Fitness>
36.2267

> <Gold.PLP.PLP>
-23.6257

> <Gold.PLP.part.hbond>
-5.8938

> <Gold.PLP.part.metal>
0.0000

> <Gold.PLP.part.buried>
-6.0632

> <Gold.PLP.part.nonpolar>
-15.6297

> <Gold.PLP.part.repulsive>
1.4828

> <Gold.PLP.ligand.clash>
0.0000

> <Gold.PLP.ligand.torsion>
0.2895

> <Gold.PLP.Chemscore.Hbond>
4.3931

> <Gold.PLP.Chemscore.CHOScore>
0.0000

> <Gold.PLP.Chemscore.Metal>
0.0000

> <Gold.Chemscore.Hbonds>
donor molecule, donor type, donor heavy atom, donor atom, acceptor molecule, acceptor atom, score
      P1  H  6933  6944       L1     1  0.90
      P1  H  6934  6946       L1     1  0.40
      P1  H  7997  8010       L1    15  0.98
      P1  H  8011  8017       L1     9  0.78
      P1  H 10752 10765       L1    16  1.00

> <Gold.PLP.Chemscore.Internal.Correction>
0.0006

> <Gold.Rescore>
     Score         DG    S(hbond)    S(metal)    S(lipo)     H(rot)  DE(clash)    DE(int)     intcor
     13.33     -15.18       3.63        0.00      26.50       2.15       0.10       1.75       ----

> <Gold.Chemscore.Fitness>
13.3315

> <Gold.Chemscore.DG>
-15.1836

> <Gold.Chemscore.ZeroCoef>
-5.4800

> <Gold.Chemscore.Hbond>
3.6286

> <Gold.Chemscore.Metal>
0.0000

> <Gold.Chemscore.Lipo>
26.4952

> <Gold.Chemscore.Internal_Hbond>
0.0000

> <Gold.Chemscore.DEClash>
0.1024

> <Gold.Chemscore.DEInternal>
1.7497

> <Gold.Chemscore.Rot>
2.1546

> <Gold.Chemscore.Internal.Correction>
   9.000000E+99

> <Gold.Chemscore.Hbonds>
donor molecule, donor type, donor heavy atom, donor atom, acceptor molecule, acceptor atom, score
      P1  H  6933  6944       L1     1  0.82
      P1  H  6934  6946       L1     1  0.06
      P1  H  7997  8010       L1    15  0.93
      P1  H  8011  8017       L1     9  0.78
      P1  H 10752 10765       L1    16  0.96

> <Gold.Chemscore.Hbond.Weighted>
-12.1194

> <Gold.Chemscore.Metal.Weighted>
-0.0000

> <Gold.Chemscore.Lipo.Weighted>
-3.0999

> <Gold.Chemscore.Internal_Hbond.Weighted>
0.0000

> <Gold.Chemscore.DEClash.Weighted>
0.1024

> <Gold.Chemscore.DEInternal.Weighted>
1.7497

> <Gold.Chemscore.Rot.Weighted>
5.5158

> <Gold.Chemscore.Internal.Correction.Weighted>
   9.000000E+99

> <Gold.Protein.RotatedTorsions>
[ 6907 6896 6895 6894 ] final   -7.02 input  -60.11 | X-H torsion
[ 7974 7965 7964 7962 ] final   57.87 input  175.53 | X-H torsion
[ 8008 7997 7996 7995 ] final  107.24 input   59.86 | X-H torsion
[ 10167 10162 10161 10158 ] final  -79.97 input  -65.29 | X-H torsion
[ 10718 10713 10712 10709 ] final   24.59 input   66.30 | X-H torsion
[ 10763 10752 10751 10750 ] final -164.26 input  -60.55 | X-H torsion
[ 11005 11000 10999 10996 ] final  -50.78 input  -57.11 | X-H torsion

> <Gold.Protein.ActiveResidues>
 VAL166  LYS551  ARG553  GLY616  TRP617  ASP618  TYR619  PRO620  LYS621  CYS622 
 ASP623  PHE694  ASN695  SER759  ASP760  ASP761  ALA762  ILE779  LEU786  VAL792 
 PHE793  MET794  SER795  GLU796  ALA797  LYS798  CYS799  TRP800  GLU811  SER814 

> <Gold.Protein.RotatedAtoms>
  151.4562  135.1034  159.9711 H   0  0  0  0  0  0  0  0  0  0  0  0  # atno 6907 bound_to 6896
  152.4870  133.8394  159.7155 H   0  0  0  0  0  0  0  0  0  0  0  0  # atno 6908 bound_to 6896
  150.8988  133.7086  159.2911 H   0  0  0  0  0  0  0  0  0  0  0  0  # atno 6909 bound_to 6896
  145.9243  139.3755  143.0459 H   0  0  0  0  0  0  0  0  0  0  0  0  # atno 7974 bound_to 7965
  156.1808  140.3098  155.9146 H   0  0  0  0  0  0  0  0  0  0  0  0  # atno 8008 bound_to 7997
  155.3387  140.0464  157.3061 H   0  0  0  0  0  0  0  0  0  0  0  0  # atno 8009 bound_to 7997
  154.5341  140.2240  155.8763 H   0  0  0  0  0  0  0  0  0  0  0  0  # atno 8010 bound_to 7997
  140.4545  143.2472  151.8440 H   0  0  0  0  0  0  0  0  0  0  0  0  # atno 10167 bound_to 10162
  157.1819  130.6806  149.6116 H   0  0  0  0  0  0  0  0  0  0  0  0  # atno 10718 bound_to 10713
  154.7045  135.2994  154.9291 H   0  0  0  0  0  0  0  0  0  0  0  0  # atno 10763 bound_to 10752
  154.0212  135.6682  153.4777 H   0  0  0  0  0  0  0  0  0  0  0  0  # atno 10764 bound_to 10752
  153.0706  135.5063  154.8208 H   0  0  0  0  0  0  0  0  0  0  0  0  # atno 10765 bound_to 10752
  141.0835  133.6648  156.3781 H   0  0  0  0  0  0  0  0  0  0  0  0  # atno 11005 bound_to 11000
  145.8509  140.9529  143.0750 LP  0  0  0  0  0  0  0  0  0  0  0  0  # atno 17320 bound_to 7965
  144.6756  140.0405  143.7481 LP  0  0  0  0  0  0  0  0  0  0  0  0  # atno 17321 bound_to 7965
  139.4800  144.5081  151.8970 LP  0  0  0  0  0  0  0  0  0  0  0  0  # atno 17342 bound_to 10162
  140.4167  144.2297  150.5887 LP  0  0  0  0  0  0  0  0  0  0  0  0  # atno 17343 bound_to 10162
  155.9723  130.4644  150.6216 LP  0  0  0  0  0  0  0  0  0  0  0  0  # atno 17370 bound_to 10713
  157.3945  131.0800  151.1364 LP  0  0  0  0  0  0  0  0  0  0  0  0  # atno 17371 bound_to 10713
  140.5416  134.6115  157.5381 LP  0  0  0  0  0  0  0  0  0  0  0  0  # atno 17394 bound_to 11000
  139.9651  134.7387  156.0156 LP  0  0  0  0  0  0  0  0  0  0  0  0  # atno 17395 bound_to 11000

$$$$
