#       Name:                AV-unprocessed.smi:3244
#       Creating user name   scv26
#       Creation time:       Fri Mar 27 18:27:20 2020


#       File generated by GOLD software.
#

@<TRIPOS>MOLECULE
AV-unprocessed.smi:3244
    44    45     1
SMALL
NO_CHARGES


@<TRIPOS>ATOM
      1 ****        -2.9514  -0.1433   2.6437 C.3            1 S1                 0.0000
      2 ****        -3.0469   0.3044   1.1759 C.3            1 S1                 0.0000
      3 ****        -2.0760   1.3620   0.8546 N.am           1 S1                 0.0000
      4 ****        -0.7634   1.1221   0.6061 C.2            1 S1                 0.0000
      5 ****         0.0727   2.0264   0.5606 O.2            1 S1                 0.0000
      6 ****        -0.2939  -0.3243   0.3651 C.3            1 S1                 0.0000
      7 ****         1.1308  -0.4158  -0.0309 N.4            1 S1                 1.0000
      8 ****         1.3993  -0.5793  -1.4809 C.3            1 S1                 0.0000
      9 ****         1.0964   0.7089  -2.2649 C.3            1 S1                 0.0000
     10 ****         2.8628  -1.0163  -1.7012 C.3            1 S1                 0.0000
     11 ****         3.2003  -2.2610  -1.0290 N.pl3          1 S1                 0.0000
     12 ****         4.2623  -2.5154  -0.1861 C.2            1 S1                 0.0000
     13 ****         4.1860  -3.8283   0.1809 C.2            1 S1                 0.0000
     14 ****         3.0378  -4.3067  -0.5092 C.2            1 S1                 0.0000
     15 ****         2.4538  -3.3680  -1.2364 N.2            1 S1                 0.0000
     16 ****        -2.6028   2.6872   1.0519 C.3            1 S1                 0.0000
     17 ****        -3.6515   3.2110   0.0934 C.3            1 S1                 0.0000
     18 ****        -2.2704   3.8137   0.0884 C.3            1 S1                 0.0000
     19 ****        -3.6923  -0.9136   2.8588 H              1 S1                 0.0000
     20 ****        -3.1394   0.6903   3.3208 H              1 S1                 0.0000
     21 ****        -1.9728  -0.5535   2.8886 H              1 S1                 0.0000
     22 ****        -2.9350  -0.5528   0.5132 H              1 S1                 0.0000
     23 ****        -4.0605   0.6626   0.9899 H              1 S1                 0.0000
     24 ****        -0.3995  -0.8824   1.2940 H              1 S1                 0.0000
     25 ****        -0.9193  -0.8176  -0.3793 H              1 S1                 0.0000
     26 ****         1.6231   0.3940   0.3192 H              1 S1                 0.0000
     27 ****         0.7489  -1.3673  -1.8633 H              1 S1                 0.0000
     28 ****         1.3316   0.5863  -3.3225 H              1 S1                 0.0000
     29 ****         1.6819   1.5497  -1.8910 H              1 S1                 0.0000
     30 ****         0.0424   0.9797  -2.2028 H              1 S1                 0.0000
     31 ****         3.0599  -1.1491  -2.7659 H              1 S1                 0.0000
     32 ****         3.5448  -0.2390  -1.3530 H              1 S1                 0.0000
     33 ****         4.9762  -1.7504   0.0817 H              1 S1                 0.0000
     34 ****         4.8536  -4.3674   0.8367 H              1 S1                 0.0000
     35 ****         2.6161  -5.3010  -0.5052 H              1 S1                 0.0000
     36 ****        -2.7209   2.9854   2.0922 H              1 S1                 0.0000
     37 ****        -3.9259   2.5859  -0.7544 H              1 S1                 0.0000
     38 ****        -4.4594   3.8076   0.5121 H              1 S1                 0.0000
     39 ****        -2.1571   4.8120   0.5057 H              1 S1                 0.0000
     40 ****        -1.6494   3.6009  -0.7797 H              1 S1                 0.0000
     41 ****         1.5056  -1.2369   0.4224 H              1 S1                 0.0000
     42 ****        -0.2078   2.9746   0.7094 LP             1 S1                 0.0000
     43 ****         1.0316   1.8119   0.3749 LP             1 S1                 0.0000
     44 ****         1.6408  -3.4579  -1.8116 LP             1 S1                 0.0000
@<TRIPOS>BOND
    1    1    2 1     
    2    1   19 1     
    3    1   20 1     
    4    1   21 1     
    5    2    3 1     
    6    2   22 1     
    7    2   23 1     
    8    3    4 am    
    9    3   16 1     
   10    4    5 2     
   11    4    6 1     
   12    6    7 1     
   13    6   24 1     
   14    6   25 1     
   15    7    8 1     
   16    7   26 1     
   17    7   41 1     
   18    8    9 1     
   19    8   10 1     
   20    8   27 1     
   21    9   28 1     
   22    9   29 1     
   23    9   30 1     
   24   10   11 1     
   25   10   31 1     
   26   10   32 1     
   27   11   15 1     
   28   11   12 1     
   29   12   13 2     
   30   12   33 1     
   31   13   14 1     
   32   13   34 1     
   33   14   15 2     
   34   14   35 1     
   35   16   18 1     
   36   16   17 1     
   37   16   36 1     
   38   17   18 1     
   39   17   37 1     
   40   17   38 1     
   41   18   39 1     
   42   18   40 1     
   43    5   42 1     
   44    5   43 1     
   45   15   44 1     
@<TRIPOS>SUBSTRUCTURE
      1 S1             1
@<TRIPOS>SET
LONE_PAIRS      STATIC     ATOMS    <user>   **** ""
3 42 43 44
DONOR_HYDROGENS      STATIC     ATOMS    <user>   **** ""
2 26 41
ATOM$BLUE        STATIC     ATOMS    COLORGROUP SYSTEM
3 42 43 44
ATOM$RED        STATIC     ATOMS    COLORGROUP SYSTEM
2 26 41
