AV-unprocessed.smi:624|AV-procd|sdf|3100|dock2
  -GOLD-   22720 0 23D 1   1.00000     0.00000
 Structure written by MMmdl.
 29 31  0  0  0  0  0  0  0  0  2 V2000
  150.6641  140.7821  157.2306 O   0  0  0  0  0  0  0  0  0  0  0  0
  151.8520  140.5074  157.4098 C   0  0  0  0  0  0  0  0  0  0  0  0
  152.5543  139.4864  156.8548 N   0  5  0  0  0  0  0  0  0  0  0  0
  152.0204  138.4221  156.2141 C   0  0  0  0  0  0  0  0  0  0  0  0
  152.2266  137.1236  156.5132 N   0  0  0  0  0  0  0  0  0  0  0  0
  151.5455  136.2449  155.6834 N   0  0  0  0  0  0  0  0  0  0  0  0
  150.8329  136.8982  154.7687 C   0  0  0  0  0  0  0  0  0  0  0  0
  150.9326  138.6434  154.8404 S   0  0  0  0  0  0  0  0  0  0  0  0
  152.5940  141.2621  158.2345 N   0  0  0  0  0  0  0  0  0  0  0  0
  152.1601  142.4345  158.9906 C   0  0  0  0  0  0  0  0  0  0  0  0
  151.8580  143.6103  158.0794 C   0  0  0  0  0  0  0  0  0  0  0  0
  152.9639  144.4039  157.4248 C   0  0  0  0  0  0  0  0  0  0  0  0
  152.1315  145.0270  158.5231 C   0  0  0  0  0  0  0  0  0  0  0  0
  153.1740  142.8274  160.0496 C   0  0  0  0  0  0  0  0  0  0  0  0
  153.4588  141.9246  161.2254 C   0  0  0  0  0  0  0  0  0  0  0  0
  152.7434  143.2401  161.4374 C   0  0  0  0  0  0  0  0  0  0  0  0
  150.2454  136.3500  154.0474 H   0  0  0  0  0  0  0  0  0  0  0  0
  153.5602  140.9928  158.3462 H   0  0  0  0  0  0  0  0  0  0  0  0
  151.2329  142.2035  159.5179 H   0  0  0  0  0  0  0  0  0  0  0  0
  150.9602  143.4728  157.4792 H   0  0  0  0  0  0  0  0  0  0  0  0
  153.9923  144.1436  157.6665 H   0  0  0  0  0  0  0  0  0  0  0  0
  152.7976  144.7524  156.4076 H   0  0  0  0  0  0  0  0  0  0  0  0
  151.4096  145.7896  158.2386 H   0  0  0  0  0  0  0  0  0  0  0  0
  152.6025  145.1692  159.4938 H   0  0  0  0  0  0  0  0  0  0  0  0
  154.0352  143.3587  159.6480 H   0  0  0  0  0  0  0  0  0  0  0  0
  152.8726  141.0118  161.3138 H   0  0  0  0  0  0  0  0  0  0  0  0
  154.4906  141.8510  161.5628 H   0  0  0  0  0  0  0  0  0  0  0  0
  153.2982  144.0438  161.9172 H   0  0  0  0  0  0  0  0  0  0  0  0
  151.6831  143.1971  161.6778 H   0  0  0  0  0  0  0  0  0  0  0  0
  1  2  2  0  0  0  0
  2  3  1  0  0  0  0
  2  9  1  0  0  0  0
  3  4  1  0  0  0  0
  4  8  1  0  0  0  0
  4  5  2  0  0  0  0
  5  6  1  0  0  0  0
  6  7  2  0  0  0  0
  7  8  1  0  0  0  0
  7 17  1  0  0  0  0
  9 10  1  0  0  0  0
  9 18  1  0  0  0  0
 10 11  1  0  0  0  0
 10 14  1  0  0  0  0
 10 19  1  0  0  0  0
 11 13  1  0  0  0  0
 11 12  1  0  0  0  0
 11 20  1  0  0  0  0
 12 13  1  0  0  0  0
 12 21  1  0  0  0  0
 12 22  1  0  0  0  0
 13 23  1  0  0  0  0
 13 24  1  0  0  0  0
 14 16  1  0  0  0  0
 14 15  1  0  0  0  0
 14 25  1  0  0  0  0
 15 16  1  0  0  0  0
 15 26  1  0  0  0  0
 15 27  1  0  0  0  0
 16 28  1  0  0  0  0
 16 29  1  0  0  0  0
M  CHG  1   3  -1
M  END
> <s_m_source_file>
AV-unprocessed.smi

> <i_m_source_file_index>
624

> <i_lp_mmshare_version>
43012

> <i_f3d_flags>
0

> <s_epik_input>
W0NIMl0xW0NIMl1bQ0hdMVtDSF0oW0NIXTJbQ0gyXVtDSDJdMilbTkhdQyg9TylbTkhdYzNubltjSF1zMw==

> <s_epik_cmdline>
J2VwaWtfcHl0aG9uJywgJy1waCcsICc3LjAnLCAnLXRuJywgJzgnLCAnLW1hJywgJzIwMCcsICctbWV0YWxfYmluZGluZycsICctaW1hZScsICc8aW5maWxlLm1hZT4nLCAnLW9tYWUnLCAnPG91dGZpbGUubWFlPic=

> <r_lp_tautomer_probability>
1

> <r_epik_Ionization_Penalty>
4.58207

> <r_epik_Ionization_Penalty_Charging>
4.53574

> <r_epik_Ionization_Penalty_Neutral>
0.0463302

> <r_epik_State_Penalty>
4.53546

> <r_epik_Charging_Adjusted_Penalty>
9.07119

> <i_epik_Tot_Q>
-1

> <i_epik_Tot_abs_Q>
1

> <r_epik_Metal_State_Penalty>
0.837379

> <b_epik_Metal_Only>
1

> <s_lp_Force_Field>
OPLS_2005

> <r_lp_Energy>
26.5564

> <b_lp_Chiralities_Consistent>
1

> <s_lp_Variant>
AV-unprocessed.smi:624-2

> <Gold.Version>
5.8.1

> <Gold.Id.Protein>
6NUR|6NUR_protein|mol2

> <Gold.PLP.Fitness>
52.4339

> <Gold.PLP.PLP>
-41.6487

> <Gold.PLP.part.hbond>
-2.0747

> <Gold.PLP.part.metal>
0.0000

> <Gold.PLP.part.buried>
-2.5249

> <Gold.PLP.part.nonpolar>
-36.0617

> <Gold.PLP.part.repulsive>
0.2098

> <Gold.PLP.ligand.clash>
0.0000

> <Gold.PLP.ligand.torsion>
1.8372

> <Gold.PLP.Chemscore.Hbond>
3.0000

> <Gold.PLP.Chemscore.CHOScore>
1.0852

> <Gold.PLP.Chemscore.Metal>
0.0000

> <Gold.Chemscore.Hbonds>
donor molecule, donor type, donor heavy atom, donor atom, acceptor molecule, acceptor atom, score
      P1  H  7997  8008       L1     3  2.00
      P1  H 10752 10763       L1     6  0.90
      L1  C     7    17       P1  7948  0.77
      L1  C     7    17       P1  7949  0.09

> <Gold.PLP.Chemscore.Internal.Correction>
2.2040

> <Gold.Rescore>
     Score         DG    S(hbond)    S(metal)    S(lipo)     H(rot)  DE(clash)    DE(int)     intcor
     16.77     -18.55       1.67        0.00      96.93       1.50       0.00       1.78       ----

> <Gold.Chemscore.Fitness>
16.7704

> <Gold.Chemscore.DG>
-18.5534

> <Gold.Chemscore.ZeroCoef>
-5.4800

> <Gold.Chemscore.Hbond>
1.6656

> <Gold.Chemscore.Metal>
0.0000

> <Gold.Chemscore.Lipo>
96.9321

> <Gold.Chemscore.Internal_Hbond>
0.0000

> <Gold.Chemscore.DEClash>
0.0000

> <Gold.Chemscore.DEInternal>
1.7830

> <Gold.Chemscore.Rot>
1.4964

> <Gold.Chemscore.Internal.Correction>
   9.000000E+99

> <Gold.Chemscore.Hbonds>
donor molecule, donor type, donor heavy atom, donor atom, acceptor molecule, acceptor atom, score
      P1  H  7997  8008       L1     3  0.68
      P1  H 10752 10763       L1     6  0.10

> <Gold.Chemscore.Hbond.Weighted>
-5.5631

> <Gold.Chemscore.Metal.Weighted>
-0.0000

> <Gold.Chemscore.Lipo.Weighted>
-11.3411

> <Gold.Chemscore.Internal_Hbond.Weighted>
0.0000

> <Gold.Chemscore.DEClash.Weighted>
0.0000

> <Gold.Chemscore.DEInternal.Weighted>
1.7830

> <Gold.Chemscore.Rot.Weighted>
3.8308

> <Gold.Chemscore.Internal.Correction.Weighted>
   9.000000E+99

> <Gold.Protein.RotatedTorsions>
[ 6907 6896 6895 6894 ] final    5.35 input  -60.11 | X-H torsion
[ 7974 7965 7964 7962 ] final  -29.64 input  175.53 | X-H torsion
[ 8008 7997 7996 7995 ] final  -37.65 input   59.86 | X-H torsion
[ 10167 10162 10161 10158 ] final -123.38 input  -65.29 | X-H torsion
[ 10718 10713 10712 10709 ] final    4.19 input   66.30 | X-H torsion
[ 10763 10752 10751 10750 ] final   72.42 input  -60.55 | X-H torsion
[ 11005 11000 10999 10996 ] final  -83.37 input  -57.11 | X-H torsion

> <Gold.Protein.ActiveResidues>
 VAL166  LYS551  ARG553  GLY616  TRP617  ASP618  TYR619  PRO620  LYS621  CYS622 
 ASP623  PHE694  ASN695  SER759  ASP760  ASP761  ALA762  ILE779  LEU786  VAL792 
 PHE793  MET794  SER795  GLU796  ALA797  LYS798  CYS799  TRP800  GLU811  SER814 

> <Gold.Protein.RotatedAtoms>
  151.6561  135.0995  160.0170 H   0  0  0  0  0  0  0  0  0  0  0  0  # atno 6907 bound_to 6896
  152.3973  133.6761  159.6295 H   0  0  0  0  0  0  0  0  0  0  0  0  # atno 6908 bound_to 6896
  150.7878  133.8769  159.3315 H   0  0  0  0  0  0  0  0  0  0  0  0  # atno 6909 bound_to 6896
  146.1202  140.5438  142.8739 H   0  0  0  0  0  0  0  0  0  0  0  0  # atno 7974 bound_to 7965
  154.4050  140.1598  156.2572 H   0  0  0  0  0  0  0  0  0  0  0  0  # atno 8008 bound_to 7997
  155.9068  140.3430  155.6046 H   0  0  0  0  0  0  0  0  0  0  0  0  # atno 8009 bound_to 7997
  155.7383  140.0789  157.2248 H   0  0  0  0  0  0  0  0  0  0  0  0  # atno 8010 bound_to 7997
  140.0041  143.5510  152.2291 H   0  0  0  0  0  0  0  0  0  0  0  0  # atno 10167 bound_to 10162
  156.8890  130.5680  149.5650 H   0  0  0  0  0  0  0  0  0  0  0  0  # atno 10718 bound_to 10713
  153.0458  135.5100  154.7742 H   0  0  0  0  0  0  0  0  0  0  0  0  # atno 10763 bound_to 10752
  154.6643  135.2943  154.9828 H   0  0  0  0  0  0  0  0  0  0  0  0  # atno 10764 bound_to 10752
  154.0669  135.6683  153.4871 H   0  0  0  0  0  0  0  0  0  0  0  0  # atno 10765 bound_to 10752
  141.1658  133.7291  156.8710 H   0  0  0  0  0  0  0  0  0  0  0  0  # atno 11005 bound_to 11000
  144.7590  140.5376  143.6749 LP  0  0  0  0  0  0  0  0  0  0  0  0  # atno 17320 bound_to 7965
  145.5482  139.1476  143.3409 LP  0  0  0  0  0  0  0  0  0  0  0  0  # atno 17321 bound_to 7965
  139.6251  144.7636  151.2656 LP  0  0  0  0  0  0  0  0  0  0  0  0  # atno 17342 bound_to 10162
  140.7407  143.6578  150.8191 LP  0  0  0  0  0  0  0  0  0  0  0  0  # atno 17343 bound_to 10162
  156.0639  130.5686  150.9248 LP  0  0  0  0  0  0  0  0  0  0  0  0  # atno 17370 bound_to 10713
  157.6095  131.0937  150.8820 LP  0  0  0  0  0  0  0  0  0  0  0  0  # atno 17371 bound_to 10713
  140.1782  134.9052  157.2916 LP  0  0  0  0  0  0  0  0  0  0  0  0  # atno 17394 bound_to 11000
  140.2425  134.3778  155.7475 LP  0  0  0  0  0  0  0  0  0  0  0  0  # atno 17395 bound_to 11000

$$$$
