#       Name:                AV-unprocessed.smi:1295
#       Creating user name   scv26
#       Creation time:       Fri Mar 27 04:57:08 2020


#       File generated by GOLD software.
#

@<TRIPOS>MOLECULE
AV-unprocessed.smi:1295
    48    49     1
SMALL
NO_CHARGES


@<TRIPOS>ATOM
      1 ****        -6.5394  -1.5346   1.2503 C.3            1 S1                 0.0000
      2 ****        -5.0273  -1.4721   1.2704 C.2            1 S1                 0.0000
      3 ****        -4.4507  -0.3646   1.5449 N.2            1 S1                 0.0000
      4 ****        -3.0469  -0.3013   1.5600 C.2            1 S1                 0.0000
      5 ****        -2.4475   1.0533   1.8968 C.3            1 S1                 0.0000
      6 ****        -2.2878  -1.4006   1.2847 C.2            1 S1                 0.0000
      7 ****        -0.7597  -1.3813   1.2878 C.3            1 S1                 0.0000
      8 ****        -0.1027  -0.8007   0.0338 C.2            1 S1                 0.0000
      9 ****        -0.5811  -1.0234  -1.0783 O.2            1 S1                 0.0000
     10 ****         0.9942  -0.0534   0.2336 N.am           1 S1                 0.0000
     11 ****         1.7631   0.6387  -0.7994 C.3            1 S1                 0.0000
     12 ****         1.9206   2.1149  -0.3848 C.3            1 S1                 0.0000
     13 ****         2.7783   2.9010  -1.3866 C.3            1 S1                 0.0000
     14 ****         4.1487   2.2373  -1.5753 C.3            1 S1                 0.0000
     15 ****         3.9940   0.7731  -2.0115 C.3            1 S1                 0.0000
     16 ****         3.1415  -0.0387  -1.0151 C.3            1 S1                 0.0000
     17 ****         3.0206  -1.5007  -1.4813 C.3            1 S1                 0.0000
     18 ****        -2.9916  -2.6572   0.9714 C.2            1 S1                 0.0000
     19 ****        -2.3558  -3.6765   0.7054 O.2            1 S1                 0.0000
     20 ****        -4.3549  -2.6393   0.9866 N.pl3          1 S1                -1.0000
     21 ****        -6.9747  -0.5354   1.2938 H              1 S1                 0.0000
     22 ****        -6.9030  -2.1058   2.1046 H              1 S1                 0.0000
     23 ****        -6.8883  -2.0176   0.3368 H              1 S1                 0.0000
     24 ****        -1.8575   0.9941   2.8115 H              1 S1                 0.0000
     25 ****        -3.2257   1.8024   2.0484 H              1 S1                 0.0000
     26 ****        -1.8037   1.4007   1.0885 H              1 S1                 0.0000
     27 ****        -0.4302  -0.8105   2.1565 H              1 S1                 0.0000
     28 ****        -0.3573  -2.3816   1.4486 H              1 S1                 0.0000
     29 ****         1.3104   0.0649   1.1850 H              1 S1                 0.0000
     30 ****         1.2205   0.6192  -1.7465 H              1 S1                 0.0000
     31 ****         0.9392   2.5834  -0.2982 H              1 S1                 0.0000
     32 ****         2.3785   2.1749   0.6038 H              1 S1                 0.0000
     33 ****         2.2625   2.9576  -2.3461 H              1 S1                 0.0000
     34 ****         2.9061   3.9273  -1.0416 H              1 S1                 0.0000
     35 ****         4.7289   2.7870  -2.3171 H              1 S1                 0.0000
     36 ****         4.7127   2.2854  -0.6429 H              1 S1                 0.0000
     37 ****         3.5360   0.7372  -3.0010 H              1 S1                 0.0000
     38 ****         4.9807   0.3200  -2.1133 H              1 S1                 0.0000
     39 ****         3.6690  -0.0434  -0.0598 H              1 S1                 0.0000
     40 ****         2.4576  -1.5727  -2.4123 H              1 S1                 0.0000
     41 ****         2.5172  -2.1208  -0.7395 H              1 S1                 0.0000
     42 ****         4.0036  -1.9402  -1.6526 H              1 S1                 0.0000
     43 ****        -4.9942   0.4501   1.7472 LP             1 S1                 0.0000
     44 ****        -1.4030  -1.5862  -1.1654 LP             1 S1                 0.0000
     45 ****        -0.1477  -0.6415  -1.8946 LP             1 S1                 0.0000
     46 ****        -1.3560  -3.6553   0.7010 LP             1 S1                 0.0000
     47 ****        -2.8388  -4.5261   0.4936 LP             1 S1                 0.0000
     48 ****        -4.8672  -3.4756   0.7912 LP             1 S1                 0.0000
@<TRIPOS>BOND
    1    1    2 1     
    2    1   21 1     
    3    1   22 1     
    4    1   23 1     
    5    2   20 1     
    6    2    3 2     
    7    3    4 1     
    8    4    5 1     
    9    4    6 2     
   10    5   24 1     
   11    5   25 1     
   12    5   26 1     
   13    6    7 1     
   14    6   18 1     
   15    7    8 1     
   16    7   27 1     
   17    7   28 1     
   18    8    9 2     
   19    8   10 am    
   20   10   11 1     
   21   10   29 1     
   22   11   16 1     
   23   11   12 1     
   24   11   30 1     
   25   12   13 1     
   26   12   31 1     
   27   12   32 1     
   28   13   14 1     
   29   13   33 1     
   30   13   34 1     
   31   14   15 1     
   32   14   35 1     
   33   14   36 1     
   34   15   16 1     
   35   15   37 1     
   36   15   38 1     
   37   16   17 1     
   38   16   39 1     
   39   17   40 1     
   40   17   41 1     
   41   17   42 1     
   42   18   19 2     
   43   18   20 1     
   44    3   43 1     
   45    9   44 1     
   46    9   45 1     
   47   19   46 1     
   48   19   47 1     
   49   20   48 1     
@<TRIPOS>SUBSTRUCTURE
      1 S1             1
@<TRIPOS>SET
LONE_PAIRS      STATIC     ATOMS    <user>   **** ""
6 43 44 45 46 47 48
DONOR_HYDROGENS      STATIC     ATOMS    <user>   **** ""
1 29
ATOM$BLUE        STATIC     ATOMS    COLORGROUP SYSTEM
6 43 44 45 46 47 48
ATOM$RED        STATIC     ATOMS    COLORGROUP SYSTEM
1 29
