AV-unprocessed.smi:2806|AV-procd|sdf|10815|dock6
  -GOLD-   2272015253D 1   1.00000     0.00000
 Structure written by MMmdl.
 47 48  0  0  0  0  0  0  0  0  1 V2000
  150.0794  135.6773  157.1315 C   0  0  0  0  0  0  0  0  0  0  0  0
  149.5627  135.9020  155.7002 C   0  0  0  0  0  0  0  0  0  0  0  0
  150.6524  135.4576  154.7087 C   0  0  0  0  0  0  0  0  0  0  0  0
  148.2867  135.0648  155.4959 C   0  0  0  0  0  0  0  0  0  0  0  0
  149.1873  137.6838  155.5231 S   0  0  0  0  0  0  0  0  0  0  0  0
  150.7606  138.5537  155.8235 C   0  0  0  0  0  0  0  0  0  0  0  0
  150.7087  140.0539  155.5308 C   0  0  0  0  0  0  0  0  0  0  0  0
  150.3805  140.4601  154.4159 O   0  0  0  0  0  0  0  0  0  0  0  0
  151.0228  140.8696  156.5485 N   0  0  0  0  0  0  0  0  0  0  0  0
  150.9618  142.3250  156.4926 C   0  0  0  0  0  0  0  0  0  0  0  0
  151.5387  142.9834  157.7339 C   0  0  0  0  0  0  0  0  0  0  0  0
  151.3101  144.3481  157.9950 C   0  0  0  0  0  0  0  0  0  0  0  0
  151.8659  144.9059  159.1608 C   0  0  0  0  0  0  0  0  0  0  0  0
  152.6077  144.1986  160.0388 N   0  0  0  0  0  0  0  0  0  0  0  0
  152.8318  142.8826  159.7995 C   0  0  0  0  0  0  0  0  0  0  0  0
  153.6136  142.1583  160.7254 N   0  0  0  0  0  0  0  0  0  0  0  0
  153.2929  142.2863  162.1459 C   0  0  0  0  0  0  0  0  0  0  0  0
  154.4190  141.6868  163.0047 C   0  0  0  0  0  0  0  0  0  0  0  0
  154.6562  140.3386  162.6131 O   0  0  0  0  0  0  0  0  0  0  0  0
  155.0717  140.2465  161.2545 C   0  0  0  0  0  0  0  0  0  0  0  0
  153.9683  140.7965  160.3350 C   0  0  0  0  0  0  0  0  0  0  0  0
  152.3131  142.2405  158.6497 C   0  0  0  0  0  0  0  0  0  0  0  0
  150.3163  134.6280  157.3117 H   0  0  0  0  0  0  0  0  0  0  0  0
  149.3381  135.9777  157.8730 H   0  0  0  0  0  0  0  0  0  0  0  0
  150.9852  136.2549  157.3202 H   0  0  0  0  0  0  0  0  0  0  0  0
  151.5272  136.1072  154.7561 H   0  0  0  0  0  0  0  0  0  0  0  0
  150.2891  135.4570  153.6822 H   0  0  0  0  0  0  0  0  0  0  0  0
  150.9862  134.4428  154.9248 H   0  0  0  0  0  0  0  0  0  0  0  0
  148.4726  134.0098  155.7005 H   0  0  0  0  0  0  0  0  0  0  0  0
  147.9132  135.1289  154.4749 H   0  0  0  0  0  0  0  0  0  0  0  0
  147.4877  135.3921  156.1620 H   0  0  0  0  0  0  0  0  0  0  0  0
  151.1112  138.3654  156.8371 H   0  0  0  0  0  0  0  0  0  0  0  0
  151.5061  138.1208  155.1562 H   0  0  0  0  0  0  0  0  0  0  0  0
  151.2836  140.4550  157.4313 H   0  0  0  0  0  0  0  0  0  0  0  0
  151.5342  142.6588  155.6269 H   0  0  0  0  0  0  0  0  0  0  0  0
  149.9341  142.6535  156.3280 H   0  0  0  0  0  0  0  0  0  0  0  0
  150.7211  144.9552  157.3236 H   0  0  0  0  0  0  0  0  0  0  0  0
  151.7125  145.9490  159.3944 H   0  0  0  0  0  0  0  0  0  0  0  0
  153.1574  143.3358  162.4107 H   0  0  0  0  0  0  0  0  0  0  0  0
  152.3525  141.7729  162.3514 H   0  0  0  0  0  0  0  0  0  0  0  0
  155.3353  142.2715  162.9078 H   0  0  0  0  0  0  0  0  0  0  0  0
  154.1387  141.7070  164.0580 H   0  0  0  0  0  0  0  0  0  0  0  0
  156.0061  140.7918  161.1100 H   0  0  0  0  0  0  0  0  0  0  0  0
  155.2727  139.2021  161.0153 H   0  0  0  0  0  0  0  0  0  0  0  0
  153.0789  140.1702  160.4113 H   0  0  0  0  0  0  0  0  0  0  0  0
  154.3069  140.7446  159.3014 H   0  0  0  0  0  0  0  0  0  0  0  0
  152.5119  141.1971  158.4554 H   0  0  0  0  0  0  0  0  0  0  0  0
  1  2  1  0  0  0  0
  1 23  1  0  0  0  0
  1 24  1  0  0  0  0
  1 25  1  0  0  0  0
  2  3  1  0  0  0  0
  2  4  1  0  0  0  0
  2  5  1  0  0  0  0
  3 26  1  0  0  0  0
  3 27  1  0  0  0  0
  3 28  1  0  0  0  0
  4 29  1  0  0  0  0
  4 30  1  0  0  0  0
  4 31  1  0  0  0  0
  5  6  1  0  0  0  0
  6  7  1  0  0  0  0
  6 32  1  0  0  0  0
  6 33  1  0  0  0  0
  7  8  2  0  0  0  0
  7  9  1  0  0  0  0
  9 10  1  0  0  0  0
  9 34  1  0  0  0  0
 10 11  1  0  0  0  0
 10 35  1  0  0  0  0
 10 36  1  0  0  0  0
 11 22  1  0  0  0  0
 11 12  2  0  0  0  0
 12 13  1  0  0  0  0
 12 37  1  0  0  0  0
 13 14  2  0  0  0  0
 13 38  1  0  0  0  0
 14 15  1  0  0  0  0
 15 16  1  0  0  0  0
 15 22  2  0  0  0  0
 16 21  1  0  0  0  0
 16 17  1  0  0  0  0
 17 18  1  0  0  0  0
 17 39  1  0  0  0  0
 17 40  1  0  0  0  0
 18 19  1  0  0  0  0
 18 41  1  0  0  0  0
 18 42  1  0  0  0  0
 19 20  1  0  0  0  0
 20 21  1  0  0  0  0
 20 43  1  0  0  0  0
 20 44  1  0  0  0  0
 21 45  1  0  0  0  0
 21 46  1  0  0  0  0
 22 47  1  0  0  0  0
M  END
> <s_m_source_file>
AV-unprocessed.smi

> <i_m_source_file_index>
2806

> <i_lp_mmshare_version>
43012

> <i_f3d_flags>
0

> <s_epik_input>
W0NIM11DKFtDSDNdKShbQ0gzXSlTW0NIMl1DKD1PKVtOSF1bQ0gyXWMxW2NIXVtjSF1uYyhbY0hdMSlOMltDSDJdW0NIMl1PW0NIMl1bQ0gyXTI=

> <s_epik_cmdline>
J2VwaWtfcHl0aG9uJywgJy1waCcsICc3LjAnLCAnLXRuJywgJzgnLCAnLW1hJywgJzIwMCcsICctbWV0YWxfYmluZGluZycsICctaW1hZScsICc8aW5maWxlLm1hZT4nLCAnLW9tYWUnLCAnPG91dGZpbGUubWFlPic=

> <r_lp_tautomer_probability>
1

> <r_epik_Ionization_Penalty>
0.00423361

> <r_epik_Ionization_Penalty_Charging>
0

> <r_epik_Ionization_Penalty_Neutral>
0.00423361

> <r_epik_State_Penalty>
0.00304279

> <r_epik_Charging_Adjusted_Penalty>
0.00304279

> <i_epik_Tot_Q>
0

> <i_epik_Tot_abs_Q>
0

> <r_epik_Metal_State_Penalty>
-0

> <b_epik_Metal_Only>
0

> <s_lp_Force_Field>
OPLS_2005

> <r_lp_Energy>
13.38

> <b_lp_Chiralities_Consistent>
1

> <s_lp_Variant>
AV-unprocessed.smi:2806-1

> <Gold.Version>
5.8.1

> <Gold.Id.Protein>
6NUR|6NUR_protein|mol2

> <Gold.PLP.Fitness>
41.8782

> <Gold.PLP.PLP>
-39.2883

> <Gold.PLP.part.hbond>
-0.9217

> <Gold.PLP.part.metal>
0.0000

> <Gold.PLP.part.buried>
-1.5003

> <Gold.PLP.part.nonpolar>
-35.5359

> <Gold.PLP.part.repulsive>
0.2406

> <Gold.PLP.ligand.clash>
0.0000

> <Gold.PLP.ligand.torsion>
0.3964

> <Gold.PLP.Chemscore.Hbond>
0.9920

> <Gold.PLP.Chemscore.CHOScore>
0.0000

> <Gold.PLP.Chemscore.Metal>
0.0000

> <Gold.Chemscore.Hbonds>
donor molecule, donor type, donor heavy atom, donor atom, acceptor molecule, acceptor atom, score
      P1  H  7989  7998       L1     8  0.98

> <Gold.PLP.Chemscore.Internal.Correction>
0.4067

> <Gold.Rescore>
     Score         DG    S(hbond)    S(metal)    S(lipo)     H(rot)  DE(clash)    DE(int)     intcor
     16.11     -17.49       0.90        0.00     114.88       1.73       0.97       0.41       ----

> <Gold.Chemscore.Fitness>
16.1075

> <Gold.Chemscore.DG>
-17.4884

> <Gold.Chemscore.ZeroCoef>
-5.4800

> <Gold.Chemscore.Hbond>
0.8975

> <Gold.Chemscore.Metal>
0.0000

> <Gold.Chemscore.Lipo>
114.8843

> <Gold.Chemscore.Internal_Hbond>
0.0000

> <Gold.Chemscore.DEClash>
0.9676

> <Gold.Chemscore.DEInternal>
0.4133

> <Gold.Chemscore.Rot>
1.7308

> <Gold.Chemscore.Internal.Correction>
   9.000000E+99

> <Gold.Chemscore.Hbonds>
donor molecule, donor type, donor heavy atom, donor atom, acceptor molecule, acceptor atom, score
      P1  H  7989  7998       L1     8  0.81

> <Gold.Chemscore.Hbond.Weighted>
-2.9978

> <Gold.Chemscore.Metal.Weighted>
-0.0000

> <Gold.Chemscore.Lipo.Weighted>
-13.4415

> <Gold.Chemscore.Internal_Hbond.Weighted>
0.0000

> <Gold.Chemscore.DEClash.Weighted>
0.9676

> <Gold.Chemscore.DEInternal.Weighted>
0.4133

> <Gold.Chemscore.Rot.Weighted>
4.4309

> <Gold.Chemscore.Internal.Correction.Weighted>
   9.000000E+99

> <Gold.Protein.RotatedTorsions>
[ 6907 6896 6895 6894 ] final   -0.65 input  -60.11 | X-H torsion
[ 7974 7965 7964 7962 ] final  178.60 input  175.53 | X-H torsion
[ 8008 7997 7996 7995 ] final  -18.84 input   59.86 | X-H torsion
[ 10167 10162 10161 10158 ] final  -96.32 input  -65.29 | X-H torsion
[ 10718 10713 10712 10709 ] final   69.53 input   66.30 | X-H torsion
[ 10763 10752 10751 10750 ] final   28.40 input  -60.55 | X-H torsion
[ 11005 11000 10999 10996 ] final   43.34 input  -57.11 | X-H torsion

> <Gold.Protein.ActiveResidues>
 VAL166  LYS551  ARG553  GLY616  TRP617  ASP618  TYR619  PRO620  LYS621  CYS622 
 ASP623  PHE694  ASN695  SER759  ASP760  ASP761  ALA762  ILE779  LEU786  VAL792 
 PHE793  MET794  SER795  GLU796  ALA797  LYS798  CYS799  TRP800  GLU811  SER814 

> <Gold.Protein.RotatedAtoms>
  151.5589  135.1066  159.9967 H   0  0  0  0  0  0  0  0  0  0  0  0  # atno 6907 bound_to 6896
  152.4456  133.7526  159.6713 H   0  0  0  0  0  0  0  0  0  0  0  0  # atno 6908 bound_to 6896
  150.8371  133.7928  159.3099 H   0  0  0  0  0  0  0  0  0  0  0  0  # atno 6909 bound_to 6896
  144.7154  140.0422  143.6437 H   0  0  0  0  0  0  0  0  0  0  0  0  # atno 7974 bound_to 7965
  154.4878  140.2105  155.9616 H   0  0  0  0  0  0  0  0  0  0  0  0  # atno 8008 bound_to 7997
  156.1261  140.3205  155.8248 H   0  0  0  0  0  0  0  0  0  0  0  0  # atno 8009 bound_to 7997
  155.4381  140.0508  157.3003 H   0  0  0  0  0  0  0  0  0  0  0  0  # atno 8010 bound_to 7997
  140.2951  143.3197  152.0306 H   0  0  0  0  0  0  0  0  0  0  0  0  # atno 10167 bound_to 10162
  157.6350  130.9430  150.0526 H   0  0  0  0  0  0  0  0  0  0  0  0  # atno 10718 bound_to 10713
  153.0494  135.6514  154.0732 H   0  0  0  0  0  0  0  0  0  0  0  0  # atno 10763 bound_to 10752
  154.0424  135.2902  155.3354 H   0  0  0  0  0  0  0  0  0  0  0  0  # atno 10764 bound_to 10752
  154.6773  135.5333  153.8282 H   0  0  0  0  0  0  0  0  0  0  0  0  # atno 10765 bound_to 10752
  140.1654  134.4288  155.8290 H   0  0  0  0  0  0  0  0  0  0  0  0  # atno 11005 bound_to 11000
  146.0014  139.3094  143.0925 LP  0  0  0  0  0  0  0  0  0  0  0  0  # atno 17320 bound_to 7965
  145.8789  140.9375  143.0611 LP  0  0  0  0  0  0  0  0  0  0  0  0  # atno 17321 bound_to 7965
  139.4928  144.6497  151.6702 LP  0  0  0  0  0  0  0  0  0  0  0  0  # atno 17342 bound_to 10162
  140.5699  144.0126  150.6211 LP  0  0  0  0  0  0  0  0  0  0  0  0  # atno 17343 bound_to 10162
  156.1583  130.3643  149.9336 LP  0  0  0  0  0  0  0  0  0  0  0  0  # atno 17370 bound_to 10713
  156.7340  130.9054  151.3628 LP  0  0  0  0  0  0  0  0  0  0  0  0  # atno 17371 bound_to 10713
  141.2213  133.6932  156.7669 LP  0  0  0  0  0  0  0  0  0  0  0  0  # atno 17394 bound_to 11000
  140.2440  134.8592  157.3601 LP  0  0  0  0  0  0  0  0  0  0  0  0  # atno 17395 bound_to 11000

$$$$
