AV-unprocessed.smi:99|AV-procd|sdf|883|dock1
  -GOLD-   2262017363D 1   1.00000     0.00000
 Structure written by MMmdl.
 52 55  0  0  0  0  0  0  0  0  2 V2000
  143.5825  137.4642  154.3175 O   0  0  0  0  0  0  0  0  0  0  0  0
  144.5495  137.0080  153.7036 C   0  0  0  0  0  0  0  0  0  0  0  0
  145.8087  137.4824  153.8258 O   0  0  0  0  0  0  0  0  0  0  0  0
  146.1238  138.5271  154.7406 C   0  0  0  0  0  0  0  0  0  0  0  0
  147.2027  139.4663  154.1738 C   0  0  2  0  0  0  0  0  0  0  0  0
  148.2471  138.7131  153.5618 O   0  0  0  0  0  0  0  0  0  0  0  0
  149.5024  139.2585  153.8590 C   0  0  2  0  0  0  0  0  0  0  0  0
  150.2541  138.2435  154.7114 N   0  0  0  0  0  0  0  0  0  0  0  0
  149.8532  136.9199  154.8399 C   0  0  0  0  0  0  0  0  0  0  0  0
  150.5804  136.0233  155.5369 C   0  0  0  0  0  0  0  0  0  0  0  0
  151.8302  136.4422  156.1602 C   0  0  0  0  0  0  0  0  0  0  0  0
  152.4822  135.6195  156.8002 O   0  0  0  0  0  0  0  0  0  0  0  0
  152.2236  137.7368  155.9970 N   0  5  0  0  0  0  0  0  0  0  0  0
  151.4937  138.6451  155.2859 C   0  0  0  0  0  0  0  0  0  0  0  0
  151.8612  139.8080  155.1164 O   0  0  0  0  0  0  0  0  0  0  0  0
  149.2579  140.6173  154.5404 C   0  0  1  0  0  0  0  0  0  0  0  0
  149.2140  141.6436  153.5662 O   0  0  0  0  0  0  0  0  0  0  0  0
  147.8984  140.3755  155.1838 C   0  0  1  0  0  0  0  0  0  0  0  0
  147.1821  141.5658  155.4877 O   0  0  0  0  0  0  0  0  0  0  0  0
  145.8928  141.5071  155.8846 C   0  0  0  0  0  0  0  0  0  0  0  0
  145.4112  140.5585  156.5079 O   0  0  0  0  0  0  0  0  0  0  0  0
  145.1076  142.7103  155.4854 C   0  0  0  0  0  0  0  0  0  0  0  0
  145.4100  143.3621  154.2668 C   0  0  0  0  0  0  0  0  0  0  0  0
  144.6904  144.5047  153.8665 C   0  0  0  0  0  0  0  0  0  0  0  0
  143.6591  145.0092  154.6797 C   0  0  0  0  0  0  0  0  0  0  0  0
  143.3477  144.3694  155.8935 C   0  0  0  0  0  0  0  0  0  0  0  0
  144.0664  143.2267  156.2957 C   0  0  0  0  0  0  0  0  0  0  0  0
  144.4571  135.8496  152.7701 C   0  0  0  0  0  0  0  0  0  0  0  0
  145.2544  135.8362  151.6024 C   0  0  0  0  0  0  0  0  0  0  0  0
  145.1751  134.7643  150.6923 C   0  0  0  0  0  0  0  0  0  0  0  0
  144.2977  133.6924  150.9393 C   0  0  0  0  0  0  0  0  0  0  0  0
  143.5018  133.6925  152.0993 C   0  0  0  0  0  0  0  0  0  0  0  0
  143.5798  134.7633  153.0109 C   0  0  0  0  0  0  0  0  0  0  0  0
  145.2125  139.0979  154.9194 H   0  0  0  0  0  0  0  0  0  0  0  0
  146.4321  138.1356  155.7110 H   0  0  0  0  0  0  0  0  0  0  0  0
  146.7615  140.0848  153.3908 H   0  0  0  0  0  0  0  0  0  0  0  0
  150.1121  139.3675  152.9602 H   0  0  0  0  0  0  0  0  0  0  0  0
  148.9454  136.5606  154.3855 H   0  0  0  0  0  0  0  0  0  0  0  0
  150.2492  134.9986  155.6206 H   0  0  0  0  0  0  0  0  0  0  0  0
  150.0456  140.8744  155.2476 H   0  0  0  0  0  0  0  0  0  0  0  0
  149.4448  141.2706  152.7291 H   0  0  0  0  0  0  0  0  0  0  0  0
  148.0488  139.8071  156.0979 H   0  0  0  0  0  0  0  0  0  0  0  0
  146.1988  142.9944  153.6263 H   0  0  0  0  0  0  0  0  0  0  0  0
  144.9312  144.9947  152.9346 H   0  0  0  0  0  0  0  0  0  0  0  0
  143.1080  145.8859  154.3728 H   0  0  0  0  0  0  0  0  0  0  0  0
  142.5563  144.7560  156.5188 H   0  0  0  0  0  0  0  0  0  0  0  0
  143.8027  142.7607  157.2339 H   0  0  0  0  0  0  0  0  0  0  0  0
  145.9304  136.6514  151.3880 H   0  0  0  0  0  0  0  0  0  0  0  0
  145.7864  134.7669  149.8019 H   0  0  0  0  0  0  0  0  0  0  0  0
  144.2331  132.8724  150.2393 H   0  0  0  0  0  0  0  0  0  0  0  0
  142.8229  132.8739  152.2878 H   0  0  0  0  0  0  0  0  0  0  0  0
  142.9465  134.7361  153.8854 H   0  0  0  0  0  0  0  0  0  0  0  0
  1  2  2  0  0  0  0
  2  3  1  0  0  0  0
  2 28  1  0  0  0  0
  3  4  1  0  0  0  0
  4  5  1  0  0  0  0
  4 34  1  0  0  0  0
  4 35  1  0  0  0  0
  5 18  1  0  0  0  0
  5  6  1  0  0  0  0
  5 36  1  0  0  0  0
  6  7  1  0  0  0  0
  7  8  1  0  0  0  0
  7 16  1  0  0  0  0
  7 37  1  0  0  0  0
  8 14  1  0  0  0  0
  8  9  1  0  0  0  0
  9 10  2  0  0  0  0
  9 38  1  0  0  0  0
 10 11  1  0  0  0  0
 10 39  1  0  0  0  0
 11 12  2  0  0  0  0
 11 13  1  0  0  0  0
 13 14  1  0  0  0  0
 14 15  2  0  0  0  0
 16 17  1  0  0  0  0
 16 18  1  0  0  0  0
 16 40  1  0  0  0  0
 17 41  1  0  0  0  0
 18 19  1  0  0  0  0
 18 42  1  0  0  0  0
 19 20  1  0  0  0  0
 20 21  2  0  0  0  0
 20 22  1  0  0  0  0
 22 27  1  0  0  0  0
 22 23  2  0  0  0  0
 23 24  1  0  0  0  0
 23 43  1  0  0  0  0
 24 25  2  0  0  0  0
 24 44  1  0  0  0  0
 25 26  1  0  0  0  0
 25 45  1  0  0  0  0
 26 27  2  0  0  0  0
 26 46  1  0  0  0  0
 27 47  1  0  0  0  0
 28 33  1  0  0  0  0
 28 29  2  0  0  0  0
 29 30  1  0  0  0  0
 29 48  1  0  0  0  0
 30 31  2  0  0  0  0
 30 49  1  0  0  0  0
 31 32  1  0  0  0  0
 31 50  1  0  0  0  0
 32 33  2  0  0  0  0
 32 51  1  0  0  0  0
 33 52  1  0  0  0  0
M  CHG  1  13  -1
M  END
> <s_m_source_file>
AV-unprocessed.smi

> <i_m_source_file_index>
99

> <i_lp_mmshare_version>
43012

> <i_f3d_flags>
0

> <s_epik_input>
W2NIXTFbY0hdW2NIXVtjSF1bY0hdYzFDKD1PKU9bQ0gyXVtDQEBIXTJPW0NAQEhdKG4zW2NIXVtjSF1jKD1PKVtuSF1jMz1PKVtDQEBIXShbT0hdKVtDQEhdMk9DKD1PKWM0W2NIXVtjSF1bY0hdW2NIXVtjSF00

> <s_epik_cmdline>
J2VwaWtfcHl0aG9uJywgJy1waCcsICc3LjAnLCAnLXRuJywgJzgnLCAnLW1hJywgJzIwMCcsICctbWV0YWxfYmluZGluZycsICctaW1hZScsICc8aW5maWxlLm1hZT4nLCAnLW9tYWUnLCAnPG91dGZpbGUubWFlPic=

> <r_lp_tautomer_probability>
1

> <r_epik_Ionization_Penalty>
2.89159

> <r_epik_Ionization_Penalty_Charging>
2.1077e-08

> <r_epik_Ionization_Penalty_Neutral>
2.89159

> <r_epik_State_Penalty>
2.88671

> <r_epik_Charging_Adjusted_Penalty>
2.88671

> <i_epik_Tot_Q>
-1

> <i_epik_Tot_abs_Q>
1

> <r_epik_Metal_State_Penalty>
0.0727308

> <b_epik_Metal_Only>
1

> <s_epik_Chemistry_Notes>
This compound has an ester and may undergo hydrolysis at high or low pH. This compound contains an acetal/aminal-like group ( X-CH(R)-Y where X, Y are N, S, or O) that may be acid/base labile, releasing an aldehyde.

> <s_lp_Force_Field>
OPLS_2005

> <r_lp_Energy>
45.2738

> <b_lp_Chiralities_Consistent>
1

> <s_lp_Variant>
AV-unprocessed.smi:99-19

> <Gold.Version>
5.8.1

> <Gold.Id.Protein>
6NUR|6NUR_protein|mol2

> <Gold.PLP.Fitness>
51.3228

> <Gold.PLP.PLP>
-45.6831

> <Gold.PLP.part.hbond>
-4.2735

> <Gold.PLP.part.metal>
0.0000

> <Gold.PLP.part.buried>
-2.3016

> <Gold.PLP.part.nonpolar>
-39.5784

> <Gold.PLP.part.repulsive>
1.4773

> <Gold.PLP.ligand.clash>
0.0000

> <Gold.PLP.ligand.torsion>
2.0237

> <Gold.PLP.Chemscore.Hbond>
2.4875

> <Gold.PLP.Chemscore.CHOScore>
0.6627

> <Gold.PLP.Chemscore.Metal>
0.0000

> <Gold.Chemscore.Hbonds>
donor molecule, donor type, donor heavy atom, donor atom, acceptor molecule, acceptor atom, score
      L1  H    17    41       P1  7957  1.00
      P1  H  7989  7998       L1    15  0.96
      P1  H 10752 10765       L1    12  0.55
      L1  C     9    38       P1  7948  0.73

> <Gold.PLP.Chemscore.Internal.Correction>
0.2366

> <Gold.Rescore>
     Score         DG    S(hbond)    S(metal)    S(lipo)     H(rot)  DE(clash)    DE(int)     intcor
      9.64     -13.38       1.95        0.00      80.40       3.13       0.83       2.91       ----

> <Gold.Chemscore.Fitness>
9.6438

> <Gold.Chemscore.DG>
-13.3826

> <Gold.Chemscore.ZeroCoef>
-5.4800

> <Gold.Chemscore.Hbond>
1.9523

> <Gold.Chemscore.Metal>
0.0000

> <Gold.Chemscore.Lipo>
80.3967

> <Gold.Chemscore.Internal_Hbond>
0.0000

> <Gold.Chemscore.DEClash>
0.8309

> <Gold.Chemscore.DEInternal>
2.9079

> <Gold.Chemscore.Rot>
3.1346

> <Gold.Chemscore.Internal.Correction>
   9.000000E+99

> <Gold.Chemscore.Hbonds>
donor molecule, donor type, donor heavy atom, donor atom, acceptor molecule, acceptor atom, score
      L1  H    17    41       P1  7957  0.97
      P1  H  7989  7998       L1    15  0.92
      P1  H 10752 10765       L1    12  0.03

> <Gold.Chemscore.Hbond.Weighted>
-6.5208

> <Gold.Chemscore.Metal.Weighted>
-0.0000

> <Gold.Chemscore.Lipo.Weighted>
-9.4064

> <Gold.Chemscore.Internal_Hbond.Weighted>
0.0000

> <Gold.Chemscore.DEClash.Weighted>
0.8309

> <Gold.Chemscore.DEInternal.Weighted>
2.9079

> <Gold.Chemscore.Rot.Weighted>
8.0246

> <Gold.Chemscore.Internal.Correction.Weighted>
   9.000000E+99

> <Gold.Protein.RotatedTorsions>
[ 6907 6896 6895 6894 ] final  132.02 input  -60.11 | X-H torsion
[ 7974 7965 7964 7962 ] final   -9.52 input  175.53 | X-H torsion
[ 8008 7997 7996 7995 ] final  -57.51 input   59.86 | X-H torsion
[ 10167 10162 10161 10158 ] final  111.14 input  -65.29 | X-H torsion
[ 10718 10713 10712 10709 ] final  169.96 input   66.30 | X-H torsion
[ 10763 10752 10751 10750 ] final -114.96 input  -60.55 | X-H torsion
[ 11005 11000 10999 10996 ] final  124.83 input  -57.11 | X-H torsion

> <Gold.Protein.ActiveResidues>
 VAL166  LYS551  ARG553  GLY616  TRP617  ASP618  TYR619  PRO620  LYS621  CYS622 
 ASP623  PHE694  ASN695  SER759  ASP760  ASP761  ALA762  ILE779  LEU786  VAL792 
 PHE793  MET794  SER795  GLU796  ALA797  LYS798  CYS799  TRP800  GLU811  SER814 

> <Gold.Protein.RotatedAtoms>
  152.3367  133.6020  159.5847 H   0  0  0  0  0  0  0  0  0  0  0  0  # atno 6907 bound_to 6896
  150.7454  133.9785  159.3577 H   0  0  0  0  0  0  0  0  0  0  0  0  # atno 6908 bound_to 6896
  151.7654  135.0800  160.0403 H   0  0  0  0  0  0  0  0  0  0  0  0  # atno 6909 bound_to 6896
  146.2249  140.2629  142.8352 H   0  0  0  0  0  0  0  0  0  0  0  0  # atno 7974 bound_to 7965
  154.4271  140.1105  156.5808 H   0  0  0  0  0  0  0  0  0  0  0  0  # atno 8008 bound_to 7997
  155.6114  140.3494  155.4604 H   0  0  0  0  0  0  0  0  0  0  0  0  # atno 8009 bound_to 7997
  156.0096  140.1216  157.0456 H   0  0  0  0  0  0  0  0  0  0  0  0  # atno 8010 bound_to 7997
  139.6634  144.7128  151.1822 H   0  0  0  0  0  0  0  0  0  0  0  0  # atno 10167 bound_to 10162
  157.0151  131.0215  151.2791 H   0  0  0  0  0  0  0  0  0  0  0  0  # atno 10718 bound_to 10713
  154.8462  135.4399  154.1588 H   0  0  0  0  0  0  0  0  0  0  0  0  # atno 10763 bound_to 10752
  153.2730  135.6947  153.7467 H   0  0  0  0  0  0  0  0  0  0  0  0  # atno 10764 bound_to 10752
  153.6700  135.3420  155.3126 H   0  0  0  0  0  0  0  0  0  0  0  0  # atno 10765 bound_to 10752
  139.9377  134.9638  156.8467 H   0  0  0  0  0  0  0  0  0  0  0  0  # atno 11005 bound_to 11000
  144.9326  140.7991  143.5680 LP  0  0  0  0  0  0  0  0  0  0  0  0  # atno 17320 bound_to 7965
  145.2574  139.2006  143.4910 LP  0  0  0  0  0  0  0  0  0  0  0  0  # atno 17321 bound_to 7965
  140.7589  143.5958  150.8750 LP  0  0  0  0  0  0  0  0  0  0  0  0  # atno 17342 bound_to 10162
  139.9617  143.6156  152.3000 LP  0  0  0  0  0  0  0  0  0  0  0  0  # atno 17343 bound_to 10162
  157.5291  130.8047  149.7896 LP  0  0  0  0  0  0  0  0  0  0  0  0  # atno 17370 bound_to 10713
  156.0122  130.3828  150.2227 LP  0  0  0  0  0  0  0  0  0  0  0  0  # atno 17371 bound_to 10713
  140.6032  134.0152  155.7546 LP  0  0  0  0  0  0  0  0  0  0  0  0  # atno 17394 bound_to 11000
  141.0998  133.9786  157.3098 LP  0  0  0  0  0  0  0  0  0  0  0  0  # atno 17395 bound_to 11000

$$$$
