AV-unprocessed.smi:1867|AV-procd|sdf|7572|dock8
  -GOLD-   22720 9283D 1   1.00000     0.00000
 Structure written by MMmdl.
 53 56  0  0  0  0  0  0  0  0  3 V2000
  146.7405  140.0020  154.2256 O   0  0  0  0  0  0  0  0  0  0  0  0
  147.5149  139.0900  153.9468 C   0  0  0  0  0  0  0  0  0  0  0  0
  148.7587  138.9590  154.4496 N   0  0  0  0  0  0  0  0  0  0  0  0
  149.4613  139.8329  155.3233 C   0  0  0  0  0  0  0  0  0  0  0  0
  150.5174  139.4257  156.1771 C   0  0  0  0  0  0  0  0  0  0  0  0
  151.1363  140.3738  157.0173 C   0  0  0  0  0  0  0  0  0  0  0  0
  150.6868  141.7144  157.0054 C   0  0  0  0  0  0  0  0  0  0  0  0
  151.2405  142.7319  157.7953 N   0  0  0  0  0  0  0  0  0  0  0  0
  152.2657  142.3104  158.7363 C   0  0  0  0  0  0  0  0  0  0  0  0
  152.9989  143.5906  159.1456 C   0  0  0  0  0  0  0  0  0  0  0  0
  152.7048  144.5911  158.0217 C   0  0  0  0  0  0  0  0  0  0  0  0
  151.8186  143.8267  157.0349 C   0  0  0  0  0  0  0  0  0  0  0  0
  149.6704  142.0581  156.1847 N   0  3  0  0  0  0  0  0  0  0  0  0
  149.0513  141.1822  155.3640 C   0  0  0  0  0  0  0  0  0  0  0  0
  147.1492  138.1036  153.1085 N   0  0  0  0  0  0  0  0  0  0  0  0
  145.8799  137.9409  152.3958 C   0  0  2  0  0  0  0  0  0  0  0  0
  144.6715  137.9469  153.3237 C   0  0  0  0  0  0  0  0  0  0  0  0
  143.5762  137.3015  152.4694 C   0  0  0  0  0  0  0  0  0  0  0  0
  144.2586  136.4051  151.5045 N   0  3  2  0  0  0  0  0  0  0  0  0
  143.7953  134.9927  151.5620 C   0  0  0  0  0  0  0  0  0  0  0  0
  144.7812  134.0610  150.8422 C   0  0  0  0  0  0  0  0  0  0  0  0
  146.1699  134.0855  151.5081 C   0  0  0  0  0  0  0  0  0  0  0  0
  146.4223  135.3830  152.2997 C   0  0  0  0  0  0  0  0  0  0  0  0
  145.7303  136.6032  151.6436 C   0  0  2  0  0  0  0  0  0  0  0  0
  149.2490  138.1129  154.2000 H   0  0  0  0  0  0  0  0  0  0  0  0
  150.8611  138.4039  156.2161 H   0  0  0  0  0  0  0  0  0  0  0  0
  151.9478  140.0665  157.6607 H   0  0  0  0  0  0  0  0  0  0  0  0
  151.8233  141.8110  159.5989 H   0  0  0  0  0  0  0  0  0  0  0  0
  152.9640  141.6157  158.2687 H   0  0  0  0  0  0  0  0  0  0  0  0
  152.6065  143.9679  160.0909 H   0  0  0  0  0  0  0  0  0  0  0  0
  154.0673  143.4161  159.2765 H   0  0  0  0  0  0  0  0  0  0  0  0
  152.1711  145.4539  158.4226 H   0  0  0  0  0  0  0  0  0  0  0  0
  153.6138  144.9564  157.5430 H   0  0  0  0  0  0  0  0  0  0  0  0
  152.4195  143.4413  156.2097 H   0  0  0  0  0  0  0  0  0  0  0  0
  151.0419  144.4671  156.6157 H   0  0  0  0  0  0  0  0  0  0  0  0
  148.2514  141.5900  154.7630 H   0  0  0  0  0  0  0  0  0  0  0  0
  147.8326  137.3756  152.9543 H   0  0  0  0  0  0  0  0  0  0  0  0
  145.7475  138.7637  151.6901 H   0  0  0  0  0  0  0  0  0  0  0  0
  144.8649  137.3301  154.2028 H   0  0  0  0  0  0  0  0  0  0  0  0
  144.4034  138.9464  153.6674 H   0  0  0  0  0  0  0  0  0  0  0  0
  142.8358  136.7891  153.0852 H   0  0  0  0  0  0  0  0  0  0  0  0
  143.0490  138.0667  151.8987 H   0  0  0  0  0  0  0  0  0  0  0  0
  143.6925  134.6720  152.6002 H   0  0  0  0  0  0  0  0  0  0  0  0
  142.8047  134.9258  151.1114 H   0  0  0  0  0  0  0  0  0  0  0  0
  144.3971  133.0407  150.8202 H   0  0  0  0  0  0  0  0  0  0  0  0
  144.8696  134.3752  149.8013 H   0  0  0  0  0  0  0  0  0  0  0  0
  146.2773  133.2344  152.1815 H   0  0  0  0  0  0  0  0  0  0  0  0
  146.9337  133.9610  150.7397 H   0  0  0  0  0  0  0  0  0  0  0  0
  146.0486  135.2617  153.3176 H   0  0  0  0  0  0  0  0  0  0  0  0
  147.4975  135.5391  152.3893 H   0  0  0  0  0  0  0  0  0  0  0  0
  146.1480  136.7153  150.6419 H   0  0  0  0  0  0  0  0  0  0  0  0
  144.0198  136.7472  150.5845 H   0  0  0  0  0  0  0  0  0  0  0  0
  149.3542  143.0284  156.1865 H   0  0  0  0  0  0  0  0  0  0  0  0
  1  2  2  0  0  0  0
  2  3  1  0  0  0  0
  2 15  1  0  0  0  0
  3  4  1  0  0  0  0
  3 25  1  0  0  0  0
  4 14  1  0  0  0  0
  4  5  2  0  0  0  0
  5  6  1  0  0  0  0
  5 26  1  0  0  0  0
  6  7  2  0  0  0  0
  6 27  1  0  0  0  0
  7  8  1  0  0  0  0
  7 13  1  0  0  0  0
  8 12  1  0  0  0  0
  8  9  1  0  0  0  0
  9 10  1  0  0  0  0
  9 28  1  0  0  0  0
  9 29  1  0  0  0  0
 10 11  1  0  0  0  0
 10 30  1  0  0  0  0
 10 31  1  0  0  0  0
 11 12  1  0  0  0  0
 11 32  1  0  0  0  0
 11 33  1  0  0  0  0
 12 34  1  0  0  0  0
 12 35  1  0  0  0  0
 13 14  2  0  0  0  0
 13 53  1  0  0  0  0
 14 36  1  0  0  0  0
 15 16  1  0  0  0  0
 15 37  1  0  0  0  0
 16 24  1  0  0  0  0
 16 17  1  0  0  0  0
 16 38  1  0  0  0  0
 17 18  1  0  0  0  0
 17 39  1  0  0  0  0
 17 40  1  0  0  0  0
 18 19  1  0  0  0  0
 18 41  1  0  0  0  0
 18 42  1  0  0  0  0
 19 24  1  0  0  0  0
 19 20  1  0  0  0  0
 19 52  1  0  0  0  0
 20 21  1  0  0  0  0
 20 43  1  0  0  0  0
 20 44  1  0  0  0  0
 21 22  1  0  0  0  0
 21 45  1  0  0  0  0
 21 46  1  0  0  0  0
 22 23  1  0  0  0  0
 22 47  1  0  0  0  0
 22 48  1  0  0  0  0
 23 24  1  0  0  0  0
 23 49  1  0  0  0  0
 23 50  1  0  0  0  0
 24 51  1  0  0  0  0
M  CHG  1  13   1
M  CHG  1  19   1
M  END
> <s_m_source_file>
AV-unprocessed.smi

> <i_m_source_file_index>
1867

> <i_lp_mmshare_version>
43012

> <i_f3d_flags>
0

> <s_epik_input>
W0NIMl0xW0NIMl1bQ0gyXVtDSDJdW0NASF0oTjEyKVtDQEBIXShbQ0gyXVtDSDJdMilbTkhdQyg9TylbTkhdYzNbY0hdW2NIXWMobltjSF0zKU40W0NIMl1bQ0gyXVtDSDJdW0NIMl00

> <s_epik_cmdline>
J2VwaWtfcHl0aG9uJywgJy1waCcsICc3LjAnLCAnLXRuJywgJzgnLCAnLW1hJywgJzIwMCcsICctbWV0YWxfYmluZGluZycsICctaW1hZScsICc8aW5maWxlLm1hZT4nLCAnLW9tYWUnLCAnPG91dGZpbGUubWFlPic=

> <r_lp_tautomer_probability>
0.999994

> <r_epik_Ionization_Penalty>
1.27347

> <r_epik_Ionization_Penalty_Charging>
1.27345

> <r_epik_Ionization_Penalty_Neutral>
1.96458e-05

> <r_epik_State_Penalty>
1.34393

> <r_epik_Charging_Adjusted_Penalty>
2.61738

> <i_epik_Tot_Q>
2

> <i_epik_Tot_abs_Q>
2

> <r_epik_Metal_State_Penalty>
1.41094

> <b_epik_Metal_Only>
0

> <s_lp_Force_Field>
OPLS_2005

> <r_lp_Energy>
89.9373

> <b_lp_Chiralities_Consistent>
1

> <s_lp_Variant>
AV-unprocessed.smi:1867-13

> <Gold.Version>
5.8.1

> <Gold.Id.Protein>
6NUR|6NUR_protein|mol2

> <Gold.PLP.Fitness>
48.5137

> <Gold.PLP.PLP>
-37.6082

> <Gold.PLP.part.hbond>
-3.0000

> <Gold.PLP.part.metal>
0.0000

> <Gold.PLP.part.buried>
2.1264

> <Gold.PLP.part.nonpolar>
-36.4245

> <Gold.PLP.part.repulsive>
0.3715

> <Gold.PLP.ligand.clash>
0.0000

> <Gold.PLP.ligand.torsion>
0.1751

> <Gold.PLP.Chemscore.Hbond>
3.7454

> <Gold.PLP.Chemscore.CHOScore>
0.0000

> <Gold.PLP.Chemscore.Metal>
0.0000

> <Gold.Chemscore.Hbonds>
donor molecule, donor type, donor heavy atom, donor atom, acceptor molecule, acceptor atom, score
      L1  H    13    53       P1  8028  2.00
      L1  H    15    37       P1  7948  1.00
      L1  H    19    52       P1 10171  0.67

> <Gold.PLP.Chemscore.Internal.Correction>
0.0195

> <Gold.Rescore>
     Score         DG    S(hbond)    S(metal)    S(lipo)     H(rot)  DE(clash)    DE(int)     intcor
     21.22     -25.23       2.70        0.00     117.77       1.20       2.50       1.51       ----

> <Gold.Chemscore.Fitness>
21.2196

> <Gold.Chemscore.DG>
-25.2252

> <Gold.Chemscore.ZeroCoef>
-5.4800

> <Gold.Chemscore.Hbond>
2.7023

> <Gold.Chemscore.Metal>
0.0000

> <Gold.Chemscore.Lipo>
117.7673

> <Gold.Chemscore.Internal_Hbond>
0.0000

> <Gold.Chemscore.DEClash>
2.4990

> <Gold.Chemscore.DEInternal>
1.5065

> <Gold.Chemscore.Rot>
1.1950

> <Gold.Chemscore.Internal.Correction>
   9.000000E+99

> <Gold.Chemscore.Hbonds>
donor molecule, donor type, donor heavy atom, donor atom, acceptor molecule, acceptor atom, score
      L1  H    13    53       P1  8028  1.00
      L1  H    15    37       P1  7948  0.97
      L1  H    19    52       P1 10171  0.66

> <Gold.Chemscore.Hbond.Weighted>
-9.0256

> <Gold.Chemscore.Metal.Weighted>
-0.0000

> <Gold.Chemscore.Lipo.Weighted>
-13.7788

> <Gold.Chemscore.Internal_Hbond.Weighted>
0.0000

> <Gold.Chemscore.DEClash.Weighted>
2.4990

> <Gold.Chemscore.DEInternal.Weighted>
1.5065

> <Gold.Chemscore.Rot.Weighted>
3.0593

> <Gold.Chemscore.Internal.Correction.Weighted>
   9.000000E+99

> <Gold.Protein.RotatedTorsions>
[ 6907 6896 6895 6894 ] final  -56.88 input  -60.11 | X-H torsion
[ 7974 7965 7964 7962 ] final    6.09 input  175.53 | X-H torsion
[ 8008 7997 7996 7995 ] final  -22.96 input   59.86 | X-H torsion
[ 10167 10162 10161 10158 ] final  -12.16 input  -65.29 | X-H torsion
[ 10718 10713 10712 10709 ] final   13.04 input   66.30 | X-H torsion
[ 10763 10752 10751 10750 ] final   39.64 input  -60.55 | X-H torsion
[ 11005 11000 10999 10996 ] final  162.09 input  -57.11 | X-H torsion

> <Gold.Protein.ActiveResidues>
 VAL166  LYS551  ARG553  GLY616  TRP617  ASP618  TYR619  PRO620  LYS621  CYS622 
 ASP623  PHE694  ASN695  SER759  ASP760  ASP761  ALA762  ILE779  LEU786  VAL792 
 PHE793  MET794  SER795  GLU796  ALA797  LYS798  CYS799  TRP800  GLU811  SER814 

> <Gold.Protein.RotatedAtoms>
  150.8131  134.7298  159.6705 H   0  0  0  0  0  0  0  0  0  0  0  0  # atno 6907 bound_to 6896
  152.4251  134.5881  159.9976 H   0  0  0  0  0  0  0  0  0  0  0  0  # atno 6908 bound_to 6896
  151.6085  133.3312  159.3098 H   0  0  0  0  0  0  0  0  0  0  0  0  # atno 6909 bound_to 6896
  146.2437  140.0286  142.8391 H   0  0  0  0  0  0  0  0  0  0  0  0  # atno 7974 bound_to 7965
  154.4613  140.1993  156.0238 H   0  0  0  0  0  0  0  0  0  0  0  0  # atno 8008 bound_to 7997
  156.0845  140.3267  155.7707 H   0  0  0  0  0  0  0  0  0  0  0  0  # atno 8009 bound_to 7997
  155.5058  140.0557  157.2922 H   0  0  0  0  0  0  0  0  0  0  0  0  # atno 8010 bound_to 7997
  140.7155  143.5562  150.9246 H   0  0  0  0  0  0  0  0  0  0  0  0  # atno 10167 bound_to 10162
  157.0189  130.6146  149.5718 H   0  0  0  0  0  0  0  0  0  0  0  0  # atno 10718 bound_to 10713
  152.9961  135.6215  154.2497 H   0  0  0  0  0  0  0  0  0  0  0  0  # atno 10763 bound_to 10752
  154.2236  135.2795  155.2917 H   0  0  0  0  0  0  0  0  0  0  0  0  # atno 10764 bound_to 10752
  154.5508  135.5734  153.6979 H   0  0  0  0  0  0  0  0  0  0  0  0  # atno 10765 bound_to 10752
  140.2223  134.8187  157.3232 H   0  0  0  0  0  0  0  0  0  0  0  0  # atno 11005 bound_to 11000
  145.1176  140.9443  143.4620 LP  0  0  0  0  0  0  0  0  0  0  0  0  # atno 17320 bound_to 7965
  145.0514  139.3179  143.5927 LP  0  0  0  0  0  0  0  0  0  0  0  0  # atno 17321 bound_to 7965
  139.9287  143.6519  152.3081 LP  0  0  0  0  0  0  0  0  0  0  0  0  # atno 17342 bound_to 10162
  139.6962  144.7641  151.1352 LP  0  0  0  0  0  0  0  0  0  0  0  0  # atno 17343 bound_to 10162
  156.0109  130.5201  150.7986 LP  0  0  0  0  0  0  0  0  0  0  0  0  # atno 17370 bound_to 10713
  157.5265  131.0934  151.0011 LP  0  0  0  0  0  0  0  0  0  0  0  0  # atno 17371 bound_to 10713
  140.1837  134.4458  155.7756 LP  0  0  0  0  0  0  0  0  0  0  0  0  # atno 17394 bound_to 11000
  141.2222  133.6995  156.7911 LP  0  0  0  0  0  0  0  0  0  0  0  0  # atno 17395 bound_to 11000

$$$$
