AV-unprocessed.smi:937|AV-procd|sdf|4214|dock9
  -GOLD-   22720 2123D 1   1.00000     0.00000
 Structure written by MMmdl.
 46 47  0  0  0  0  0  0  0  0  2 V2000
  153.8793  133.1933  165.2321 C   0  0  0  0  0  0  0  0  0  0  0  0
  154.1952  133.8422  163.9012 C   0  0  0  0  0  0  0  0  0  0  0  0
  154.5328  133.0862  162.7579 C   0  0  0  0  0  0  0  0  0  0  0  0
  154.8110  133.7546  161.5473 C   0  0  0  0  0  0  0  0  0  0  0  0
  154.7446  135.1644  161.5044 C   0  0  0  0  0  0  0  0  0  0  0  0
  155.0373  135.9158  160.2210 C   0  0  0  0  0  0  0  0  0  0  0  0
  156.1627  136.9480  160.3968 C   0  0  0  0  0  0  0  0  0  0  0  0
  155.7131  138.2888  160.0438 N   0  0  0  0  0  0  0  0  0  0  0  0
  154.6786  138.9266  160.6177 C   0  0  0  0  0  0  0  0  0  0  0  0
  154.0055  138.4405  161.5250 O   0  0  0  0  0  0  0  0  0  0  0  0
  154.4216  140.1501  160.1212 N   0  0  0  0  0  0  0  0  0  0  0  0
  153.3766  141.0946  160.5207 C   0  0  1  0  0  0  0  0  0  0  0  0
  153.7256  141.7573  161.8694 C   0  0  0  0  0  0  0  0  0  0  0  0
  152.6826  142.8151  162.2580 C   0  0  0  0  0  0  0  0  0  0  0  0
  152.5184  143.8699  161.1529 C   0  0  0  0  0  0  0  0  0  0  0  0
  152.1543  143.2234  159.7997 C   0  0  1  0  0  0  0  0  0  0  0  0
  151.9692  144.2759  158.6869 C   0  0  0  0  0  0  0  0  0  0  0  0
  151.1989  145.2801  159.1067 F   0  0  0  0  0  0  0  0  0  0  0  0
  153.1535  144.7657  158.3201 F   0  0  0  0  0  0  0  0  0  0  0  0
  151.4026  143.7158  157.6181 F   0  0  0  0  0  0  0  0  0  0  0  0
  153.2083  142.1605  159.4210 C   0  0  0  0  0  0  0  0  0  0  0  0
  154.4027  135.8680  162.6793 C   0  0  0  0  0  0  0  0  0  0  0  0
  154.1433  135.1907  163.8190 N   0  3  0  0  0  0  0  0  0  0  0  0
  154.3586  132.2171  165.3107 H   0  0  0  0  0  0  0  0  0  0  0  0
  152.8031  133.0563  165.3384 H   0  0  0  0  0  0  0  0  0  0  0  0
  154.2315  133.8105  166.0595 H   0  0  0  0  0  0  0  0  0  0  0  0
  154.5775  132.0078  162.8054 H   0  0  0  0  0  0  0  0  0  0  0  0
  155.0721  133.1903  160.6639 H   0  0  0  0  0  0  0  0  0  0  0  0
  155.3031  135.2020  159.4399 H   0  0  0  0  0  0  0  0  0  0  0  0
  154.1213  136.4064  159.8887 H   0  0  0  0  0  0  0  0  0  0  0  0
  156.5332  136.9406  161.4235 H   0  0  0  0  0  0  0  0  0  0  0  0
  157.0092  136.6908  159.7595 H   0  0  0  0  0  0  0  0  0  0  0  0
  156.2147  138.7632  159.3069 H   0  0  0  0  0  0  0  0  0  0  0  0
  155.0310  140.4661  159.3804 H   0  0  0  0  0  0  0  0  0  0  0  0
  152.4263  140.5662  160.6167 H   0  0  0  0  0  0  0  0  0  0  0  0
  153.7918  141.0068  162.6577 H   0  0  0  0  0  0  0  0  0  0  0  0
  154.7089  142.2257  161.8072 H   0  0  0  0  0  0  0  0  0  0  0  0
  151.7236  142.3313  162.4471 H   0  0  0  0  0  0  0  0  0  0  0  0
  152.9744  143.2981  163.1910 H   0  0  0  0  0  0  0  0  0  0  0  0
  151.7490  144.5840  161.4477 H   0  0  0  0  0  0  0  0  0  0  0  0
  153.4440  144.4382  161.0540 H   0  0  0  0  0  0  0  0  0  0  0  0
  151.1986  142.7116  159.9239 H   0  0  0  0  0  0  0  0  0  0  0  0
  154.1661  142.6486  159.2337 H   0  0  0  0  0  0  0  0  0  0  0  0
  152.9239  141.6752  158.4867 H   0  0  0  0  0  0  0  0  0  0  0  0
  154.3302  136.9443  162.7417 H   0  0  0  0  0  0  0  0  0  0  0  0
  153.8969  135.7214  164.6548 H   0  0  0  0  0  0  0  0  0  0  0  0
  1  2  1  0  0  0  0
  1 24  1  0  0  0  0
  1 25  1  0  0  0  0
  1 26  1  0  0  0  0
  2 23  1  0  0  0  0
  2  3  2  0  0  0  0
  3  4  1  0  0  0  0
  3 27  1  0  0  0  0
  4  5  2  0  0  0  0
  4 28  1  0  0  0  0
  5  6  1  0  0  0  0
  5 22  1  0  0  0  0
  6  7  1  0  0  0  0
  6 29  1  0  0  0  0
  6 30  1  0  0  0  0
  7  8  1  0  0  0  0
  7 31  1  0  0  0  0
  7 32  1  0  0  0  0
  8  9  1  0  0  0  0
  8 33  1  0  0  0  0
  9 10  2  0  0  0  0
  9 11  1  0  0  0  0
 11 12  1  0  0  0  0
 11 34  1  0  0  0  0
 12 21  1  0  0  0  0
 12 13  1  0  0  0  0
 12 35  1  0  0  0  0
 13 14  1  0  0  0  0
 13 36  1  0  0  0  0
 13 37  1  0  0  0  0
 14 15  1  0  0  0  0
 14 38  1  0  0  0  0
 14 39  1  0  0  0  0
 15 16  1  0  0  0  0
 15 40  1  0  0  0  0
 15 41  1  0  0  0  0
 16 17  1  0  0  0  0
 16 21  1  0  0  0  0
 16 42  1  0  0  0  0
 17 18  1  0  0  0  0
 17 19  1  0  0  0  0
 17 20  1  0  0  0  0
 21 43  1  0  0  0  0
 21 44  1  0  0  0  0
 22 23  2  0  0  0  0
 22 45  1  0  0  0  0
 23 46  1  0  0  0  0
M  CHG  1  23   1
M  END
> <s_m_source_file>
AV-unprocessed.smi

> <i_m_source_file_index>
937

> <i_lp_mmshare_version>
43012

> <i_f3d_flags>
0

> <s_epik_input>
W0NIM11jMVtjSF1bY0hdYyhbY0hdbjEpW0NIMl1bQ0gyXVtOSF1DKD1PKVtOSF1bQ0BASF0yW0NIMl1bQ0gyXVtDSDJdW0NAQEhdKEMoRikoRilGKVtDSDJdMg==

> <s_epik_cmdline>
J2VwaWtfcHl0aG9uJywgJy1waCcsICc3LjAnLCAnLXRuJywgJzgnLCAnLW1hJywgJzIwMCcsICctbWV0YWxfYmluZGluZycsICctaW1hZScsICc8aW5maWxlLm1hZT4nLCAnLW9tYWUnLCAnPG91dGZpbGUubWFlPic=

> <r_epik_Ionization_Penalty>
1.4226

> <r_epik_Ionization_Penalty_Charging>
1.42255

> <r_epik_Ionization_Penalty_Neutral>
5.16456e-05

> <r_epik_State_Penalty>
1.50646

> <r_epik_Charging_Adjusted_Penalty>
2.92901

> <i_epik_Tot_Q>
1

> <i_epik_Tot_abs_Q>
1

> <r_epik_Metal_State_Penalty>
1.55846

> <b_epik_Metal_Only>
0

> <s_lp_Force_Field>
OPLS_2005

> <r_lp_Energy>
24.5693

> <b_lp_Chiralities_Consistent>
1

> <s_lp_Variant>
AV-unprocessed.smi:937-6

> <Gold.Version>
5.8.1

> <Gold.Id.Protein>
6NUR|6NUR_protein|mol2

> <Gold.PLP.Fitness>
49.9710

> <Gold.PLP.PLP>
-51.4662

> <Gold.PLP.part.hbond>
0.0000

> <Gold.PLP.part.metal>
0.0000

> <Gold.PLP.part.buried>
-5.3018

> <Gold.PLP.part.nonpolar>
-45.6759

> <Gold.PLP.part.repulsive>
0.1164

> <Gold.PLP.ligand.clash>
0.0000

> <Gold.PLP.ligand.torsion>
0.7616

> <Gold.PLP.Chemscore.Hbond>
0.0000

> <Gold.PLP.Chemscore.CHOScore>
0.0000

> <Gold.PLP.Chemscore.Metal>
0.0000

> <Gold.PLP.Chemscore.Internal.Correction>
0.0280

> <Gold.Rescore>
     Score         DG    S(hbond)    S(metal)    S(lipo)     H(rot)  DE(clash)    DE(int)     intcor
     14.17     -14.90       0.00        0.00     116.82       1.66       0.01       0.72       ----

> <Gold.Chemscore.Fitness>
14.1726

> <Gold.Chemscore.DG>
-14.9019

> <Gold.Chemscore.ZeroCoef>
-5.4800

> <Gold.Chemscore.Hbond>
0.0000

> <Gold.Chemscore.Metal>
0.0000

> <Gold.Chemscore.Lipo>
116.8168

> <Gold.Chemscore.Internal_Hbond>
0.0000

> <Gold.Chemscore.DEClash>
0.0052

> <Gold.Chemscore.DEInternal>
0.7240

> <Gold.Chemscore.Rot>
1.6585

> <Gold.Chemscore.Internal.Correction>
   9.000000E+99

> <Gold.Chemscore.Hbond.Weighted>
-0.0000

> <Gold.Chemscore.Metal.Weighted>
-0.0000

> <Gold.Chemscore.Lipo.Weighted>
-13.6676

> <Gold.Chemscore.Internal_Hbond.Weighted>
0.0000

> <Gold.Chemscore.DEClash.Weighted>
0.0052

> <Gold.Chemscore.DEInternal.Weighted>
0.7240

> <Gold.Chemscore.Rot.Weighted>
4.2457

> <Gold.Chemscore.Internal.Correction.Weighted>
   9.000000E+99

> <Gold.Protein.RotatedTorsions>
[ 6907 6896 6895 6894 ] final   54.01 input  -60.11 | X-H torsion
[ 7974 7965 7964 7962 ] final   17.82 input  175.53 | X-H torsion
[ 8008 7997 7996 7995 ] final  -48.81 input   59.86 | X-H torsion
[ 10167 10162 10161 10158 ] final -135.55 input  -65.29 | X-H torsion
[ 10718 10713 10712 10709 ] final  -50.47 input   66.30 | X-H torsion
[ 10763 10752 10751 10750 ] final    7.01 input  -60.55 | X-H torsion
[ 11005 11000 10999 10996 ] final -148.86 input  -57.11 | X-H torsion

> <Gold.Protein.ActiveResidues>
 VAL166  LYS551  ARG553  GLY616  TRP617  ASP618  TYR619  PRO620  LYS621  CYS622 
 ASP623  PHE694  ASN695  SER759  ASP760  ASP761  ALA762  ILE779  LEU786  VAL792 
 PHE793  MET794  SER795  GLU796  ALA797  LYS798  CYS799  TRP800  GLU811  SER814 

> <Gold.Protein.RotatedAtoms>
  152.3395  134.7153  160.0267 H   0  0  0  0  0  0  0  0  0  0  0  0  # atno 6907 bound_to 6896
  151.7543  133.3324  159.3408 H   0  0  0  0  0  0  0  0  0  0  0  0  # atno 6908 bound_to 6896
  150.7471  134.6096  159.6123 H   0  0  0  0  0  0  0  0  0  0  0  0  # atno 6909 bound_to 6896
  146.2206  139.8547  142.8616 H   0  0  0  0  0  0  0  0  0  0  0  0  # atno 7974 bound_to 7965
  154.4034  140.1312  156.4400 H   0  0  0  0  0  0  0  0  0  0  0  0  # atno 8008 bound_to 7997
  155.7468  140.3489  155.5111 H   0  0  0  0  0  0  0  0  0  0  0  0  # atno 8009 bound_to 7997
  155.8987  140.1015  157.1356 H   0  0  0  0  0  0  0  0  0  0  0  0  # atno 8010 bound_to 7997
  139.8768  143.6889  152.2633 H   0  0  0  0  0  0  0  0  0  0  0  0  # atno 10167 bound_to 10162
  156.1798  130.4150  149.9524 H   0  0  0  0  0  0  0  0  0  0  0  0  # atno 10718 bound_to 10713
  153.2412  135.6903  153.7781 H   0  0  0  0  0  0  0  0  0  0  0  0  # atno 10763 bound_to 10752
  153.6910  135.3313  155.3203 H   0  0  0  0  0  0  0  0  0  0  0  0  # atno 10764 bound_to 10752
  154.8356  135.4545  154.1334 H   0  0  0  0  0  0  0  0  0  0  0  0  # atno 10765 bound_to 10752
  140.7568  134.3344  157.5112 H   0  0  0  0  0  0  0  0  0  0  0  0  # atno 11005 bound_to 11000
  145.2765  141.0125  143.3742 LP  0  0  0  0  0  0  0  0  0  0  0  0  # atno 17320 bound_to 7965
  144.9183  139.4443  143.6554 LP  0  0  0  0  0  0  0  0  0  0  0  0  # atno 17321 bound_to 7965
  139.7233  144.7598  151.0920 LP  0  0  0  0  0  0  0  0  0  0  0  0  # atno 17342 bound_to 10162
  140.7751  143.5180  150.9571 LP  0  0  0  0  0  0  0  0  0  0  0  0  # atno 17343 bound_to 10162
  156.7298  130.9039  151.3625 LP  0  0  0  0  0  0  0  0  0  0  0  0  # atno 17370 bound_to 10713
  157.6860  130.9186  150.0388 LP  0  0  0  0  0  0  0  0  0  0  0  0  # atno 17371 bound_to 10713
  139.8778  134.9177  156.3184 LP  0  0  0  0  0  0  0  0  0  0  0  0  # atno 17394 bound_to 11000
  140.9700  133.7333  156.0521 LP  0  0  0  0  0  0  0  0  0  0  0  0  # atno 17395 bound_to 11000

$$$$
