#       Name:                AV-unprocessed.smi:1324
#       Creating user name   scv26
#       Creation time:       Fri Mar 27 05:04:10 2020


#       File generated by GOLD software.
#

@<TRIPOS>MOLECULE
AV-unprocessed.smi:1324
    48    49     1
SMALL
NO_CHARGES


@<TRIPOS>ATOM
      1 ****        -6.6968  -1.1753   1.7822 C.3            1 S1                 0.0000
      2 ****        -5.1869  -1.0717   1.7580 C.2            1 S1                 0.0000
      3 ****        -4.6306   0.0274   2.1005 N.2            1 S1                 0.0000
      4 ****        -3.2291   0.1276   2.0839 C.2            1 S1                 0.0000
      5 ****        -2.6548   1.4669   2.5112 C.3            1 S1                 0.0000
      6 ****        -2.4507  -0.9270   1.7068 C.2            1 S1                 0.0000
      7 ****        -0.9228  -0.8732   1.6762 C.3            1 S1                 0.0000
      8 ****        -0.2867  -0.2762   0.4180 C.2            1 S1                 0.0000
      9 ****        -0.9858   0.1600  -0.4971 O.2            1 S1                 0.0000
     10 ****         1.0552  -0.2643   0.3899 N.am           1 S1                 0.0000
     11 ****         1.8783   0.2563  -0.7001 C.3            1 S1                 0.0000
     12 ****         1.9809  -0.8138  -1.8119 C.3            1 S1                 0.0000
     13 ****         3.0918  -0.6340  -2.8623 C.3            1 S1                 0.0000
     14 ****         3.4040   0.8154  -3.2654 C.3            1 S1                 0.0000
     15 ****         4.4186   1.4845  -2.3234 C.3            1 S1                 0.0000
     16 ****         3.8575   1.8794  -0.9497 C.3            1 S1                 0.0000
     17 ****         3.2342   0.7297  -0.1370 C.3            1 S1                 0.0000
     18 ****        -3.1313  -2.1726   1.3102 C.2            1 S1                 0.0000
     19 ****        -2.4769  -3.1479   0.9429 O.2            1 S1                 0.0000
     20 ****        -4.4937  -2.1939   1.3636 N.pl3          1 S1                -1.0000
     21 ****        -7.1564  -0.1900   1.8701 H              1 S1                 0.0000
     22 ****        -7.0174  -1.7814   2.6297 H              1 S1                 0.0000
     23 ****        -7.0627  -1.6397   0.8656 H              1 S1                 0.0000
     24 ****        -2.0822   1.3591   3.4327 H              1 S1                 0.0000
     25 ****        -3.4457   2.1962   2.6909 H              1 S1                 0.0000
     26 ****        -1.9995   1.8692   1.7384 H              1 S1                 0.0000
     27 ****        -0.5798  -0.2877   2.5291 H              1 S1                 0.0000
     28 ****        -0.5059  -1.8678   1.8393 H              1 S1                 0.0000
     29 ****         1.5450  -0.6460   1.1862 H              1 S1                 0.0000
     30 ****         1.3685   1.1314  -1.1076 H              1 S1                 0.0000
     31 ****         2.1076  -1.8005  -1.3636 H              1 S1                 0.0000
     32 ****         1.0210  -0.8536  -2.3287 H              1 S1                 0.0000
     33 ****         4.0052  -1.1141  -2.5091 H              1 S1                 0.0000
     34 ****         2.8030  -1.1942  -3.7525 H              1 S1                 0.0000
     35 ****         3.8429   0.7984  -4.2638 H              1 S1                 0.0000
     36 ****         2.4917   1.4069  -3.3514 H              1 S1                 0.0000
     37 ****         5.2862   0.8364  -2.1939 H              1 S1                 0.0000
     38 ****         4.7962   2.3865  -2.8058 H              1 S1                 0.0000
     39 ****         4.6697   2.3144  -0.3662 H              1 S1                 0.0000
     40 ****         3.1259   2.6792  -1.0713 H              1 S1                 0.0000
     41 ****         3.0839   1.1058   0.8762 H              1 S1                 0.0000
     42 ****         3.9301  -0.1048  -0.0426 H              1 S1                 0.0000
     43 ****        -5.1885   0.8095   2.3780 LP             1 S1                 0.0000
     44 ****        -1.9826   0.1270  -0.4241 LP             1 S1                 0.0000
     45 ****        -0.5568   0.5472  -1.3131 LP             1 S1                 0.0000
     46 ****        -1.4787  -3.0976   0.9126 LP             1 S1                 0.0000
     47 ****        -2.9434  -3.9908   0.6748 LP             1 S1                 0.0000
     48 ****        -4.9901  -3.0259   1.1159 LP             1 S1                 0.0000
@<TRIPOS>BOND
    1    1    2 1     
    2    1   21 1     
    3    1   22 1     
    4    1   23 1     
    5    2   20 1     
    6    2    3 2     
    7    3    4 1     
    8    4    5 1     
    9    4    6 2     
   10    5   24 1     
   11    5   25 1     
   12    5   26 1     
   13    6    7 1     
   14    6   18 1     
   15    7    8 1     
   16    7   27 1     
   17    7   28 1     
   18    8    9 2     
   19    8   10 am    
   20   10   11 1     
   21   10   29 1     
   22   11   17 1     
   23   11   12 1     
   24   11   30 1     
   25   12   13 1     
   26   12   31 1     
   27   12   32 1     
   28   13   14 1     
   29   13   33 1     
   30   13   34 1     
   31   14   15 1     
   32   14   35 1     
   33   14   36 1     
   34   15   16 1     
   35   15   37 1     
   36   15   38 1     
   37   16   17 1     
   38   16   39 1     
   39   16   40 1     
   40   17   41 1     
   41   17   42 1     
   42   18   19 2     
   43   18   20 1     
   44    3   43 1     
   45    9   44 1     
   46    9   45 1     
   47   19   46 1     
   48   19   47 1     
   49   20   48 1     
@<TRIPOS>SUBSTRUCTURE
      1 S1             1
@<TRIPOS>SET
LONE_PAIRS      STATIC     ATOMS    <user>   **** ""
6 43 44 45 46 47 48
DONOR_HYDROGENS      STATIC     ATOMS    <user>   **** ""
1 29
ATOM$BLUE        STATIC     ATOMS    COLORGROUP SYSTEM
6 43 44 45 46 47 48
ATOM$RED        STATIC     ATOMS    COLORGROUP SYSTEM
1 29
