AV-unprocessed.smi:133|AV-procd|sdf|1166|dock5
  -GOLD-   2262018303D 1   1.00000     0.00000
 Structure written by MMmdl.
 47 50  0  0  0  0  0  0  0  0  1 V2000
  153.0360  139.2453  156.8895 O   0  0  0  0  0  0  0  0  0  0  0  0
  152.1448  139.8467  156.2915 C   0  0  0  0  0  0  0  0  0  0  0  0
  151.7012  139.3120  154.9173 C   0  0  0  0  0  0  0  0  0  0  0  0
  150.5226  138.4144  154.9363 N   0  0  0  0  0  0  0  0  0  0  0  0
  150.7130  137.0491  155.2669 C   0  0  0  0  0  0  0  0  0  0  0  0
  151.8320  136.6068  155.5305 O   0  0  0  0  0  0  0  0  0  0  0  0
  149.5103  136.2237  155.2565 C   0  0  0  0  0  0  0  0  0  0  0  0
  149.5985  134.9148  155.5477 F   0  0  0  0  0  0  0  0  0  0  0  0
  148.3080  136.7532  154.9517 C   0  0  0  0  0  0  0  0  0  0  0  0
  148.1365  138.0882  154.6363 N   0  0  0  0  0  0  0  0  0  0  0  0
  146.7715  138.6359  154.2892 C   0  0  1  0  0  0  0  0  0  0  0  0
  146.7535  139.1419  152.8416 C   0  0  0  0  0  0  0  0  0  0  0  0
  146.1005  137.9890  152.1087 C   0  0  0  0  0  0  0  0  0  0  0  0
  145.1336  137.4641  153.1626 C   0  0  0  0  0  0  0  0  0  0  0  0
  145.8316  137.6052  154.3953 O   0  0  0  0  0  0  0  0  0  0  0  0
  149.2547  138.9493  154.6045 C   0  0  0  0  0  0  0  0  0  0  0  0
  149.1313  140.1326  154.2817 O   0  0  0  0  0  0  0  0  0  0  0  0
  151.5436  140.9609  156.7546 N   0  0  0  0  0  0  0  0  0  0  0  0
  151.7762  141.6576  157.9701 C   0  0  0  0  0  0  0  0  0  0  0  0
  151.3338  142.9896  158.2048 C   0  0  0  0  0  0  0  0  0  0  0  0
  151.6063  143.6346  159.4313 C   0  0  0  0  0  0  0  0  0  0  0  0
  152.3333  142.9330  160.4073 C   0  0  0  0  0  0  0  0  0  0  0  0
  152.7839  141.6401  160.1772 C   0  0  0  0  0  0  0  0  0  0  0  0
  152.5233  140.9821  158.9630 C   0  0  0  0  0  0  0  0  0  0  0  0
  153.5407  141.0987  161.3590 C   0  0  0  0  0  0  0  0  0  0  0  0
  153.6611  142.3125  162.3122 C   0  0  0  0  0  0  0  0  0  0  0  0
  152.7279  143.4237  161.7733 C   0  0  0  0  0  0  0  0  0  0  0  0
  151.5216  140.1689  154.2663 H   0  0  0  0  0  0  0  0  0  0  0  0
  152.5577  138.8162  154.4576 H   0  0  0  0  0  0  0  0  0  0  0  0
  147.4511  136.0957  154.9519 H   0  0  0  0  0  0  0  0  0  0  0  0
  146.5448  139.4070  155.0270 H   0  0  0  0  0  0  0  0  0  0  0  0
  146.1243  140.0313  152.7925 H   0  0  0  0  0  0  0  0  0  0  0  0
  147.7499  139.3939  152.4756 H   0  0  0  0  0  0  0  0  0  0  0  0
  145.6030  138.2939  151.1876 H   0  0  0  0  0  0  0  0  0  0  0  0
  146.8418  137.2278  151.8623 H   0  0  0  0  0  0  0  0  0  0  0  0
  144.2331  138.0792  153.1939 H   0  0  0  0  0  0  0  0  0  0  0  0
  144.8356  136.4304  152.9855 H   0  0  0  0  0  0  0  0  0  0  0  0
  150.8936  141.4028  156.1213 H   0  0  0  0  0  0  0  0  0  0  0  0
  150.7930  143.5408  157.4512 H   0  0  0  0  0  0  0  0  0  0  0  0
  151.2672  144.6440  159.6117 H   0  0  0  0  0  0  0  0  0  0  0  0
  152.8811  139.9757  158.7998 H   0  0  0  0  0  0  0  0  0  0  0  0
  152.9683  140.2913  161.8165 H   0  0  0  0  0  0  0  0  0  0  0  0
  154.5158  140.7111  161.0623 H   0  0  0  0  0  0  0  0  0  0  0  0
  153.4507  142.0541  163.3504 H   0  0  0  0  0  0  0  0  0  0  0  0
  154.6883  142.6778  162.2778 H   0  0  0  0  0  0  0  0  0  0  0  0
  153.2285  144.3909  161.7186 H   0  0  0  0  0  0  0  0  0  0  0  0
  151.8360  143.5265  162.3921 H   0  0  0  0  0  0  0  0  0  0  0  0
  1  2  2  0  0  0  0
  2  3  1  0  0  0  0
  2 18  1  0  0  0  0
  3  4  1  0  0  0  0
  3 28  1  0  0  0  0
  3 29  1  0  0  0  0
  4 16  1  0  0  0  0
  4  5  1  0  0  0  0
  5  6  2  0  0  0  0
  5  7  1  0  0  0  0
  7  8  1  0  0  0  0
  7  9  2  0  0  0  0
  9 10  1  0  0  0  0
  9 30  1  0  0  0  0
 10 11  1  0  0  0  0
 10 16  1  0  0  0  0
 11 15  1  0  0  0  0
 11 12  1  0  0  0  0
 11 31  1  0  0  0  0
 12 13  1  0  0  0  0
 12 32  1  0  0  0  0
 12 33  1  0  0  0  0
 13 14  1  0  0  0  0
 13 34  1  0  0  0  0
 13 35  1  0  0  0  0
 14 15  1  0  0  0  0
 14 36  1  0  0  0  0
 14 37  1  0  0  0  0
 16 17  2  0  0  0  0
 18 19  1  0  0  0  0
 18 38  1  0  0  0  0
 19 24  1  0  0  0  0
 19 20  2  0  0  0  0
 20 21  1  0  0  0  0
 20 39  1  0  0  0  0
 21 22  2  0  0  0  0
 21 40  1  0  0  0  0
 22 27  1  0  0  0  0
 22 23  1  0  0  0  0
 23 24  2  0  0  0  0
 23 25  1  0  0  0  0
 24 41  1  0  0  0  0
 25 26  1  0  0  0  0
 25 42  1  0  0  0  0
 25 43  1  0  0  0  0
 26 27  1  0  0  0  0
 26 44  1  0  0  0  0
 26 45  1  0  0  0  0
 27 46  1  0  0  0  0
 27 47  1  0  0  0  0
M  END
> <s_m_source_file>
AV-unprocessed.smi

> <i_m_source_file_index>
133

> <i_lp_mmshare_version>
43012

> <i_f3d_flags>
0

> <s_epik_input>
W0NIMl0xW0NIMl1bQ0gyXWMoYzEyKVtjSF1jKFtjSF1bY0hdMilbTkhdQyg9TylbQ0gyXW4zYyg9TyljKEYpW2NIXW4oYzM9TylbQ0BASF00W0NIMl1bQ0gyXVtDSDJdTzQ=

> <s_epik_cmdline>
J2VwaWtfcHl0aG9uJywgJy1waCcsICc3LjAnLCAnLXRuJywgJzgnLCAnLW1hJywgJzIwMCcsICctbWV0YWxfYmluZGluZycsICctaW1hZScsICc8aW5maWxlLm1hZT4nLCAnLW9tYWUnLCAnPG91dGZpbGUubWFlPic=

> <r_lp_tautomer_probability>
1

> <r_epik_Ionization_Penalty>
4.05675e-06

> <r_epik_Ionization_Penalty_Charging>
3.88729e-08

> <r_epik_Ionization_Penalty_Neutral>
4.01788e-06

> <r_epik_State_Penalty>
-0

> <r_epik_Charging_Adjusted_Penalty>
3.88729e-08

> <i_epik_Tot_Q>
0

> <i_epik_Tot_abs_Q>
0

> <r_epik_Metal_State_Penalty>
-0

> <b_epik_Metal_Only>
0

> <s_epik_Chemistry_Notes>
This compound contains an acetal/aminal-like group ( X-CH(R)-Y where X, Y are N, S, or O) that may be acid/base labile, releasing an aldehyde.

> <s_lp_Force_Field>
OPLS_2005

> <r_lp_Energy>
47.0615

> <b_lp_Chiralities_Consistent>
1

> <s_lp_Variant>
AV-unprocessed.smi:133-2

> <Gold.Version>
5.8.1

> <Gold.Id.Protein>
6NUR|6NUR_protein|mol2

> <Gold.PLP.Fitness>
54.8670

> <Gold.PLP.PLP>
-50.2749

> <Gold.PLP.part.hbond>
-2.0000

> <Gold.PLP.part.metal>
0.0000

> <Gold.PLP.part.buried>
-3.8373

> <Gold.PLP.part.nonpolar>
-44.1322

> <Gold.PLP.part.repulsive>
1.0288

> <Gold.PLP.ligand.clash>
0.0000

> <Gold.PLP.ligand.torsion>
0.7138

> <Gold.PLP.Chemscore.Hbond>
2.0000

> <Gold.PLP.Chemscore.CHOScore>
0.0000

> <Gold.PLP.Chemscore.Metal>
0.0000

> <Gold.Chemscore.Hbonds>
donor molecule, donor type, donor heavy atom, donor atom, acceptor molecule, acceptor atom, score
      P1  H  7997  8010       L1     1  1.00
      P1  H 10752 10764       L1     6  1.00

> <Gold.PLP.Chemscore.Internal.Correction>
0.0198

> <Gold.Rescore>
     Score         DG    S(hbond)    S(metal)    S(lipo)     H(rot)  DE(clash)    DE(int)     intcor
     18.60     -21.90       1.98        0.00     118.63       1.59       0.22       3.07       ----

> <Gold.Chemscore.Fitness>
18.5988

> <Gold.Chemscore.DG>
-21.8966

> <Gold.Chemscore.ZeroCoef>
-5.4800

> <Gold.Chemscore.Hbond>
1.9757

> <Gold.Chemscore.Metal>
0.0000

> <Gold.Chemscore.Lipo>
118.6343

> <Gold.Chemscore.Internal_Hbond>
0.0000

> <Gold.Chemscore.DEClash>
0.2229

> <Gold.Chemscore.DEInternal>
3.0750

> <Gold.Chemscore.Rot>
1.5869

> <Gold.Chemscore.Internal.Correction>
   9.000000E+99

> <Gold.Chemscore.Hbonds>
donor molecule, donor type, donor heavy atom, donor atom, acceptor molecule, acceptor atom, score
      P1  H  7997  8010       L1     1  0.39
      P1  H 10752 10764       L1     6  0.99

> <Gold.Chemscore.Hbond.Weighted>
-6.5988

> <Gold.Chemscore.Metal.Weighted>
-0.0000

> <Gold.Chemscore.Lipo.Weighted>
-13.8802

> <Gold.Chemscore.Internal_Hbond.Weighted>
0.0000

> <Gold.Chemscore.DEClash.Weighted>
0.2229

> <Gold.Chemscore.DEInternal.Weighted>
3.0750

> <Gold.Chemscore.Rot.Weighted>
4.0624

> <Gold.Chemscore.Internal.Correction.Weighted>
   9.000000E+99

> <Gold.Protein.RotatedTorsions>
[ 6907 6896 6895 6894 ] final   67.33 input  -60.11 | X-H torsion
[ 7974 7965 7964 7962 ] final   49.66 input  175.53 | X-H torsion
[ 8008 7997 7996 7995 ] final   68.56 input   59.86 | X-H torsion
[ 10167 10162 10161 10158 ] final -162.38 input  -65.29 | X-H torsion
[ 10718 10713 10712 10709 ] final -157.95 input   66.30 | X-H torsion
[ 10763 10752 10751 10750 ] final  -55.71 input  -60.55 | X-H torsion
[ 11005 11000 10999 10996 ] final  130.15 input  -57.11 | X-H torsion

> <Gold.Protein.ActiveResidues>
 VAL166  LYS551  ARG553  GLY616  TRP617  ASP618  TYR619  PRO620  LYS621  CYS622 
 ASP623  PHE694  ASN695  SER759  ASP760  ASP761  ALA762  ILE779  LEU786  VAL792 
 PHE793  MET794  SER795  GLU796  ALA797  LYS798  CYS799  TRP800  GLU811  SER814 

> <Gold.Protein.RotatedAtoms>
  152.4545  134.5322  159.9814 H   0  0  0  0  0  0  0  0  0  0  0  0  # atno 6907 bound_to 6896
  151.5387  133.3430  159.2939 H   0  0  0  0  0  0  0  0  0  0  0  0  # atno 6908 bound_to 6896
  150.8484  134.7832  159.7052 H   0  0  0  0  0  0  0  0  0  0  0  0  # atno 6909 bound_to 6896
  146.0087  139.4519  142.9969 H   0  0  0  0  0  0  0  0  0  0  0  0  # atno 7974 bound_to 7965
  155.7101  140.3494  155.4970 H   0  0  0  0  0  0  0  0  0  0  0  0  # atno 8008 bound_to 7997
  155.9363  140.1093  157.1114 H   0  0  0  0  0  0  0  0  0  0  0  0  # atno 8009 bound_to 7997
  154.4094  140.1221  156.4855 H   0  0  0  0  0  0  0  0  0  0  0  0  # atno 8010 bound_to 7997
  139.6397  144.0284  152.2082 H   0  0  0  0  0  0  0  0  0  0  0  0  # atno 10167 bound_to 10162
  156.5474  130.8590  151.2769 H   0  0  0  0  0  0  0  0  0  0  0  0  # atno 10718 bound_to 10713
  154.1950  135.6421  153.5071 H   0  0  0  0  0  0  0  0  0  0  0  0  # atno 10763 bound_to 10752
  153.0025  135.5438  154.6375 H   0  0  0  0  0  0  0  0  0  0  0  0  # atno 10764 bound_to 10752
  154.5773  135.2922  155.0740 H   0  0  0  0  0  0  0  0  0  0  0  0  # atno 10765 bound_to 10752
  139.9656  134.9591  156.9252 H   0  0  0  0  0  0  0  0  0  0  0  0  # atno 11005 bound_to 11000
  145.7375  141.0020  143.1319 LP  0  0  0  0  0  0  0  0  0  0  0  0  # atno 17320 bound_to 7965
  144.6945  139.9059  143.7461 LP  0  0  0  0  0  0  0  0  0  0  0  0  # atno 17321 bound_to 7965
  139.9970  144.6321  150.7763 LP  0  0  0  0  0  0  0  0  0  0  0  0  # atno 17342 bound_to 10162
  140.7484  143.2922  151.3301 LP  0  0  0  0  0  0  0  0  0  0  0  0  # atno 17343 bound_to 10162
  157.7394  130.9831  150.2311 LP  0  0  0  0  0  0  0  0  0  0  0  0  # atno 17370 bound_to 10713
  156.2915  130.3746  149.7837 LP  0  0  0  0  0  0  0  0  0  0  0  0  # atno 17371 bound_to 10713
  140.5405  134.0725  155.7340 LP  0  0  0  0  0  0  0  0  0  0  0  0  # atno 17394 bound_to 11000
  141.1335  133.9261  157.2484 LP  0  0  0  0  0  0  0  0  0  0  0  0  # atno 17395 bound_to 11000

$$$$
