AV-unprocessed.smi:232|AV-procd|sdf|1767|dock5
  -GOLD-   2262020303D 1   1.00000     0.00000
 Structure written by MMmdl.
 52 55  0  0  0  0  0  0  0  0  1 V2000
  153.7235  137.7537  160.8605 C   0  0  0  0  0  0  0  0  0  0  0  0
  152.8711  138.4365  159.7822 C   0  0  0  0  0  0  0  0  0  0  0  0
  153.2525  139.8994  159.4589 C   0  0  2  0  0  0  0  0  0  0  0  0
  153.5805  140.6877  160.7298 C   0  0  0  0  0  0  0  0  0  0  0  0
  153.3559  142.1336  160.3052 C   0  0  0  0  0  0  0  0  0  0  0  0
  152.1720  142.0502  159.3324 C   0  0  1  0  0  0  0  0  0  0  0  0
  152.2361  143.1591  158.2600 C   0  0  0  0  0  0  0  0  0  0  0  0
  152.1800  140.6712  158.8300 N   0  0  0  0  0  0  0  0  0  0  0  0
  151.8000  140.4357  157.5518 C   0  0  0  0  0  0  0  0  0  0  0  0
  152.5880  139.6869  156.7369 N   0  0  0  0  0  0  0  0  0  0  0  0
  152.2253  139.4730  155.4687 C   0  0  0  0  0  0  0  0  0  0  0  0
  151.1422  139.9130  154.8243 N   0  0  0  0  0  0  0  0  0  0  0  0
  150.3529  140.6689  155.6406 C   0  0  0  0  0  0  0  0  0  0  0  0
  150.6045  140.9743  157.0066 C   0  0  0  0  0  0  0  0  0  0  0  0
  149.5810  141.7625  157.5169 N   0  0  0  0  0  0  0  0  0  0  0  0
  148.7697  141.9182  156.5067 C   0  0  0  0  0  0  0  0  0  0  0  0
  149.1677  141.3143  155.3344 N   0  0  0  0  0  0  0  0  0  0  0  0
  148.4623  141.3326  154.0648 C   0  0  0  0  0  0  0  0  0  0  0  0
  147.0522  140.7010  154.1272 C   0  0  2  0  0  0  0  0  0  0  0  0
  146.7456  140.3220  152.8008 O   0  0  0  0  0  0  0  0  0  0  0  0
  145.9210  141.6413  154.6061 C   0  0  2  0  0  0  0  0  0  0  0  0
  145.9674  143.0803  154.0813 C   0  0  0  0  0  0  0  0  0  0  0  0
  145.2697  143.8962  155.1580 C   0  0  0  0  0  0  0  0  0  0  0  0
  145.1986  142.9443  156.3514 C   0  0  0  0  0  0  0  0  0  0  0  0
  146.0561  141.8685  156.0021 O   0  0  0  0  0  0  0  0  0  0  0  0
  153.2974  136.7875  161.1304 H   0  0  0  0  0  0  0  0  0  0  0  0
  153.7745  138.3582  161.7662 H   0  0  0  0  0  0  0  0  0  0  0  0
  154.7401  137.5693  160.5156 H   0  0  0  0  0  0  0  0  0  0  0  0
  152.8845  137.8372  158.8709 H   0  0  0  0  0  0  0  0  0  0  0  0
  151.8377  138.4258  160.1305 H   0  0  0  0  0  0  0  0  0  0  0  0
  154.1313  139.9171  158.8125 H   0  0  0  0  0  0  0  0  0  0  0  0
  152.8829  140.4320  161.5289 H   0  0  0  0  0  0  0  0  0  0  0  0
  154.5918  140.5035  161.0931 H   0  0  0  0  0  0  0  0  0  0  0  0
  153.1641  142.7992  161.1472 H   0  0  0  0  0  0  0  0  0  0  0  0
  154.2470  142.4954  159.7898 H   0  0  0  0  0  0  0  0  0  0  0  0
  151.2482  142.1659  159.9002 H   0  0  0  0  0  0  0  0  0  0  0  0
  152.3018  144.1417  158.7276 H   0  0  0  0  0  0  0  0  0  0  0  0
  151.3488  143.1672  157.6273 H   0  0  0  0  0  0  0  0  0  0  0  0
  153.1084  143.0420  157.6160 H   0  0  0  0  0  0  0  0  0  0  0  0
  152.9020  138.8660  154.8858 H   0  0  0  0  0  0  0  0  0  0  0  0
  147.8574  142.4915  156.5864 H   0  0  0  0  0  0  0  0  0  0  0  0
  148.4023  142.3592  153.7007 H   0  0  0  0  0  0  0  0  0  0  0  0
  149.0826  140.7886  153.3508 H   0  0  0  0  0  0  0  0  0  0  0  0
  147.0751  139.7993  154.7402 H   0  0  0  0  0  0  0  0  0  0  0  0
  145.8064  140.2620  152.7150 H   0  0  0  0  0  0  0  0  0  0  0  0
  144.9407  141.2068  154.3988 H   0  0  0  0  0  0  0  0  0  0  0  0
  147.0005  143.4179  153.9910 H   0  0  0  0  0  0  0  0  0  0  0  0
  145.4879  143.1886  153.1088 H   0  0  0  0  0  0  0  0  0  0  0  0
  145.8420  144.7942  155.3936 H   0  0  0  0  0  0  0  0  0  0  0  0
  144.2705  144.2048  154.8485 H   0  0  0  0  0  0  0  0  0  0  0  0
  145.5135  143.4138  157.2837 H   0  0  0  0  0  0  0  0  0  0  0  0
  144.1834  142.5671  156.4837 H   0  0  0  0  0  0  0  0  0  0  0  0
  1  2  1  0  0  0  0
  1 26  1  0  0  0  0
  1 27  1  0  0  0  0
  1 28  1  0  0  0  0
  2  3  1  0  0  0  0
  2 29  1  0  0  0  0
  2 30  1  0  0  0  0
  3  8  1  0  0  0  0
  3  4  1  0  0  0  0
  3 31  1  0  0  0  0
  4  5  1  0  0  0  0
  4 32  1  0  0  0  0
  4 33  1  0  0  0  0
  5  6  1  0  0  0  0
  5 34  1  0  0  0  0
  5 35  1  0  0  0  0
  6  7  1  0  0  0  0
  6  8  1  0  0  0  0
  6 36  1  0  0  0  0
  7 37  1  0  0  0  0
  7 38  1  0  0  0  0
  7 39  1  0  0  0  0
  8  9  1  0  0  0  0
  9 14  1  0  0  0  0
  9 10  2  0  0  0  0
 10 11  1  0  0  0  0
 11 12  2  0  0  0  0
 11 40  1  0  0  0  0
 12 13  1  0  0  0  0
 13 17  1  0  0  0  0
 13 14  2  0  0  0  0
 14 15  1  0  0  0  0
 15 16  2  0  0  0  0
 16 17  1  0  0  0  0
 16 41  1  0  0  0  0
 17 18  1  0  0  0  0
 18 19  1  0  0  0  0
 18 42  1  0  0  0  0
 18 43  1  0  0  0  0
 19 20  1  0  0  0  0
 19 21  1  0  0  0  0
 19 44  1  0  0  0  0
 20 45  1  0  0  0  0
 21 25  1  0  0  0  0
 21 22  1  0  0  0  0
 21 46  1  0  0  0  0
 22 23  1  0  0  0  0
 22 47  1  0  0  0  0
 22 48  1  0  0  0  0
 23 24  1  0  0  0  0
 23 49  1  0  0  0  0
 23 50  1  0  0  0  0
 24 25  1  0  0  0  0
 24 51  1  0  0  0  0
 24 52  1  0  0  0  0
M  END
> <s_m_source_file>
AV-unprocessed.smi

> <i_m_source_file_index>
232

> <i_lp_mmshare_version>
43012

> <i_f3d_flags>
0

> <s_epik_input>
W0NIM11bQ0gyXVtDQEBIXTFbQ0gyXVtDSDJdW0NAQEhdKFtDSDNdKU4xYyhuW2NIXW4yKWMoYzIzKW5bY0hdbjNbQ0gyXVtDQEhdKFtPSF0pW0NAQEhdNFtDSDJdW0NIMl1bQ0gyXU80

> <s_epik_cmdline>
J2VwaWtfcHl0aG9uJywgJy1waCcsICc3LjAnLCAnLXRuJywgJzgnLCAnLW1hJywgJzIwMCcsICctbWV0YWxfYmluZGluZycsICctaW1hZScsICc8aW5maWxlLm1hZT4nLCAnLW9tYWUnLCAnPG91dGZpbGUubWFlPic=

> <r_lp_tautomer_probability>
1

> <r_epik_Ionization_Penalty>
0.00258048

> <r_epik_Ionization_Penalty_Charging>
0

> <r_epik_Ionization_Penalty_Neutral>
0.00258048

> <r_epik_State_Penalty>
0.00168551

> <r_epik_Charging_Adjusted_Penalty>
0.00168551

> <i_epik_Tot_Q>
0

> <i_epik_Tot_abs_Q>
0

> <r_epik_Metal_State_Penalty>
-0

> <b_epik_Metal_Only>
0

> <s_lp_Force_Field>
OPLS_2005

> <r_lp_Energy>
58.3797

> <b_lp_Chiralities_Consistent>
1

> <s_lp_Variant>
AV-unprocessed.smi:232-1

> <Gold.Version>
5.8.1

> <Gold.Id.Protein>
6NUR|6NUR_protein|mol2

> <Gold.PLP.Fitness>
54.7306

> <Gold.PLP.PLP>
-47.1185

> <Gold.PLP.part.hbond>
-3.0000

> <Gold.PLP.part.metal>
0.0000

> <Gold.PLP.part.buried>
-5.8213

> <Gold.PLP.part.nonpolar>
-38.9790

> <Gold.PLP.part.repulsive>
0.2508

> <Gold.PLP.ligand.clash>
0.0000

> <Gold.PLP.ligand.torsion>
1.1361

> <Gold.PLP.Chemscore.Hbond>
2.9425

> <Gold.PLP.Chemscore.CHOScore>
0.1666

> <Gold.PLP.Chemscore.Metal>
0.0000

> <Gold.Chemscore.Hbonds>
donor molecule, donor type, donor heavy atom, donor atom, acceptor molecule, acceptor atom, score
      L1  H    20    45       P1 10175  0.71
      P1  H  7989  7998       L1    12  1.00
      P1  H  7997  8008       L1    10  1.00
      L1  C    16    41       P1  8028  0.27

> <Gold.PLP.Chemscore.Internal.Correction>
0.5572

> <Gold.Rescore>
     Score         DG    S(hbond)    S(metal)    S(lipo)     H(rot)  DE(clash)    DE(int)     intcor
     13.34     -17.57       2.03        0.00      92.92       2.18       0.35       3.87       ----

> <Gold.Chemscore.Fitness>
13.3418

> <Gold.Chemscore.DG>
-17.5684

> <Gold.Chemscore.ZeroCoef>
-5.4800

> <Gold.Chemscore.Hbond>
2.0334

> <Gold.Chemscore.Metal>
0.0000

> <Gold.Chemscore.Lipo>
92.9151

> <Gold.Chemscore.Internal_Hbond>
0.0000

> <Gold.Chemscore.DEClash>
0.3526

> <Gold.Chemscore.DEInternal>
3.8740

> <Gold.Chemscore.Rot>
2.1775

> <Gold.Chemscore.Internal.Correction>
   9.000000E+99

> <Gold.Chemscore.Hbonds>
donor molecule, donor type, donor heavy atom, donor atom, acceptor molecule, acceptor atom, score
      L1  H    20    45       P1 10175  0.60
      P1  H  7989  7998       L1    12  0.49
      P1  H  7997  8008       L1    10  0.38

> <Gold.Chemscore.Hbond.Weighted>
-6.7917

> <Gold.Chemscore.Metal.Weighted>
-0.0000

> <Gold.Chemscore.Lipo.Weighted>
-10.8711

> <Gold.Chemscore.Internal_Hbond.Weighted>
0.0000

> <Gold.Chemscore.DEClash.Weighted>
0.3526

> <Gold.Chemscore.DEInternal.Weighted>
3.8740

> <Gold.Chemscore.Rot.Weighted>
5.5744

> <Gold.Chemscore.Internal.Correction.Weighted>
   9.000000E+99

> <Gold.Protein.RotatedTorsions>
[ 6907 6896 6895 6894 ] final -157.14 input  -60.11 | X-H torsion
[ 7974 7965 7964 7962 ] final  -69.38 input  175.53 | X-H torsion
[ 8008 7997 7996 7995 ] final  -56.99 input   59.86 | X-H torsion
[ 10167 10162 10161 10158 ] final -147.72 input  -65.29 | X-H torsion
[ 10718 10713 10712 10709 ] final   11.28 input   66.30 | X-H torsion
[ 10763 10752 10751 10750 ] final  133.90 input  -60.55 | X-H torsion
[ 11005 11000 10999 10996 ] final  -71.39 input  -57.11 | X-H torsion

> <Gold.Protein.ActiveResidues>
 VAL166  LYS551  ARG553  GLY616  TRP617  ASP618  TYR619  PRO620  LYS621  CYS622 
 ASP623  PHE694  ASN695  SER759  ASP760  ASP761  ALA762  ILE779  LEU786  VAL792 
 PHE793  MET794  SER795  GLU796  ALA797  LYS798  CYS799  TRP800  GLU811  SER814 

> <Gold.Protein.RotatedAtoms>
  151.2983  133.4134  159.2637 H   0  0  0  0  0  0  0  0  0  0  0  0  # atno 6907 bound_to 6896
  151.0217  134.9474  159.8073 H   0  0  0  0  0  0  0  0  0  0  0  0  # atno 6908 bound_to 6896
  152.5326  134.2946  159.9108 H   0  0  0  0  0  0  0  0  0  0  0  0  # atno 6909 bound_to 6896
  145.7045  140.9103  143.0713 H   0  0  0  0  0  0  0  0  0  0  0  0  # atno 7974 bound_to 7965
  154.4251  140.1117  156.5726 H   0  0  0  0  0  0  0  0  0  0  0  0  # atno 8008 bound_to 7997
  155.6196  140.3495  155.4629 H   0  0  0  0  0  0  0  0  0  0  0  0  # atno 8009 bound_to 7997
  156.0035  140.1204  157.0514 H   0  0  0  0  0  0  0  0  0  0  0  0  # atno 8010 bound_to 7997
  139.7596  143.8396  152.2604 H   0  0  0  0  0  0  0  0  0  0  0  0  # atno 10167 bound_to 10162
  156.9933  130.6051  149.5688 H   0  0  0  0  0  0  0  0  0  0  0  0  # atno 10718 bound_to 10713
  153.8147  135.3124  155.3404 H   0  0  0  0  0  0  0  0  0  0  0  0  # atno 10763 bound_to 10752
  154.8037  135.4711  154.0342 H   0  0  0  0  0  0  0  0  0  0  0  0  # atno 10764 bound_to 10752
  153.1731  135.6881  153.8669 H   0  0  0  0  0  0  0  0  0  0  0  0  # atno 10765 bound_to 10752
  141.1591  133.6816  156.6898 H   0  0  0  0  0  0  0  0  0  0  0  0  # atno 11005 bound_to 11000
  144.6959  139.8992  143.7457 LP  0  0  0  0  0  0  0  0  0  0  0  0  # atno 17320 bound_to 7965
  146.0768  139.3756  143.0489 LP  0  0  0  0  0  0  0  0  0  0  0  0  # atno 17321 bound_to 7965
  139.8399  144.7215  150.9345 LP  0  0  0  0  0  0  0  0  0  0  0  0  # atno 17342 bound_to 10162
  140.7806  143.3993  151.1176 LP  0  0  0  0  0  0  0  0  0  0  0  0  # atno 17343 bound_to 10162
  156.0199  130.5294  150.8244 LP  0  0  0  0  0  0  0  0  0  0  0  0  # atno 17370 bound_to 10713
  157.5443  131.0942  150.9784 LP  0  0  0  0  0  0  0  0  0  0  0  0  # atno 17371 bound_to 10713
  140.3039  134.8141  157.4121 LP  0  0  0  0  0  0  0  0  0  0  0  0  # atno 17394 bound_to 11000
  140.1237  134.5185  155.8162 LP  0  0  0  0  0  0  0  0  0  0  0  0  # atno 17395 bound_to 11000

$$$$
