#       Name:                AV-unprocessed.smi:27
#       Creating user name   scv26
#       Creation time:       Thu Mar 26 15:45:31 2020


#       File generated by GOLD software.
#

@<TRIPOS>MOLECULE
AV-unprocessed.smi:27
    61    64     1
SMALL
NO_CHARGES


@<TRIPOS>ATOM
      1 ****        -0.3531   0.2598   0.8334 O.2            1 S1                 0.0000
      2 ****         0.2428  -0.5812   0.1583 C.2            1 S1                 0.0000
      3 ****         1.7565  -0.4798  -0.0828 C.3            1 S1                 0.0000
      4 ****         2.3585   0.7582   0.4580 N.am           1 S1                 0.0000
      5 ****         2.8451   0.7529   1.7887 C.2            1 S1                 0.0000
      6 ****         2.7817  -0.2594   2.4880 O.2            1 S1                 0.0000
      7 ****         3.4091   2.0136   2.2576 C.2            1 S1                 0.0000
      8 ****         3.9064   2.0968   3.5033 F              1 S1                 0.0000
      9 ****         3.4423   3.1006   1.4593 C.2            1 S1                 0.0000
     10 ****         2.9486   3.0955   0.1667 N.am           1 S1                 0.0000
     11 ****         2.9906   4.3248  -0.7167 C.3            1 S1                 0.0000
     12 ****         1.5840   4.9355  -0.8648 C.3            1 S1                 0.0000
     13 ****         1.8133   6.3922  -0.5144 C.3            1 S1                 0.0000
     14 ****         2.9801   6.3016   0.4575 C.3            1 S1                 0.0000
     15 ****         3.8026   5.3036  -0.1329 O.3            1 S1                 0.0000
     16 ****         2.3947   1.9099  -0.3630 C.2            1 S1                 0.0000
     17 ****         1.9481   1.8852  -1.5122 O.2            1 S1                 0.0000
     18 ****        -0.3646  -1.6367  -0.4039 N.am           1 S1                 0.0000
     19 ****        -1.7910  -1.9480  -0.3065 C.3            1 S1                 0.0000
     20 ****        -2.1458  -2.6921   0.9774 C.ar           1 S1                 0.0000
     21 ****        -1.2694  -3.6524   1.5334 C.ar           1 S1                 0.0000
     22 ****        -1.6184  -4.3342   2.7151 C.ar           1 S1                 0.0000
     23 ****        -2.8464  -4.0642   3.3483 C.ar           1 S1                 0.0000
     24 ****        -3.7268  -3.1136   2.7973 C.ar           1 S1                 0.0000
     25 ****        -3.3784  -2.4321   1.6151 C.ar           1 S1                 0.0000
     26 ****        -2.2858  -2.7122  -1.5283 C.ar           1 S1                 0.0000
     27 ****        -1.5080  -3.7401  -2.1089 C.ar           1 S1                 0.0000
     28 ****        -1.9817  -4.4409  -3.2349 C.ar           1 S1                 0.0000
     29 ****        -3.2367  -4.1221  -3.7871 C.ar           1 S1                 0.0000
     30 ****        -4.0201  -3.1050  -3.2095 C.ar           1 S1                 0.0000
     31 ****        -3.5474  -2.4047  -2.0827 C.ar           1 S1                 0.0000
     32 ****         2.2318  -1.3654   0.3421 H              1 S1                 0.0000
     33 ****         1.9455  -0.5686  -1.1539 H              1 S1                 0.0000
     34 ****         3.8761   4.0008   1.8665 H              1 S1                 0.0000
     35 ****         3.4378   3.9976  -1.6570 H              1 S1                 0.0000
     36 ****         1.1984   4.7910  -1.8744 H              1 S1                 0.0000
     37 ****         0.8957   4.4767  -0.1530 H              1 S1                 0.0000
     38 ****         2.1098   6.9505  -1.4034 H              1 S1                 0.0000
     39 ****         0.9342   6.8723  -0.0841 H              1 S1                 0.0000
     40 ****         3.5121   7.2464   0.5693 H              1 S1                 0.0000
     41 ****         2.6408   5.9769   1.4421 H              1 S1                 0.0000
     42 ****         0.2020  -2.2763  -0.9415 H              1 S1                 0.0000
     43 ****        -2.3294  -0.9980  -0.2942 H              1 S1                 0.0000
     44 ****        -0.3264  -3.8747   1.0562 H              1 S1                 0.0000
     45 ****        -0.9439  -5.0657   3.1352 H              1 S1                 0.0000
     46 ****        -3.1134  -4.5870   4.2549 H              1 S1                 0.0000
     47 ****        -4.6703  -2.9076   3.2807 H              1 S1                 0.0000
     48 ****        -4.0620  -1.7068   1.1987 H              1 S1                 0.0000
     49 ****        -0.5469  -4.0014  -1.6912 H              1 S1                 0.0000
     50 ****        -1.3823  -5.2249  -3.6736 H              1 S1                 0.0000
     51 ****        -3.5996  -4.6596  -4.6509 H              1 S1                 0.0000
     52 ****        -4.9848  -2.8619  -3.6300 H              1 S1                 0.0000
     53 ****        -4.1582  -1.6283  -1.6455 H              1 S1                 0.0000
     54 ****         0.1491   1.0254   1.2355 LP             1 S1                 0.0000
     55 ****        -1.3389   0.1768   0.9792 LP             1 S1                 0.0000
     56 ****         2.3812  -1.0979   2.1187 LP             1 S1                 0.0000
     57 ****         3.1309  -0.2425   3.4249 LP             1 S1                 0.0000
     58 ****         4.3821   5.7194  -0.8340 LP             1 S1                 0.0000
     59 ****         4.3779   4.8854   0.5700 LP             1 S1                 0.0000
     60 ****         1.5527   1.0423  -1.8770 LP             1 S1                 0.0000
     61 ****         1.9814   2.7082  -2.0794 LP             1 S1                 0.0000
@<TRIPOS>BOND
    1    1    2 2     
    2    2    3 1     
    3    2   18 am    
    4    3    4 1     
    5    3   32 1     
    6    3   33 1     
    7    4   16 am    
    8    4    5 am    
    9    5    6 2     
   10    5    7 1     
   11    7    8 1     
   12    7    9 2     
   13    9   10 1     
   14    9   34 1     
   15   10   11 1     
   16   10   16 am    
   17   11   15 1     
   18   11   12 1     
   19   11   35 1     
   20   12   13 1     
   21   12   36 1     
   22   12   37 1     
   23   13   14 1     
   24   13   38 1     
   25   13   39 1     
   26   14   15 1     
   27   14   40 1     
   28   14   41 1     
   29   16   17 2     
   30   18   19 1     
   31   18   42 1     
   32   19   20 1     
   33   19   26 1     
   34   19   43 1     
   35   20   25 ar    
   36   20   21 ar    
   37   21   22 ar    
   38   21   44 1     
   39   22   23 ar    
   40   22   45 1     
   41   23   24 ar    
   42   23   46 1     
   43   24   25 ar    
   44   24   47 1     
   45   25   48 1     
   46   26   31 ar    
   47   26   27 ar    
   48   27   28 ar    
   49   27   49 1     
   50   28   29 ar    
   51   28   50 1     
   52   29   30 ar    
   53   29   51 1     
   54   30   31 ar    
   55   30   52 1     
   56   31   53 1     
   57    1   54 1     
   58    1   55 1     
   59    6   56 1     
   60    6   57 1     
   61   15   58 1     
   62   15   59 1     
   63   17   60 1     
   64   17   61 1     
@<TRIPOS>SUBSTRUCTURE
      1 S1             1
@<TRIPOS>SET
LONE_PAIRS      STATIC     ATOMS    <user>   **** ""
8 54 55 56 57 58 59 60 61
DONOR_HYDROGENS      STATIC     ATOMS    <user>   **** ""
1 42
ATOM$BLUE        STATIC     ATOMS    COLORGROUP SYSTEM
8 54 55 56 57 58 59 60 61
ATOM$RED        STATIC     ATOMS    COLORGROUP SYSTEM
1 42
