AV-unprocessed.smi:1485|AV-procd|sdf|6001|dock10
  -GOLD-   22720 6 93D 1   1.00000     0.00000
 Structure written by MMmdl.
 44 45  0  0  0  0  0  0  0  0  1 V2000
  150.2289  138.8250  154.4952 C   0  0  0  0  0  0  0  0  0  0  0  0
  150.7912  137.5979  154.0666 O   0  0  0  0  0  0  0  0  0  0  0  0
  150.2264  136.4769  154.7277 C   0  0  0  0  0  0  0  0  0  0  0  0
  151.0626  136.1456  155.9740 C   0  0  0  0  0  0  0  0  0  0  0  0
  150.8453  137.1213  157.0480 N   0  0  0  0  0  0  0  0  0  0  0  0
  151.9481  137.9142  157.3138 N   0  0  0  0  0  0  0  0  0  0  0  0
  151.8978  138.8104  158.2450 C   0  0  0  0  0  0  0  0  0  0  0  0
  153.0753  139.6577  158.5788 C   0  0  0  0  0  0  0  0  0  0  0  0
  154.2052  139.3993  158.1609 O   0  0  0  0  0  0  0  0  0  0  0  0
  152.8068  140.7185  159.3603 N   0  0  0  0  0  0  0  0  0  0  0  0
  153.7696  141.7130  159.8273 C   0  0  2  0  0  0  0  0  0  0  0  0
  154.1062  141.4999  161.3172 C   0  0  0  0  0  0  0  0  0  0  0  0
  152.9159  141.8364  162.2324 C   0  0  0  0  0  0  0  0  0  0  0  0
  152.3937  143.2590  161.9742 C   0  0  0  0  0  0  0  0  0  0  0  0
  152.0200  143.4666  160.4941 C   0  0  1  0  0  0  0  0  0  0  0  0
  151.5026  144.8889  160.2385 C   0  0  0  0  0  0  0  0  0  0  0  0
  153.2207  143.1329  159.5840 C   0  0  0  0  0  0  0  0  0  0  0  0
  150.6820  139.0175  159.0129 C   0  0  0  0  0  0  0  0  0  0  0  0
  149.6190  138.2238  158.7556 C   0  0  0  0  0  0  0  0  0  0  0  0
  149.6605  137.1814  157.7279 C   0  0  0  0  0  0  0  0  0  0  0  0
  148.7174  136.4248  157.4987 O   0  0  0  0  0  0  0  0  0  0  0  0
  150.7056  139.6498  153.9657 H   0  0  0  0  0  0  0  0  0  0  0  0
  150.3830  138.9775  155.5641 H   0  0  0  0  0  0  0  0  0  0  0  0
  149.1593  138.8628  154.2857 H   0  0  0  0  0  0  0  0  0  0  0  0
  149.2045  136.7121  155.0279 H   0  0  0  0  0  0  0  0  0  0  0  0
  150.1784  135.6173  154.0572 H   0  0  0  0  0  0  0  0  0  0  0  0
  150.8195  135.1410  156.3249 H   0  0  0  0  0  0  0  0  0  0  0  0
  152.1192  136.1047  155.7042 H   0  0  0  0  0  0  0  0  0  0  0  0
  151.8485  140.8503  159.6512 H   0  0  0  0  0  0  0  0  0  0  0  0
  154.6868  141.6085  159.2453 H   0  0  0  0  0  0  0  0  0  0  0  0
  154.4337  140.4740  161.4906 H   0  0  0  0  0  0  0  0  0  0  0  0
  154.9508  142.1356  161.5855 H   0  0  0  0  0  0  0  0  0  0  0  0
  152.1121  141.1166  162.0730 H   0  0  0  0  0  0  0  0  0  0  0  0
  153.2135  141.7364  163.2765 H   0  0  0  0  0  0  0  0  0  0  0  0
  151.5268  143.4493  162.6077 H   0  0  0  0  0  0  0  0  0  0  0  0
  153.1547  143.9836  162.2672 H   0  0  0  0  0  0  0  0  0  0  0  0
  151.2071  142.7803  160.2530 H   0  0  0  0  0  0  0  0  0  0  0  0
  152.2670  145.6350  160.4575 H   0  0  0  0  0  0  0  0  0  0  0  0
  150.6346  145.1087  160.8603 H   0  0  0  0  0  0  0  0  0  0  0  0
  151.2020  145.0151  159.1979 H   0  0  0  0  0  0  0  0  0  0  0  0
  154.0182  143.8555  159.7636 H   0  0  0  0  0  0  0  0  0  0  0  0
  152.9407  143.2474  158.5359 H   0  0  0  0  0  0  0  0  0  0  0  0
  150.6245  139.7793  159.7767 H   0  0  0  0  0  0  0  0  0  0  0  0
  148.7102  138.3628  159.3226 H   0  0  0  0  0  0  0  0  0  0  0  0
  1  2  1  0  0  0  0
  1 22  1  0  0  0  0
  1 23  1  0  0  0  0
  1 24  1  0  0  0  0
  2  3  1  0  0  0  0
  3  4  1  0  0  0  0
  3 25  1  0  0  0  0
  3 26  1  0  0  0  0
  4  5  1  0  0  0  0
  4 27  1  0  0  0  0
  4 28  1  0  0  0  0
  5 20  1  0  0  0  0
  5  6  1  0  0  0  0
  6  7  2  0  0  0  0
  7  8  1  0  0  0  0
  7 18  1  0  0  0  0
  8  9  2  0  0  0  0
  8 10  1  0  0  0  0
 10 11  1  0  0  0  0
 10 29  1  0  0  0  0
 11 17  1  0  0  0  0
 11 12  1  0  0  0  0
 11 30  1  0  0  0  0
 12 13  1  0  0  0  0
 12 31  1  0  0  0  0
 12 32  1  0  0  0  0
 13 14  1  0  0  0  0
 13 33  1  0  0  0  0
 13 34  1  0  0  0  0
 14 15  1  0  0  0  0
 14 35  1  0  0  0  0
 14 36  1  0  0  0  0
 15 16  1  0  0  0  0
 15 17  1  0  0  0  0
 15 37  1  0  0  0  0
 16 38  1  0  0  0  0
 16 39  1  0  0  0  0
 16 40  1  0  0  0  0
 17 41  1  0  0  0  0
 17 42  1  0  0  0  0
 18 19  2  0  0  0  0
 18 43  1  0  0  0  0
 19 20  1  0  0  0  0
 19 44  1  0  0  0  0
 20 21  2  0  0  0  0
M  END
> <s_m_source_file>
AV-unprocessed.smi

> <i_m_source_file_index>
1485

> <i_lp_mmshare_version>
43012

> <i_f3d_flags>
0

> <s_epik_input>
W0NIM11PW0NIMl1bQ0gyXW4xbmMoW2NIXVtjSF1jMT1PKUMoPU8pW05IXVtDQEBIXTJbQ0gyXVtDSDJdW0NIMl1bQ0BASF0oW0NIM10pW0NIMl0y

> <s_epik_cmdline>
J2VwaWtfcHl0aG9uJywgJy1waCcsICc3LjAnLCAnLXRuJywgJzgnLCAnLW1hJywgJzIwMCcsICctbWV0YWxfYmluZGluZycsICctaW1hZScsICc8aW5maWxlLm1hZT4nLCAnLW9tYWUnLCAnPG91dGZpbGUubWFlPic=

> <r_lp_tautomer_probability>
1

> <r_epik_Ionization_Penalty>
6.4688e-07

> <r_epik_Ionization_Penalty_Charging>
6.63567e-09

> <r_epik_Ionization_Penalty_Neutral>
6.40245e-07

> <r_epik_State_Penalty>
-0

> <r_epik_Charging_Adjusted_Penalty>
6.63567e-09

> <i_epik_Tot_Q>
0

> <i_epik_Tot_abs_Q>
0

> <r_epik_Metal_State_Penalty>
-0

> <b_epik_Metal_Only>
0

> <s_lp_Force_Field>
OPLS_2005

> <r_lp_Energy>
29.3151

> <b_lp_Chiralities_Consistent>
1

> <s_lp_Variant>
AV-unprocessed.smi:1485-1

> <Gold.Version>
5.8.1

> <Gold.Id.Protein>
6NUR|6NUR_protein|mol2

> <Gold.PLP.Fitness>
44.8396

> <Gold.PLP.PLP>
-40.1583

> <Gold.PLP.part.hbond>
-2.0000

> <Gold.PLP.part.metal>
0.0000

> <Gold.PLP.part.buried>
-5.6739

> <Gold.PLP.part.nonpolar>
-34.1324

> <Gold.PLP.part.repulsive>
0.8690

> <Gold.PLP.ligand.clash>
0.2203

> <Gold.PLP.ligand.torsion>
0.5629

> <Gold.PLP.Chemscore.Hbond>
2.0000

> <Gold.PLP.Chemscore.CHOScore>
0.0000

> <Gold.PLP.Chemscore.Metal>
0.0000

> <Gold.Chemscore.Hbonds>
donor molecule, donor type, donor heavy atom, donor atom, acceptor molecule, acceptor atom, score
      P1  H  7997  8010       L1     9  0.58

> <Gold.PLP.Chemscore.Internal.Correction>
0.0274

> <Gold.Rescore>
     Score         DG    S(hbond)    S(metal)    S(lipo)     H(rot)  DE(clash)    DE(int)     intcor
     17.74     -19.66       1.67        0.00     107.53       1.55       0.78       1.14       ----

> <Gold.Chemscore.Fitness>
17.7427

> <Gold.Chemscore.DG>
-19.6648

> <Gold.Chemscore.ZeroCoef>
-5.4800

> <Gold.Chemscore.Hbond>
1.6664

> <Gold.Chemscore.Metal>
0.0000

> <Gold.Chemscore.Lipo>
107.5322

> <Gold.Chemscore.Internal_Hbond>
0.0000

> <Gold.Chemscore.DEClash>
0.7817

> <Gold.Chemscore.DEInternal>
1.1404

> <Gold.Chemscore.Rot>
1.5478

> <Gold.Chemscore.Internal.Correction>
   9.000000E+99

> <Gold.Chemscore.Hbonds>
donor molecule, donor type, donor heavy atom, donor atom, acceptor molecule, acceptor atom, score
      P1  H  7997  8010       L1     9  0.58

> <Gold.Chemscore.Hbond.Weighted>
-5.5658

> <Gold.Chemscore.Metal.Weighted>
-0.0000

> <Gold.Chemscore.Lipo.Weighted>
-12.5813

> <Gold.Chemscore.Internal_Hbond.Weighted>
0.0000

> <Gold.Chemscore.DEClash.Weighted>
0.7817

> <Gold.Chemscore.DEInternal.Weighted>
1.1404

> <Gold.Chemscore.Rot.Weighted>
3.9623

> <Gold.Chemscore.Internal.Correction.Weighted>
   9.000000E+99

> <Gold.Protein.RotatedTorsions>
[ 6907 6896 6895 6894 ] final  118.11 input  -60.11 | X-H torsion
[ 7974 7965 7964 7962 ] final   43.91 input  175.53 | X-H torsion
[ 8008 7997 7996 7995 ] final   -2.22 input   59.86 | X-H torsion
[ 10167 10162 10161 10158 ] final  -85.63 input  -65.29 | X-H torsion
[ 10718 10713 10712 10709 ] final   94.95 input   66.30 | X-H torsion
[ 10763 10752 10751 10750 ] final   28.89 input  -60.55 | X-H torsion
[ 11005 11000 10999 10996 ] final  141.36 input  -57.11 | X-H torsion

> <Gold.Protein.ActiveResidues>
 VAL166  LYS551  ARG553  GLY616  TRP617  ASP618  TYR619  PRO620  LYS621  CYS622 
 ASP623  PHE694  ASN695  SER759  ASP760  ASP761  ALA762  ILE779  LEU786  VAL792 
 PHE793  MET794  SER795  GLU796  ALA797  LYS798  CYS799  TRP800  GLU811  SER814 

> <Gold.Protein.RotatedAtoms>
  152.4566  133.7735  159.6811 H   0  0  0  0  0  0  0  0  0  0  0  0  # atno 6907 bound_to 6896
  150.8494  133.7801  159.3037 H   0  0  0  0  0  0  0  0  0  0  0  0  # atno 6908 bound_to 6896
  151.5401  135.1071  159.9976 H   0  0  0  0  0  0  0  0  0  0  0  0  # atno 6909 bound_to 6896
  146.0614  139.5133  142.9655 H   0  0  0  0  0  0  0  0  0  0  0  0  # atno 7974 bound_to 7965
  154.6381  140.2540  155.7354 H   0  0  0  0  0  0  0  0  0  0  0  0  # atno 8008 bound_to 7997
  156.2515  140.2893  156.0683 H   0  0  0  0  0  0  0  0  0  0  0  0  # atno 8009 bound_to 7997
  155.1639  140.0385  157.2839 H   0  0  0  0  0  0  0  0  0  0  0  0  # atno 8010 bound_to 7997
  140.4019  143.2659  151.9132 H   0  0  0  0  0  0  0  0  0  0  0  0  # atno 10167 bound_to 10162
  157.6943  131.0529  150.4264 H   0  0  0  0  0  0  0  0  0  0  0  0  # atno 10718 bound_to 10713
  153.0463  135.6502  154.0808 H   0  0  0  0  0  0  0  0  0  0  0  0  # atno 10763 bound_to 10752
  154.0505  135.2896  155.3343 H   0  0  0  0  0  0  0  0  0  0  0  0  # atno 10764 bound_to 10752
  154.6723  135.5351  153.8220 H   0  0  0  0  0  0  0  0  0  0  0  0  # atno 10765 bound_to 10752
  140.0395  134.9312  157.0817 H   0  0  0  0  0  0  0  0  0  0  0  0  # atno 11005 bound_to 11000
  145.6553  141.0253  143.1738 LP  0  0  0  0  0  0  0  0  0  0  0  0  # atno 17320 bound_to 7965
  144.7177  139.8138  143.7393 LP  0  0  0  0  0  0  0  0  0  0  0  0  # atno 17321 bound_to 7965
  139.4784  144.5625  151.8216 LP  0  0  0  0  0  0  0  0  0  0  0  0  # atno 17342 bound_to 10162
  140.4731  144.1558  150.5921 LP  0  0  0  0  0  0  0  0  0  0  0  0  # atno 17343 bound_to 10162
  156.4635  130.4037  149.6562 LP  0  0  0  0  0  0  0  0  0  0  0  0  # atno 17370 bound_to 10713
  156.3668  130.7510  151.2489 LP  0  0  0  0  0  0  0  0  0  0  0  0  # atno 17371 bound_to 10713
  140.4092  134.1999  155.7163 LP  0  0  0  0  0  0  0  0  0  0  0  0  # atno 17394 bound_to 11000
  141.1875  133.8279  157.1028 LP  0  0  0  0  0  0  0  0  0  0  0  0  # atno 17395 bound_to 11000

$$$$
