AV-unprocessed.smi:114|AV-procd|sdf|1110|dock5
  -GOLD-   2262018223D 1   1.00000     0.00000
 Structure written by MMmdl.
 32 34  0  0  0  0  0  0  0  0  1 V2000
  153.6648  140.2077  160.4656 N   0  0  0  0  0  0  0  0  0  0  0  0
  152.8295  141.0119  159.7927 C   0  0  0  0  0  0  0  0  0  0  0  0
  152.5691  142.2394  160.2987 N   0  0  0  0  0  0  0  0  0  0  0  0
  151.7395  143.0711  159.6577 C   0  0  0  0  0  0  0  0  0  0  0  0
  151.5359  144.2800  160.2320 F   0  0  0  0  0  0  0  0  0  0  0  0
  151.0889  142.8424  158.5123 N   0  0  0  0  0  0  0  0  0  0  0  0
  151.3462  141.6064  157.9955 C   0  0  0  0  0  0  0  0  0  0  0  0
  152.2066  140.6357  158.5775 C   0  0  0  0  0  0  0  0  0  0  0  0
  152.2396  139.4950  157.7885 N   0  0  0  0  0  0  0  0  0  0  0  0
  151.4394  139.7792  156.7967 C   0  0  0  0  0  0  0  0  0  0  0  0
  150.8543  141.0256  156.8412 N   0  0  0  0  0  0  0  0  0  0  0  0
  149.9038  141.5969  155.8355 C   0  0  1  0  0  0  0  0  0  0  0  0
  149.9643  140.8512  154.6594 O   0  0  0  0  0  0  0  0  0  0  0  0
  148.6599  140.6167  154.1225 C   0  0  1  0  0  0  0  0  0  0  0  0
  148.4146  139.0927  154.1162 C   0  0  0  0  0  0  0  0  0  0  0  0
  149.2514  138.4752  153.1618 O   0  0  0  0  0  0  0  0  0  0  0  0
  147.7131  141.4297  155.0282 C   0  0  1  0  0  0  0  0  0  0  0  0
  146.4411  140.8357  155.2051 O   0  0  0  0  0  0  0  0  0  0  0  0
  148.4666  141.5279  156.3449 C   0  0  2  0  0  0  0  0  0  0  0  0
  148.0872  142.7154  157.0129 O   0  0  0  0  0  0  0  0  0  0  0  0
  150.2566  142.6115  155.6446 H   0  0  0  0  0  0  0  0  0  0  0  0
  148.6022  140.9999  153.1029 H   0  0  0  0  0  0  0  0  0  0  0  0
  147.5850  142.4233  154.5947 H   0  0  0  0  0  0  0  0  0  0  0  0
  148.3270  140.6375  156.9610 H   0  0  0  0  0  0  0  0  0  0  0  0
  153.8731  139.2869  160.1068 H   0  0  0  0  0  0  0  0  0  0  0  0
  154.0817  140.5216  161.3300 H   0  0  0  0  0  0  0  0  0  0  0  0
  151.2520  139.0804  155.9943 H   0  0  0  0  0  0  0  0  0  0  0  0
  148.5612  138.6538  155.1021 H   0  0  0  0  0  0  0  0  0  0  0  0
  147.3921  138.8636  153.8167 H   0  0  0  0  0  0  0  0  0  0  0  0
  149.4489  139.1036  152.4842 H   0  0  0  0  0  0  0  0  0  0  0  0
  146.1098  140.5758  154.3592 H   0  0  0  0  0  0  0  0  0  0  0  0
  148.4402  143.4533  156.5401 H   0  0  0  0  0  0  0  0  0  0  0  0
  1  2  1  0  0  0  0
  1 25  1  0  0  0  0
  1 26  1  0  0  0  0
  2  8  1  0  0  0  0
  2  3  2  0  0  0  0
  3  4  1  0  0  0  0
  4  5  1  0  0  0  0
  4  6  2  0  0  0  0
  6  7  1  0  0  0  0
  7 11  1  0  0  0  0
  7  8  2  0  0  0  0
  8  9  1  0  0  0  0
  9 10  2  0  0  0  0
 10 11  1  0  0  0  0
 10 27  1  0  0  0  0
 11 12  1  0  0  0  0
 12 21  1  0  0  0  0
 12 19  1  0  0  0  0
 12 13  1  0  0  0  0
 13 14  1  0  0  0  0
 14 22  1  0  0  0  0
 14 15  1  0  0  0  0
 14 17  1  0  0  0  0
 15 16  1  0  0  0  0
 15 28  1  0  0  0  0
 15 29  1  0  0  0  0
 16 30  1  0  0  0  0
 17 23  1  0  0  0  0
 17 18  1  0  0  0  0
 17 19  1  0  0  0  0
 18 31  1  0  0  0  0
 19 24  1  0  0  0  0
 19 20  1  0  0  0  0
 20 32  1  0  0  0  0
M  END
> <s_m_source_file>
AV-unprocessed.smi

> <i_m_source_file_index>
114

> <i_lp_mmshare_version>
43012

> <i_f3d_flags>
0

> <s_epik_input>
RmMobjEpbmMoW05IMl0pYyhjMTIpbltjSF1uMltDQEBIXTNPW0NASF0oW0NIMl1bT0hdKVtDQEBIXShbT0hdKVtDQEBIXTNbT0hd

> <s_epik_cmdline>
J2VwaWtfcHl0aG9uJywgJy1waCcsICc3LjAnLCAnLXRuJywgJzgnLCAnLW1hJywgJzIwMCcsICctbWV0YWxfYmluZGluZycsICctaW1hZScsICc8aW5maWxlLm1hZT4nLCAnLW9tYWUnLCAnPG91dGZpbGUubWFlPic=

> <r_lp_tautomer_probability>
1

> <r_epik_Ionization_Penalty>
1.13199e-05

> <r_epik_Ionization_Penalty_Charging>
0

> <r_epik_Ionization_Penalty_Neutral>
1.13199e-05

> <r_epik_State_Penalty>
-0

> <r_epik_Charging_Adjusted_Penalty>
0

> <i_epik_Tot_Q>
0

> <i_epik_Tot_abs_Q>
0

> <r_epik_Metal_State_Penalty>
-0

> <b_epik_Metal_Only>
0

> <s_epik_Chemistry_Notes>
This compound contains an acetal/aminal-like group ( X-CH(R)-Y where X, Y are N, S, or O) that may be acid/base labile, releasing an aldehyde.

> <s_lp_Force_Field>
OPLS_2005

> <r_lp_Energy>
42.0862

> <b_lp_Chiralities_Consistent>
1

> <s_lp_Variant>
AV-unprocessed.smi:114-4

> <Gold.Version>
5.8.1

> <Gold.Id.Protein>
6NUR|6NUR_protein|mol2

> <Gold.PLP.Fitness>
46.5471

> <Gold.PLP.PLP>
-36.0179

> <Gold.PLP.part.hbond>
-5.1042

> <Gold.PLP.part.metal>
0.0000

> <Gold.PLP.part.buried>
-5.3208

> <Gold.PLP.part.nonpolar>
-25.6261

> <Gold.PLP.part.repulsive>
0.1780

> <Gold.PLP.ligand.clash>
0.0000

> <Gold.PLP.ligand.torsion>
0.4867

> <Gold.PLP.Chemscore.Hbond>
3.8320

> <Gold.PLP.Chemscore.CHOScore>
0.0000

> <Gold.PLP.Chemscore.Metal>
0.0000

> <Gold.Chemscore.Hbonds>
donor molecule, donor type, donor heavy atom, donor atom, acceptor molecule, acceptor atom, score
      L1  H    16    30       P1  7957  1.00
      L1  H    20    32       P1  8028  1.00
      P1  H  7989  7998       L1    13  0.72

> <Gold.PLP.Chemscore.Internal.Correction>
0.0066

> <Gold.Rescore>
     Score         DG    S(hbond)    S(metal)    S(lipo)     H(rot)  DE(clash)    DE(int)     intcor
      7.09      -7.16       2.58        0.00      28.76       4.03       0.05       0.01       ----

> <Gold.Chemscore.Fitness>
7.0947

> <Gold.Chemscore.DG>
-7.1563

> <Gold.Chemscore.ZeroCoef>
-5.4800

> <Gold.Chemscore.Hbond>
2.5814

> <Gold.Chemscore.Metal>
0.0000

> <Gold.Chemscore.Lipo>
28.7634

> <Gold.Chemscore.Internal_Hbond>
0.0000

> <Gold.Chemscore.DEClash>
0.0538

> <Gold.Chemscore.DEInternal>
0.0078

> <Gold.Chemscore.Rot>
4.0277

> <Gold.Chemscore.Internal.Correction>
   9.000000E+99

> <Gold.Chemscore.Hbonds>
donor molecule, donor type, donor heavy atom, donor atom, acceptor molecule, acceptor atom, score
      L1  H    16    30       P1  7957  0.95
      L1  H    20    32       P1  8028  0.39
      P1  H  7989  7998       L1    13  0.66

> <Gold.Chemscore.Hbond.Weighted>
-8.6220

> <Gold.Chemscore.Metal.Weighted>
-0.0000

> <Gold.Chemscore.Lipo.Weighted>
-3.3653

> <Gold.Chemscore.Internal_Hbond.Weighted>
0.0000

> <Gold.Chemscore.DEClash.Weighted>
0.0538

> <Gold.Chemscore.DEInternal.Weighted>
0.0078

> <Gold.Chemscore.Rot.Weighted>
10.3110

> <Gold.Chemscore.Internal.Correction.Weighted>
   9.000000E+99

> <Gold.Protein.RotatedTorsions>
[ 6907 6896 6895 6894 ] final  -47.24 input  -60.11 | X-H torsion
[ 7974 7965 7964 7962 ] final   67.53 input  175.53 | X-H torsion
[ 8008 7997 7996 7995 ] final   27.89 input   59.86 | X-H torsion
[ 10167 10162 10161 10158 ] final  -74.36 input  -65.29 | X-H torsion
[ 10718 10713 10712 10709 ] final   64.02 input   66.30 | X-H torsion
[ 10763 10752 10751 10750 ] final  -63.80 input  -60.55 | X-H torsion
[ 11005 11000 10999 10996 ] final  -32.42 input  -57.11 | X-H torsion

> <Gold.Protein.ActiveResidues>
 VAL166  LYS551  ARG553  GLY616  TRP617  ASP618  TYR619  PRO620  LYS621  CYS622 
 ASP623  PHE694  ASN695  SER759  ASP760  ASP761  ALA762  ILE779  LEU786  VAL792 
 PHE793  MET794  SER795  GLU796  ALA797  LYS798  CYS799  TRP800  GLU811  SER814 

> <Gold.Protein.RotatedAtoms>
  150.9028  134.8441  159.7371 H   0  0  0  0  0  0  0  0  0  0  0  0  # atno 6907 bound_to 6896
  152.4902  134.4477  159.9574 H   0  0  0  0  0  0  0  0  0  0  0  0  # atno 6908 bound_to 6896
  151.4527  133.3574  159.2833 H   0  0  0  0  0  0  0  0  0  0  0  0  # atno 6909 bound_to 6896
  145.8135  139.3045  143.1085 H   0  0  0  0  0  0  0  0  0  0  0  0  # atno 7974 bound_to 7965
  155.0500  140.3179  155.4695 H   0  0  0  0  0  0  0  0  0  0  0  0  # atno 8008 bound_to 7997
  156.2836  140.2147  156.5569 H   0  0  0  0  0  0  0  0  0  0  0  0  # atno 8009 bound_to 7997
  154.7218  140.0489  157.0634 H   0  0  0  0  0  0  0  0  0  0  0  0  # atno 8010 bound_to 7997
  140.5033  143.2357  151.7716 H   0  0  0  0  0  0  0  0  0  0  0  0  # atno 10167 bound_to 10162
  157.6011  130.9137  149.9791 H   0  0  0  0  0  0  0  0  0  0  0  0  # atno 10718 bound_to 10713
  154.3206  135.6197  153.5506 H   0  0  0  0  0  0  0  0  0  0  0  0  # atno 10763 bound_to 10752
  152.9820  135.5723  154.5074 H   0  0  0  0  0  0  0  0  0  0  0  0  # atno 10764 bound_to 10752
  154.4742  135.2860  155.1596 H   0  0  0  0  0  0  0  0  0  0  0  0  # atno 10765 bound_to 10752
  140.9550  133.7198  156.1279 H   0  0  0  0  0  0  0  0  0  0  0  0  # atno 11005 bound_to 11000
  145.9752  140.8728  143.0142 LP  0  0  0  0  0  0  0  0  0  0  0  0  # atno 17320 bound_to 7965
  144.6755  140.2001  143.7388 LP  0  0  0  0  0  0  0  0  0  0  0  0  # atno 17321 bound_to 7965
  139.4877  144.4492  151.9674 LP  0  0  0  0  0  0  0  0  0  0  0  0  # atno 17342 bound_to 10162
  140.3581  144.3006  150.5938 LP  0  0  0  0  0  0  0  0  0  0  0  0  # atno 17343 bound_to 10162
  156.1084  130.3651  150.0092 LP  0  0  0  0  0  0  0  0  0  0  0  0  # atno 17370 bound_to 10713
  156.8195  130.9353  151.3641 LP  0  0  0  0  0  0  0  0  0  0  0  0  # atno 17371 bound_to 10713
  140.7548  134.4004  157.5535 LP  0  0  0  0  0  0  0  0  0  0  0  0  # atno 17394 bound_to 11000
  139.8859  134.8923  156.2614 LP  0  0  0  0  0  0  0  0  0  0  0  0  # atno 17395 bound_to 11000

$$$$
