AV-unprocessed.smi:3055|AV-procd|sdf|11643|dock1
  -GOLD-   2272017 33D 1   1.00000     0.00000
 Structure written by MMmdl.
 47 49  0  0  0  0  0  0  0  0  2 V2000
  147.8884  143.1933  159.9575 O   0  0  0  0  0  0  0  0  0  0  0  0
  148.5984  143.3900  158.9711 C   0  0  0  0  0  0  0  0  0  0  0  0
  148.2468  142.9638  157.7476 N   0  0  0  0  0  0  0  0  0  0  0  0
  147.0235  142.2341  157.4465 C   0  0  0  0  0  0  0  0  0  0  0  0
  146.8095  142.1421  155.9299 C   0  0  0  0  0  0  0  0  0  0  0  0
  147.7168  141.1888  155.3243 N   0  0  0  0  0  0  0  0  0  0  0  0
  149.0914  141.3183  155.1760 C   0  0  0  0  0  0  0  0  0  0  0  0
  149.5279  140.1747  154.5461 C   0  0  0  0  0  0  0  0  0  0  0  0
  148.4457  139.3332  154.2989 N   0  0  0  0  0  0  0  0  0  0  0  0
  147.4079  140.0006  154.7869 C   0  0  0  0  0  0  0  0  0  0  0  0
  149.7774  144.0608  159.0266 N   0  0  0  0  0  0  0  0  0  0  0  0
  150.2482  144.9112  160.1344 C   0  0  0  0  0  0  0  0  0  0  0  0
  151.4762  144.2530  160.7856 C   0  0  0  0  0  0  0  0  0  0  0  0
  152.5761  143.9870  159.7403 C   0  0  0  0  0  0  0  0  0  0  0  0
  152.0436  143.2055  158.5106 C   0  0  1  0  0  0  0  0  0  0  0  0
  151.7498  141.7772  158.8312 N   0  3  0  0  0  0  0  0  0  0  0  0
  151.3622  140.9390  157.6773 C   0  0  0  0  0  0  0  0  0  0  0  0
  151.5077  139.5055  158.1734 C   0  0  0  0  0  0  0  0  0  0  0  0
  152.7176  139.5652  159.1024 C   0  0  0  0  0  0  0  0  0  0  0  0
  152.8340  141.0377  159.5223 C   0  0  0  0  0  0  0  0  0  0  0  0
  150.7956  143.9497  157.9695 C   0  0  0  0  0  0  0  0  0  0  0  0
  148.8704  143.1554  156.9769 H   0  0  0  0  0  0  0  0  0  0  0  0
  147.0862  141.2344  157.8790 H   0  0  0  0  0  0  0  0  0  0  0  0
  146.1750  142.7368  157.9140 H   0  0  0  0  0  0  0  0  0  0  0  0
  145.7870  141.8363  155.7045 H   0  0  0  0  0  0  0  0  0  0  0  0
  146.9620  143.1156  155.4617 H   0  0  0  0  0  0  0  0  0  0  0  0
  149.6298  142.1891  155.5197 H   0  0  0  0  0  0  0  0  0  0  0  0
  150.5295  139.8956  154.2532 H   0  0  0  0  0  0  0  0  0  0  0  0
  146.3990  139.6164  154.7513 H   0  0  0  0  0  0  0  0  0  0  0  0
  150.5202  145.8904  159.7374 H   0  0  0  0  0  0  0  0  0  0  0  0
  149.4957  145.1117  160.8968 H   0  0  0  0  0  0  0  0  0  0  0  0
  151.8649  144.8924  161.5787 H   0  0  0  0  0  0  0  0  0  0  0  0
  151.1819  143.3162  161.2607 H   0  0  0  0  0  0  0  0  0  0  0  0
  152.9567  144.9495  159.3956 H   0  0  0  0  0  0  0  0  0  0  0  0
  153.4299  143.4948  160.2046 H   0  0  0  0  0  0  0  0  0  0  0  0
  152.8174  143.2158  157.7414 H   0  0  0  0  0  0  0  0  0  0  0  0
  150.3504  141.1423  157.3302 H   0  0  0  0  0  0  0  0  0  0  0  0
  152.0474  141.1156  156.8465 H   0  0  0  0  0  0  0  0  0  0  0  0
  150.6203  139.2225  158.7413 H   0  0  0  0  0  0  0  0  0  0  0  0
  151.6298  138.7868  157.3624 H   0  0  0  0  0  0  0  0  0  0  0  0
  152.6002  138.9003  159.9590 H   0  0  0  0  0  0  0  0  0  0  0  0
  153.6182  139.2588  158.5690 H   0  0  0  0  0  0  0  0  0  0  0  0
  153.8114  141.4198  159.2234 H   0  0  0  0  0  0  0  0  0  0  0  0
  152.7426  141.1580  160.6022 H   0  0  0  0  0  0  0  0  0  0  0  0
  150.4179  143.4736  157.0642 H   0  0  0  0  0  0  0  0  0  0  0  0
  151.0794  144.9542  157.6525 H   0  0  0  0  0  0  0  0  0  0  0  0
  150.9606  141.7683  159.4613 H   0  0  0  0  0  0  0  0  0  0  0  0
  1  2  2  0  0  0  0
  2  3  1  0  0  0  0
  2 11  1  0  0  0  0
  3  4  1  0  0  0  0
  3 22  1  0  0  0  0
  4  5  1  0  0  0  0
  4 23  1  0  0  0  0
  4 24  1  0  0  0  0
  5  6  1  0  0  0  0
  5 25  1  0  0  0  0
  5 26  1  0  0  0  0
  6 10  1  0  0  0  0
  6  7  1  0  0  0  0
  7  8  2  0  0  0  0
  7 27  1  0  0  0  0
  8  9  1  0  0  0  0
  8 28  1  0  0  0  0
  9 10  2  0  0  0  0
 10 29  1  0  0  0  0
 11 21  1  0  0  0  0
 11 12  1  0  0  0  0
 12 13  1  0  0  0  0
 12 30  1  0  0  0  0
 12 31  1  0  0  0  0
 13 14  1  0  0  0  0
 13 32  1  0  0  0  0
 13 33  1  0  0  0  0
 14 15  1  0  0  0  0
 14 34  1  0  0  0  0
 14 35  1  0  0  0  0
 15 16  1  0  0  0  0
 15 21  1  0  0  0  0
 15 36  1  0  0  0  0
 16 20  1  0  0  0  0
 16 17  1  0  0  0  0
 16 47  1  0  0  0  0
 17 18  1  0  0  0  0
 17 37  1  0  0  0  0
 17 38  1  0  0  0  0
 18 19  1  0  0  0  0
 18 39  1  0  0  0  0
 18 40  1  0  0  0  0
 19 20  1  0  0  0  0
 19 41  1  0  0  0  0
 19 42  1  0  0  0  0
 20 43  1  0  0  0  0
 20 44  1  0  0  0  0
 21 45  1  0  0  0  0
 21 46  1  0  0  0  0
M  CHG  1  16   1
M  END
> <s_m_source_file>
AV-unprocessed.smi

> <i_m_source_file_index>
3055

> <i_lp_mmshare_version>
43012

> <i_f3d_flags>
0

> <s_epik_input>
W2NIXTFuW2NIXVtjSF1uMVtDSDJdW0NIMl1bTkhdQyg9TylOMltDSDJdW0NIMl1bQ0gyXVtDQEhdKFtDSDJdMilOM1tDSDJdW0NIMl1bQ0gyXVtDSDJdMw==

> <s_epik_cmdline>
J2VwaWtfcHl0aG9uJywgJy1waCcsICc3LjAnLCAnLXRuJywgJzgnLCAnLW1hJywgJzIwMCcsICctbWV0YWxfYmluZGluZycsICctaW1hZScsICc8aW5maWxlLm1hZT4nLCAnLW9tYWUnLCAnPG91dGZpbGUubWFlPic=

> <r_lp_tautomer_probability>
1

> <r_epik_Ionization_Penalty>
0.618392

> <r_epik_Ionization_Penalty_Charging>
0.618355

> <r_epik_Ionization_Penalty_Neutral>
3.68592e-05

> <r_epik_State_Penalty>
0.635579

> <r_epik_Charging_Adjusted_Penalty>
1.25393

> <i_epik_Tot_Q>
1

> <i_epik_Tot_abs_Q>
1

> <r_epik_Metal_State_Penalty>
0.306847

> <b_epik_Metal_Only>
0

> <s_lp_Force_Field>
OPLS_2005

> <r_lp_Energy>
66.9505

> <b_lp_Chiralities_Consistent>
1

> <s_lp_Variant>
AV-unprocessed.smi:3055-3

> <Gold.Version>
5.8.1

> <Gold.Id.Protein>
6NUR|6NUR_protein|mol2

> <Gold.PLP.Fitness>
41.0932

> <Gold.PLP.PLP>
-34.6124

> <Gold.PLP.part.hbond>
-3.1215

> <Gold.PLP.part.metal>
0.0000

> <Gold.PLP.part.buried>
0.4057

> <Gold.PLP.part.nonpolar>
-31.9162

> <Gold.PLP.part.repulsive>
0.3795

> <Gold.PLP.ligand.clash>
0.2954

> <Gold.PLP.ligand.torsion>
0.3744

> <Gold.PLP.Chemscore.Hbond>
1.5040

> <Gold.PLP.Chemscore.CHOScore>
0.9728

> <Gold.PLP.Chemscore.Metal>
0.0000

> <Gold.Chemscore.Hbonds>
donor molecule, donor type, donor heavy atom, donor atom, acceptor molecule, acceptor atom, score
      L1  H     3    22       P1  8028  0.57
      P1  H  6933  6944       L1     1  0.88
      L1  C     7    27       P1  8028  0.73

> <Gold.PLP.Chemscore.Internal.Correction>
0.0947

> <Gold.Rescore>
     Score         DG    S(hbond)    S(metal)    S(lipo)     H(rot)  DE(clash)    DE(int)     intcor
     16.46     -16.81       1.29        0.00      99.49       1.81       0.07       0.28       ----

> <Gold.Chemscore.Fitness>
16.4604

> <Gold.Chemscore.DG>
-16.8145

> <Gold.Chemscore.ZeroCoef>
-5.4800

> <Gold.Chemscore.Hbond>
1.2933

> <Gold.Chemscore.Metal>
0.0000

> <Gold.Chemscore.Lipo>
99.4860

> <Gold.Chemscore.Internal_Hbond>
0.0000

> <Gold.Chemscore.DEClash>
0.0703

> <Gold.Chemscore.DEInternal>
0.2837

> <Gold.Chemscore.Rot>
1.8066

> <Gold.Chemscore.Internal.Correction>
   9.000000E+99

> <Gold.Chemscore.Hbonds>
donor molecule, donor type, donor heavy atom, donor atom, acceptor molecule, acceptor atom, score
      L1  H     3    22       P1  8028  0.40
      P1  H  6933  6944       L1     1  0.86

> <Gold.Chemscore.Hbond.Weighted>
-4.3196

> <Gold.Chemscore.Metal.Weighted>
-0.0000

> <Gold.Chemscore.Lipo.Weighted>
-11.6399

> <Gold.Chemscore.Internal_Hbond.Weighted>
0.0000

> <Gold.Chemscore.DEClash.Weighted>
0.0703

> <Gold.Chemscore.DEInternal.Weighted>
0.2837

> <Gold.Chemscore.Rot.Weighted>
4.6249

> <Gold.Chemscore.Internal.Correction.Weighted>
   9.000000E+99

> <Gold.Protein.RotatedTorsions>
[ 6907 6896 6895 6894 ] final  -30.94 input  -60.11 | X-H torsion
[ 7974 7965 7964 7962 ] final -173.62 input  175.53 | X-H torsion
[ 8008 7997 7996 7995 ] final -174.17 input   59.86 | X-H torsion
[ 10167 10162 10161 10158 ] final  -23.64 input  -65.29 | X-H torsion
[ 10718 10713 10712 10709 ] final -118.49 input   66.30 | X-H torsion
[ 10763 10752 10751 10750 ] final  -15.60 input  -60.55 | X-H torsion
[ 11005 11000 10999 10996 ] final  144.77 input  -57.11 | X-H torsion

> <Gold.Protein.ActiveResidues>
 VAL166  LYS551  ARG553  GLY616  TRP617  ASP618  TYR619  PRO620  LYS621  CYS622 
 ASP623  PHE694  ASN695  SER759  ASP760  ASP761  ALA762  ILE779  LEU786  VAL792 
 PHE793  MET794  SER795  GLU796  ALA797  LYS798  CYS799  TRP800  GLU811  SER814 

> <Gold.Protein.RotatedAtoms>
  151.0988  134.9960  159.8438 H   0  0  0  0  0  0  0  0  0  0  0  0  # atno 6907 bound_to 6896
  152.5435  134.1975  159.8709 H   0  0  0  0  0  0  0  0  0  0  0  0  # atno 6908 bound_to 6896
  151.2017  133.4563  159.2629 H   0  0  0  0  0  0  0  0  0  0  0  0  # atno 6909 bound_to 6896
  144.7137  140.1594  143.6377 H   0  0  0  0  0  0  0  0  0  0  0  0  # atno 7974 bound_to 7965
  155.9667  140.1155  157.0848 H   0  0  0  0  0  0  0  0  0  0  0  0  # atno 8008 bound_to 7997
  154.4146  140.1171  156.5319 H   0  0  0  0  0  0  0  0  0  0  0  0  # atno 8009 bound_to 7997
  155.6650  140.3473  155.4799 H   0  0  0  0  0  0  0  0  0  0  0  0  # atno 8010 bound_to 7997
  140.7288  143.4424  151.0637 H   0  0  0  0  0  0  0  0  0  0  0  0  # atno 10167 bound_to 10162
  156.1110  130.6249  150.9297 H   0  0  0  0  0  0  0  0  0  0  0  0  # atno 10718 bound_to 10713
  153.5458  135.7012  153.5615 H   0  0  0  0  0  0  0  0  0  0  0  0  # atno 10763 bound_to 10752
  153.3560  135.3982  155.1682 H   0  0  0  0  0  0  0  0  0  0  0  0  # atno 10764 bound_to 10752
  154.8668  135.3777  154.4966 H   0  0  0  0  0  0  0  0  0  0  0  0  # atno 10765 bound_to 10752
  140.0659  134.9179  157.1263 H   0  0  0  0  0  0  0  0  0  0  0  0  # atno 11005 bound_to 11000
  145.9044  139.2449  143.1474 LP  0  0  0  0  0  0  0  0  0  0  0  0  # atno 17320 bound_to 7965
  145.9778  140.8707  143.0129 LP  0  0  0  0  0  0  0  0  0  0  0  0  # atno 17321 bound_to 7965
  139.8093  143.7974  152.3170 LP  0  0  0  0  0  0  0  0  0  0  0  0  # atno 17342 bound_to 10162
  139.8018  144.7371  150.9815 LP  0  0  0  0  0  0  0  0  0  0  0  0  # atno 17343 bound_to 10162
  157.6291  131.0923  150.8476 LP  0  0  0  0  0  0  0  0  0  0  0  0  # atno 17370 bound_to 10713
  156.8587  130.5105  149.5305 LP  0  0  0  0  0  0  0  0  0  0  0  0  # atno 17371 bound_to 10713
  140.3700  134.2401  155.7179 LP  0  0  0  0  0  0  0  0  0  0  0  0  # atno 17394 bound_to 11000
  141.1992  133.8016  157.0546 LP  0  0  0  0  0  0  0  0  0  0  0  0  # atno 17395 bound_to 11000

$$$$
