AV-unprocessed.smi:1762|AV-procd|sdf|7122|dock4
  -GOLD-   22720 8353D 1   1.00000     0.00000
 Structure written by MMmdl.
 52 53  0  0  0  0  0  0  0  0  3 V2000
  148.8170  140.9373  155.2168 C   0  0  0  0  0  0  0  0  0  0  0  0
  149.6622  139.6610  155.2881 C   0  0  1  0  0  0  0  0  0  0  0  0
  149.1896  138.5983  154.2726 C   0  0  0  0  0  0  0  0  0  0  0  0
  150.0712  137.3950  154.2926 N   0  3  2  0  0  0  0  0  0  0  0  0
  149.8694  136.4802  155.4708 C   0  0  1  0  0  0  0  0  0  0  0  0
  148.3660  136.1742  155.6789 C   0  0  0  0  0  0  0  0  0  0  0  0
  147.6353  136.1057  154.6844 O   0  0  0  0  0  0  0  0  0  0  0  0
  148.0641  136.0505  157.0009 N   0  5  0  0  0  0  0  0  0  0  0  0
  148.9790  136.4282  158.0743 C   0  0  0  0  0  0  0  0  0  0  0  0
  148.2452  137.3142  159.1042 C   0  0  0  0  0  0  0  0  0  0  0  0
  147.6261  136.5402  160.2641 C   0  0  0  0  0  0  0  0  0  0  0  0
  147.7993  135.1411  160.3688 C   0  0  0  0  0  0  0  0  0  0  0  0
  147.2058  134.4664  161.4530 C   0  0  0  0  0  0  0  0  0  0  0  0
  146.4602  135.2087  162.3885 C   0  0  0  0  0  0  0  0  0  0  0  0
  146.3377  136.5989  162.1952 C   0  0  0  0  0  0  0  0  0  0  0  0
  146.9006  137.2556  161.1584 N   0  0  0  0  0  0  0  0  0  0  0  0
  150.7146  135.1624  155.4168 C   0  0  0  0  0  0  0  0  0  0  0  0
  150.2026  134.1123  154.4090 C   0  0  0  0  0  0  0  0  0  0  0  0
  150.9140  134.5160  156.8021 C   0  0  0  0  0  0  0  0  0  0  0  0
  151.4673  137.8447  154.0391 C   0  0  0  0  0  0  0  0  0  0  0  0
  151.9079  138.9048  155.0695 C   0  0  1  0  0  0  0  0  0  0  0  0
  153.3222  139.4240  154.7900 C   0  0  0  0  0  0  0  0  0  0  0  0
  151.0133  140.0112  155.0026 O   0  0  0  0  0  0  0  0  0  0  0  0
  147.7700  140.7253  155.4353 H   0  0  0  0  0  0  0  0  0  0  0  0
  148.8681  141.3911  154.2266 H   0  0  0  0  0  0  0  0  0  0  0  0
  149.1639  141.6754  155.9404 H   0  0  0  0  0  0  0  0  0  0  0  0
  149.5985  139.2719  156.3048 H   0  0  0  0  0  0  0  0  0  0  0  0
  148.1426  138.3485  154.4404 H   0  0  0  0  0  0  0  0  0  0  0  0
  149.2228  139.0231  153.2683 H   0  0  0  0  0  0  0  0  0  0  0  0
  150.2375  137.0190  156.3452 H   0  0  0  0  0  0  0  0  0  0  0  0
  149.3782  135.5498  158.5828 H   0  0  0  0  0  0  0  0  0  0  0  0
  149.8435  136.9721  157.6914 H   0  0  0  0  0  0  0  0  0  0  0  0
  148.9359  138.0543  159.5118 H   0  0  0  0  0  0  0  0  0  0  0  0
  147.4569  137.8813  158.6072 H   0  0  0  0  0  0  0  0  0  0  0  0
  148.3791  134.5981  159.6368 H   0  0  0  0  0  0  0  0  0  0  0  0
  147.3213  133.3985  161.5653 H   0  0  0  0  0  0  0  0  0  0  0  0
  145.9935  134.7247  163.2335 H   0  0  0  0  0  0  0  0  0  0  0  0
  145.7721  137.1996  162.8920 H   0  0  0  0  0  0  0  0  0  0  0  0
  151.7233  135.4353  155.1101 H   0  0  0  0  0  0  0  0  0  0  0  0
  149.2505  133.6823  154.7192 H   0  0  0  0  0  0  0  0  0  0  0  0
  150.9109  133.2885  154.3185 H   0  0  0  0  0  0  0  0  0  0  0  0
  150.0677  134.5321  153.4128 H   0  0  0  0  0  0  0  0  0  0  0  0
  149.9846  134.1091  157.2018 H   0  0  0  0  0  0  0  0  0  0  0  0
  151.2982  135.2393  157.5220 H   0  0  0  0  0  0  0  0  0  0  0  0
  151.6304  133.6956  156.7498 H   0  0  0  0  0  0  0  0  0  0  0  0
  152.1719  137.0174  153.9944 H   0  0  0  0  0  0  0  0  0  0  0  0
  151.4987  138.2861  153.0419 H   0  0  0  0  0  0  0  0  0  0  0  0
  151.8911  138.4849  156.0762 H   0  0  0  0  0  0  0  0  0  0  0  0
  154.0522  138.6151  154.8310 H   0  0  0  0  0  0  0  0  0  0  0  0
  153.6146  140.1731  155.5262 H   0  0  0  0  0  0  0  0  0  0  0  0
  153.3870  139.8840  153.8035 H   0  0  0  0  0  0  0  0  0  0  0  0
  149.8032  136.8376  153.4938 H   0  0  0  0  0  0  0  0  0  0  0  0
  1  2  1  0  0  0  0
  1 24  1  0  0  0  0
  1 25  1  0  0  0  0
  1 26  1  0  0  0  0
  2 23  1  0  0  0  0
  2  3  1  0  0  0  0
  2 27  1  0  0  0  0
  3  4  1  0  0  0  0
  3 28  1  0  0  0  0
  3 29  1  0  0  0  0
  4  5  1  0  0  0  0
  4 20  1  0  0  0  0
  4 52  1  0  0  0  0
  5  6  1  0  0  0  0
  5 17  1  0  0  0  0
  5 30  1  0  0  0  0
  6  7  2  0  0  0  0
  6  8  1  0  0  0  0
  8  9  1  0  0  0  0
  9 10  1  0  0  0  0
  9 31  1  0  0  0  0
  9 32  1  0  0  0  0
 10 11  1  0  0  0  0
 10 33  1  0  0  0  0
 10 34  1  0  0  0  0
 11 16  1  0  0  0  0
 11 12  2  0  0  0  0
 12 13  1  0  0  0  0
 12 35  1  0  0  0  0
 13 14  2  0  0  0  0
 13 36  1  0  0  0  0
 14 15  1  0  0  0  0
 14 37  1  0  0  0  0
 15 16  2  0  0  0  0
 15 38  1  0  0  0  0
 17 18  1  0  0  0  0
 17 19  1  0  0  0  0
 17 39  1  0  0  0  0
 18 40  1  0  0  0  0
 18 41  1  0  0  0  0
 18 42  1  0  0  0  0
 19 43  1  0  0  0  0
 19 44  1  0  0  0  0
 19 45  1  0  0  0  0
 20 21  1  0  0  0  0
 20 46  1  0  0  0  0
 20 47  1  0  0  0  0
 21 22  1  0  0  0  0
 21 23  1  0  0  0  0
 21 48  1  0  0  0  0
 22 49  1  0  0  0  0
 22 50  1  0  0  0  0
 22 51  1  0  0  0  0
M  CHG  1   4   1
M  CHG  1   8  -1
M  END
> <s_m_source_file>
AV-unprocessed.smi

> <i_m_source_file_index>
1762

> <i_lp_mmshare_version>
43012

> <i_f3d_flags>
0

> <s_epik_input>
W0NIM11bQ0BASF0xW0NIMl1OKFtDSDJdW0NASF0oTzEpW0NIM10pW0NAQEhdKFtDSF0oW0NIM10pW0NIM10pQyg9TylbTkhdW0NIMl1bQ0gyXWMyW2NIXVtjSF1bY0hdW2NIXW4y

> <s_epik_cmdline>
J2VwaWtfcHl0aG9uJywgJy1waCcsICc3LjAnLCAnLXRuJywgJzgnLCAnLW1hJywgJzIwMCcsICctbWV0YWxfYmluZGluZycsICctaW1hZScsICc8aW5maWxlLm1hZT4nLCAnLW9tYWUnLCAnPG91dGZpbGUubWFlPic=

> <r_epik_Ionization_Penalty>
7.82966

> <r_epik_Ionization_Penalty_Charging>
7.7461

> <r_epik_Ionization_Penalty_Neutral>
0.0835571

> <r_epik_State_Penalty>
8.52273

> <r_epik_Charging_Adjusted_Penalty>
16.2688

> <i_epik_Tot_Q>
0

> <i_epik_Tot_abs_Q>
2

> <r_epik_Metal_State_Penalty>
4.47451

> <b_epik_Metal_Only>
1

> <s_lp_Force_Field>
OPLS_2005

> <r_lp_Energy>
22.3574

> <b_lp_Chiralities_Consistent>
1

> <s_lp_Variant>
AV-unprocessed.smi:1762-24

> <Gold.Version>
5.8.1

> <Gold.Id.Protein>
6NUR|6NUR_protein|mol2

> <Gold.PLP.Fitness>
53.2739

> <Gold.PLP.PLP>
-40.8211

> <Gold.PLP.part.hbond>
-4.2279

> <Gold.PLP.part.metal>
0.0000

> <Gold.PLP.part.buried>
-1.8212

> <Gold.PLP.part.nonpolar>
-34.9955

> <Gold.PLP.part.repulsive>
0.1599

> <Gold.PLP.ligand.clash>
0.0000

> <Gold.PLP.ligand.torsion>
1.2970

> <Gold.PLP.Chemscore.Hbond>
4.8080

> <Gold.PLP.Chemscore.CHOScore>
0.0000

> <Gold.PLP.Chemscore.Metal>
0.0000

> <Gold.Chemscore.Hbonds>
donor molecule, donor type, donor heavy atom, donor atom, acceptor molecule, acceptor atom, score
      L1  H     4    52       P1  7948  2.00
      P1  H  6934  6947       L1    16  1.00
      P1  H  7989  7998       L1    23  1.00

> <Gold.PLP.Chemscore.Internal.Correction>
0.6227

> <Gold.Rescore>
     Score         DG    S(hbond)    S(metal)    S(lipo)     H(rot)  DE(clash)    DE(int)     intcor
     19.33     -23.97       3.01        0.00     107.31       1.60       1.59       3.06       ----

> <Gold.Chemscore.Fitness>
19.3296

> <Gold.Chemscore.DG>
-23.9730

> <Gold.Chemscore.ZeroCoef>
-5.4800

> <Gold.Chemscore.Hbond>
3.0050

> <Gold.Chemscore.Metal>
0.0000

> <Gold.Chemscore.Lipo>
107.3093

> <Gold.Chemscore.Internal_Hbond>
0.0000

> <Gold.Chemscore.DEClash>
1.5880

> <Gold.Chemscore.DEInternal>
3.0555

> <Gold.Chemscore.Rot>
1.6012

> <Gold.Chemscore.Internal.Correction>
   9.000000E+99

> <Gold.Chemscore.Hbonds>
donor molecule, donor type, donor heavy atom, donor atom, acceptor molecule, acceptor atom, score
      L1  H     4    52       P1  7948  0.45
      P1  H  6934  6947       L1    16  0.78
      P1  H  7989  7998       L1    23  0.30

> <Gold.Chemscore.Hbond.Weighted>
-10.0368

> <Gold.Chemscore.Metal.Weighted>
-0.0000

> <Gold.Chemscore.Lipo.Weighted>
-12.5552

> <Gold.Chemscore.Internal_Hbond.Weighted>
0.0000

> <Gold.Chemscore.DEClash.Weighted>
1.5880

> <Gold.Chemscore.DEInternal.Weighted>
3.0555

> <Gold.Chemscore.Rot.Weighted>
4.0990

> <Gold.Chemscore.Internal.Correction.Weighted>
   9.000000E+99

> <Gold.Protein.RotatedTorsions>
[ 6907 6896 6895 6894 ] final    7.28 input  -60.11 | X-H torsion
[ 7974 7965 7964 7962 ] final -162.78 input  175.53 | X-H torsion
[ 8008 7997 7996 7995 ] final   36.98 input   59.86 | X-H torsion
[ 10167 10162 10161 10158 ] final   37.52 input  -65.29 | X-H torsion
[ 10718 10713 10712 10709 ] final   15.52 input   66.30 | X-H torsion
[ 10763 10752 10751 10750 ] final  -46.59 input  -60.55 | X-H torsion
[ 11005 11000 10999 10996 ] final    3.55 input  -57.11 | X-H torsion

> <Gold.Protein.ActiveResidues>
 VAL166  LYS551  ARG553  GLY616  TRP617  ASP618  TYR619  PRO620  LYS621  CYS622 
 ASP623  PHE694  ASN695  SER759  ASP760  ASP761  ALA762  ILE779  LEU786  VAL792 
 PHE793  MET794  SER795  GLU796  ALA797  LYS798  CYS799  TRP800  GLU811  SER814 

> <Gold.Protein.RotatedAtoms>
  151.6874  135.0952  160.0227 H   0  0  0  0  0  0  0  0  0  0  0  0  # atno 6907 bound_to 6896
  152.3799  133.6528  159.6161 H   0  0  0  0  0  0  0  0  0  0  0  0  # atno 6908 bound_to 6896
  150.7739  133.9047  159.3393 H   0  0  0  0  0  0  0  0  0  0  0  0  # atno 6909 bound_to 6896
  144.7346  140.3203  143.6172 H   0  0  0  0  0  0  0  0  0  0  0  0  # atno 7974 bound_to 7965
  155.1962  140.3312  155.4350 H   0  0  0  0  0  0  0  0  0  0  0  0  # atno 8008 bound_to 7997
  156.2424  140.1901  156.7002 H   0  0  0  0  0  0  0  0  0  0  0  0  # atno 8009 bound_to 7997
  154.6172  140.0600  156.9555 H   0  0  0  0  0  0  0  0  0  0  0  0  # atno 8010 bound_to 7997
  140.4024  144.1705  150.6134 H   0  0  0  0  0  0  0  0  0  0  0  0  # atno 10167 bound_to 10162
  157.0548  130.6284  149.5774 H   0  0  0  0  0  0  0  0  0  0  0  0  # atno 10718 bound_to 10713
  154.0475  135.6635  153.4796 H   0  0  0  0  0  0  0  0  0  0  0  0  # atno 10763 bound_to 10752
  153.0477  135.5104  154.7782 H   0  0  0  0  0  0  0  0  0  0  0  0  # atno 10764 bound_to 10752
  154.6778  135.3040  154.9620 H   0  0  0  0  0  0  0  0  0  0  0  0  # atno 10765 bound_to 10752
  140.5918  133.9916  155.8092 H   0  0  0  0  0  0  0  0  0  0  0  0  # atno 11005 bound_to 11000
  145.7575  139.1814  143.2286 LP  0  0  0  0  0  0  0  0  0  0  0  0  # atno 17320 bound_to 7965
  146.1012  140.7541  142.9548 LP  0  0  0  0  0  0  0  0  0  0  0  0  # atno 17321 bound_to 7965
  140.4725  143.2408  151.9068 LP  0  0  0  0  0  0  0  0  0  0  0  0  # atno 17342 bound_to 10162
  139.4784  144.5354  151.8606 LP  0  0  0  0  0  0  0  0  0  0  0  0  # atno 17343 bound_to 10162
  155.9996  130.5073  150.7614 LP  0  0  0  0  0  0  0  0  0  0  0  0  # atno 17370 bound_to 10713
  157.5002  131.0918  151.0323 LP  0  0  0  0  0  0  0  0  0  0  0  0  # atno 17371 bound_to 10713
  141.0929  133.9888  157.3207 LP  0  0  0  0  0  0  0  0  0  0  0  0  # atno 17394 bound_to 11000
  139.9270  135.0201  156.8270 LP  0  0  0  0  0  0  0  0  0  0  0  0  # atno 17395 bound_to 11000

$$$$
