AV-unprocessed.smi:1102|AV-procd|sdf|4767|dock2
  -GOLD-   22720 3303D 1   1.00000     0.00000
 Structure written by MMmdl.
 40 41  0  0  0  0  0  0  0  0  2 V2000
  143.8996  132.1497  150.3274 C   0  0  0  0  0  0  0  0  0  0  0  0
  144.5557  132.5766  151.5540 N   0  0  0  0  0  0  0  0  0  0  0  0
  145.9971  132.3834  151.6082 C   0  0  0  0  0  0  0  0  0  0  0  0
  144.1580  133.8565  151.9640 C   0  0  0  0  0  0  0  0  0  0  0  0
  144.5884  135.0115  151.2790 C   0  0  0  0  0  0  0  0  0  0  0  0
  144.1639  136.2792  151.7266 C   0  0  0  0  0  0  0  0  0  0  0  0
  143.3252  136.3794  152.8577 C   0  0  0  0  0  0  0  0  0  0  0  0
  142.9141  137.6780  153.2629 N   0  0  0  0  0  0  0  0  0  0  0  0
  141.9745  138.0156  154.1627 C   0  0  0  0  0  0  0  0  0  0  0  0
  141.3110  137.2218  154.8290 O   0  0  0  0  0  0  0  0  0  0  0  0
  141.8560  139.3469  154.2622 N   0  0  0  0  0  0  0  0  0  0  0  0
  140.9167  140.0417  155.1354 C   0  0  0  0  0  0  0  0  0  0  0  0
  139.7303  140.6140  154.3424 C   0  0  2  0  0  0  0  0  0  0  0  0
  139.2336  141.9660  154.8639 C   0  0  0  0  0  0  0  0  0  0  0  0
  137.7297  141.9353  154.6228 C   0  0  0  0  0  0  0  0  0  0  0  0
  137.4752  140.5525  154.0251 C   0  0  0  0  0  0  0  0  0  0  0  0
  138.5843  139.7842  154.4608 O   0  0  0  0  0  0  0  0  0  0  0  0
  142.9165  135.1846  153.5004 C   0  0  0  0  0  0  0  0  0  0  0  0
  143.3437  133.9897  153.0376 N   0  3  0  0  0  0  0  0  0  0  0  0
  142.8240  132.3237  150.3800 H   0  0  0  0  0  0  0  0  0  0  0  0
  144.0601  131.0833  150.1657 H   0  0  0  0  0  0  0  0  0  0  0  0
  144.2943  132.6887  149.4654 H   0  0  0  0  0  0  0  0  0  0  0  0
  146.3936  132.6960  152.5752 H   0  0  0  0  0  0  0  0  0  0  0  0
  146.4994  132.9560  150.8274 H   0  0  0  0  0  0  0  0  0  0  0  0
  146.2416  131.3299  151.4692 H   0  0  0  0  0  0  0  0  0  0  0  0
  145.2362  134.9296  150.4181 H   0  0  0  0  0  0  0  0  0  0  0  0
  144.4870  137.1683  151.2047 H   0  0  0  0  0  0  0  0  0  0  0  0
  143.4259  138.4441  152.8504 H   0  0  0  0  0  0  0  0  0  0  0  0
  142.4467  139.9241  153.6818 H   0  0  0  0  0  0  0  0  0  0  0  0
  140.5676  139.3866  155.9353 H   0  0  0  0  0  0  0  0  0  0  0  0
  141.4581  140.8555  155.6183 H   0  0  0  0  0  0  0  0  0  0  0  0
  139.9885  140.7041  153.2853 H   0  0  0  0  0  0  0  0  0  0  0  0
  139.4299  142.0678  155.9320 H   0  0  0  0  0  0  0  0  0  0  0  0
  139.7214  142.7984  154.3560 H   0  0  0  0  0  0  0  0  0  0  0  0
  137.1990  142.0460  155.5691 H   0  0  0  0  0  0  0  0  0  0  0  0
  137.3958  142.7306  153.9556 H   0  0  0  0  0  0  0  0  0  0  0  0
  136.5305  140.1186  154.3528 H   0  0  0  0  0  0  0  0  0  0  0  0
  137.4728  140.5962  152.9349 H   0  0  0  0  0  0  0  0  0  0  0  0
  142.2587  135.1292  154.3546 H   0  0  0  0  0  0  0  0  0  0  0  0
  143.0350  133.1463  153.5216 H   0  0  0  0  0  0  0  0  0  0  0  0
  1  2  1  0  0  0  0
  1 20  1  0  0  0  0
  1 21  1  0  0  0  0
  1 22  1  0  0  0  0
  2  3  1  0  0  0  0
  2  4  1  0  0  0  0
  3 23  1  0  0  0  0
  3 24  1  0  0  0  0
  3 25  1  0  0  0  0
  4 19  1  0  0  0  0
  4  5  2  0  0  0  0
  5  6  1  0  0  0  0
  5 26  1  0  0  0  0
  6  7  2  0  0  0  0
  6 27  1  0  0  0  0
  7  8  1  0  0  0  0
  7 18  1  0  0  0  0
  8  9  1  0  0  0  0
  8 28  1  0  0  0  0
  9 10  2  0  0  0  0
  9 11  1  0  0  0  0
 11 12  1  0  0  0  0
 11 29  1  0  0  0  0
 12 13  1  0  0  0  0
 12 30  1  0  0  0  0
 12 31  1  0  0  0  0
 13 17  1  0  0  0  0
 13 14  1  0  0  0  0
 13 32  1  0  0  0  0
 14 15  1  0  0  0  0
 14 33  1  0  0  0  0
 14 34  1  0  0  0  0
 15 16  1  0  0  0  0
 15 35  1  0  0  0  0
 15 36  1  0  0  0  0
 16 17  1  0  0  0  0
 16 37  1  0  0  0  0
 16 38  1  0  0  0  0
 18 19  2  0  0  0  0
 18 39  1  0  0  0  0
 19 40  1  0  0  0  0
M  CHG  1  19   1
M  END
> <s_m_source_file>
AV-unprocessed.smi

> <i_m_source_file_index>
1102

> <i_lp_mmshare_version>
43012

> <i_f3d_flags>
0

> <s_epik_input>
W0NIM11OKFtDSDNdKWMxW2NIXVtjSF1jKFtjSF1uMSlbTkhdQyg9TylbTkhdW0NIMl1bQ0BASF0yW0NIMl1bQ0gyXVtDSDJdTzI=

> <s_epik_cmdline>
J2VwaWtfcHl0aG9uJywgJy1waCcsICc3LjAnLCAnLXRuJywgJzgnLCAnLW1hJywgJzIwMCcsICctbWV0YWxfYmluZGluZycsICctaW1hZScsICc8aW5maWxlLm1hZT4nLCAnLW9tYWUnLCAnPG91dGZpbGUubWFlPic=

> <r_lp_tautomer_probability>
0.999994

> <r_epik_Ionization_Penalty>
0.265123

> <r_epik_Ionization_Penalty_Charging>
0.265104

> <r_epik_Ionization_Penalty_Neutral>
1.89079e-05

> <r_epik_State_Penalty>
0.257001

> <r_epik_Charging_Adjusted_Penalty>
0.522106

> <i_epik_Tot_Q>
1

> <i_epik_Tot_abs_Q>
1

> <r_epik_Metal_State_Penalty>
0.543599

> <b_epik_Metal_Only>
0

> <s_lp_Force_Field>
OPLS_2005

> <r_lp_Energy>
30.1742

> <b_lp_Chiralities_Consistent>
1

> <s_lp_Variant>
AV-unprocessed.smi:1102-1

> <Gold.Version>
5.8.1

> <Gold.Id.Protein>
6NUR|6NUR_protein|mol2

> <Gold.PLP.Fitness>
40.4950

> <Gold.PLP.PLP>
-29.9156

> <Gold.PLP.part.hbond>
-3.0000

> <Gold.PLP.part.metal>
0.0000

> <Gold.PLP.part.buried>
-4.8411

> <Gold.PLP.part.nonpolar>
-22.6256

> <Gold.PLP.part.repulsive>
0.2596

> <Gold.PLP.ligand.clash>
0.0000

> <Gold.PLP.ligand.torsion>
0.8028

> <Gold.PLP.Chemscore.Hbond>
3.9920

> <Gold.PLP.Chemscore.CHOScore>
0.0000

> <Gold.PLP.Chemscore.Metal>
0.0000

> <Gold.Chemscore.Hbonds>
donor molecule, donor type, donor heavy atom, donor atom, acceptor molecule, acceptor atom, score
      L1  H     8    28       P1 10175  0.99
      L1  H    11    29       P1 10175  1.00
      L1  H    19    40       P1 10957  2.00

> <Gold.PLP.Chemscore.Internal.Correction>
0.2090

> <Gold.Rescore>
     Score         DG    S(hbond)    S(metal)    S(lipo)     H(rot)  DE(clash)    DE(int)     intcor
     15.76     -17.90       2.82        0.00      57.30       1.45       0.10       2.03       ----

> <Gold.Chemscore.Fitness>
15.7638

> <Gold.Chemscore.DG>
-17.8978

> <Gold.Chemscore.ZeroCoef>
-5.4800

> <Gold.Chemscore.Hbond>
2.8198

> <Gold.Chemscore.Metal>
0.0000

> <Gold.Chemscore.Lipo>
57.2972

> <Gold.Chemscore.Internal_Hbond>
0.0000

> <Gold.Chemscore.DEClash>
0.0998

> <Gold.Chemscore.DEInternal>
2.0343

> <Gold.Chemscore.Rot>
1.4469

> <Gold.Chemscore.Internal.Correction>
   9.000000E+99

> <Gold.Chemscore.Hbonds>
donor molecule, donor type, donor heavy atom, donor atom, acceptor molecule, acceptor atom, score
      L1  H     8    28       P1 10175  0.87
      L1  H    11    29       P1 10175  0.97
      L1  H    19    40       P1 10957  0.96

> <Gold.Chemscore.Hbond.Weighted>
-9.4182

> <Gold.Chemscore.Metal.Weighted>
-0.0000

> <Gold.Chemscore.Lipo.Weighted>
-6.7038

> <Gold.Chemscore.Internal_Hbond.Weighted>
0.0000

> <Gold.Chemscore.DEClash.Weighted>
0.0998

> <Gold.Chemscore.DEInternal.Weighted>
2.0343

> <Gold.Chemscore.Rot.Weighted>
3.7042

> <Gold.Chemscore.Internal.Correction.Weighted>
   9.000000E+99

> <Gold.Protein.RotatedTorsions>
[ 6907 6896 6895 6894 ] final  -17.05 input  -60.11 | X-H torsion
[ 7974 7965 7964 7962 ] final   16.23 input  175.53 | X-H torsion
[ 8008 7997 7996 7995 ] final  123.02 input   59.86 | X-H torsion
[ 10167 10162 10161 10158 ] final -116.50 input  -65.29 | X-H torsion
[ 10718 10713 10712 10709 ] final    3.73 input   66.30 | X-H torsion
[ 10763 10752 10751 10750 ] final -143.55 input  -60.55 | X-H torsion
[ 11005 11000 10999 10996 ] final  -27.88 input  -57.11 | X-H torsion

> <Gold.Protein.ActiveResidues>
 VAL166  LYS551  ARG553  GLY616  TRP617  ASP618  TYR619  PRO620  LYS621  CYS622 
 ASP623  PHE694  ASN695  SER759  ASP760  ASP761  ALA762  ILE779  LEU786  VAL792 
 PHE793  MET794  SER795  GLU796  ALA797  LYS798  CYS799  TRP800  GLU811  SER814 

> <Gold.Protein.RotatedAtoms>
  151.2993  135.0764  159.9232 H   0  0  0  0  0  0  0  0  0  0  0  0  # atno 6907 bound_to 6896
  152.5301  133.9850  159.7834 H   0  0  0  0  0  0  0  0  0  0  0  0  # atno 6908 bound_to 6896
  151.0134  133.5892  159.2710 H   0  0  0  0  0  0  0  0  0  0  0  0  # atno 6909 bound_to 6896
  146.2255  139.8778  142.8576 H   0  0  0  0  0  0  0  0  0  0  0  0  # atno 7974 bound_to 7965
  156.2750  140.2772  156.1560 H   0  0  0  0  0  0  0  0  0  0  0  0  # atno 8008 bound_to 7997
  155.0803  140.0387  157.2655 H   0  0  0  0  0  0  0  0  0  0  0  0  # atno 8009 bound_to 7997
  154.6969  140.2641  155.6763 H   0  0  0  0  0  0  0  0  0  0  0  0  # atno 8010 bound_to 7997
  140.0785  143.4810  152.1939 H   0  0  0  0  0  0  0  0  0  0  0  0  # atno 10167 bound_to 10162
  156.8821  130.5657  149.5652 H   0  0  0  0  0  0  0  0  0  0  0  0  # atno 10718 bound_to 10713
  154.8465  135.3465  154.6206 H   0  0  0  0  0  0  0  0  0  0  0  0  # atno 10763 bound_to 10752
  153.6814  135.6980  153.5121 H   0  0  0  0  0  0  0  0  0  0  0  0  # atno 10764 bound_to 10752
  153.2665  135.4306  155.0901 H   0  0  0  0  0  0  0  0  0  0  0  0  # atno 10765 bound_to 10752
  140.9158  133.7431  156.0733 H   0  0  0  0  0  0  0  0  0  0  0  0  # atno 11005 bound_to 11000
  145.2543  141.0055  143.3863 LP  0  0  0  0  0  0  0  0  0  0  0  0  # atno 17320 bound_to 7965
  144.9349  139.4255  143.6477 LP  0  0  0  0  0  0  0  0  0  0  0  0  # atno 17321 bound_to 7965
  139.5793  144.7503  151.3681 LP  0  0  0  0  0  0  0  0  0  0  0  0  # atno 17342 bound_to 10162
  140.7089  143.7441  150.7532 LP  0  0  0  0  0  0  0  0  0  0  0  0  # atno 17343 bound_to 10162
  156.0672  130.5713  150.9312 LP  0  0  0  0  0  0  0  0  0  0  0  0  # atno 17370 bound_to 10713
  157.6134  131.0935  150.8754 LP  0  0  0  0  0  0  0  0  0  0  0  0  # atno 17371 bound_to 10713
  140.8051  134.3464  157.5428 LP  0  0  0  0  0  0  0  0  0  0  0  0  # atno 17394 bound_to 11000
  139.8766  134.9221  156.3291 LP  0  0  0  0  0  0  0  0  0  0  0  0  # atno 17395 bound_to 11000

$$$$
