AV-unprocessed.smi:1177|AV-procd|sdf|4954|dock2
  -GOLD-   22720 3543D 1   1.00000     0.00000
 Structure written by MMmdl.
 30 31  0  0  0  0  0  0  0  0  1 V2000
  150.3014  140.6008  155.4766 O   0  0  0  0  0  0  0  0  0  0  0  0
  149.9468  141.7786  155.5315 C   0  0  0  0  0  0  0  0  0  0  0  0
  150.4692  142.6806  156.3741 N   0  0  0  0  0  0  0  0  0  0  0  0
  151.5233  142.4066  157.3443 C   0  0  0  0  0  0  0  0  0  0  0  0
  151.8776  143.6566  158.1672 C   0  0  0  0  0  0  0  0  0  0  0  0
  152.2951  143.3117  159.5843 C   0  0  0  0  0  0  0  0  0  0  0  0
  151.9263  144.1401  160.6658 C   0  0  0  0  0  0  0  0  0  0  0  0
  152.3444  143.7782  161.9611 C   0  0  0  0  0  0  0  0  0  0  0  0
  153.1128  142.6093  162.1241 C   0  0  0  0  0  0  0  0  0  0  0  0
  153.4306  141.8515  160.9793 C   0  0  0  0  0  0  0  0  0  0  0  0
  153.0343  142.1893  159.7333 N   0  0  0  0  0  0  0  0  0  0  0  0
  148.9920  142.3155  154.7601 N   0  0  0  0  0  0  0  0  0  0  0  0
  148.2425  141.6174  153.7663 C   0  0  0  0  0  0  0  0  0  0  0  0
  146.7853  141.9889  153.5953 C   0  0  0  0  0  0  0  0  0  0  0  0
  147.1519  140.6798  154.2380 C   0  0  0  0  0  0  0  0  0  0  0  0
  150.1143  143.6251  156.3417 H   0  0  0  0  0  0  0  0  0  0  0  0
  151.2242  141.5869  158.0000 H   0  0  0  0  0  0  0  0  0  0  0  0
  152.4019  142.0625  156.7982 H   0  0  0  0  0  0  0  0  0  0  0  0
  152.6837  144.2070  157.6803 H   0  0  0  0  0  0  0  0  0  0  0  0
  151.0253  144.3366  158.2089 H   0  0  0  0  0  0  0  0  0  0  0  0
  151.3385  145.0326  160.5086 H   0  0  0  0  0  0  0  0  0  0  0  0
  152.0817  144.3869  162.8139 H   0  0  0  0  0  0  0  0  0  0  0  0
  153.4513  142.3012  163.1022 H   0  0  0  0  0  0  0  0  0  0  0  0
  154.0191  140.9502  161.0668 H   0  0  0  0  0  0  0  0  0  0  0  0
  148.7757  143.2935  154.8863 H   0  0  0  0  0  0  0  0  0  0  0  0
  148.7692  141.3196  152.8606 H   0  0  0  0  0  0  0  0  0  0  0  0
  146.3777  142.7662  154.2390 H   0  0  0  0  0  0  0  0  0  0  0  0
  146.3748  141.9563  152.5881 H   0  0  0  0  0  0  0  0  0  0  0  0
  146.9851  139.7729  153.6603 H   0  0  0  0  0  0  0  0  0  0  0  0
  146.9897  140.5846  155.3100 H   0  0  0  0  0  0  0  0  0  0  0  0
  1  2  2  0  0  0  0
  2  3  1  0  0  0  0
  2 12  1  0  0  0  0
  3  4  1  0  0  0  0
  3 16  1  0  0  0  0
  4  5  1  0  0  0  0
  4 17  1  0  0  0  0
  4 18  1  0  0  0  0
  5  6  1  0  0  0  0
  5 19  1  0  0  0  0
  5 20  1  0  0  0  0
  6 11  1  0  0  0  0
  6  7  2  0  0  0  0
  7  8  1  0  0  0  0
  7 21  1  0  0  0  0
  8  9  2  0  0  0  0
  8 22  1  0  0  0  0
  9 10  1  0  0  0  0
  9 23  1  0  0  0  0
 10 11  2  0  0  0  0
 10 24  1  0  0  0  0
 12 13  1  0  0  0  0
 12 25  1  0  0  0  0
 13 15  1  0  0  0  0
 13 14  1  0  0  0  0
 13 26  1  0  0  0  0
 14 15  1  0  0  0  0
 14 27  1  0  0  0  0
 14 28  1  0  0  0  0
 15 29  1  0  0  0  0
 15 30  1  0  0  0  0
M  END
> <s_m_source_file>
AV-unprocessed.smi

> <i_m_source_file_index>
1177

> <i_lp_mmshare_version>
43012

> <i_f3d_flags>
0

> <s_epik_input>
W0NIMl0xW0NIMl1bQ0hdMVtOSF1DKD1PKVtOSF1bQ0gyXVtDSDJdYzJbY0hdW2NIXVtjSF1bY0hdbjI=

> <s_epik_cmdline>
J2VwaWtfcHl0aG9uJywgJy1waCcsICc3LjAnLCAnLXRuJywgJzgnLCAnLW1hJywgJzIwMCcsICctbWV0YWxfYmluZGluZycsICctaW1hZScsICc8aW5maWxlLm1hZT4nLCAnLW9tYWUnLCAnPG91dGZpbGUubWFlPic=

> <r_epik_Ionization_Penalty>
0.0440342

> <r_epik_Ionization_Penalty_Charging>
0

> <r_epik_Ionization_Penalty_Neutral>
0.0440342

> <r_epik_State_Penalty>
0.0372351

> <r_epik_Charging_Adjusted_Penalty>
0.0372351

> <i_epik_Tot_Q>
0

> <i_epik_Tot_abs_Q>
0

> <r_epik_Metal_State_Penalty>
0.0346506

> <b_epik_Metal_Only>
0

> <s_lp_Force_Field>
OPLS_2005

> <r_lp_Energy>
12.265

> <b_lp_Chiralities_Consistent>
1

> <s_lp_Variant>
AV-unprocessed.smi:1177-1

> <Gold.Version>
5.8.1

> <Gold.Id.Protein>
6NUR|6NUR_protein|mol2

> <Gold.PLP.Fitness>
43.8914

> <Gold.PLP.PLP>
-39.6112

> <Gold.PLP.part.hbond>
-2.0000

> <Gold.PLP.part.metal>
0.0000

> <Gold.PLP.part.buried>
-5.8275

> <Gold.PLP.part.nonpolar>
-31.1149

> <Gold.PLP.part.repulsive>
0.3541

> <Gold.PLP.ligand.clash>
0.0000

> <Gold.PLP.ligand.torsion>
0.7993

> <Gold.PLP.Chemscore.Hbond>
1.9440

> <Gold.PLP.Chemscore.CHOScore>
0.0000

> <Gold.PLP.Chemscore.Metal>
0.0000

> <Gold.Chemscore.Hbonds>
donor molecule, donor type, donor heavy atom, donor atom, acceptor molecule, acceptor atom, score
      L1  H     3    16       P1  8028  0.94
      L1  H    12    25       P1  8028  1.00
      P1  H  7989  7998       L1     1  0.06

> <Gold.PLP.Chemscore.Internal.Correction>
0.0468

> <Gold.Rescore>
     Score         DG    S(hbond)    S(metal)    S(lipo)     H(rot)  DE(clash)    DE(int)     intcor
     18.82     -19.42       1.92        0.00      99.58       1.61       0.03       0.57       ----

> <Gold.Chemscore.Fitness>
18.8241

> <Gold.Chemscore.DG>
-19.4249

> <Gold.Chemscore.ZeroCoef>
-5.4800

> <Gold.Chemscore.Hbond>
1.9244

> <Gold.Chemscore.Metal>
0.0000

> <Gold.Chemscore.Lipo>
99.5820

> <Gold.Chemscore.Internal_Hbond>
0.0000

> <Gold.Chemscore.DEClash>
0.0261

> <Gold.Chemscore.DEInternal>
0.5747

> <Gold.Chemscore.Rot>
1.6147

> <Gold.Chemscore.Internal.Correction>
   9.000000E+99

> <Gold.Chemscore.Hbonds>
donor molecule, donor type, donor heavy atom, donor atom, acceptor molecule, acceptor atom, score
      L1  H     3    16       P1  8028  0.91
      L1  H    12    25       P1  8028  0.97
      P1  H  7989  7998       L1     1  0.01

> <Gold.Chemscore.Hbond.Weighted>
-6.4274

> <Gold.Chemscore.Metal.Weighted>
-0.0000

> <Gold.Chemscore.Lipo.Weighted>
-11.6511

> <Gold.Chemscore.Internal_Hbond.Weighted>
0.0000

> <Gold.Chemscore.DEClash.Weighted>
0.0261

> <Gold.Chemscore.DEInternal.Weighted>
0.5747

> <Gold.Chemscore.Rot.Weighted>
4.1336

> <Gold.Chemscore.Internal.Correction.Weighted>
   9.000000E+99

> <Gold.Protein.RotatedTorsions>
[ 6907 6896 6895 6894 ] final   43.72 input  -60.11 | X-H torsion
[ 7974 7965 7964 7962 ] final -152.68 input  175.53 | X-H torsion
[ 8008 7997 7996 7995 ] final   29.21 input   59.86 | X-H torsion
[ 10167 10162 10161 10158 ] final -147.96 input  -65.29 | X-H torsion
[ 10718 10713 10712 10709 ] final  110.75 input   66.30 | X-H torsion
[ 10763 10752 10751 10750 ] final -169.29 input  -60.55 | X-H torsion
[ 11005 11000 10999 10996 ] final  119.38 input  -57.11 | X-H torsion

> <Gold.Protein.ActiveResidues>
 VAL166  LYS551  ARG553  GLY616  TRP617  ASP618  TYR619  PRO620  LYS621  CYS622 
 ASP623  PHE694  ASN695  SER759  ASP760  ASP761  ALA762  ILE779  LEU786  VAL792 
 PHE793  MET794  SER795  GLU796  ALA797  LYS798  CYS799  TRP800  GLU811  SER814 

> <Gold.Protein.RotatedAtoms>
  152.2238  134.8388  160.0482 H   0  0  0  0  0  0  0  0  0  0  0  0  # atno 6907 bound_to 6896
  151.9162  133.3568  159.3889 H   0  0  0  0  0  0  0  0  0  0  0  0  # atno 6908 bound_to 6896
  150.7007  134.4607  159.5423 H   0  0  0  0  0  0  0  0  0  0  0  0  # atno 6909 bound_to 6896
  144.7781  140.4629  143.5859 H   0  0  0  0  0  0  0  0  0  0  0  0  # atno 7974 bound_to 7965
  155.0709  140.3200  155.4631 H   0  0  0  0  0  0  0  0  0  0  0  0  # atno 8008 bound_to 7997
  156.2791  140.2112  156.5781 H   0  0  0  0  0  0  0  0  0  0  0  0  # atno 8009 bound_to 7997
  154.7056  140.0503  157.0488 H   0  0  0  0  0  0  0  0  0  0  0  0  # atno 8010 bound_to 7997
  139.7574  143.8427  152.2600 H   0  0  0  0  0  0  0  0  0  0  0  0  # atno 10167 bound_to 10162
  157.6479  131.0938  150.6648 H   0  0  0  0  0  0  0  0  0  0  0  0  # atno 10718 bound_to 10713
  154.6539  135.2915  154.9952 H   0  0  0  0  0  0  0  0  0  0  0  0  # atno 10763 bound_to 10752
  154.1036  135.6573  153.4876 H   0  0  0  0  0  0  0  0  0  0  0  0  # atno 10764 bound_to 10752
  153.0391  135.5248  154.7459 H   0  0  0  0  0  0  0  0  0  0  0  0  # atno 10765 bound_to 10752
  139.9144  134.9628  156.7646 H   0  0  0  0  0  0  0  0  0  0  0  0  # atno 11005 bound_to 11000
  145.6128  139.1515  143.3066 LP  0  0  0  0  0  0  0  0  0  0  0  0  # atno 17320 bound_to 7965
  146.1973  140.6243  142.9118 LP  0  0  0  0  0  0  0  0  0  0  0  0  # atno 17321 bound_to 7965
  139.8423  144.7204  150.9315 LP  0  0  0  0  0  0  0  0  0  0  0  0  # atno 17342 bound_to 10162
  140.7804  143.3972  151.1210 LP  0  0  0  0  0  0  0  0  0  0  0  0  # atno 17343 bound_to 10162
  156.6963  130.4610  149.5585 LP  0  0  0  0  0  0  0  0  0  0  0  0  # atno 17370 bound_to 10713
  156.1826  130.6509  151.0969 LP  0  0  0  0  0  0  0  0  0  0  0  0  # atno 17371 bound_to 10713
  140.6670  133.9594  155.7835 LP  0  0  0  0  0  0  0  0  0  0  0  0  # atno 17394 bound_to 11000
  141.0604  134.0354  157.3666 LP  0  0  0  0  0  0  0  0  0  0  0  0  # atno 17395 bound_to 11000

$$$$
