#       Name:                AV-unprocessed.smi:639
#       Creating user name   scv26
#       Creation time:       Fri Mar 27 00:07:21 2020


#       File generated by GOLD software.
#

@<TRIPOS>MOLECULE
AV-unprocessed.smi:639
    29    30     1
SMALL
NO_CHARGES


@<TRIPOS>ATOM
      1 ****        -3.6630   1.1266  -0.1536 C.3            1 S1                 0.0000
      2 ****        -2.4224   0.3818  -0.1649 N.pl3          1 S1                 0.0000
      3 ****        -1.1311   0.8614  -0.1882 C.2            1 S1                 0.0000
      4 ****        -0.2851  -0.2150  -0.1928 C.2            1 S1                 0.0000
      5 ****         1.2331  -0.2506  -0.2232 C.3            1 S1                 0.0000
      6 ****         1.7464  -1.0040  -1.4658 C.3            1 S1                 0.0000
      7 ****         1.8306   1.0764  -0.1699 N.pl3          1 S1                -1.0000
      8 ****         2.5478   1.1871   0.9736 C.2            1 S1                 0.0000
      9 ****         3.1831   2.1606   1.3722 O.2            1 S1                 0.0000
     10 ****         2.4951   0.0507   1.6748 N.am           1 S1                 0.0000
     11 ****         1.7630  -0.8737   1.0609 C.2            1 S1                 0.0000
     12 ****         1.5469  -2.0241   1.4418 O.2            1 S1                 0.0000
     13 ****        -1.1829  -1.3238  -0.1738 C.2            1 S1                 0.0000
     14 ****        -2.4563  -0.9654  -0.1545 N.2            1 S1                 0.0000
     15 ****        -3.4561   2.1972  -0.1510 H              1 S1                 0.0000
     16 ****        -4.2376   0.8743   0.7380 H              1 S1                 0.0000
     17 ****        -4.2483   0.8812  -1.0403 H              1 S1                 0.0000
     18 ****        -0.9190   1.9205  -0.2006 H              1 S1                 0.0000
     19 ****         1.3727  -2.0282  -1.4955 H              1 S1                 0.0000
     20 ****         2.8362  -1.0534  -1.4870 H              1 S1                 0.0000
     21 ****         1.4231  -0.5117  -2.3838 H              1 S1                 0.0000
     22 ****         2.9656  -0.0914   2.5559 H              1 S1                 0.0000
     23 ****        -0.9429  -2.3768  -0.1718 H              1 S1                 0.0000
     24 ****         1.7282   1.7891  -0.8639 LP             1 S1                 0.0000
     25 ****         3.2083   2.9986   0.8270 LP             1 S1                 0.0000
     26 ****         3.6749   2.1148   2.2417 LP             1 S1                 0.0000
     27 ****         0.9795  -2.6352   0.8900 LP             1 S1                 0.0000
     28 ****         1.9389  -2.3475   2.3030 LP             1 S1                 0.0000
     29 ****        -3.2608  -1.5590  -0.1364 LP             1 S1                 0.0000
@<TRIPOS>BOND
    1    1    2 1     
    2    1   15 1     
    3    1   16 1     
    4    1   17 1     
    5    2   14 1     
    6    2    3 1     
    7    3    4 2     
    8    3   18 1     
    9    4    5 1     
   10    4   13 1     
   11    5   11 1     
   12    5    6 1     
   13    5    7 1     
   14    6   19 1     
   15    6   20 1     
   16    6   21 1     
   17    7    8 1     
   18    8    9 2     
   19    8   10 am    
   20   10   11 am    
   21   10   22 1     
   22   11   12 2     
   23   13   14 2     
   24   13   23 1     
   25    7   24 1     
   26    9   25 1     
   27    9   26 1     
   28   12   27 1     
   29   12   28 1     
   30   14   29 1     
@<TRIPOS>SUBSTRUCTURE
      1 S1             1
@<TRIPOS>SET
LONE_PAIRS      STATIC     ATOMS    <user>   **** ""
6 24 25 26 27 28 29
DONOR_HYDROGENS      STATIC     ATOMS    <user>   **** ""
1 22
ATOM$BLUE        STATIC     ATOMS    COLORGROUP SYSTEM
6 24 25 26 27 28 29
ATOM$RED        STATIC     ATOMS    COLORGROUP SYSTEM
1 22
