AV-unprocessed.smi:1780|AV-procd|sdf|7186|dock8
  -GOLD-   22720 8423D 1   1.00000     0.00000
 Structure written by MMmdl.
 44 45  0  0  0  0  0  0  0  0  2 V2000
  146.7847  129.3542  152.3105 C   0  0  0  0  0  0  0  0  0  0  0  0
  145.5067  129.9144  151.6747 C   0  0  0  0  0  0  0  0  0  0  0  0
  145.6337  131.3243  151.3609 N   0  0  0  0  0  0  0  0  0  0  0  0
  146.2357  132.3152  152.1112 C   0  0  0  0  0  0  0  0  0  0  0  0
  146.0947  133.4647  151.3859 C   0  0  0  0  0  0  0  0  0  0  0  0
  146.5284  134.7798  151.6905 N   0  0  0  0  0  0  0  0  0  0  0  0
  145.7612  135.8500  151.9533 C   0  0  0  0  0  0  0  0  0  0  0  0
  144.5301  135.8543  151.9695 O   0  0  0  0  0  0  0  0  0  0  0  0
  146.5060  136.9346  152.2099 N   0  0  0  0  0  0  0  0  0  0  0  0
  145.9723  138.2505  152.5500 C   0  0  0  0  0  0  0  0  0  0  0  0
  146.5857  138.8413  153.8483 C   0  0  1  0  0  0  0  0  0  0  0  0
  148.1286  138.7157  153.8138 C   0  0  0  0  0  0  0  0  0  0  0  0
  146.1052  140.2466  154.0574 N   0  3  0  0  0  0  0  0  0  0  0  0
  145.8175  140.5454  155.4872 C   0  0  0  0  0  0  0  0  0  0  0  0
  145.2361  141.9589  155.6498 C   0  0  0  0  0  0  0  0  0  0  0  0
  146.1531  142.9087  155.1277 O   0  0  0  0  0  0  0  0  0  0  0  0
  146.3740  142.7104  153.7394 C   0  0  0  0  0  0  0  0  0  0  0  0
  146.9769  141.3156  153.4952 C   0  0  0  0  0  0  0  0  0  0  0  0
  145.3940  133.0961  150.2082 C   0  0  0  0  0  0  0  0  0  0  0  0
  145.1214  131.8003  150.1987 N   0  0  0  0  0  0  0  0  0  0  0  0
  146.6742  128.2923  152.5310 H   0  0  0  0  0  0  0  0  0  0  0  0
  147.0180  129.8644  153.2456 H   0  0  0  0  0  0  0  0  0  0  0  0
  147.6392  129.4689  151.6431 H   0  0  0  0  0  0  0  0  0  0  0  0
  145.2751  129.3718  150.7574 H   0  0  0  0  0  0  0  0  0  0  0  0
  144.6573  129.7791  152.3456 H   0  0  0  0  0  0  0  0  0  0  0  0
  146.6950  132.1115  153.0672 H   0  0  0  0  0  0  0  0  0  0  0  0
  147.5283  134.9159  151.7198 H   0  0  0  0  0  0  0  0  0  0  0  0
  147.5110  136.8433  152.1722 H   0  0  0  0  0  0  0  0  0  0  0  0
  146.1738  138.9184  151.7119 H   0  0  0  0  0  0  0  0  0  0  0  0
  144.8882  138.1653  152.6109 H   0  0  0  0  0  0  0  0  0  0  0  0
  146.2438  138.2511  154.7001 H   0  0  0  0  0  0  0  0  0  0  0  0
  148.4471  137.6891  153.6339 H   0  0  0  0  0  0  0  0  0  0  0  0
  148.5835  138.9997  154.7628 H   0  0  0  0  0  0  0  0  0  0  0  0
  148.5618  139.3338  153.0266 H   0  0  0  0  0  0  0  0  0  0  0  0
  145.1108  139.8321  155.9065 H   0  0  0  0  0  0  0  0  0  0  0  0
  146.7355  140.4570  156.0705 H   0  0  0  0  0  0  0  0  0  0  0  0
  144.2711  142.0461  155.1475 H   0  0  0  0  0  0  0  0  0  0  0  0
  145.0670  142.1761  156.7045 H   0  0  0  0  0  0  0  0  0  0  0  0
  145.4394  142.8322  153.1894 H   0  0  0  0  0  0  0  0  0  0  0  0
  147.0559  143.4807  153.3787 H   0  0  0  0  0  0  0  0  0  0  0  0
  147.9696  141.2526  153.9439 H   0  0  0  0  0  0  0  0  0  0  0  0
  147.0941  141.1972  152.4184 H   0  0  0  0  0  0  0  0  0  0  0  0
  145.0824  133.7109  149.3768 H   0  0  0  0  0  0  0  0  0  0  0  0
  145.2291  140.3207  153.5604 H   0  0  0  0  0  0  0  0  0  0  0  0
  1  2  1  0  0  0  0
  1 21  1  0  0  0  0
  1 22  1  0  0  0  0
  1 23  1  0  0  0  0
  2  3  1  0  0  0  0
  2 24  1  0  0  0  0
  2 25  1  0  0  0  0
  3 20  1  0  0  0  0
  3  4  1  0  0  0  0
  4  5  2  0  0  0  0
  4 26  1  0  0  0  0
  5  6  1  0  0  0  0
  5 19  1  0  0  0  0
  6  7  1  0  0  0  0
  6 27  1  0  0  0  0
  7  8  2  0  0  0  0
  7  9  1  0  0  0  0
  9 10  1  0  0  0  0
  9 28  1  0  0  0  0
 10 11  1  0  0  0  0
 10 29  1  0  0  0  0
 10 30  1  0  0  0  0
 11 12  1  0  0  0  0
 11 13  1  0  0  0  0
 11 31  1  0  0  0  0
 12 32  1  0  0  0  0
 12 33  1  0  0  0  0
 12 34  1  0  0  0  0
 13 18  1  0  0  0  0
 13 14  1  0  0  0  0
 13 44  1  0  0  0  0
 14 15  1  0  0  0  0
 14 35  1  0  0  0  0
 14 36  1  0  0  0  0
 15 16  1  0  0  0  0
 15 37  1  0  0  0  0
 15 38  1  0  0  0  0
 16 17  1  0  0  0  0
 17 18  1  0  0  0  0
 17 39  1  0  0  0  0
 17 40  1  0  0  0  0
 18 41  1  0  0  0  0
 18 42  1  0  0  0  0
 19 20  2  0  0  0  0
 19 43  1  0  0  0  0
M  CHG  1  13   1
M  END
> <s_m_source_file>
AV-unprocessed.smi

> <i_m_source_file_index>
1780

> <i_lp_mmshare_version>
43012

> <i_f3d_flags>
0

> <s_epik_input>
W0NIM11bQ0gyXW4xW2NIXWMoW2NIXW4xKVtOSF1DKD1PKVtOSF1bQ0gyXVtDQEhdKFtDSDNdKU4yW0NIMl1bQ0gyXU9bQ0gyXVtDSDJdMg==

> <s_epik_cmdline>
J2VwaWtfcHl0aG9uJywgJy1waCcsICc3LjAnLCAnLXRuJywgJzgnLCAnLW1hJywgJzIwMCcsICctbWV0YWxfYmluZGluZycsICctaW1hZScsICc8aW5maWxlLm1hZT4nLCAnLW9tYWUnLCAnPG91dGZpbGUubWFlPic=

> <r_lp_tautomer_probability>
1

> <r_epik_Ionization_Penalty>
0.64612

> <r_epik_Ionization_Penalty_Charging>
0.645968

> <r_epik_Ionization_Penalty_Neutral>
0.000152026

> <r_epik_State_Penalty>
0.664063

> <r_epik_Charging_Adjusted_Penalty>
1.31003

> <i_epik_Tot_Q>
1

> <i_epik_Tot_abs_Q>
1

> <r_epik_Metal_State_Penalty>
0.664075

> <b_epik_Metal_Only>
0

> <s_lp_Force_Field>
OPLS_2005

> <r_lp_Energy>
24.1412

> <b_lp_Chiralities_Consistent>
1

> <s_lp_Variant>
AV-unprocessed.smi:1780-4

> <Gold.Version>
5.8.1

> <Gold.Id.Protein>
6NUR|6NUR_protein|mol2

> <Gold.PLP.Fitness>
42.8643

> <Gold.PLP.PLP>
-31.7176

> <Gold.PLP.part.hbond>
-3.0000

> <Gold.PLP.part.metal>
0.0000

> <Gold.PLP.part.buried>
-5.5179

> <Gold.PLP.part.nonpolar>
-23.8423

> <Gold.PLP.part.repulsive>
0.5573

> <Gold.PLP.ligand.clash>
0.0000

> <Gold.PLP.ligand.torsion>
1.8878

> <Gold.PLP.Chemscore.Hbond>
3.9440

> <Gold.PLP.Chemscore.CHOScore>
1.0000

> <Gold.PLP.Chemscore.Metal>
0.0000

> <Gold.Chemscore.Hbonds>
donor molecule, donor type, donor heavy atom, donor atom, acceptor molecule, acceptor atom, score
      L1  H     6    27       P1  7948  0.93
      L1  H     9    28       P1  7948  1.00
      L1  H    13    44       P1 10175  2.00
      L1  C    19    43       P1  7921  1.00

> <Gold.PLP.Chemscore.Internal.Correction>
0.0903

> <Gold.Rescore>
     Score         DG    S(hbond)    S(metal)    S(lipo)     H(rot)  DE(clash)    DE(int)     intcor
     17.00     -18.94       2.66        0.00      75.70       1.67       0.17       1.76       ----

> <Gold.Chemscore.Fitness>
17.0038

> <Gold.Chemscore.DG>
-18.9351

> <Gold.Chemscore.ZeroCoef>
-5.4800

> <Gold.Chemscore.Hbond>
2.6575

> <Gold.Chemscore.Metal>
0.0000

> <Gold.Chemscore.Lipo>
75.6957

> <Gold.Chemscore.Internal_Hbond>
0.0000

> <Gold.Chemscore.DEClash>
0.1741

> <Gold.Chemscore.DEInternal>
1.7573

> <Gold.Chemscore.Rot>
1.6708

> <Gold.Chemscore.Internal.Correction>
   9.000000E+99

> <Gold.Chemscore.Hbonds>
donor molecule, donor type, donor heavy atom, donor atom, acceptor molecule, acceptor atom, score
      L1  H     6    27       P1  7948  0.58
      L1  H     9    28       P1  7948  0.97
      L1  H    13    44       P1 10175  1.00

> <Gold.Chemscore.Hbond.Weighted>
-8.8760

> <Gold.Chemscore.Metal.Weighted>
-0.0000

> <Gold.Chemscore.Lipo.Weighted>
-8.8564

> <Gold.Chemscore.Internal_Hbond.Weighted>
0.0000

> <Gold.Chemscore.DEClash.Weighted>
0.1741

> <Gold.Chemscore.DEInternal.Weighted>
1.7573

> <Gold.Chemscore.Rot.Weighted>
4.2773

> <Gold.Chemscore.Internal.Correction.Weighted>
   9.000000E+99

> <Gold.Protein.RotatedTorsions>
[ 6907 6896 6895 6894 ] final   50.49 input  -60.11 | X-H torsion
[ 7974 7965 7964 7962 ] final  174.28 input  175.53 | X-H torsion
[ 8008 7997 7996 7995 ] final -101.53 input   59.86 | X-H torsion
[ 10167 10162 10161 10158 ] final -118.89 input  -65.29 | X-H torsion
[ 10718 10713 10712 10709 ] final   53.83 input   66.30 | X-H torsion
[ 10763 10752 10751 10750 ] final   93.73 input  -60.55 | X-H torsion
[ 11005 11000 10999 10996 ] final  158.77 input  -57.11 | X-H torsion

> <Gold.Protein.ActiveResidues>
 VAL166  LYS551  ARG553  GLY616  TRP617  ASP618  TYR619  PRO620  LYS621  CYS622 
 ASP623  PHE694  ASN695  SER759  ASP760  ASP761  ALA762  ILE779  LEU786  VAL792 
 PHE793  MET794  SER795  GLU796  ALA797  LYS798  CYS799  TRP800  GLU811  SER814 

> <Gold.Protein.RotatedAtoms>
  152.3024  134.7595  160.0354 H   0  0  0  0  0  0  0  0  0  0  0  0  # atno 6907 bound_to 6896
  151.8104  133.3376  159.3562 H   0  0  0  0  0  0  0  0  0  0  0  0  # atno 6908 bound_to 6896
  150.7280  134.5599  159.5881 H   0  0  0  0  0  0  0  0  0  0  0  0  # atno 6909 bound_to 6896
  144.7225  139.9773  143.6438 H   0  0  0  0  0  0  0  0  0  0  0  0  # atno 7974 bound_to 7965
  154.8438  140.0434  157.1559 H   0  0  0  0  0  0  0  0  0  0  0  0  # atno 8008 bound_to 7997
  154.9017  140.3001  155.5293 H   0  0  0  0  0  0  0  0  0  0  0  0  # atno 8009 bound_to 7997
  156.2993  140.2374  156.4046 H   0  0  0  0  0  0  0  0  0  0  0  0  # atno 8010 bound_to 7997
  140.0526  143.5046  152.2074 H   0  0  0  0  0  0  0  0  0  0  0  0  # atno 10167 bound_to 10162
  157.5202  130.8560  149.8548 H   0  0  0  0  0  0  0  0  0  0  0  0  # atno 10718 bound_to 10713
  153.2336  135.4315  155.0622 H   0  0  0  0  0  0  0  0  0  0  0  0  # atno 10763 bound_to 10752
  154.8308  135.3385  154.6752 H   0  0  0  0  0  0  0  0  0  0  0  0  # atno 10764 bound_to 10752
  153.7178  135.7019  153.5077 H   0  0  0  0  0  0  0  0  0  0  0  0  # atno 10765 bound_to 10752
  140.1897  134.8416  157.2898 H   0  0  0  0  0  0  0  0  0  0  0  0  # atno 11005 bound_to 11000
  146.0515  139.3516  143.0636 LP  0  0  0  0  0  0  0  0  0  0  0  0  # atno 17320 bound_to 7965
  145.8208  140.9680  143.0899 LP  0  0  0  0  0  0  0  0  0  0  0  0  # atno 17321 bound_to 7965
  139.5944  144.7561  151.3323 LP  0  0  0  0  0  0  0  0  0  0  0  0  # atno 17342 bound_to 10162
  140.7210  143.7136  150.7750 LP  0  0  0  0  0  0  0  0  0  0  0  0  # atno 17343 bound_to 10162
  156.0348  130.3754  150.1590 LP  0  0  0  0  0  0  0  0  0  0  0  0  # atno 17370 bound_to 10713
  156.9778  130.9854  151.3444 LP  0  0  0  0  0  0  0  0  0  0  0  0  # atno 17371 bound_to 10713
  140.2173  134.4065  155.7583 LP  0  0  0  0  0  0  0  0  0  0  0  0  # atno 17394 bound_to 11000
  141.2226  133.7148  156.8435 LP  0  0  0  0  0  0  0  0  0  0  0  0  # atno 17395 bound_to 11000

$$$$
