AV-unprocessed.smi:712|AV-procd|sdf|3473|dock7
  -GOLD-   22720 0463D 1   1.00000     0.00000
 Structure written by MMmdl.
 50 51  0  0  0  0  0  0  0  0  1 V2000
  152.3463  143.5039  161.5195 C   0  0  0  0  0  0  0  0  0  0  0  0
  152.0104  142.9751  160.1403 C   0  0  0  0  0  0  0  0  0  0  0  0
  151.0399  143.6503  159.3040 C   0  0  0  0  0  0  0  0  0  0  0  0
  150.7721  143.1573  158.0846 C   0  0  0  0  0  0  0  0  0  0  0  0
  151.4069  142.0014  157.5946 N   0  0  0  0  0  0  0  0  0  0  0  0
  151.0421  141.5526  156.2408 C   0  0  0  0  0  0  0  0  0  0  0  0
  149.7459  140.7312  156.2084 C   0  0  0  0  0  0  0  0  0  0  0  0
  149.5608  139.8202  157.0160 O   0  0  0  0  0  0  0  0  0  0  0  0
  148.8451  141.0903  155.2813 N   0  0  0  0  0  0  0  0  0  0  0  0
  147.5416  140.4662  155.0698 C   0  0  0  0  0  0  0  0  0  0  0  0
  146.4064  141.2292  155.7761 C   0  0  1  0  0  0  0  0  0  0  0  0
  145.8138  142.3859  154.9437 C   0  0  0  0  0  0  0  0  0  0  0  0
  144.7220  143.0615  155.6375 N   0  0  0  0  0  0  0  0  0  0  0  0
  144.1990  144.1616  154.8211 C   0  0  0  0  0  0  0  0  0  0  0  0
  143.0751  145.0376  155.4281 C   0  0  0  0  0  0  0  0  0  0  0  0
  142.3882  145.9622  154.4089 C   0  0  0  0  0  0  0  0  0  0  0  0
  143.4915  145.7751  156.7124 C   0  0  0  0  0  0  0  0  0  0  0  0
  143.7078  142.0721  155.9916 C   0  0  0  0  0  0  0  0  0  0  0  0
  144.2947  140.9110  156.8128 C   0  0  0  0  0  0  0  0  0  0  0  0
  145.3693  140.3073  156.1016 O   0  0  0  0  0  0  0  0  0  0  0  0
  152.3267  141.3136  158.3361 C   0  0  0  0  0  0  0  0  0  0  0  0
  152.8812  140.2981  157.9146 O   0  0  0  0  0  0  0  0  0  0  0  0
  152.6142  141.8635  159.6658 C   0  0  0  0  0  0  0  0  0  0  0  0
  151.6868  144.3261  161.7984 H   0  0  0  0  0  0  0  0  0  0  0  0
  153.3741  143.8665  161.5452 H   0  0  0  0  0  0  0  0  0  0  0  0
  152.2403  142.7157  162.2654 H   0  0  0  0  0  0  0  0  0  0  0  0
  150.5342  144.5382  159.6543 H   0  0  0  0  0  0  0  0  0  0  0  0
  150.0556  143.6094  157.4144 H   0  0  0  0  0  0  0  0  0  0  0  0
  150.9161  142.4060  155.5734 H   0  0  0  0  0  0  0  0  0  0  0  0
  151.8595  140.9713  155.8091 H   0  0  0  0  0  0  0  0  0  0  0  0
  149.0796  141.8592  154.6702 H   0  0  0  0  0  0  0  0  0  0  0  0
  147.3519  140.4473  153.9963 H   0  0  0  0  0  0  0  0  0  0  0  0
  147.5475  139.4238  155.3921 H   0  0  0  0  0  0  0  0  0  0  0  0
  146.8070  141.6358  156.7066 H   0  0  0  0  0  0  0  0  0  0  0  0
  146.6042  143.1012  154.7138 H   0  0  0  0  0  0  0  0  0  0  0  0
  145.4523  142.0057  153.9873 H   0  0  0  0  0  0  0  0  0  0  0  0
  145.0295  144.8378  154.6130 H   0  0  0  0  0  0  0  0  0  0  0  0
  143.8889  143.7861  153.8447 H   0  0  0  0  0  0  0  0  0  0  0  0
  142.3096  144.3312  155.7523 H   0  0  0  0  0  0  0  0  0  0  0  0
  143.0571  146.7491  154.0608 H   0  0  0  0  0  0  0  0  0  0  0  0
  141.5150  146.4452  154.8478 H   0  0  0  0  0  0  0  0  0  0  0  0
  142.0499  145.4017  153.5371 H   0  0  0  0  0  0  0  0  0  0  0  0
  144.2129  146.5683  156.5291 H   0  0  0  0  0  0  0  0  0  0  0  0
  143.9317  145.0870  157.4347 H   0  0  0  0  0  0  0  0  0  0  0  0
  142.6255  146.2344  157.1899 H   0  0  0  0  0  0  0  0  0  0  0  0
  142.9216  142.5338  156.5841 H   0  0  0  0  0  0  0  0  0  0  0  0
  143.2389  141.6795  155.0880 H   0  0  0  0  0  0  0  0  0  0  0  0
  144.6471  141.2654  157.7826 H   0  0  0  0  0  0  0  0  0  0  0  0
  143.5298  140.1591  157.0063 H   0  0  0  0  0  0  0  0  0  0  0  0
  153.3397  141.3555  160.2847 H   0  0  0  0  0  0  0  0  0  0  0  0
  1  2  1  0  0  0  0
  1 24  1  0  0  0  0
  1 25  1  0  0  0  0
  1 26  1  0  0  0  0
  2 23  2  0  0  0  0
  2  3  1  0  0  0  0
  3  4  2  0  0  0  0
  3 27  1  0  0  0  0
  4  5  1  0  0  0  0
  4 28  1  0  0  0  0
  5  6  1  0  0  0  0
  5 21  1  0  0  0  0
  6  7  1  0  0  0  0
  6 29  1  0  0  0  0
  6 30  1  0  0  0  0
  7  8  2  0  0  0  0
  7  9  1  0  0  0  0
  9 10  1  0  0  0  0
  9 31  1  0  0  0  0
 10 11  1  0  0  0  0
 10 32  1  0  0  0  0
 10 33  1  0  0  0  0
 11 20  1  0  0  0  0
 11 12  1  0  0  0  0
 11 34  1  0  0  0  0
 12 13  1  0  0  0  0
 12 35  1  0  0  0  0
 12 36  1  0  0  0  0
 13 14  1  0  0  0  0
 13 18  1  0  0  0  0
 14 15  1  0  0  0  0
 14 37  1  0  0  0  0
 14 38  1  0  0  0  0
 15 16  1  0  0  0  0
 15 17  1  0  0  0  0
 15 39  1  0  0  0  0
 16 40  1  0  0  0  0
 16 41  1  0  0  0  0
 16 42  1  0  0  0  0
 17 43  1  0  0  0  0
 17 44  1  0  0  0  0
 17 45  1  0  0  0  0
 18 19  1  0  0  0  0
 18 46  1  0  0  0  0
 18 47  1  0  0  0  0
 19 20  1  0  0  0  0
 19 48  1  0  0  0  0
 19 49  1  0  0  0  0
 21 22  2  0  0  0  0
 21 23  1  0  0  0  0
 23 50  1  0  0  0  0
M  END
> <s_m_source_file>
AV-unprocessed.smi

> <i_m_source_file_index>
712

> <i_lp_mmshare_version>
43012

> <i_f3d_flags>
0

> <s_epik_input>
W0NIM11jMVtjSF1bY0hdbihjKD1PKVtjSF0xKVtDSDJdQyg9TylbTkhdW0NIMl1bQ0BASF0yW0NIMl1OKFtDSDJdW0NIMl1PMilbQ0gyXVtDSF0oW0NIM10pW0NIM10=

> <s_epik_cmdline>
J2VwaWtfcHl0aG9uJywgJy1waCcsICc3LjAnLCAnLXRuJywgJzgnLCAnLW1hJywgJzIwMCcsICctbWV0YWxfYmluZGluZycsICctaW1hZScsICc8aW5maWxlLm1hZT4nLCAnLW9tYWUnLCAnPG91dGZpbGUubWFlPic=

> <r_lp_tautomer_probability>
1

> <r_epik_Ionization_Penalty>
1.11669

> <r_epik_Ionization_Penalty_Charging>
4.93496e-07

> <r_epik_Ionization_Penalty_Neutral>
1.11669

> <r_epik_State_Penalty>
1.17516

> <r_epik_Charging_Adjusted_Penalty>
1.17516

> <i_epik_Tot_Q>
0

> <i_epik_Tot_abs_Q>
0

> <r_epik_Metal_State_Penalty>
1.17513

> <b_epik_Metal_Only>
0

> <s_lp_Force_Field>
OPLS_2005

> <r_lp_Energy>
40.1187

> <b_lp_Chiralities_Consistent>
1

> <s_lp_Variant>
AV-unprocessed.smi:712-6

> <Gold.Version>
5.8.1

> <Gold.Id.Protein>
6NUR|6NUR_protein|mol2

> <Gold.PLP.Fitness>
42.0286

> <Gold.PLP.PLP>
-37.8806

> <Gold.PLP.part.hbond>
-1.0000

> <Gold.PLP.part.metal>
0.0000

> <Gold.PLP.part.buried>
-6.0384

> <Gold.PLP.part.nonpolar>
-30.5595

> <Gold.PLP.part.repulsive>
0.3217

> <Gold.PLP.ligand.clash>
0.0000

> <Gold.PLP.ligand.torsion>
0.9773

> <Gold.PLP.Chemscore.Hbond>
1.0000

> <Gold.PLP.Chemscore.CHOScore>
1.0000

> <Gold.PLP.Chemscore.Metal>
0.0000

> <Gold.Chemscore.Hbonds>
donor molecule, donor type, donor heavy atom, donor atom, acceptor molecule, acceptor atom, score
      P1  H  7997  8010       L1    22  0.91
      L1  C     4    28       P1  8028  1.00

> <Gold.PLP.Chemscore.Internal.Correction>
0.1026

> <Gold.Rescore>
     Score         DG    S(hbond)    S(metal)    S(lipo)     H(rot)  DE(clash)    DE(int)     intcor
     14.99     -15.80       0.94        0.00     101.42       1.82       0.07       0.75       ----

> <Gold.Chemscore.Fitness>
14.9870

> <Gold.Chemscore.DG>
-15.8022

> <Gold.Chemscore.ZeroCoef>
-5.4800

> <Gold.Chemscore.Hbond>
0.9359

> <Gold.Chemscore.Metal>
0.0000

> <Gold.Chemscore.Lipo>
101.4238

> <Gold.Chemscore.Internal_Hbond>
0.0000

> <Gold.Chemscore.DEClash>
0.0661

> <Gold.Chemscore.DEInternal>
0.7490

> <Gold.Chemscore.Rot>
1.8243

> <Gold.Chemscore.Internal.Correction>
   9.000000E+99

> <Gold.Chemscore.Hbonds>
donor molecule, donor type, donor heavy atom, donor atom, acceptor molecule, acceptor atom, score
      P1  H  7997  8010       L1    22  0.89

> <Gold.Chemscore.Hbond.Weighted>
-3.1259

> <Gold.Chemscore.Metal.Weighted>
-0.0000

> <Gold.Chemscore.Lipo.Weighted>
-11.8666

> <Gold.Chemscore.Internal_Hbond.Weighted>
0.0000

> <Gold.Chemscore.DEClash.Weighted>
0.0661

> <Gold.Chemscore.DEInternal.Weighted>
0.7490

> <Gold.Chemscore.Rot.Weighted>
4.6703

> <Gold.Chemscore.Internal.Correction.Weighted>
   9.000000E+99

> <Gold.Protein.RotatedTorsions>
[ 6907 6896 6895 6894 ] final -170.50 input  -60.11 | X-H torsion
[ 7974 7965 7964 7962 ] final -143.47 input  175.53 | X-H torsion
[ 8008 7997 7996 7995 ] final   49.90 input   59.86 | X-H torsion
[ 10167 10162 10161 10158 ] final  -62.72 input  -65.29 | X-H torsion
[ 10718 10713 10712 10709 ] final -158.65 input   66.30 | X-H torsion
[ 10763 10752 10751 10750 ] final -132.42 input  -60.55 | X-H torsion
[ 11005 11000 10999 10996 ] final   62.77 input  -57.11 | X-H torsion

> <Gold.Protein.ActiveResidues>
 VAL166  LYS551  ARG553  GLY616  TRP617  ASP618  TYR619  PRO620  LYS621  CYS622 
 ASP623  PHE694  ASN695  SER759  ASP760  ASP761  ALA762  ILE779  LEU786  VAL792 
 PHE793  MET794  SER795  GLU796  ALA797  LYS798  CYS799  TRP800  GLU811  SER814 

> <Gold.Protein.RotatedAtoms>
  151.5088  133.3489  159.2881 H   0  0  0  0  0  0  0  0  0  0  0  0  # atno 6907 bound_to 6896
  150.8725  134.8104  159.7177 H   0  0  0  0  0  0  0  0  0  0  0  0  # atno 6908 bound_to 6896
  152.4708  134.4974  159.9766 H   0  0  0  0  0  0  0  0  0  0  0  0  # atno 6909 bound_to 6896
  144.8367  140.5830  143.5479 H   0  0  0  0  0  0  0  0  0  0  0  0  # atno 7974 bound_to 7965
  155.4099  140.3442  155.4263 H   0  0  0  0  0  0  0  0  0  0  0  0  # atno 8008 bound_to 7997
  156.1455  140.1555  156.8885 H   0  0  0  0  0  0  0  0  0  0  0  0  # atno 8009 bound_to 7997
  154.5007  140.0815  156.7772 H   0  0  0  0  0  0  0  0  0  0  0  0  # atno 8010 bound_to 7997
  140.5919  143.2343  151.6120 H   0  0  0  0  0  0  0  0  0  0  0  0  # atno 10167 bound_to 10162
  156.5571  130.8630  151.2798 H   0  0  0  0  0  0  0  0  0  0  0  0  # atno 10718 bound_to 10713
  154.8743  135.3798  154.4407 H   0  0  0  0  0  0  0  0  0  0  0  0  # atno 10763 bound_to 10752
  153.5092  135.7030  153.5795 H   0  0  0  0  0  0  0  0  0  0  0  0  # atno 10764 bound_to 10752
  153.4092  135.3929  155.2005 H   0  0  0  0  0  0  0  0  0  0  0  0  # atno 10765 bound_to 10752
  140.0069  134.6355  155.9841 H   0  0  0  0  0  0  0  0  0  0  0  0  # atno 11005 bound_to 11000
  145.4780  139.1497  143.3777 LP  0  0  0  0  0  0  0  0  0  0  0  0  # atno 17320 bound_to 7965
  146.2665  140.4915  142.8832 LP  0  0  0  0  0  0  0  0  0  0  0  0  # atno 17321 bound_to 7965
  139.5233  144.3137  152.0971 LP  0  0  0  0  0  0  0  0  0  0  0  0  # atno 17342 bound_to 10162
  140.2302  144.4376  150.6303 LP  0  0  0  0  0  0  0  0  0  0  0  0  # atno 17343 bound_to 10162
  157.7376  130.9799  150.2203 LP  0  0  0  0  0  0  0  0  0  0  0  0  # atno 17370 bound_to 10713
  156.2833  130.3736  149.7914 LP  0  0  0  0  0  0  0  0  0  0  0  0  # atno 17371 bound_to 10713
  141.1683  133.6537  156.4560 LP  0  0  0  0  0  0  0  0  0  0  0  0  # atno 17394 bound_to 11000
  140.4625  134.6828  157.5092 LP  0  0  0  0  0  0  0  0  0  0  0  0  # atno 17395 bound_to 11000

$$$$
