AV-unprocessed.smi:229|AV-procd|sdf|1748|dock9
  -GOLD-   2262020263D 1   1.00000     0.00000
 Structure written by MMmdl.
 58 62  0  0  0  0  0  0  0  0  1 V2000
  147.6480  132.7687  159.4020 C   0  0  0  0  0  0  0  0  0  0  0  0
  148.0550  134.2255  159.1477 C   0  0  0  0  0  0  0  0  0  0  0  0
  148.7429  134.4245  157.7891 C   0  0  1  0  0  0  0  0  0  0  0  0
  149.2531  135.8643  157.6106 C   0  0  0  0  0  0  0  0  0  0  0  0
  150.0010  135.9761  156.3632 N   0  0  0  0  0  0  0  0  0  0  0  0
  150.2788  137.2180  155.8931 C   0  0  0  0  0  0  0  0  0  0  0  0
  150.3295  137.4440  154.5526 N   0  0  0  0  0  0  0  0  0  0  0  0
  150.5914  138.6675  154.0833 C   0  0  0  0  0  0  0  0  0  0  0  0
  150.8335  139.7884  154.7654 N   0  0  0  0  0  0  0  0  0  0  0  0
  150.7929  139.5669  156.1102 C   0  0  0  0  0  0  0  0  0  0  0  0
  150.5239  138.3256  156.7531 C   0  0  0  0  0  0  0  0  0  0  0  0
  150.5749  138.4877  158.1331 N   0  0  0  0  0  0  0  0  0  0  0  0
  150.8484  139.7535  158.2962 C   0  0  0  0  0  0  0  0  0  0  0  0
  150.9946  140.4755  157.1339 N   0  0  0  0  0  0  0  0  0  0  0  0
  151.2966  141.8921  157.0257 C   0  0  0  0  0  0  0  0  0  0  0  0
  150.5281  142.7351  158.0619 C   0  0  2  0  0  0  0  0  0  0  0  0
  149.2426  143.0756  157.5764 O   0  0  0  0  0  0  0  0  0  0  0  0
  151.2954  144.0017  158.4943 C   0  0  2  0  0  0  0  0  0  0  0  0
  152.5383  143.7674  159.3705 C   0  0  0  0  0  0  0  0  0  0  0  0
  152.2357  144.5456  160.6383 C   0  0  0  0  0  0  0  0  0  0  0  0
  151.2454  145.5975  160.1558 C   0  0  0  0  0  0  0  0  0  0  0  0
  150.4480  144.8837  159.2258 O   0  0  0  0  0  0  0  0  0  0  0  0
  151.1096  135.0323  156.2834 C   0  0  0  0  0  0  0  0  0  0  0  0
  150.6161  133.5868  156.5025 C   0  0  1  0  0  0  0  0  0  0  0  0
  149.8804  132.9880  155.3074 C   0  0  0  0  0  0  0  0  0  0  0  0
  150.0667  131.4959  155.5351 C   0  0  0  0  0  0  0  0  0  0  0  0
  151.4043  131.3896  155.9971 O   0  0  0  0  0  0  0  0  0  0  0  0
  151.7758  132.5912  156.6695 C   0  0  0  0  0  0  0  0  0  0  0  0
  149.8456  133.5197  157.7085 O   0  0  0  0  0  0  0  0  0  0  0  0
  147.1501  132.6679  160.3664 H   0  0  0  0  0  0  0  0  0  0  0  0
  148.5166  132.1098  159.4065 H   0  0  0  0  0  0  0  0  0  0  0  0
  146.9611  132.4119  158.6342 H   0  0  0  0  0  0  0  0  0  0  0  0
  147.1629  134.8513  159.1953 H   0  0  0  0  0  0  0  0  0  0  0  0
  148.7124  134.5664  159.9484 H   0  0  0  0  0  0  0  0  0  0  0  0
  148.0174  134.2044  157.0065 H   0  0  0  0  0  0  0  0  0  0  0  0
  148.4087  136.5552  157.6062 H   0  0  0  0  0  0  0  0  0  0  0  0
  149.8980  136.1423  158.4457 H   0  0  0  0  0  0  0  0  0  0  0  0
  150.6088  138.7620  153.0076 H   0  0  0  0  0  0  0  0  0  0  0  0
  150.9513  140.1988  159.2751 H   0  0  0  0  0  0  0  0  0  0  0  0
  152.3714  142.0227  157.1572 H   0  0  0  0  0  0  0  0  0  0  0  0
  151.0659  142.2222  156.0119 H   0  0  0  0  0  0  0  0  0  0  0  0
  150.3691  142.1235  158.9509 H   0  0  0  0  0  0  0  0  0  0  0  0
  149.3423  143.5129  156.7447 H   0  0  0  0  0  0  0  0  0  0  0  0
  151.6085  144.5393  157.5979 H   0  0  0  0  0  0  0  0  0  0  0  0
  152.7393  142.7160  159.5770 H   0  0  0  0  0  0  0  0  0  0  0  0
  153.4207  144.1779  158.8783 H   0  0  0  0  0  0  0  0  0  0  0  0
  151.7541  143.8929  161.3675 H   0  0  0  0  0  0  0  0  0  0  0  0
  153.1247  144.9757  161.1001 H   0  0  0  0  0  0  0  0  0  0  0  0
  150.6450  146.0152  160.9640 H   0  0  0  0  0  0  0  0  0  0  0  0
  151.7591  146.4145  159.6466 H   0  0  0  0  0  0  0  0  0  0  0  0
  151.6344  135.1051  155.3311 H   0  0  0  0  0  0  0  0  0  0  0  0
  151.8340  135.2939  157.0564 H   0  0  0  0  0  0  0  0  0  0  0  0
  148.8347  133.2761  155.2169 H   0  0  0  0  0  0  0  0  0  0  0  0
  150.3774  133.2753  154.3795 H   0  0  0  0  0  0  0  0  0  0  0  0
  149.3872  131.1358  156.3090 H   0  0  0  0  0  0  0  0  0  0  0  0
  149.9053  130.9060  154.6329 H   0  0  0  0  0  0  0  0  0  0  0  0
  152.6873  132.9633  156.2004 H   0  0  0  0  0  0  0  0  0  0  0  0
  152.0039  132.3962  157.7182 H   0  0  0  0  0  0  0  0  0  0  0  0
  1  2  1  0  0  0  0
  1 30  1  0  0  0  0
  1 31  1  0  0  0  0
  1 32  1  0  0  0  0
  2  3  1  0  0  0  0
  2 33  1  0  0  0  0
  2 34  1  0  0  0  0
  3 29  1  0  0  0  0
  3  4  1  0  0  0  0
  3 35  1  0  0  0  0
  4  5  1  0  0  0  0
  4 36  1  0  0  0  0
  4 37  1  0  0  0  0
  5  6  1  0  0  0  0
  5 23  1  0  0  0  0
  6 11  1  0  0  0  0
  6  7  2  0  0  0  0
  7  8  1  0  0  0  0
  8  9  2  0  0  0  0
  8 38  1  0  0  0  0
  9 10  1  0  0  0  0
 10 14  1  0  0  0  0
 10 11  2  0  0  0  0
 11 12  1  0  0  0  0
 12 13  2  0  0  0  0
 13 14  1  0  0  0  0
 13 39  1  0  0  0  0
 14 15  1  0  0  0  0
 15 16  1  0  0  0  0
 15 40  1  0  0  0  0
 15 41  1  0  0  0  0
 16 17  1  0  0  0  0
 16 18  1  0  0  0  0
 16 42  1  0  0  0  0
 17 43  1  0  0  0  0
 18 22  1  0  0  0  0
 18 19  1  0  0  0  0
 18 44  1  0  0  0  0
 19 20  1  0  0  0  0
 19 45  1  0  0  0  0
 19 46  1  0  0  0  0
 20 21  1  0  0  0  0
 20 47  1  0  0  0  0
 20 48  1  0  0  0  0
 21 22  1  0  0  0  0
 21 49  1  0  0  0  0
 21 50  1  0  0  0  0
 23 24  1  0  0  0  0
 23 51  1  0  0  0  0
 23 52  1  0  0  0  0
 24 28  1  0  0  0  0
 24 25  1  0  0  0  0
 24 29  1  0  0  0  0
 25 26  1  0  0  0  0
 25 53  1  0  0  0  0
 25 54  1  0  0  0  0
 26 27  1  0  0  0  0
 26 55  1  0  0  0  0
 26 56  1  0  0  0  0
 27 28  1  0  0  0  0
 28 57  1  0  0  0  0
 28 58  1  0  0  0  0
M  END
> <s_m_source_file>
AV-unprocessed.smi

> <i_m_source_file_index>
229

> <i_lp_mmshare_version>
43012

> <i_f3d_flags>
0

> <s_epik_input>
W0NIMl0xT1tDSDJdW0NIMl1bQ0BdMTJbQ0gyXU4oW0NIMl1bQ0BIXShPMilbQ0gyXVtDSDNdKWMobltjSF1uMyljKGMzNCluW2NIXW40W0NIMl1bQ0BIXShbT0hdKVtDQEBIXTVbQ0gyXVtDSDJdW0NIMl1PNQ==

> <s_epik_cmdline>
J2VwaWtfcHl0aG9uJywgJy1waCcsICc3LjAnLCAnLXRuJywgJzgnLCAnLW1hJywgJzIwMCcsICctbWV0YWxfYmluZGluZycsICctaW1hZScsICc8aW5maWxlLm1hZT4nLCAnLW9tYWUnLCAnPG91dGZpbGUubWFlPic=

> <r_lp_tautomer_probability>
1

> <r_epik_Ionization_Penalty>
0.00318402

> <r_epik_Ionization_Penalty_Charging>
0

> <r_epik_Ionization_Penalty_Neutral>
0.00318402

> <r_epik_State_Penalty>
0.00215642

> <r_epik_Charging_Adjusted_Penalty>
0.00215642

> <i_epik_Tot_Q>
0

> <i_epik_Tot_abs_Q>
0

> <r_epik_Metal_State_Penalty>
-0

> <b_epik_Metal_Only>
0

> <s_lp_Force_Field>
OPLS_2005

> <r_lp_Energy>
56.2374

> <b_lp_Chiralities_Consistent>
1

> <s_lp_Variant>
AV-unprocessed.smi:229-2

> <Gold.Version>
5.8.1

> <Gold.Id.Protein>
6NUR|6NUR_protein|mol2

> <Gold.PLP.Fitness>
51.7008

> <Gold.PLP.PLP>
-42.1771

> <Gold.PLP.part.hbond>
-3.5169

> <Gold.PLP.part.metal>
0.0000

> <Gold.PLP.part.buried>
-7.1104

> <Gold.PLP.part.nonpolar>
-32.2798

> <Gold.PLP.part.repulsive>
0.4665

> <Gold.PLP.ligand.clash>
0.0000

> <Gold.PLP.ligand.torsion>
1.3888

> <Gold.PLP.Chemscore.Hbond>
3.0000

> <Gold.PLP.Chemscore.CHOScore>
1.0000

> <Gold.PLP.Chemscore.Metal>
0.0000

> <Gold.Chemscore.Hbonds>
donor molecule, donor type, donor heavy atom, donor atom, acceptor molecule, acceptor atom, score
      L1  H    17    43       P1  8028  0.99
      P1  H  6896  6908       L1    29  1.00
      P1  H  7989  7998       L1     9  1.00
      L1  C     8    38       P1  7957  1.00

> <Gold.PLP.Chemscore.Internal.Correction>
0.3014

> <Gold.Rescore>
     Score         DG    S(hbond)    S(metal)    S(lipo)     H(rot)  DE(clash)    DE(int)     intcor
     16.86     -19.60       2.46        0.00     104.37       2.46       0.27       2.47       ----

> <Gold.Chemscore.Fitness>
16.8574

> <Gold.Chemscore.DG>
-19.6035

> <Gold.Chemscore.ZeroCoef>
-5.4800

> <Gold.Chemscore.Hbond>
2.4573

> <Gold.Chemscore.Metal>
0.0000

> <Gold.Chemscore.Lipo>
104.3711

> <Gold.Chemscore.Internal_Hbond>
0.0000

> <Gold.Chemscore.DEClash>
0.2749

> <Gold.Chemscore.DEInternal>
2.4711

> <Gold.Chemscore.Rot>
2.4591

> <Gold.Chemscore.Internal.Correction>
   9.000000E+99

> <Gold.Chemscore.Hbonds>
donor molecule, donor type, donor heavy atom, donor atom, acceptor molecule, acceptor atom, score
      L1  H    17    43       P1  8028  0.91
      P1  H  6896  6908       L1    29  0.63
      P1  H  7989  7998       L1     9  0.35

> <Gold.Chemscore.Hbond.Weighted>
-8.2074

> <Gold.Chemscore.Metal.Weighted>
-0.0000

> <Gold.Chemscore.Lipo.Weighted>
-12.2114

> <Gold.Chemscore.Internal_Hbond.Weighted>
0.0000

> <Gold.Chemscore.DEClash.Weighted>
0.2749

> <Gold.Chemscore.DEInternal.Weighted>
2.4711

> <Gold.Chemscore.Rot.Weighted>
6.2953

> <Gold.Chemscore.Internal.Correction.Weighted>
   9.000000E+99

> <Gold.Protein.RotatedTorsions>
[ 6907 6896 6895 6894 ] final  104.69 input  -60.11 | X-H torsion
[ 7974 7965 7964 7962 ] final  -80.13 input  175.53 | X-H torsion
[ 8008 7997 7996 7995 ] final -150.95 input   59.86 | X-H torsion
[ 10167 10162 10161 10158 ] final -130.29 input  -65.29 | X-H torsion
[ 10718 10713 10712 10709 ] final   30.24 input   66.30 | X-H torsion
[ 10763 10752 10751 10750 ] final -140.21 input  -60.55 | X-H torsion
[ 11005 11000 10999 10996 ] final  -19.74 input  -57.11 | X-H torsion

> <Gold.Protein.ActiveResidues>
 VAL166  LYS551  ARG553  GLY616  TRP617  ASP618  TYR619  PRO620  LYS621  CYS622 
 ASP623  PHE694  ASN695  SER759  ASP760  ASP761  ALA762  ILE779  LEU786  VAL792 
 PHE793  MET794  SER795  GLU796  ALA797  LYS798  CYS799  TRP800  GLU811  SER814 

> <Gold.Protein.RotatedAtoms>
  152.5256  133.9639  159.7729 H   0  0  0  0  0  0  0  0  0  0  0  0  # atno 6907 bound_to 6896
  150.9924  133.6128  159.2713 H   0  0  0  0  0  0  0  0  0  0  0  0  # atno 6908 bound_to 6896
  151.3266  135.0838  159.9377 H   0  0  0  0  0  0  0  0  0  0  0  0  # atno 6909 bound_to 6896
  145.5640  140.9477  143.1431 H   0  0  0  0  0  0  0  0  0  0  0  0  # atno 7974 bound_to 7965
  155.6316  140.0692  157.2647 H   0  0  0  0  0  0  0  0  0  0  0  0  # atno 8008 bound_to 7997
  154.4204  140.1766  156.1527 H   0  0  0  0  0  0  0  0  0  0  0  0  # atno 8009 bound_to 7997
  155.9928  140.3343  155.6773 H   0  0  0  0  0  0  0  0  0  0  0  0  # atno 8010 bound_to 7997
  139.9308  143.6274  152.2530 H   0  0  0  0  0  0  0  0  0  0  0  0  # atno 10167 bound_to 10162
  157.2570  130.7142  149.6434 H   0  0  0  0  0  0  0  0  0  0  0  0  # atno 10718 bound_to 10713
  154.8586  135.3560  154.5670 H   0  0  0  0  0  0  0  0  0  0  0  0  # atno 10763 bound_to 10752
  153.6284  135.7003  153.5289 H   0  0  0  0  0  0  0  0  0  0  0  0  # atno 10764 bound_to 10752
  153.3070  135.4189  155.1262 H   0  0  0  0  0  0  0  0  0  0  0  0  # atno 10765 bound_to 10752
  140.8396  133.7936  155.9846 H   0  0  0  0  0  0  0  0  0  0  0  0  # atno 11005 bound_to 11000
  144.7469  139.7296  143.7288 LP  0  0  0  0  0  0  0  0  0  0  0  0  # atno 17320 bound_to 7965
  146.1831  139.5033  142.9854 LP  0  0  0  0  0  0  0  0  0  0  0  0  # atno 17321 bound_to 7965
  139.6783  144.7657  151.1654 LP  0  0  0  0  0  0  0  0  0  0  0  0  # atno 17342 bound_to 10162
  140.7638  143.5762  150.8943 LP  0  0  0  0  0  0  0  0  0  0  0  0  # atno 17343 bound_to 10162
  155.9665  130.4409  150.5321 LP  0  0  0  0  0  0  0  0  0  0  0  0  # atno 17370 bound_to 10713
  157.3217  131.0683  151.1927 LP  0  0  0  0  0  0  0  0  0  0  0  0  # atno 17371 bound_to 10713
  140.8910  134.2495  157.5094 LP  0  0  0  0  0  0  0  0  0  0  0  0  # atno 17394 bound_to 11000
  139.8703  134.9661  156.4552 LP  0  0  0  0  0  0  0  0  0  0  0  0  # atno 17395 bound_to 11000

$$$$
