AV-unprocessed.smi:2489|AV-procd|sdf|9801|dock6
  -GOLD-   2272013433D 1   1.00000     0.00000
 Structure written by MMmdl.
 33 34  0  0  0  0  0  0  0  0  1 V2000
  152.8938  142.8680  162.0986 C   0  0  0  0  0  0  0  0  0  0  0  0
  153.2494  142.4636  160.7840 O   0  0  0  0  0  0  0  0  0  0  0  0
  152.4355  142.8715  159.7524 C   0  0  0  0  0  0  0  0  0  0  0  0
  152.3833  144.2481  159.2660 C   0  0  0  0  0  0  0  0  0  0  0  0
  151.5533  144.5323  158.2514 C   0  0  0  0  0  0  0  0  0  0  0  0
  150.7531  143.5674  157.6572 N   0  0  0  0  0  0  0  0  0  0  0  0
  150.7519  142.2246  158.0749 C   0  0  0  0  0  0  0  0  0  0  0  0
  150.0268  141.2744  157.5601 N   0  0  0  0  0  0  0  0  0  0  0  0
  149.1498  141.4880  156.4998 C   0  0  0  0  0  0  0  0  0  0  0  0
  147.9952  141.9246  156.5155 O   0  0  0  0  0  0  0  0  0  0  0  0
  149.7843  141.1086  155.1549 C   0  0  2  0  0  0  0  0  0  0  0  0
  148.9855  140.0383  154.3902 C   0  0  0  0  0  0  0  0  0  0  0  0
  149.8732  138.8117  154.4594 C   0  0  0  0  0  0  0  0  0  0  0  0
  151.2635  139.4334  154.5186 C   0  0  2  0  0  0  0  0  0  0  0  0
  152.3452  138.4975  155.0681 C   0  0  0  0  0  0  0  0  0  0  0  0
  151.0754  140.5420  155.3846 O   0  0  0  0  0  0  0  0  0  0  0  0
  151.6552  141.9262  159.1778 C   0  0  0  0  0  0  0  0  0  0  0  0
  153.6264  142.4761  162.8041 H   0  0  0  0  0  0  0  0  0  0  0  0
  151.9177  142.4762  162.3884 H   0  0  0  0  0  0  0  0  0  0  0  0
  152.8931  143.9545  162.1971 H   0  0  0  0  0  0  0  0  0  0  0  0
  152.9829  145.0379  159.6922 H   0  0  0  0  0  0  0  0  0  0  0  0
  151.4500  145.5215  157.8307 H   0  0  0  0  0  0  0  0  0  0  0  0
  149.9003  142.0011  154.5376 H   0  0  0  0  0  0  0  0  0  0  0  0
  147.9935  139.8448  154.8015 H   0  0  0  0  0  0  0  0  0  0  0  0
  148.8550  140.3485  153.3526 H   0  0  0  0  0  0  0  0  0  0  0  0
  149.6652  138.2550  155.3742 H   0  0  0  0  0  0  0  0  0  0  0  0
  149.7407  138.1398  153.6112 H   0  0  0  0  0  0  0  0  0  0  0  0
  151.5487  139.8039  153.5322 H   0  0  0  0  0  0  0  0  0  0  0  0
  152.4722  137.6267  154.4246 H   0  0  0  0  0  0  0  0  0  0  0  0
  152.0903  138.1424  156.0671 H   0  0  0  0  0  0  0  0  0  0  0  0
  153.3059  139.0090  155.1315 H   0  0  0  0  0  0  0  0  0  0  0  0
  151.7271  140.9218  159.5705 H   0  0  0  0  0  0  0  0  0  0  0  0
  150.1599  143.8784  156.9008 H   0  0  0  0  0  0  0  0  0  0  0  0
  1  2  1  0  0  0  0
  1 18  1  0  0  0  0
  1 19  1  0  0  0  0
  1 20  1  0  0  0  0
  2  3  1  0  0  0  0
  3 17  2  0  0  0  0
  3  4  1  0  0  0  0
  4  5  2  0  0  0  0
  4 21  1  0  0  0  0
  5  6  1  0  0  0  0
  5 22  1  0  0  0  0
  6  7  1  0  0  0  0
  6 33  1  0  0  0  0
  7  8  2  0  0  0  0
  7 17  1  0  0  0  0
  8  9  1  0  0  0  0
  9 10  2  0  0  0  0
  9 11  1  0  0  0  0
 11 16  1  0  0  0  0
 11 12  1  0  0  0  0
 11 23  1  0  0  0  0
 12 13  1  0  0  0  0
 12 24  1  0  0  0  0
 12 25  1  0  0  0  0
 13 14  1  0  0  0  0
 13 26  1  0  0  0  0
 13 27  1  0  0  0  0
 14 15  1  0  0  0  0
 14 16  1  0  0  0  0
 14 28  1  0  0  0  0
 15 29  1  0  0  0  0
 15 30  1  0  0  0  0
 15 31  1  0  0  0  0
 17 32  1  0  0  0  0
M  END
> <s_m_source_file>
AV-unprocessed.smi

> <i_m_source_file_index>
2489

> <i_lp_mmshare_version>
43012

> <i_f3d_flags>
0

> <s_epik_input>
W0NIM11PYzFbY0hdW2NIXW5jKFtjSF0xKVtOSF1DKD1PKVtDQEBIXTJbQ0gyXVtDSDJdW0NASF0oTzIpW0NIM10=

> <s_epik_cmdline>
J2VwaWtfcHl0aG9uJywgJy1waCcsICc3LjAnLCAnLXRuJywgJzgnLCAnLW1hJywgJzIwMCcsICctbWV0YWxfYmluZGluZycsICctaW1hZScsICc8aW5maWxlLm1hZT4nLCAnLW9tYWUnLCAnPG91dGZpbGUubWFlPic=

> <r_epik_Ionization_Penalty>
0.410206

> <r_epik_Ionization_Penalty_Charging>
0.410206

> <r_epik_Ionization_Penalty_Neutral>
6.57528e-13

> <r_epik_State_Penalty>
1.30987

> <r_epik_Charging_Adjusted_Penalty>
1.72007

> <i_epik_Tot_Q>
0

> <i_epik_Tot_abs_Q>
0

> <r_epik_Metal_State_Penalty>
1.32171

> <b_epik_Metal_Only>
0

> <s_lp_Force_Field>
OPLS_2005

> <r_lp_Energy>
35.4329

> <b_lp_Chiralities_Consistent>
1

> <s_lp_Variant>
AV-unprocessed.smi:2489-7

> <Gold.Version>
5.8.1

> <Gold.Id.Protein>
6NUR|6NUR_protein|mol2

> <Gold.PLP.Fitness>
40.0812

> <Gold.PLP.PLP>
-38.8720

> <Gold.PLP.part.hbond>
-2.0000

> <Gold.PLP.part.metal>
0.0000

> <Gold.PLP.part.buried>
-3.9005

> <Gold.PLP.part.nonpolar>
-33.4534

> <Gold.PLP.part.repulsive>
0.9887

> <Gold.PLP.ligand.clash>
0.0000

> <Gold.PLP.ligand.torsion>
0.8993

> <Gold.PLP.Chemscore.Hbond>
1.0000

> <Gold.PLP.Chemscore.CHOScore>
0.0000

> <Gold.PLP.Chemscore.Metal>
0.0000

> <Gold.Chemscore.Hbonds>
donor molecule, donor type, donor heavy atom, donor atom, acceptor molecule, acceptor atom, score
      L1  H     6    33       P1  8028  1.00

> <Gold.PLP.Chemscore.Internal.Correction>
0.0079

> <Gold.Rescore>
     Score         DG    S(hbond)    S(metal)    S(lipo)     H(rot)  DE(clash)    DE(int)     intcor
     15.83     -16.72       0.98        0.00      94.87       1.23       0.02       0.86       ----

> <Gold.Chemscore.Fitness>
15.8324

> <Gold.Chemscore.DG>
-16.7160

> <Gold.Chemscore.ZeroCoef>
-5.4800

> <Gold.Chemscore.Hbond>
0.9806

> <Gold.Chemscore.Metal>
0.0000

> <Gold.Chemscore.Lipo>
94.8750

> <Gold.Chemscore.Internal_Hbond>
0.0000

> <Gold.Chemscore.DEClash>
0.0237

> <Gold.Chemscore.DEInternal>
0.8599

> <Gold.Chemscore.Rot>
1.2264

> <Gold.Chemscore.Internal.Correction>
   9.000000E+99

> <Gold.Chemscore.Hbonds>
donor molecule, donor type, donor heavy atom, donor atom, acceptor molecule, acceptor atom, score
      L1  H     6    33       P1  8028  0.98

> <Gold.Chemscore.Hbond.Weighted>
-3.2752

> <Gold.Chemscore.Metal.Weighted>
-0.0000

> <Gold.Chemscore.Lipo.Weighted>
-11.1004

> <Gold.Chemscore.Internal_Hbond.Weighted>
0.0000

> <Gold.Chemscore.DEClash.Weighted>
0.0237

> <Gold.Chemscore.DEInternal.Weighted>
0.8599

> <Gold.Chemscore.Rot.Weighted>
3.1396

> <Gold.Chemscore.Internal.Correction.Weighted>
   9.000000E+99

> <Gold.Protein.RotatedTorsions>
[ 6907 6896 6895 6894 ] final  168.53 input  -60.11 | X-H torsion
[ 7974 7965 7964 7962 ] final -136.39 input  175.53 | X-H torsion
[ 8008 7997 7996 7995 ] final   16.90 input   59.86 | X-H torsion
[ 10167 10162 10161 10158 ] final  -82.87 input  -65.29 | X-H torsion
[ 10718 10713 10712 10709 ] final   76.67 input   66.30 | X-H torsion
[ 10763 10752 10751 10750 ] final -147.40 input  -60.55 | X-H torsion
[ 11005 11000 10999 10996 ] final  -64.94 input  -57.11 | X-H torsion

> <Gold.Protein.ActiveResidues>
 VAL166  LYS551  ARG553  GLY616  TRP617  ASP618  TYR619  PRO620  LYS621  CYS622 
 ASP623  PHE694  ASN695  SER759  ASP760  ASP761  ALA762  ILE779  LEU786  VAL792 
 PHE793  MET794  SER795  GLU796  ALA797  LYS798  CYS799  TRP800  GLU811  SER814 

> <Gold.Protein.RotatedAtoms>
  151.8461  133.3432  159.3658 H   0  0  0  0  0  0  0  0  0  0  0  0  # atno 6907 bound_to 6896
  150.7220  134.5344  159.5725 H   0  0  0  0  0  0  0  0  0  0  0  0  # atno 6908 bound_to 6896
  152.2828  134.7810  160.0444 H   0  0  0  0  0  0  0  0  0  0  0  0  # atno 6909 bound_to 6896
  144.8931  140.6669  143.5133 H   0  0  0  0  0  0  0  0  0  0  0  0  # atno 7974 bound_to 7965
  154.8837  140.2976  155.5410 H   0  0  0  0  0  0  0  0  0  0  0  0  # atno 8008 bound_to 7997
  156.3022  140.2437  156.3777 H   0  0  0  0  0  0  0  0  0  0  0  0  # atno 8009 bound_to 7997
  154.8690  140.0402  157.1702 H   0  0  0  0  0  0  0  0  0  0  0  0  # atno 8010 bound_to 7997
  140.4280  143.2559  151.8799 H   0  0  0  0  0  0  0  0  0  0  0  0  # atno 10167 bound_to 10162
  157.6682  130.9785  150.1530 H   0  0  0  0  0  0  0  0  0  0  0  0  # atno 10718 bound_to 10713
  154.8287  135.3361  154.6813 H   0  0  0  0  0  0  0  0  0  0  0  0  # atno 10763 bound_to 10752
  153.7435  135.6944  153.4966 H   0  0  0  0  0  0  0  0  0  0  0  0  # atno 10764 bound_to 10752
  153.2227  135.4443  155.0458 H   0  0  0  0  0  0  0  0  0  0  0  0  # atno 10765 bound_to 10752
  141.1440  133.6673  156.5910 H   0  0  0  0  0  0  0  0  0  0  0  0  # atno 11005 bound_to 11000
  145.3748  139.1650  143.4312 LP  0  0  0  0  0  0  0  0  0  0  0  0  # atno 17320 bound_to 7965
  146.3065  140.3823  142.8685 LP  0  0  0  0  0  0  0  0  0  0  0  0  # atno 17321 bound_to 7965
  139.4784  144.5366  151.8589 LP  0  0  0  0  0  0  0  0  0  0  0  0  # atno 17342 bound_to 10162
  140.4460  144.1921  150.5894 LP  0  0  0  0  0  0  0  0  0  0  0  0  # atno 17343 bound_to 10162
  156.2325  130.3683  149.8429 LP  0  0  0  0  0  0  0  0  0  0  0  0  # atno 17370 bound_to 10713
  156.6252  130.8643  151.3484 LP  0  0  0  0  0  0  0  0  0  0  0  0  # atno 17371 bound_to 10713
  140.3763  134.7562  157.4632 LP  0  0  0  0  0  0  0  0  0  0  0  0  # atno 17394 bound_to 11000
  140.0672  134.5913  155.8682 LP  0  0  0  0  0  0  0  0  0  0  0  0  # atno 17395 bound_to 11000

$$$$
