AV-unprocessed.smi:1809|AV-procd|sdf|7325|dock2
  -GOLD-   22720 8583D 1   1.00000     0.00000
 Structure written by MMmdl.
 39 41  0  0  0  0  0  0  0  0  3 V2000
  135.5241  137.5996  154.6346 C   0  0  0  0  0  0  0  0  0  0  0  0
  136.8685  138.1942  154.3913 C   0  0  0  0  0  0  0  0  0  0  0  0
  137.1389  139.4831  154.6116 N   0  0  0  0  0  0  0  0  0  0  0  0
  138.4557  139.7996  154.3107 N   0  0  0  0  0  0  0  0  0  0  0  0
  139.1574  138.7518  153.8559 C   0  0  0  0  0  0  0  0  0  0  0  0
  140.4517  138.8471  153.5087 N   0  5  0  0  0  0  0  0  0  0  0  0
  141.2568  137.7649  153.6010 C   0  0  0  0  0  0  0  0  0  0  0  0
  140.8984  136.5944  153.7493 O   0  0  0  0  0  0  0  0  0  0  0  0
  142.5607  138.0561  153.5167 N   0  0  0  0  0  0  0  0  0  0  0  0
  143.6417  137.0825  153.5839 C   0  0  0  0  0  0  0  0  0  0  0  0
  143.7769  136.3319  152.2524 C   0  0  2  0  0  0  0  0  0  0  0  0
  143.3102  134.8720  152.3690 C   0  0  0  0  0  0  0  0  0  0  0  0
  143.4921  134.1391  151.0905 N   0  3  2  0  0  0  0  0  0  0  0  0
  143.3321  132.6779  151.2545 C   0  0  0  0  0  0  0  0  0  0  0  0
  144.7472  132.0979  151.4307 C   0  0  0  0  0  0  0  0  0  0  0  0
  145.7090  133.2684  151.1917 C   0  0  0  0  0  0  0  0  0  0  0  0
  144.8379  134.3214  150.5046 C   0  0  2  0  0  0  0  0  0  0  0  0
  145.3447  135.7759  150.5852 C   0  0  0  0  0  0  0  0  0  0  0  0
  145.1507  136.3141  151.8846 O   0  0  0  0  0  0  0  0  0  0  0  0
  138.2245  137.2569  153.7874 S   0  0  0  0  0  0  0  0  0  0  0  0
  134.8583  137.8326  153.8035 H   0  0  0  0  0  0  0  0  0  0  0  0
  135.0945  137.9999  155.5533 H   0  0  0  0  0  0  0  0  0  0  0  0
  135.6007  136.5162  154.7288 H   0  0  0  0  0  0  0  0  0  0  0  0
  142.8162  139.0254  153.3991 H   0  0  0  0  0  0  0  0  0  0  0  0
  144.5779  137.5847  153.8335 H   0  0  0  0  0  0  0  0  0  0  0  0
  143.4280  136.3774  154.3888 H   0  0  0  0  0  0  0  0  0  0  0  0
  143.1892  136.8491  151.4911 H   0  0  0  0  0  0  0  0  0  0  0  0
  143.8715  134.3764  153.1631 H   0  0  0  0  0  0  0  0  0  0  0  0
  142.2583  134.8319  152.6541 H   0  0  0  0  0  0  0  0  0  0  0  0
  142.6661  132.4180  152.0786 H   0  0  0  0  0  0  0  0  0  0  0  0
  142.8865  132.2804  150.3417 H   0  0  0  0  0  0  0  0  0  0  0  0
  144.8869  131.6807  152.4287 H   0  0  0  0  0  0  0  0  0  0  0  0
  144.9199  131.2958  150.7124 H   0  0  0  0  0  0  0  0  0  0  0  0
  146.0755  133.6463  152.1473 H   0  0  0  0  0  0  0  0  0  0  0  0
  146.5752  132.9854  150.5929 H   0  0  0  0  0  0  0  0  0  0  0  0
  144.7671  134.0463  149.4508 H   0  0  0  0  0  0  0  0  0  0  0  0
  146.4040  135.8227  150.3320 H   0  0  0  0  0  0  0  0  0  0  0  0
  144.8240  136.3993  149.8566 H   0  0  0  0  0  0  0  0  0  0  0  0
  142.8014  134.4867  150.4404 H   0  0  0  0  0  0  0  0  0  0  0  0
  1  2  1  0  0  0  0
  1 21  1  0  0  0  0
  1 22  1  0  0  0  0
  1 23  1  0  0  0  0
  2 20  1  0  0  0  0
  2  3  2  0  0  0  0
  3  4  1  0  0  0  0
  4  5  2  0  0  0  0
  5  6  1  0  0  0  0
  5 20  1  0  0  0  0
  6  7  1  0  0  0  0
  7  8  2  0  0  0  0
  7  9  1  0  0  0  0
  9 10  1  0  0  0  0
  9 24  1  0  0  0  0
 10 11  1  0  0  0  0
 10 25  1  0  0  0  0
 10 26  1  0  0  0  0
 11 19  1  0  0  0  0
 11 12  1  0  0  0  0
 11 27  1  0  0  0  0
 12 13  1  0  0  0  0
 12 28  1  0  0  0  0
 12 29  1  0  0  0  0
 13 17  1  0  0  0  0
 13 14  1  0  0  0  0
 13 39  1  0  0  0  0
 14 15  1  0  0  0  0
 14 30  1  0  0  0  0
 14 31  1  0  0  0  0
 15 16  1  0  0  0  0
 15 32  1  0  0  0  0
 15 33  1  0  0  0  0
 16 17  1  0  0  0  0
 16 34  1  0  0  0  0
 16 35  1  0  0  0  0
 17 18  1  0  0  0  0
 17 36  1  0  0  0  0
 18 19  1  0  0  0  0
 18 37  1  0  0  0  0
 18 38  1  0  0  0  0
M  CHG  1   6  -1
M  CHG  1  13   1
M  END
> <s_m_source_file>
AV-unprocessed.smi

> <i_m_source_file_index>
1809

> <i_lp_mmshare_version>
43012

> <i_f3d_flags>
0

> <s_epik_input>
W0NIM11jMW5uYyhzMSlbTkhdQyg9TylbTkhdW0NIMl1bQ0BIXShbQ0gyXTIpT1tDSDJdW0NAQEhdKE4yMylbQ0gyXVtDSDJdW0NIMl0z

> <s_epik_cmdline>
J2VwaWtfcHl0aG9uJywgJy1waCcsICc3LjAnLCAnLXRuJywgJzgnLCAnLW1hJywgJzIwMCcsICctbWV0YWxfYmluZGluZycsICctaW1hZScsICc8aW5maWxlLm1hZT4nLCAnLW9tYWUnLCAnPG91dGZpbGUubWFlPic=

> <r_lp_tautomer_probability>
1

> <r_epik_Ionization_Penalty>
3.2601

> <r_epik_Ionization_Penalty_Charging>
3.1406

> <r_epik_Ionization_Penalty_Neutral>
0.119497

> <r_epik_State_Penalty>
3.08894

> <r_epik_Charging_Adjusted_Penalty>
6.22954

> <i_epik_Tot_Q>
0

> <i_epik_Tot_abs_Q>
2

> <r_epik_Metal_State_Penalty>
0.510807

> <b_epik_Metal_Only>
1

> <s_lp_Force_Field>
OPLS_2005

> <r_lp_Energy>
31.3106

> <b_lp_Chiralities_Consistent>
1

> <s_lp_Variant>
AV-unprocessed.smi:1809-17

> <Gold.Version>
5.8.1

> <Gold.Id.Protein>
6NUR|6NUR_protein|mol2

> <Gold.PLP.Fitness>
40.7999

> <Gold.PLP.PLP>
-33.7813

> <Gold.PLP.part.hbond>
-2.0000

> <Gold.PLP.part.metal>
0.0000

> <Gold.PLP.part.buried>
-5.8583

> <Gold.PLP.part.nonpolar>
-26.8755

> <Gold.PLP.part.repulsive>
0.6826

> <Gold.PLP.ligand.clash>
0.0000

> <Gold.PLP.ligand.torsion>
0.9981

> <Gold.PLP.Chemscore.Hbond>
3.0000

> <Gold.PLP.Chemscore.CHOScore>
0.0000

> <Gold.PLP.Chemscore.Metal>
0.0000

> <Gold.Chemscore.Hbonds>
donor molecule, donor type, donor heavy atom, donor atom, acceptor molecule, acceptor atom, score
      L1  H     9    24       P1 10175  1.00
      L1  H    13    39       P1 10186  2.00

> <Gold.PLP.Chemscore.Internal.Correction>
0.0149

> <Gold.Rescore>
     Score         DG    S(hbond)    S(metal)    S(lipo)     H(rot)  DE(clash)    DE(int)     intcor
     13.82     -17.09       1.86        0.00      75.08       1.32       0.91       2.36       ----

> <Gold.Chemscore.Fitness>
13.8150

> <Gold.Chemscore.DG>
-17.0872

> <Gold.Chemscore.ZeroCoef>
-5.4800

> <Gold.Chemscore.Hbond>
1.8606

> <Gold.Chemscore.Metal>
0.0000

> <Gold.Chemscore.Lipo>
75.0766

> <Gold.Chemscore.Internal_Hbond>
0.0000

> <Gold.Chemscore.DEClash>
0.9089

> <Gold.Chemscore.DEInternal>
2.3633

> <Gold.Chemscore.Rot>
1.3246

> <Gold.Chemscore.Internal.Correction>
   9.000000E+99

> <Gold.Chemscore.Hbonds>
donor molecule, donor type, donor heavy atom, donor atom, acceptor molecule, acceptor atom, score
      L1  H     9    24       P1 10175  0.98
      L1  H    13    39       P1 10186  0.52

> <Gold.Chemscore.Hbond.Weighted>
-6.2142

> <Gold.Chemscore.Metal.Weighted>
-0.0000

> <Gold.Chemscore.Lipo.Weighted>
-8.7840

> <Gold.Chemscore.Internal_Hbond.Weighted>
0.0000

> <Gold.Chemscore.DEClash.Weighted>
0.9089

> <Gold.Chemscore.DEInternal.Weighted>
2.3633

> <Gold.Chemscore.Rot.Weighted>
3.3910

> <Gold.Chemscore.Internal.Correction.Weighted>
   9.000000E+99

> <Gold.Protein.RotatedTorsions>
[ 6907 6896 6895 6894 ] final   69.27 input  -60.11 | X-H torsion
[ 7974 7965 7964 7962 ] final  135.50 input  175.53 | X-H torsion
[ 8008 7997 7996 7995 ] final  -31.08 input   59.86 | X-H torsion
[ 10167 10162 10161 10158 ] final -116.00 input  -65.29 | X-H torsion
[ 10718 10713 10712 10709 ] final   62.54 input   66.30 | X-H torsion
[ 10763 10752 10751 10750 ] final   32.52 input  -60.55 | X-H torsion
[ 11005 11000 10999 10996 ] final  169.69 input  -57.11 | X-H torsion

> <Gold.Protein.ActiveResidues>
 VAL166  LYS551  ARG553  GLY616  TRP617  ASP618  TYR619  PRO620  LYS621  CYS622 
 ASP623  PHE694  ASN695  SER759  ASP760  ASP761  ALA762  ILE779  LEU786  VAL792 
 PHE793  MET794  SER795  GLU796  ALA797  LYS798  CYS799  TRP800  GLU811  SER814 

> <Gold.Protein.RotatedAtoms>
  152.4675  134.5040  159.9733 H   0  0  0  0  0  0  0  0  0  0  0  0  # atno 6907 bound_to 6896
  151.5074  133.3486  159.2887 H   0  0  0  0  0  0  0  0  0  0  0  0  # atno 6908 bound_to 6896
  150.8667  134.8061  159.7186 H   0  0  0  0  0  0  0  0  0  0  0  0  # atno 6909 bound_to 6896
  144.9657  139.4661  143.5457 H   0  0  0  0  0  0  0  0  0  0  0  0  # atno 7974 bound_to 7965
  154.4227  140.1774  156.1509 H   0  0  0  0  0  0  0  0  0  0  0  0  # atno 8008 bound_to 7997
  155.9916  140.3368  155.6733 H   0  0  0  0  0  0  0  0  0  0  0  0  # atno 8009 bound_to 7997
  155.6365  140.0675  157.2623 H   0  0  0  0  0  0  0  0  0  0  0  0  # atno 8010 bound_to 7997
  140.0840  143.4761  152.1909 H   0  0  0  0  0  0  0  0  0  0  0  0  # atno 10167 bound_to 10162
  157.5908  130.9056  149.9601 H   0  0  0  0  0  0  0  0  0  0  0  0  # atno 10718 bound_to 10713
  153.0258  135.6411  154.1368 H   0  0  0  0  0  0  0  0  0  0  0  0  # atno 10763 bound_to 10752
  154.1097  135.2854  155.3235 H   0  0  0  0  0  0  0  0  0  0  0  0  # atno 10764 bound_to 10752
  154.6340  135.5483  153.7775 H   0  0  0  0  0  0  0  0  0  0  0  0  # atno 10765 bound_to 10752
  140.3004  134.7600  157.3911 H   0  0  0  0  0  0  0  0  0  0  0  0  # atno 11005 bound_to 11000
  146.3367  139.8836  142.8820 LP  0  0  0  0  0  0  0  0  0  0  0  0  # atno 17320 bound_to 7965
  145.2633  141.0084  143.3814 LP  0  0  0  0  0  0  0  0  0  0  0  0  # atno 17321 bound_to 7965
  139.5763  144.7489  151.3757 LP  0  0  0  0  0  0  0  0  0  0  0  0  # atno 17342 bound_to 10162
  140.7063  143.7505  150.7488 LP  0  0  0  0  0  0  0  0  0  0  0  0  # atno 17343 bound_to 10162
  156.0963  130.3659  150.0301 LP  0  0  0  0  0  0  0  0  0  0  0  0  # atno 17370 bound_to 10713
  156.8424  130.9430  151.3631 LP  0  0  0  0  0  0  0  0  0  0  0  0  # atno 17371 bound_to 10713
  140.1114  134.5340  155.8262 LP  0  0  0  0  0  0  0  0  0  0  0  0  # atno 17394 bound_to 11000
  141.2129  133.6726  156.6697 LP  0  0  0  0  0  0  0  0  0  0  0  0  # atno 17395 bound_to 11000

$$$$
