AV-unprocessed.smi:873|AV-procd|sdf|4014|dock1
  -GOLD-   22720 1503D 1   1.00000     0.00000
 Structure written by MMmdl.
 46 49  0  0  0  0  0  0  0  0  2 V2000
  149.0956  135.0340  155.9675 O   0  0  0  0  0  0  0  0  0  0  0  0
  149.1603  135.3134  154.7708 C   0  0  0  0  0  0  0  0  0  0  0  0
  149.5654  136.4932  154.2711 N   0  0  0  0  0  0  0  0  0  0  0  0
  150.0611  137.6255  154.9720 C   0  0  0  0  0  0  0  0  0  0  0  0
  150.6679  138.6691  154.2419 C   0  0  0  0  0  0  0  0  0  0  0  0
  151.1786  139.7634  154.8454 N   0  0  0  0  0  0  0  0  0  0  0  0
  151.1016  139.8075  156.1783 C   0  0  0  0  0  0  0  0  0  0  0  0
  151.6384  141.0364  156.8439 C   0  0  0  0  0  0  0  0  0  0  0  0
  151.6610  141.1567  158.3542 C   0  0  0  0  0  0  0  0  0  0  0  0
  150.7084  141.9995  157.5533 C   0  0  0  0  0  0  0  0  0  0  0  0
  150.5512  138.8874  156.9748 N   0  0  0  0  0  0  0  0  0  0  0  0
  150.0342  137.7908  156.3792 C   0  0  0  0  0  0  0  0  0  0  0  0
  148.8087  134.4683  153.7905 N   0  0  0  0  0  0  0  0  0  0  0  0
  148.3117  133.1066  153.9746 C   0  0  2  0  0  0  0  0  0  0  0  0
  149.4811  132.1091  153.9371 C   0  0  0  0  0  0  0  0  0  0  0  0
  148.9741  130.6601  154.0270 C   0  0  0  0  0  0  0  0  0  0  0  0
  148.0025  130.3667  152.9439 N   0  3  1  0  0  0  0  0  0  0  0  0
  147.5847  128.9477  152.9412 C   0  0  0  0  0  0  0  0  0  0  0  0
  147.6065  128.3115  151.5707 C   0  0  0  0  0  0  0  0  0  0  0  0
  146.2887  128.6955  152.2063 C   0  0  0  0  0  0  0  0  0  0  0  0
  146.8422  131.2920  152.9792 C   0  0  0  0  0  0  0  0  0  0  0  0
  147.2978  132.7577  152.8719 C   0  0  0  0  0  0  0  0  0  0  0  0
  149.4835  136.6062  153.2714 H   0  0  0  0  0  0  0  0  0  0  0  0
  150.7433  138.6290  153.1651 H   0  0  0  0  0  0  0  0  0  0  0  0
  152.4737  141.4557  156.2865 H   0  0  0  0  0  0  0  0  0  0  0  0
  151.2377  140.3406  158.9365 H   0  0  0  0  0  0  0  0  0  0  0  0
  152.5176  141.6546  158.8038 H   0  0  0  0  0  0  0  0  0  0  0  0
  150.9267  143.0620  157.4686 H   0  0  0  0  0  0  0  0  0  0  0  0
  149.6518  141.7429  157.6014 H   0  0  0  0  0  0  0  0  0  0  0  0
  149.6231  137.0510  157.0479 H   0  0  0  0  0  0  0  0  0  0  0  0
  148.8935  134.7945  152.8387 H   0  0  0  0  0  0  0  0  0  0  0  0
  147.8145  133.0089  154.9416 H   0  0  0  0  0  0  0  0  0  0  0  0
  150.0505  132.2368  153.0150 H   0  0  0  0  0  0  0  0  0  0  0  0
  150.1712  132.3095  154.7577 H   0  0  0  0  0  0  0  0  0  0  0  0
  149.8194  129.9745  153.9570 H   0  0  0  0  0  0  0  0  0  0  0  0
  148.5043  130.4852  154.9963 H   0  0  0  0  0  0  0  0  0  0  0  0
  147.8428  128.3650  153.8240 H   0  0  0  0  0  0  0  0  0  0  0  0
  147.9518  128.9098  150.7293 H   0  0  0  0  0  0  0  0  0  0  0  0
  147.8436  127.2509  151.5142 H   0  0  0  0  0  0  0  0  0  0  0  0
  145.6557  127.8871  152.5667 H   0  0  0  0  0  0  0  0  0  0  0  0
  145.7584  129.5488  151.7869 H   0  0  0  0  0  0  0  0  0  0  0  0
  146.1647  131.0604  152.1563 H   0  0  0  0  0  0  0  0  0  0  0  0
  146.2811  131.1396  153.9028 H   0  0  0  0  0  0  0  0  0  0  0  0
  146.4322  133.4182  152.9366 H   0  0  0  0  0  0  0  0  0  0  0  0
  147.7432  132.9271  151.8902 H   0  0  0  0  0  0  0  0  0  0  0  0
  148.4808  130.5291  152.0692 H   0  0  0  0  0  0  0  0  0  0  0  0
  1  2  2  0  0  0  0
  2  3  1  0  0  0  0
  2 13  1  0  0  0  0
  3  4  1  0  0  0  0
  3 23  1  0  0  0  0
  4 12  1  0  0  0  0
  4  5  2  0  0  0  0
  5  6  1  0  0  0  0
  5 24  1  0  0  0  0
  6  7  2  0  0  0  0
  7  8  1  0  0  0  0
  7 11  1  0  0  0  0
  8 10  1  0  0  0  0
  8  9  1  0  0  0  0
  8 25  1  0  0  0  0
  9 10  1  0  0  0  0
  9 26  1  0  0  0  0
  9 27  1  0  0  0  0
 10 28  1  0  0  0  0
 10 29  1  0  0  0  0
 11 12  2  0  0  0  0
 12 30  1  0  0  0  0
 13 14  1  0  0  0  0
 13 31  1  0  0  0  0
 14 22  1  0  0  0  0
 14 15  1  0  0  0  0
 14 32  1  0  0  0  0
 15 16  1  0  0  0  0
 15 33  1  0  0  0  0
 15 34  1  0  0  0  0
 16 17  1  0  0  0  0
 16 35  1  0  0  0  0
 16 36  1  0  0  0  0
 17 18  1  0  0  0  0
 17 21  1  0  0  0  0
 17 46  1  0  0  0  0
 18 20  1  0  0  0  0
 18 19  1  0  0  0  0
 18 37  1  0  0  0  0
 19 20  1  0  0  0  0
 19 38  1  0  0  0  0
 19 39  1  0  0  0  0
 20 40  1  0  0  0  0
 20 41  1  0  0  0  0
 21 22  1  0  0  0  0
 21 42  1  0  0  0  0
 21 43  1  0  0  0  0
 22 44  1  0  0  0  0
 22 45  1  0  0  0  0
M  CHG  1  17   1
M  END
> <s_m_source_file>
AV-unprocessed.smi

> <i_m_source_file_index>
873

> <i_lp_mmshare_version>
43012

> <i_f3d_flags>
0

> <s_epik_input>
W0NIMl0xW0NIMl1bQ0hdMU4oW0NIMl1bQ0gyXTIpW0NIMl1bQ0gyXVtDSF0yW05IXUMoPU8pW05IXWMzW2NIXW5jKG5bY0hdMylbQ0hdNFtDSDJdW0NIMl00

> <s_epik_cmdline>
J2VwaWtfcHl0aG9uJywgJy1waCcsICc3LjAnLCAnLXRuJywgJzgnLCAnLW1hJywgJzIwMCcsICctbWV0YWxfYmluZGluZycsICctaW1hZScsICc8aW5maWxlLm1hZT4nLCAnLW9tYWUnLCAnPG91dGZpbGUubWFlPic=

> <r_lp_tautomer_probability>
1

> <r_epik_Ionization_Penalty>
0.123264

> <r_epik_Ionization_Penalty_Charging>
0.123242

> <r_epik_Ionization_Penalty_Neutral>
2.24743e-05

> <r_epik_State_Penalty>
0.112739

> <r_epik_Charging_Adjusted_Penalty>
0.235981

> <i_epik_Tot_Q>
1

> <i_epik_Tot_abs_Q>
1

> <r_epik_Metal_State_Penalty>
0.112739

> <b_epik_Metal_Only>
0

> <s_lp_Force_Field>
OPLS_2005

> <r_lp_Energy>
28.2326

> <b_lp_Chiralities_Consistent>
1

> <s_lp_Variant>
AV-unprocessed.smi:873-1

> <Gold.Version>
5.8.1

> <Gold.Id.Protein>
6NUR|6NUR_protein|mol2

> <Gold.PLP.Fitness>
49.1356

> <Gold.PLP.PLP>
-35.5334

> <Gold.PLP.part.hbond>
-3.9169

> <Gold.PLP.part.metal>
0.0000

> <Gold.PLP.part.buried>
-3.5418

> <Gold.PLP.part.nonpolar>
-27.3036

> <Gold.PLP.part.repulsive>
0.1015

> <Gold.PLP.ligand.clash>
0.0000

> <Gold.PLP.ligand.torsion>
1.3106

> <Gold.PLP.Chemscore.Hbond>
3.9440

> <Gold.PLP.Chemscore.CHOScore>
1.0000

> <Gold.PLP.Chemscore.Metal>
0.0000

> <Gold.Chemscore.Hbonds>
donor molecule, donor type, donor heavy atom, donor atom, acceptor molecule, acceptor atom, score
      L1  H     3    23       P1  7948  0.98
      L1  H    13    31       P1  7948  0.58
      L1  H    17    46       P1 10747  1.00
      P1  H  7989  7998       L1     6  1.00
      L1  C     5    24       P1  7957  0.63

> <Gold.PLP.Chemscore.Internal.Correction>
1.3914

> <Gold.Rescore>
     Score         DG    S(hbond)    S(metal)    S(lipo)     H(rot)  DE(clash)    DE(int)     intcor
     19.75     -22.75       3.17        0.00      86.70       1.36       0.53       2.47       ----

> <Gold.Chemscore.Fitness>
19.7546

> <Gold.Chemscore.DG>
-22.7488

> <Gold.Chemscore.ZeroCoef>
-5.4800

> <Gold.Chemscore.Hbond>
3.1733

> <Gold.Chemscore.Metal>
0.0000

> <Gold.Chemscore.Lipo>
86.7038

> <Gold.Chemscore.Internal_Hbond>
0.0000

> <Gold.Chemscore.DEClash>
0.5275

> <Gold.Chemscore.DEInternal>
2.4667

> <Gold.Chemscore.Rot>
1.3571

> <Gold.Chemscore.Internal.Correction>
   9.000000E+99

> <Gold.Chemscore.Hbonds>
donor molecule, donor type, donor heavy atom, donor atom, acceptor molecule, acceptor atom, score
      L1  H     3    23       P1  7948  0.63
      L1  H    13    31       P1  7948  0.05
      L1  H    17    46       P1 10747  0.85
      P1  H  7989  7998       L1     6  0.50

> <Gold.Chemscore.Hbond.Weighted>
-10.5987

> <Gold.Chemscore.Metal.Weighted>
-0.0000

> <Gold.Chemscore.Lipo.Weighted>
-10.1443

> <Gold.Chemscore.Internal_Hbond.Weighted>
0.0000

> <Gold.Chemscore.DEClash.Weighted>
0.5275

> <Gold.Chemscore.DEInternal.Weighted>
2.4667

> <Gold.Chemscore.Rot.Weighted>
3.4742

> <Gold.Chemscore.Internal.Correction.Weighted>
   9.000000E+99

> <Gold.Protein.RotatedTorsions>
[ 6907 6896 6895 6894 ] final -177.88 input  -60.11 | X-H torsion
[ 7974 7965 7964 7962 ] final   66.85 input  175.53 | X-H torsion
[ 8008 7997 7996 7995 ] final  -38.61 input   59.86 | X-H torsion
[ 10167 10162 10161 10158 ] final   63.08 input  -65.29 | X-H torsion
[ 10718 10713 10712 10709 ] final  131.07 input   66.30 | X-H torsion
[ 10763 10752 10751 10750 ] final -176.13 input  -60.55 | X-H torsion
[ 11005 11000 10999 10996 ] final  -76.93 input  -57.11 | X-H torsion

> <Gold.Protein.ActiveResidues>
 VAL166  LYS551  ARG553  GLY616  TRP617  ASP618  TYR619  PRO620  LYS621  CYS622 
 ASP623  PHE694  ASN695  SER759  ASP760  ASP761  ALA762  ILE779  LEU786  VAL792 
 PHE793  MET794  SER795  GLU796  ALA797  LYS798  CYS799  TRP800  GLU811  SER814 

> <Gold.Protein.RotatedAtoms>
  151.6281  133.3334  159.3102 H   0  0  0  0  0  0  0  0  0  0  0  0  # atno 6907 bound_to 6896
  150.8071  134.7206  159.6665 H   0  0  0  0  0  0  0  0  0  0  0  0  # atno 6908 bound_to 6896
  152.4166  134.6035  160.0058 H   0  0  0  0  0  0  0  0  0  0  0  0  # atno 6909 bound_to 6896
  145.8216  139.3088  143.1040 H   0  0  0  0  0  0  0  0  0  0  0  0  # atno 7974 bound_to 7965
  154.4034  140.1573  156.2729 H   0  0  0  0  0  0  0  0  0  0  0  0  # atno 8008 bound_to 7997
  155.8937  140.3437  155.5953 H   0  0  0  0  0  0  0  0  0  0  0  0  # atno 8009 bound_to 7997
  155.7528  140.0807  157.2183 H   0  0  0  0  0  0  0  0  0  0  0  0  # atno 8010 bound_to 7997
  140.1369  144.4590  150.6833 H   0  0  0  0  0  0  0  0  0  0  0  0  # atno 10167 bound_to 10162
  157.5002  131.1094  150.9438 H   0  0  0  0  0  0  0  0  0  0  0  0  # atno 10718 bound_to 10713
  154.5761  135.2832  155.0779 H   0  0  0  0  0  0  0  0  0  0  0  0  # atno 10763 bound_to 10752
  154.2133  135.6404  153.5126 H   0  0  0  0  0  0  0  0  0  0  0  0  # atno 10764 bound_to 10752
  153.0073  135.5497  154.6400 H   0  0  0  0  0  0  0  0  0  0  0  0  # atno 10765 bound_to 10752
  141.1657  133.7002  156.7744 H   0  0  0  0  0  0  0  0  0  0  0  0  # atno 11005 bound_to 11000
  145.9668  140.8792  143.0182 LP  0  0  0  0  0  0  0  0  0  0  0  0  # atno 17320 bound_to 7965
  144.6747  140.1890  143.7398 LP  0  0  0  0  0  0  0  0  0  0  0  0  # atno 17321 bound_to 7965
  140.6784  143.2315  151.5449 LP  0  0  0  0  0  0  0  0  0  0  0  0  # atno 17342 bound_to 10162
  139.5491  144.2442  152.1498 LP  0  0  0  0  0  0  0  0  0  0  0  0  # atno 17343 bound_to 10162
  157.0111  130.5637  149.5321 LP  0  0  0  0  0  0  0  0  0  0  0  0  # atno 17370 bound_to 10713
  156.0224  130.5319  150.8314 LP  0  0  0  0  0  0  0  0  0  0  0  0  # atno 17371 bound_to 10713
  140.2441  134.8591  157.3602 LP  0  0  0  0  0  0  0  0  0  0  0  0  # atno 17394 bound_to 11000
  140.1767  134.4540  155.7797 LP  0  0  0  0  0  0  0  0  0  0  0  0  # atno 17395 bound_to 11000

$$$$
