#       Name:                AV-unprocessed.smi:34
#       Creating user name   scv26
#       Creation time:       Thu Mar 26 15:56:19 2020


#       File generated by GOLD software.
#

@<TRIPOS>MOLECULE
AV-unprocessed.smi:34
    66    70     1
SMALL
NO_CHARGES


@<TRIPOS>ATOM
      1 ****        -4.4567   2.0523   2.2745 O.2            1 S1                 0.0000
      2 ****        -4.7098   1.7305   1.1116 C.2            1 S1                 0.0000
      3 ****        -3.9656   1.9634   0.0011 N.pl3          1 S1                -1.0000
      4 ****        -2.7696   2.5615   0.1090 C.ar           1 S1                 0.0000
      5 ****        -2.6516   3.9019  -0.0722 N.ar           1 S1                 0.0000
      6 ****        -1.4556   4.4947   0.0251 C.ar           1 S1                 0.0000
      7 ****        -0.2638   3.9467   0.2834 N.ar           1 S1                 0.0000
      8 ****        -0.3690   2.5971   0.4576 C.ar           1 S1                 0.0000
      9 ****        -1.5752   1.8418   0.3855 C.ar           1 S1                 0.0000
     10 ****        -1.3261   0.4965   0.6100 N.2            1 S1                 0.0000
     11 ****        -0.0088   0.4956   0.8016 C.2            1 S1                 0.0000
     12 ****         0.6323   1.6817   0.7305 N.pl3          1 S1                 0.0000
     13 ****         2.0886   1.9861   0.8928 C.3            1 S1                 0.0000
     14 ****         2.8130   1.0109   0.1998 O.3            1 S1                 0.0000
     15 ****         3.4027   0.1025   1.1256 C.3            1 S1                 0.0000
     16 ****         4.6013  -0.6170   0.4965 C.3            1 S1                 0.0000
     17 ****         4.1188  -1.5613  -0.4449 O.3            1 S1                 0.0000
     18 ****         4.9806  -2.3310  -1.1355 C.2            1 S1                 0.0000
     19 ****         6.2031  -2.2900  -0.9849 O.2            1 S1                 0.0000
     20 ****         4.2987  -3.2402  -2.1017 C.ar           1 S1                 0.0000
     21 ****         5.0722  -4.1381  -2.8737 C.ar           1 S1                 0.0000
     22 ****         4.4561  -5.0055  -3.7967 C.ar           1 S1                 0.0000
     23 ****         3.0588  -4.9854  -3.9595 C.ar           1 S1                 0.0000
     24 ****         2.2781  -4.0967  -3.1977 C.ar           1 S1                 0.0000
     25 ****         2.8923  -3.2288  -2.2740 C.ar           1 S1                 0.0000
     26 ****         3.7462   1.0200   2.2960 C.3            1 S1                 0.0000
     27 ****         4.8162   1.7524   1.9710 F              1 S1                 0.0000
     28 ****         2.4974   1.8870   2.3720 C.3            1 S1                 0.0000
     29 ****         2.7849   3.1360   2.9669 O.3            1 S1                 0.0000
     30 ****        -6.0184   1.0489   0.8155 C.ar           1 S1                 0.0000
     31 ****        -7.1771   1.4116   1.5394 C.ar           1 S1                 0.0000
     32 ****        -8.4057   0.7681   1.2938 C.ar           1 S1                 0.0000
     33 ****        -8.4866  -0.2530   0.3286 C.ar           1 S1                 0.0000
     34 ****        -7.3366  -0.6328  -0.3883 C.ar           1 S1                 0.0000
     35 ****        -6.1078   0.0111  -0.1442 C.ar           1 S1                 0.0000
     36 ****        -1.4531   5.5634  -0.1292 H              1 S1                 0.0000
     37 ****         0.5121  -0.4271   1.0028 H              1 S1                 0.0000
     38 ****         2.2437   2.9667   0.4411 H              1 S1                 0.0000
     39 ****         2.6650  -0.6301   1.4539 H              1 S1                 0.0000
     40 ****         5.2722   0.0954   0.0143 H              1 S1                 0.0000
     41 ****         5.1686  -1.1387   1.2684 H              1 S1                 0.0000
     42 ****         6.1469  -4.1714  -2.7669 H              1 S1                 0.0000
     43 ****         5.0571  -5.6863  -4.3812 H              1 S1                 0.0000
     44 ****         2.5868  -5.6500  -4.6680 H              1 S1                 0.0000
     45 ****         1.2056  -4.0789  -3.3226 H              1 S1                 0.0000
     46 ****         2.2631  -2.5576  -1.7079 H              1 S1                 0.0000
     47 ****         3.9662   0.4877   3.2217 H              1 S1                 0.0000
     48 ****         1.7210   1.3730   2.9414 H              1 S1                 0.0000
     49 ****         3.4653   3.5568   2.4636 H              1 S1                 0.0000
     50 ****        -7.1313   2.1920   2.2852 H              1 S1                 0.0000
     51 ****        -9.2860   1.0575   1.8481 H              1 S1                 0.0000
     52 ****        -9.4284  -0.7469   0.1412 H              1 S1                 0.0000
     53 ****        -7.3949  -1.4207  -1.1246 H              1 S1                 0.0000
     54 ****        -5.2347  -0.3025  -0.6981 H              1 S1                 0.0000
     55 ****        -3.6135   2.5473   2.4841 LP             1 S1                 0.0000
     56 ****        -5.0947   1.8183   3.0082 LP             1 S1                 0.0000
     57 ****        -4.3086   1.6893  -0.8973 LP             1 S1                 0.0000
     58 ****        -3.4626   4.4491  -0.2794 LP             1 S1                 0.0000
     59 ****         0.5931   4.4589   0.3415 LP             1 S1                 0.0000
     60 ****        -1.9671  -0.2709   0.6243 LP             1 S1                 0.0000
     61 ****         3.5320   1.4507  -0.3383 LP             1 S1                 0.0000
     62 ****         2.1983   0.5112  -0.4105 LP             1 S1                 0.0000
     63 ****         6.6041  -1.6598  -0.3201 LP             1 S1                 0.0000
     64 ****         6.7940  -2.8870  -1.5275 LP             1 S1                 0.0000
     65 ****         3.0963   2.9985   3.9072 LP             1 S1                 0.0000
     66 ****         1.9636   3.7066   2.9679 LP             1 S1                 0.0000
@<TRIPOS>BOND
    1    1    2 2     
    2    2    3 1     
    3    2   30 1     
    4    3    4 1     
    5    4    9 ar    
    6    4    5 ar    
    7    5    6 ar    
    8    6    7 ar    
    9    6   36 1     
   10    7    8 ar    
   11    8   12 1     
   12    8    9 ar    
   13    9   10 1     
   14   10   11 2     
   15   11   12 1     
   16   11   37 1     
   17   12   13 1     
   18   13   28 1     
   19   13   14 1     
   20   13   38 1     
   21   14   15 1     
   22   15   16 1     
   23   15   26 1     
   24   15   39 1     
   25   16   17 1     
   26   16   40 1     
   27   16   41 1     
   28   17   18 1     
   29   18   19 2     
   30   18   20 1     
   31   20   25 ar    
   32   20   21 ar    
   33   21   22 ar    
   34   21   42 1     
   35   22   23 ar    
   36   22   43 1     
   37   23   24 ar    
   38   23   44 1     
   39   24   25 ar    
   40   24   45 1     
   41   25   46 1     
   42   26   27 1     
   43   26   28 1     
   44   26   47 1     
   45   28   29 1     
   46   28   48 1     
   47   29   49 1     
   48   30   35 ar    
   49   30   31 ar    
   50   31   32 ar    
   51   31   50 1     
   52   32   33 ar    
   53   32   51 1     
   54   33   34 ar    
   55   33   52 1     
   56   34   35 ar    
   57   34   53 1     
   58   35   54 1     
   59    1   55 1     
   60    1   56 1     
   61    3   57 1     
   62    5   58 1     
   63    7   59 1     
   64   10   60 1     
   65   14   61 1     
   66   14   62 1     
   67   19   63 1     
   68   19   64 1     
   69   29   65 1     
   70   29   66 1     
@<TRIPOS>SUBSTRUCTURE
      1 S1             1
@<TRIPOS>SET
LONE_PAIRS      STATIC     ATOMS    <user>   **** ""
12 55 56 57 58 59 60 61 62 63 64 65 66
DONOR_HYDROGENS      STATIC     ATOMS    <user>   **** ""
1 49
ATOM$BLUE        STATIC     ATOMS    COLORGROUP SYSTEM
12 55 56 57 58 59 60 61 62 63 64 65 66
ATOM$RED        STATIC     ATOMS    COLORGROUP SYSTEM
1 49
