AV-unprocessed.smi:249|AV-procd|sdf|1900|dock4
  -GOLD-   2262020573D 1   1.00000     0.00000
 Structure written by MMmdl.
 64 67  0  0  0  0  0  0  0  0  2 V2000
  150.7358  145.2390  160.0885 C   0  0  0  0  0  0  0  0  0  0  0  0
  152.2070  144.9316  159.7646 C   0  0  0  0  0  0  0  0  0  0  0  0
  152.3866  143.7818  158.8309 N   0  3  2  0  0  0  0  0  0  0  0  0
  151.5181  143.9078  157.6248 C   0  0  0  0  0  0  0  0  0  0  0  0
  151.7479  142.7689  156.6181 C   0  0  0  0  0  0  0  0  0  0  0  0
  151.5049  141.3883  157.2603 C   0  0  2  0  0  0  0  0  0  0  0  0
  150.0991  141.1459  157.6248 N   0  0  0  0  0  0  0  0  0  0  0  0
  149.7863  139.8768  158.2751 C   0  0  0  0  0  0  0  0  0  0  0  0
  149.2054  141.4034  156.6433 C   0  0  0  0  0  0  0  0  0  0  0  0
  149.5662  141.0911  155.3746 N   0  0  0  0  0  0  0  0  0  0  0  0
  148.7192  141.3200  154.3661 C   0  0  0  0  0  0  0  0  0  0  0  0
  147.4923  141.8446  154.4084 N   0  0  0  0  0  0  0  0  0  0  0  0
  147.1309  142.1638  155.6844 C   0  0  0  0  0  0  0  0  0  0  0  0
  147.9201  141.9772  156.8534 C   0  0  0  0  0  0  0  0  0  0  0  0
  147.2252  142.4178  157.9730 N   0  0  0  0  0  0  0  0  0  0  0  0
  146.0895  142.8458  157.4924 C   0  0  0  0  0  0  0  0  0  0  0  0
  145.9467  142.7253  156.1287 N   0  0  0  0  0  0  0  0  0  0  0  0
  144.7923  143.1240  155.3420 C   0  0  0  0  0  0  0  0  0  0  0  0
  143.5735  143.5287  156.2075 C   0  0  2  0  0  0  0  0  0  0  0  0
  142.4020  142.5224  156.0969 C   0  0  0  0  0  0  0  0  0  0  0  0
  142.8153  141.2107  156.4210 O   0  0  0  0  0  0  0  0  0  0  0  0
  143.1253  144.9843  155.9199 C   0  0  2  0  0  0  0  0  0  0  0  0
  142.9036  145.3065  154.4525 C   0  0  0  0  0  0  0  0  0  0  0  0
  142.9452  146.8297  154.4517 C   0  0  0  0  0  0  0  0  0  0  0  0
  143.8892  147.1821  155.4556 O   0  0  0  0  0  0  0  0  0  0  0  0
  144.1546  146.0583  156.2903 C   0  0  0  0  0  0  0  0  0  0  0  0
  152.4522  141.2991  158.4712 C   0  0  0  0  0  0  0  0  0  0  0  0
  152.2359  142.4427  159.4895 C   0  0  1  0  0  0  0  0  0  0  0  0
  153.2071  142.2363  160.6707 C   0  0  0  0  0  0  0  0  0  0  0  0
  150.6568  146.1793  160.6349 H   0  0  0  0  0  0  0  0  0  0  0  0
  150.2800  144.4734  160.7157 H   0  0  0  0  0  0  0  0  0  0  0  0
  150.1418  145.3371  159.1795 H   0  0  0  0  0  0  0  0  0  0  0  0
  152.6086  145.8413  159.3244 H   0  0  0  0  0  0  0  0  0  0  0  0
  152.7688  144.7560  160.6830 H   0  0  0  0  0  0  0  0  0  0  0  0
  150.4718  143.9380  157.9317 H   0  0  0  0  0  0  0  0  0  0  0  0
  151.7183  144.8443  157.1070 H   0  0  0  0  0  0  0  0  0  0  0  0
  151.1254  142.9159  155.7353 H   0  0  0  0  0  0  0  0  0  0  0  0
  152.7756  142.8193  156.2558 H   0  0  0  0  0  0  0  0  0  0  0  0
  151.7968  140.6181  156.5455 H   0  0  0  0  0  0  0  0  0  0  0  0
  148.7175  139.6561  158.2501 H   0  0  0  0  0  0  0  0  0  0  0  0
  150.0844  139.9074  159.3231 H   0  0  0  0  0  0  0  0  0  0  0  0
  150.3143  139.0534  157.7925 H   0  0  0  0  0  0  0  0  0  0  0  0
  149.0748  141.0449  153.3841 H   0  0  0  0  0  0  0  0  0  0  0  0
  145.3176  143.2625  158.1232 H   0  0  0  0  0  0  0  0  0  0  0  0
  145.1036  143.9532  154.7066 H   0  0  0  0  0  0  0  0  0  0  0  0
  144.5255  142.3071  154.6706 H   0  0  0  0  0  0  0  0  0  0  0  0
  143.9043  143.4975  157.2467 H   0  0  0  0  0  0  0  0  0  0  0  0
  141.5796  142.8031  156.7549 H   0  0  0  0  0  0  0  0  0  0  0  0
  141.9893  142.5176  155.0883 H   0  0  0  0  0  0  0  0  0  0  0  0
  142.9503  140.7303  155.6187 H   0  0  0  0  0  0  0  0  0  0  0  0
  142.1982  145.1942  156.4561 H   0  0  0  0  0  0  0  0  0  0  0  0
  143.7183  144.9093  153.8454 H   0  0  0  0  0  0  0  0  0  0  0  0
  141.9628  144.9175  154.0622 H   0  0  0  0  0  0  0  0  0  0  0  0
  143.2196  147.2414  153.4803 H   0  0  0  0  0  0  0  0  0  0  0  0
  141.9725  147.2364  154.7308 H   0  0  0  0  0  0  0  0  0  0  0  0
  144.1044  146.3349  157.3439 H   0  0  0  0  0  0  0  0  0  0  0  0
  145.1683  145.7139  156.0811 H   0  0  0  0  0  0  0  0  0  0  0  0
  152.3543  140.3298  158.9603 H   0  0  0  0  0  0  0  0  0  0  0  0
  153.4826  141.3334  158.1137 H   0  0  0  0  0  0  0  0  0  0  0  0
  151.2182  142.3717  159.8771 H   0  0  0  0  0  0  0  0  0  0  0  0
  153.1791  141.2040  161.0211 H   0  0  0  0  0  0  0  0  0  0  0  0
  152.9514  142.8503  161.5335 H   0  0  0  0  0  0  0  0  0  0  0  0
  154.2363  142.4560  160.3848 H   0  0  0  0  0  0  0  0  0  0  0  0
  153.3411  143.8262  158.5035 H   0  0  0  0  0  0  0  0  0  0  0  0
  1  2  1  0  0  0  0
  1 30  1  0  0  0  0
  1 31  1  0  0  0  0
  1 32  1  0  0  0  0
  2  3  1  0  0  0  0
  2 33  1  0  0  0  0
  2 34  1  0  0  0  0
  3 28  1  0  0  0  0
  3  4  1  0  0  0  0
  3 64  1  0  0  0  0
  4  5  1  0  0  0  0
  4 35  1  0  0  0  0
  4 36  1  0  0  0  0
  5  6  1  0  0  0  0
  5 37  1  0  0  0  0
  5 38  1  0  0  0  0
  6  7  1  0  0  0  0
  6 27  1  0  0  0  0
  6 39  1  0  0  0  0
  7  8  1  0  0  0  0
  7  9  1  0  0  0  0
  8 40  1  0  0  0  0
  8 41  1  0  0  0  0
  8 42  1  0  0  0  0
  9 14  1  0  0  0  0
  9 10  2  0  0  0  0
 10 11  1  0  0  0  0
 11 12  2  0  0  0  0
 11 43  1  0  0  0  0
 12 13  1  0  0  0  0
 13 17  1  0  0  0  0
 13 14  2  0  0  0  0
 14 15  1  0  0  0  0
 15 16  2  0  0  0  0
 16 17  1  0  0  0  0
 16 44  1  0  0  0  0
 17 18  1  0  0  0  0
 18 19  1  0  0  0  0
 18 45  1  0  0  0  0
 18 46  1  0  0  0  0
 19 20  1  0  0  0  0
 19 22  1  0  0  0  0
 19 47  1  0  0  0  0
 20 21  1  0  0  0  0
 20 48  1  0  0  0  0
 20 49  1  0  0  0  0
 21 50  1  0  0  0  0
 22 26  1  0  0  0  0
 22 23  1  0  0  0  0
 22 51  1  0  0  0  0
 23 24  1  0  0  0  0
 23 52  1  0  0  0  0
 23 53  1  0  0  0  0
 24 25  1  0  0  0  0
 24 54  1  0  0  0  0
 24 55  1  0  0  0  0
 25 26  1  0  0  0  0
 26 56  1  0  0  0  0
 26 57  1  0  0  0  0
 27 28  1  0  0  0  0
 27 58  1  0  0  0  0
 27 59  1  0  0  0  0
 28 29  1  0  0  0  0
 28 60  1  0  0  0  0
 29 61  1  0  0  0  0
 29 62  1  0  0  0  0
 29 63  1  0  0  0  0
M  CHG  1   3   1
M  END
> <s_m_source_file>
AV-unprocessed.smi

> <i_m_source_file_index>
249

> <i_lp_mmshare_version>
43012

> <i_f3d_flags>
0

> <s_epik_input>
W0NIM11bQ0gyXU4xW0NIMl1bQ0gyXVtDQEhdKFtDSDJdW0NASF0xW0NIM10pTihbQ0gzXSljKG5bY0hdbjIpYyhjMjMpbltjSF1uM1tDSDJdW0NASF0oW0NIMl1bT0hdKVtDQEBIXTRbQ0gyXVtDSDJdT1tDSDJdNA==

> <s_epik_cmdline>
J2VwaWtfcHl0aG9uJywgJy1waCcsICc3LjAnLCAnLXRuJywgJzgnLCAnLW1hJywgJzIwMCcsICctbWV0YWxfYmluZGluZycsICctaW1hZScsICc8aW5maWxlLm1hZT4nLCAnLW9tYWUnLCAnPG91dGZpbGUubWFlPic=

> <r_lp_tautomer_probability>
1

> <r_epik_Ionization_Penalty>
0.00294688

> <r_epik_Ionization_Penalty_Charging>
0.00169971

> <r_epik_Ionization_Penalty_Neutral>
0.00124717

> <r_epik_State_Penalty>
-0

> <r_epik_Charging_Adjusted_Penalty>
0.00169971

> <i_epik_Tot_Q>
1

> <i_epik_Tot_abs_Q>
1

> <r_epik_Metal_State_Penalty>
-0

> <b_epik_Metal_Only>
0

> <s_lp_Force_Field>
OPLS_2005

> <r_lp_Energy>
57.7525

> <b_lp_Chiralities_Consistent>
1

> <s_lp_Variant>
AV-unprocessed.smi:249-3

> <Gold.Version>
5.8.1

> <Gold.Id.Protein>
6NUR|6NUR_protein|mol2

> <Gold.PLP.Fitness>
43.8689

> <Gold.PLP.PLP>
-43.5182

> <Gold.PLP.part.hbond>
-1.0000

> <Gold.PLP.part.metal>
0.0000

> <Gold.PLP.part.buried>
-7.7221

> <Gold.PLP.part.nonpolar>
-34.5985

> <Gold.PLP.part.repulsive>
0.4584

> <Gold.PLP.ligand.clash>
0.0000

> <Gold.PLP.ligand.torsion>
1.7261

> <Gold.PLP.Chemscore.Hbond>
0.0000

> <Gold.PLP.Chemscore.CHOScore>
1.0000

> <Gold.PLP.Chemscore.Metal>
0.0000

> <Gold.Chemscore.Hbonds>
donor molecule, donor type, donor heavy atom, donor atom, acceptor molecule, acceptor atom, score
      L1  C    11    43       P1  7957  1.00

> <Gold.PLP.Chemscore.Internal.Correction>
0.8029

> <Gold.Rescore>
     Score         DG    S(hbond)    S(metal)    S(lipo)     H(rot)  DE(clash)    DE(int)     intcor
      8.44     -11.68       0.00        0.00     116.46       2.90       1.52       1.72       ----

> <Gold.Chemscore.Fitness>
8.4447

> <Gold.Chemscore.DG>
-11.6807

> <Gold.Chemscore.ZeroCoef>
-5.4800

> <Gold.Chemscore.Hbond>
0.0000

> <Gold.Chemscore.Metal>
0.0000

> <Gold.Chemscore.Lipo>
116.4648

> <Gold.Chemscore.Internal_Hbond>
0.0000

> <Gold.Chemscore.DEClash>
1.5205

> <Gold.Chemscore.DEInternal>
1.7156

> <Gold.Chemscore.Rot>
2.9006

> <Gold.Chemscore.Internal.Correction>
   9.000000E+99

> <Gold.Chemscore.Hbond.Weighted>
-0.0000

> <Gold.Chemscore.Metal.Weighted>
-0.0000

> <Gold.Chemscore.Lipo.Weighted>
-13.6264

> <Gold.Chemscore.Internal_Hbond.Weighted>
0.0000

> <Gold.Chemscore.DEClash.Weighted>
1.5205

> <Gold.Chemscore.DEInternal.Weighted>
1.7156

> <Gold.Chemscore.Rot.Weighted>
7.4256

> <Gold.Chemscore.Internal.Correction.Weighted>
   9.000000E+99

> <Gold.Protein.RotatedTorsions>
[ 6907 6896 6895 6894 ] final   51.56 input  -60.11 | X-H torsion
[ 7974 7965 7964 7962 ] final   14.52 input  175.53 | X-H torsion
[ 8008 7997 7996 7995 ] final   18.25 input   59.86 | X-H torsion
[ 10167 10162 10161 10158 ] final   79.14 input  -65.29 | X-H torsion
[ 10718 10713 10712 10709 ] final  137.25 input   66.30 | X-H torsion
[ 10763 10752 10751 10750 ] final -140.48 input  -60.55 | X-H torsion
[ 11005 11000 10999 10996 ] final  131.29 input  -57.11 | X-H torsion

> <Gold.Protein.ActiveResidues>
 VAL166  LYS551  ARG553  GLY616  TRP617  ASP618  TYR619  PRO620  LYS621  CYS622 
 ASP623  PHE694  ASN695  SER759  ASP760  ASP761  ALA762  ILE779  LEU786  VAL792 
 PHE793  MET794  SER795  GLU796  ALA797  LYS798  CYS799  TRP800  GLU811  SER814 

> <Gold.Protein.RotatedAtoms>
  152.3140  134.7463  160.0329 H   0  0  0  0  0  0  0  0  0  0  0  0  # atno 6907 bound_to 6896
  151.7934  133.3356  159.3514 H   0  0  0  0  0  0  0  0  0  0  0  0  # atno 6908 bound_to 6896
  150.7335  134.5752  159.5955 H   0  0  0  0  0  0  0  0  0  0  0  0  # atno 6909 bound_to 6896
  146.2303  139.9029  142.8536 H   0  0  0  0  0  0  0  0  0  0  0  0  # atno 7974 bound_to 7965
  154.9032  140.3003  155.5306 H   0  0  0  0  0  0  0  0  0  0  0  0  # atno 8008 bound_to 7997
  156.3018  140.2403  156.3998 H   0  0  0  0  0  0  0  0  0  0  0  0  # atno 8009 bound_to 7997
  154.8500  140.0410  157.1586 H   0  0  0  0  0  0  0  0  0  0  0  0  # atno 8010 bound_to 7997
  139.9635  144.5945  150.8050 H   0  0  0  0  0  0  0  0  0  0  0  0  # atno 10167 bound_to 10162
  157.4380  131.1055  151.0175 H   0  0  0  0  0  0  0  0  0  0  0  0  # atno 10718 bound_to 10713
  154.8577  135.3552  154.5714 H   0  0  0  0  0  0  0  0  0  0  0  0  # atno 10763 bound_to 10752
  153.6326  135.7001  153.5274 H   0  0  0  0  0  0  0  0  0  0  0  0  # atno 10764 bound_to 10752
  153.3037  135.4199  155.1234 H   0  0  0  0  0  0  0  0  0  0  0  0  # atno 10765 bound_to 10752
  139.9722  134.9574  156.9417 H   0  0  0  0  0  0  0  0  0  0  0  0  # atno 11005 bound_to 11000
  145.2306  140.9971  143.3993 LP  0  0  0  0  0  0  0  0  0  0  0  0  # atno 17320 bound_to 7965
  144.9534  139.4058  143.6391 LP  0  0  0  0  0  0  0  0  0  0  0  0  # atno 17321 bound_to 7965
  140.7545  143.3029  151.3034 LP  0  0  0  0  0  0  0  0  0  0  0  0  # atno 17342 bound_to 10162
  139.6536  144.0317  152.2644 LP  0  0  0  0  0  0  0  0  0  0  0  0  # atno 17343 bound_to 10162
  157.1048  130.5997  149.5468 LP  0  0  0  0  0  0  0  0  0  0  0  0  # atno 17370 bound_to 10713
  155.9938  130.5000  150.7394 LP  0  0  0  0  0  0  0  0  0  0  0  0  # atno 17371 bound_to 10713
  140.5270  134.0851  155.7306 LP  0  0  0  0  0  0  0  0  0  0  0  0  # atno 17394 bound_to 11000
  141.1401  133.9153  157.2346 LP  0  0  0  0  0  0  0  0  0  0  0  0  # atno 17395 bound_to 11000

$$$$
