AV-unprocessed.smi:3122|AV-procd|sdf|11898|dock1
  -GOLD-   2272017283D 1   1.00000     0.00000
 Structure written by MMmdl.
 29 30  0  0  0  0  0  0  0  0  1 V2000
  154.1329  140.9427  161.1530 C   0  0  0  0  0  0  0  0  0  0  0  0
  153.3037  142.1494  160.6890 C   0  0  0  0  0  0  0  0  0  0  0  0
  152.5986  142.8541  161.8565 C   0  0  0  0  0  0  0  0  0  0  0  0
  152.3377  141.7850  159.6059 C   0  0  0  0  0  0  0  0  0  0  0  0
  151.0270  142.0418  159.5632 N   0  0  0  0  0  0  0  0  0  0  0  0
  150.5987  141.6112  158.3280 N   0  0  0  0  0  0  0  0  0  0  0  0
  151.6853  141.1402  157.7091 C   0  0  0  0  0  0  0  0  0  0  0  0
  151.7904  140.6134  156.3142 C   0  0  2  0  0  0  0  0  0  0  0  0
  150.4110  140.3150  155.6959 C   0  0  0  0  0  0  0  0  0  0  0  0
  150.5685  139.7250  154.3674 N   0  0  0  0  0  0  0  0  0  0  0  0
  151.4216  138.5381  154.4134 C   0  0  0  0  0  0  0  0  0  0  0  0
  152.7728  138.8734  155.0703 C   0  0  0  0  0  0  0  0  0  0  0  0
  152.5522  139.4102  156.3701 O   0  0  0  0  0  0  0  0  0  0  0  0
  152.8181  141.2603  158.4486 O   0  0  0  0  0  0  0  0  0  0  0  0
  154.6688  140.4914  160.3173 H   0  0  0  0  0  0  0  0  0  0  0  0
  153.5020  140.1731  161.5994 H   0  0  0  0  0  0  0  0  0  0  0  0
  154.8729  141.2377  161.8975 H   0  0  0  0  0  0  0  0  0  0  0  0
  154.0039  142.8659  160.2578 H   0  0  0  0  0  0  0  0  0  0  0  0
  152.0762  143.7486  161.5155 H   0  0  0  0  0  0  0  0  0  0  0  0
  153.3133  143.1606  162.6207 H   0  0  0  0  0  0  0  0  0  0  0  0
  151.8649  142.1998  162.3289 H   0  0  0  0  0  0  0  0  0  0  0  0
  152.3220  141.3532  155.7127 H   0  0  0  0  0  0  0  0  0  0  0  0
  149.8589  139.6302  156.3409 H   0  0  0  0  0  0  0  0  0  0  0  0
  149.8217  141.2301  155.6316 H   0  0  0  0  0  0  0  0  0  0  0  0
  149.6574  139.4747  153.9963 H   0  0  0  0  0  0  0  0  0  0  0  0
  150.9269  137.7471  154.9783 H   0  0  0  0  0  0  0  0  0  0  0  0
  151.5801  138.1516  153.4065 H   0  0  0  0  0  0  0  0  0  0  0  0
  153.3794  137.9723  155.1605 H   0  0  0  0  0  0  0  0  0  0  0  0
  153.3401  139.5792  154.4612 H   0  0  0  0  0  0  0  0  0  0  0  0
  1  2  1  0  0  0  0
  1 15  1  0  0  0  0
  1 16  1  0  0  0  0
  1 17  1  0  0  0  0
  2  3  1  0  0  0  0
  2  4  1  0  0  0  0
  2 18  1  0  0  0  0
  3 19  1  0  0  0  0
  3 20  1  0  0  0  0
  3 21  1  0  0  0  0
  4 14  1  0  0  0  0
  4  5  2  0  0  0  0
  5  6  1  0  0  0  0
  6  7  2  0  0  0  0
  7  8  1  0  0  0  0
  7 14  1  0  0  0  0
  8 13  1  0  0  0  0
  8  9  1  0  0  0  0
  8 22  1  0  0  0  0
  9 10  1  0  0  0  0
  9 23  1  0  0  0  0
  9 24  1  0  0  0  0
 10 11  1  0  0  0  0
 10 25  1  0  0  0  0
 11 12  1  0  0  0  0
 11 26  1  0  0  0  0
 11 27  1  0  0  0  0
 12 13  1  0  0  0  0
 12 28  1  0  0  0  0
 12 29  1  0  0  0  0
M  END
> <s_m_source_file>
AV-unprocessed.smi

> <i_m_source_file_index>
3122

> <i_lp_mmshare_version>
43012

> <i_f3d_flags>
0

> <s_epik_input>
W0NIM11bQ0hdKFtDSDNdKWMxbm5jKG8xKVtDQEBIXTJbQ0gyXVtOSF1bQ0gyXVtDSDJdTzI=

> <s_epik_cmdline>
J2VwaWtfcHl0aG9uJywgJy1waCcsICc3LjAnLCAnLXRuJywgJzgnLCAnLW1hJywgJzIwMCcsICctbWV0YWxfYmluZGluZycsICctaW1hZScsICc8aW5maWxlLm1hZT4nLCAnLW9tYWUnLCAnPG91dGZpbGUubWFlPic=

> <r_lp_tautomer_probability>
1

> <r_epik_Ionization_Penalty>
1.64488

> <r_epik_Ionization_Penalty_Charging>
0

> <r_epik_Ionization_Penalty_Neutral>
1.64488

> <r_epik_State_Penalty>
1.74649

> <r_epik_Charging_Adjusted_Penalty>
1.74649

> <i_epik_Tot_Q>
0

> <i_epik_Tot_abs_Q>
0

> <r_epik_Metal_State_Penalty>
1.74649

> <b_epik_Metal_Only>
0

> <s_lp_Force_Field>
OPLS_2005

> <r_lp_Energy>
11.6401

> <b_lp_Chiralities_Consistent>
1

> <s_lp_Variant>
AV-unprocessed.smi:3122-3

> <Gold.Version>
5.8.1

> <Gold.Id.Protein>
6NUR|6NUR_protein|mol2

> <Gold.PLP.Fitness>
36.1278

> <Gold.PLP.PLP>
-30.9530

> <Gold.PLP.part.hbond>
-3.3280

> <Gold.PLP.part.metal>
0.0000

> <Gold.PLP.part.buried>
-2.8400

> <Gold.PLP.part.nonpolar>
-23.5998

> <Gold.PLP.part.repulsive>
0.0330

> <Gold.PLP.ligand.clash>
0.0000

> <Gold.PLP.ligand.torsion>
0.3281

> <Gold.PLP.Chemscore.Hbond>
1.9000

> <Gold.PLP.Chemscore.CHOScore>
0.0000

> <Gold.PLP.Chemscore.Metal>
0.0000

> <Gold.Chemscore.Hbonds>
donor molecule, donor type, donor heavy atom, donor atom, acceptor molecule, acceptor atom, score
      P1  H  7989  7998       L1    10  1.00
      P1  H  7997  8010       L1    13  0.90

> <Gold.PLP.Chemscore.Internal.Correction>
0.1310

> <Gold.Rescore>
     Score         DG    S(hbond)    S(metal)    S(lipo)     H(rot)  DE(clash)    DE(int)     intcor
     10.35     -10.73       0.33        0.00      62.58       1.24       0.08       0.30       ----

> <Gold.Chemscore.Fitness>
10.3486

> <Gold.Chemscore.DG>
-10.7324

> <Gold.Chemscore.ZeroCoef>
-5.4800

> <Gold.Chemscore.Hbond>
0.3324

> <Gold.Chemscore.Metal>
0.0000

> <Gold.Chemscore.Lipo>
62.5833

> <Gold.Chemscore.Internal_Hbond>
0.0000

> <Gold.Chemscore.DEClash>
0.0789

> <Gold.Chemscore.DEInternal>
0.3049

> <Gold.Chemscore.Rot>
1.2422

> <Gold.Chemscore.Internal.Correction>
   9.000000E+99

> <Gold.Chemscore.Hbonds>
donor molecule, donor type, donor heavy atom, donor atom, acceptor molecule, acceptor atom, score
      P1  H  7989  7998       L1    10  0.15
      P1  H  7997  8010       L1    13  0.06

> <Gold.Chemscore.Hbond.Weighted>
-1.1101

> <Gold.Chemscore.Metal.Weighted>
-0.0000

> <Gold.Chemscore.Lipo.Weighted>
-7.3222

> <Gold.Chemscore.Internal_Hbond.Weighted>
0.0000

> <Gold.Chemscore.DEClash.Weighted>
0.0789

> <Gold.Chemscore.DEInternal.Weighted>
0.3049

> <Gold.Chemscore.Rot.Weighted>
3.1799

> <Gold.Chemscore.Internal.Correction.Weighted>
   9.000000E+99

> <Gold.Protein.RotatedTorsions>
[ 6907 6896 6895 6894 ] final   24.24 input  -60.11 | X-H torsion
[ 7974 7965 7964 7962 ] final   34.57 input  175.53 | X-H torsion
[ 8008 7997 7996 7995 ] final   53.32 input   59.86 | X-H torsion
[ 10167 10162 10161 10158 ] final -158.87 input  -65.29 | X-H torsion
[ 10718 10713 10712 10709 ] final  114.99 input   66.30 | X-H torsion
[ 10763 10752 10751 10750 ] final -133.34 input  -60.55 | X-H torsion
[ 11005 11000 10999 10996 ] final   90.42 input  -57.11 | X-H torsion

> <Gold.Protein.ActiveResidues>
 VAL166  LYS551  ARG553  GLY616  TRP617  ASP618  TYR619  PRO620  LYS621  CYS622 
 ASP623  PHE694  ASN695  SER759  ASP760  ASP761  ALA762  ILE779  LEU786  VAL792 
 PHE793  MET794  SER795  GLU796  ALA797  LYS798  CYS799  TRP800  GLU811  SER814 

> <Gold.Protein.RotatedAtoms>
  151.9545  135.0153  160.0543 H   0  0  0  0  0  0  0  0  0  0  0  0  # atno 6907 bound_to 6896
  152.1923  133.4777  159.5023 H   0  0  0  0  0  0  0  0  0  0  0  0  # atno 6908 bound_to 6896
  150.6937  134.1613  159.4220 H   0  0  0  0  0  0  0  0  0  0  0  0  # atno 6909 bound_to 6896
  146.1343  139.6252  142.9205 H   0  0  0  0  0  0  0  0  0  0  0  0  # atno 7974 bound_to 7965
  155.4663  140.3463  155.4319 H   0  0  0  0  0  0  0  0  0  0  0  0  # atno 8008 bound_to 7997
  156.1129  140.1466  156.9342 H   0  0  0  0  0  0  0  0  0  0  0  0  # atno 8009 bound_to 7997
  154.4769  140.0882  156.7262 H   0  0  0  0  0  0  0  0  0  0  0  0  # atno 8010 bound_to 7997
  139.6659  143.9830  152.2254 H   0  0  0  0  0  0  0  0  0  0  0  0  # atno 10167 bound_to 10162
  157.6248  131.1006  150.7266 H   0  0  0  0  0  0  0  0  0  0  0  0  # atno 10718 bound_to 10713
  154.8733  135.3769  154.4556 H   0  0  0  0  0  0  0  0  0  0  0  0  # atno 10763 bound_to 10752
  153.5229  135.7028  153.5727 H   0  0  0  0  0  0  0  0  0  0  0  0  # atno 10764 bound_to 10752
  153.3966  135.3959  155.1925 H   0  0  0  0  0  0  0  0  0  0  0  0  # atno 10765 bound_to 10752
  139.8856  134.8613  156.3283 H   0  0  0  0  0  0  0  0  0  0  0  0  # atno 11005 bound_to 11000
  145.5190  141.0432  143.2446 LP  0  0  0  0  0  0  0  0  0  0  0  0  # atno 17320 bound_to 7965
  144.7723  139.6706  143.7189 LP  0  0  0  0  0  0  0  0  0  0  0  0  # atno 17321 bound_to 7965
  139.9582  144.6576  150.8106 LP  0  0  0  0  0  0  0  0  0  0  0  0  # atno 17342 bound_to 10162
  140.7599  143.3139  151.2779 LP  0  0  0  0  0  0  0  0  0  0  0  0  # atno 17343 bound_to 10162
  156.7616  130.4800  149.5436 LP  0  0  0  0  0  0  0  0  0  0  0  0  # atno 17370 bound_to 10713
  156.1414  130.6247  151.0472 LP  0  0  0  0  0  0  0  0  0  0  0  0  # atno 17371 bound_to 10713
  140.9740  133.7309  156.0576 LP  0  0  0  0  0  0  0  0  0  0  0  0  # atno 17394 bound_to 11000
  140.7834  134.3699  157.5482 LP  0  0  0  0  0  0  0  0  0  0  0  0  # atno 17395 bound_to 11000

$$$$
