AV-unprocessed.smi:1209|AV-procd|sdf|5074|dock8
  -GOLD-   22720 4123D 1   1.00000     0.00000
 Structure written by MMmdl.
 49 51  0  0  0  0  0  0  0  0  2 V2000
  143.4466  135.0504  153.1607 C   0  0  0  0  0  0  0  0  0  0  0  0
  144.2958  136.1327  153.7339 C   0  0  0  0  0  0  0  0  0  0  0  0
  144.3545  137.4813  153.5252 C   0  0  0  0  0  0  0  0  0  0  0  0
  145.3916  137.9113  154.3981 C   0  0  0  0  0  0  0  0  0  0  0  0
  145.9123  139.3063  154.6085 C   0  0  0  0  0  0  0  0  0  0  0  0
  146.4043  139.9009  153.3387 N   0  3  2  0  0  0  0  0  0  0  0  0
  147.0789  138.9087  152.4683 C   0  0  0  0  0  0  0  0  0  0  0  0
  147.2367  141.1136  153.5465 C   0  0  0  0  0  0  0  0  0  0  0  0
  148.0160  141.0674  154.8756 C   0  0  2  0  0  0  0  0  0  0  0  0
  147.3658  141.9031  155.8136 O   0  0  0  0  0  0  0  0  0  0  0  0
  149.4735  141.5356  154.7033 C   0  0  0  0  0  0  0  0  0  0  0  0
  150.3581  140.9571  155.6984 N   0  0  0  0  0  0  0  0  0  0  0  0
  150.7472  139.6713  155.7974 C   0  0  0  0  0  0  0  0  0  0  0  0
  151.5740  139.3612  156.7919 N   0  0  0  0  0  0  0  0  0  0  0  0
  151.7339  140.5866  157.4159 C   0  0  0  0  0  0  0  0  0  0  0  0
  152.4965  140.9480  158.5478 C   0  0  0  0  0  0  0  0  0  0  0  0
  152.5134  142.2819  159.0144 C   0  0  0  0  0  0  0  0  0  0  0  0
  153.3505  142.6272  160.2333 C   0  0  0  0  0  0  0  0  0  0  0  0
  151.7556  143.2782  158.3476 C   0  0  0  0  0  0  0  0  0  0  0  0
  151.7574  144.7172  158.8316 C   0  0  0  0  0  0  0  0  0  0  0  0
  150.9874  142.9339  157.2160 C   0  0  0  0  0  0  0  0  0  0  0  0
  150.9826  141.6043  156.7588 C   0  0  0  0  0  0  0  0  0  0  0  0
  145.9093  136.9027  155.0796 N   0  0  0  0  0  0  0  0  0  0  0  0
  145.2166  135.7616  154.6602 O   0  0  0  0  0  0  0  0  0  0  0  0
  142.9191  135.3982  152.2722 H   0  0  0  0  0  0  0  0  0  0  0  0
  142.7047  134.7174  153.8866 H   0  0  0  0  0  0  0  0  0  0  0  0
  144.0533  134.1901  152.8775 H   0  0  0  0  0  0  0  0  0  0  0  0
  143.7489  138.0689  152.8512 H   0  0  0  0  0  0  0  0  0  0  0  0
  145.1097  139.9135  155.0250 H   0  0  0  0  0  0  0  0  0  0  0  0
  146.7111  139.3217  155.3524 H   0  0  0  0  0  0  0  0  0  0  0  0
  147.9859  138.5289  152.9405 H   0  0  0  0  0  0  0  0  0  0  0  0
  147.3535  139.3574  151.5130 H   0  0  0  0  0  0  0  0  0  0  0  0
  146.4279  138.0625  152.2487 H   0  0  0  0  0  0  0  0  0  0  0  0
  147.9185  141.2278  152.7021 H   0  0  0  0  0  0  0  0  0  0  0  0
  146.6071  142.0052  153.5478 H   0  0  0  0  0  0  0  0  0  0  0  0
  148.0218  140.0548  155.2773 H   0  0  0  0  0  0  0  0  0  0  0  0
  146.9408  142.6065  155.3456 H   0  0  0  0  0  0  0  0  0  0  0  0
  149.8460  141.2533  153.7178 H   0  0  0  0  0  0  0  0  0  0  0  0
  149.5380  142.6232  154.7624 H   0  0  0  0  0  0  0  0  0  0  0  0
  150.4095  138.9210  155.0971 H   0  0  0  0  0  0  0  0  0  0  0  0
  153.0721  140.1888  159.0568 H   0  0  0  0  0  0  0  0  0  0  0  0
  152.7195  143.0178  161.0321 H   0  0  0  0  0  0  0  0  0  0  0  0
  154.0987  143.3794  159.9826 H   0  0  0  0  0  0  0  0  0  0  0  0
  153.8736  141.7512  160.6182 H   0  0  0  0  0  0  0  0  0  0  0  0
  151.1175  145.3463  158.2121 H   0  0  0  0  0  0  0  0  0  0  0  0
  152.7660  145.1295  158.7976 H   0  0  0  0  0  0  0  0  0  0  0  0
  151.3925  144.7769  159.8571 H   0  0  0  0  0  0  0  0  0  0  0  0
  150.4053  143.6826  156.6997 H   0  0  0  0  0  0  0  0  0  0  0  0
  145.5899  140.2137  152.8288 H   0  0  0  0  0  0  0  0  0  0  0  0
  1  2  1  0  0  0  0
  1 25  1  0  0  0  0
  1 26  1  0  0  0  0
  1 27  1  0  0  0  0
  2 24  1  0  0  0  0
  2  3  2  0  0  0  0
  3  4  1  0  0  0  0
  3 28  1  0  0  0  0
  4  5  1  0  0  0  0
  4 23  2  0  0  0  0
  5  6  1  0  0  0  0
  5 29  1  0  0  0  0
  5 30  1  0  0  0  0
  6  7  1  0  0  0  0
  6  8  1  0  0  0  0
  6 49  1  0  0  0  0
  7 31  1  0  0  0  0
  7 32  1  0  0  0  0
  7 33  1  0  0  0  0
  8  9  1  0  0  0  0
  8 34  1  0  0  0  0
  8 35  1  0  0  0  0
  9 10  1  0  0  0  0
  9 11  1  0  0  0  0
  9 36  1  0  0  0  0
 10 37  1  0  0  0  0
 11 12  1  0  0  0  0
 11 38  1  0  0  0  0
 11 39  1  0  0  0  0
 12 22  1  0  0  0  0
 12 13  1  0  0  0  0
 13 14  2  0  0  0  0
 13 40  1  0  0  0  0
 14 15  1  0  0  0  0
 15 22  2  0  0  0  0
 15 16  1  0  0  0  0
 16 17  2  0  0  0  0
 16 41  1  0  0  0  0
 17 18  1  0  0  0  0
 17 19  1  0  0  0  0
 18 42  1  0  0  0  0
 18 43  1  0  0  0  0
 18 44  1  0  0  0  0
 19 20  1  0  0  0  0
 19 21  2  0  0  0  0
 20 45  1  0  0  0  0
 20 46  1  0  0  0  0
 20 47  1  0  0  0  0
 21 22  1  0  0  0  0
 21 48  1  0  0  0  0
 23 24  1  0  0  0  0
M  CHG  1   6   1
M  END
> <s_m_source_file>
AV-unprocessed.smi

> <i_m_source_file_index>
1209

> <i_lp_mmshare_version>
43012

> <i_f3d_flags>
0

> <s_epik_input>
W0NIM11jMVtjSF1jKG5vMSlbQ0gyXU4oW0NIM10pW0NIMl1bQ0BIXShbT0hdKVtDSDJdbihbY0hdbjIpYyhjMjMpW2NIXWMoW0NIM10pYyhbY0hdMylbQ0gzXQ==

> <s_epik_cmdline>
J2VwaWtfcHl0aG9uJywgJy1waCcsICc3LjAnLCAnLXRuJywgJzgnLCAnLW1hJywgJzIwMCcsICctbWV0YWxfYmluZGluZycsICctaW1hZScsICc8aW5maWxlLm1hZT4nLCAnLW9tYWUnLCAnPG91dGZpbGUubWFlPic=

> <r_epik_Ionization_Penalty>
2.05249

> <r_epik_Ionization_Penalty_Charging>
1.96618

> <r_epik_Ionization_Penalty_Neutral>
0.0863156

> <r_epik_State_Penalty>
2.19215

> <r_epik_Charging_Adjusted_Penalty>
4.15833

> <i_epik_Tot_Q>
1

> <i_epik_Tot_abs_Q>
1

> <r_epik_Metal_State_Penalty>
2.17654

> <b_epik_Metal_Only>
0

> <s_lp_Force_Field>
OPLS_2005

> <r_lp_Energy>
8.61119

> <b_lp_Chiralities_Consistent>
1

> <s_lp_Variant>
AV-unprocessed.smi:1209-6

> <Gold.Version>
5.8.1

> <Gold.Id.Protein>
6NUR|6NUR_protein|mol2

> <Gold.PLP.Fitness>
45.6517

> <Gold.PLP.PLP>
-42.7086

> <Gold.PLP.part.hbond>
-1.5707

> <Gold.PLP.part.metal>
0.0000

> <Gold.PLP.part.buried>
-1.7306

> <Gold.PLP.part.nonpolar>
-39.2069

> <Gold.PLP.part.repulsive>
0.0425

> <Gold.PLP.ligand.clash>
0.0000

> <Gold.PLP.ligand.torsion>
1.6218

> <Gold.PLP.Chemscore.Hbond>
2.0000

> <Gold.PLP.Chemscore.CHOScore>
0.0000

> <Gold.PLP.Chemscore.Metal>
0.0000

> <Gold.Chemscore.Hbonds>
donor molecule, donor type, donor heavy atom, donor atom, acceptor molecule, acceptor atom, score
      L1  H     6    49       P1 10175  2.00

> <Gold.PLP.Chemscore.Internal.Correction>
0.1867

> <Gold.Rescore>
     Score         DG    S(hbond)    S(metal)    S(lipo)     H(rot)  DE(clash)    DE(int)     intcor
     14.92     -16.46       0.98        0.00     121.24       2.53       0.04       1.51       ----

> <Gold.Chemscore.Fitness>
14.9151

> <Gold.Chemscore.DG>
-16.4645

> <Gold.Chemscore.ZeroCoef>
-5.4800

> <Gold.Chemscore.Hbond>
0.9835

> <Gold.Chemscore.Metal>
0.0000

> <Gold.Chemscore.Lipo>
121.2359

> <Gold.Chemscore.Internal_Hbond>
0.0000

> <Gold.Chemscore.DEClash>
0.0440

> <Gold.Chemscore.DEInternal>
1.5054

> <Gold.Chemscore.Rot>
2.5332

> <Gold.Chemscore.Internal.Correction>
   9.000000E+99

> <Gold.Chemscore.Hbonds>
donor molecule, donor type, donor heavy atom, donor atom, acceptor molecule, acceptor atom, score
      L1  H     6    49       P1 10175  0.92

> <Gold.Chemscore.Hbond.Weighted>
-3.2850

> <Gold.Chemscore.Metal.Weighted>
-0.0000

> <Gold.Chemscore.Lipo.Weighted>
-14.1846

> <Gold.Chemscore.Internal_Hbond.Weighted>
0.0000

> <Gold.Chemscore.DEClash.Weighted>
0.0440

> <Gold.Chemscore.DEInternal.Weighted>
1.5054

> <Gold.Chemscore.Rot.Weighted>
6.4851

> <Gold.Chemscore.Internal.Correction.Weighted>
   9.000000E+99

> <Gold.Protein.RotatedTorsions>
[ 6907 6896 6895 6894 ] final -169.54 input  -60.11 | X-H torsion
[ 7974 7965 7964 7962 ] final   10.00 input  175.53 | X-H torsion
[ 8008 7997 7996 7995 ] final -165.15 input   59.86 | X-H torsion
[ 10167 10162 10161 10158 ] final   90.60 input  -65.29 | X-H torsion
[ 10718 10713 10712 10709 ] final  122.41 input   66.30 | X-H torsion
[ 10763 10752 10751 10750 ] final  -56.22 input  -60.55 | X-H torsion
[ 11005 11000 10999 10996 ] final   27.53 input  -57.11 | X-H torsion

> <Gold.Protein.ActiveResidues>
 VAL166  LYS551  ARG553  GLY616  TRP617  ASP618  TYR619  PRO620  LYS621  CYS622 
 ASP623  PHE694  ASN695  SER759  ASP760  ASP761  ALA762  ILE779  LEU786  VAL792 
 PHE793  MET794  SER795  GLU796  ALA797  LYS798  CYS799  TRP800  GLU811  SER814 

> <Gold.Protein.RotatedAtoms>
  151.4933  133.3520  159.2856 H   0  0  0  0  0  0  0  0  0  0  0  0  # atno 6907 bound_to 6896
  150.8821  134.8215  159.7243 H   0  0  0  0  0  0  0  0  0  0  0  0  # atno 6908 bound_to 6896
  152.4769  134.4831  159.9724 H   0  0  0  0  0  0  0  0  0  0  0  0  # atno 6909 bound_to 6896
  146.2395  139.9699  142.8448 H   0  0  0  0  0  0  0  0  0  0  0  0  # atno 7974 bound_to 7965
  155.8458  140.0955  157.1706 H   0  0  0  0  0  0  0  0  0  0  0  0  # atno 8008 bound_to 7997
  154.3983  140.1392  156.3845 H   0  0  0  0  0  0  0  0  0  0  0  0  # atno 8009 bound_to 7997
  155.8015  140.3452  155.5408 H   0  0  0  0  0  0  0  0  0  0  0  0  # atno 8010 bound_to 7997
  139.8457  144.6619  150.9229 H   0  0  0  0  0  0  0  0  0  0  0  0  # atno 10167 bound_to 10162
  157.5744  131.1080  150.8306 H   0  0  0  0  0  0  0  0  0  0  0  0  # atno 10718 bound_to 10713
  154.2032  135.6407  153.5093 H   0  0  0  0  0  0  0  0  0  0  0  0  # atno 10763 bound_to 10752
  153.0007  135.5456  154.6294 H   0  0  0  0  0  0  0  0  0  0  0  0  # atno 10764 bound_to 10752
  154.5712  135.2917  155.0799 H   0  0  0  0  0  0  0  0  0  0  0  0  # atno 10765 bound_to 10752
  140.3253  134.2498  155.7710 H   0  0  0  0  0  0  0  0  0  0  0  0  # atno 11005 bound_to 11000
  145.1691  140.9711  143.4332 LP  0  0  0  0  0  0  0  0  0  0  0  0  # atno 17320 bound_to 7965
  145.0045  139.3567  143.6151 LP  0  0  0  0  0  0  0  0  0  0  0  0  # atno 17321 bound_to 7965
  140.7793  143.3872  151.1373 LP  0  0  0  0  0  0  0  0  0  0  0  0  # atno 17342 bound_to 10162
  139.7514  143.8772  152.3078 LP  0  0  0  0  0  0  0  0  0  0  0  0  # atno 17343 bound_to 10162
  156.8769  130.5165  149.5293 LP  0  0  0  0  0  0  0  0  0  0  0  0  # atno 17370 bound_to 10713
  156.0789  130.5804  150.9526 LP  0  0  0  0  0  0  0  0  0  0  0  0  # atno 17371 bound_to 10713
  141.2077  133.7799  157.0105 LP  0  0  0  0  0  0  0  0  0  0  0  0  # atno 17394 bound_to 11000
  140.0907  134.9594  157.1771 LP  0  0  0  0  0  0  0  0  0  0  0  0  # atno 17395 bound_to 11000

$$$$
