AV-unprocessed.smi:1554|AV-procd|sdf|6249|dock4
  -GOLD-   22720 6433D 1   1.00000     0.00000
 Structure written by MMmdl.
 48 50  0  0  0  0  0  0  0  0  2 V2000
  152.7775  144.0174  162.1672 C   0  0  0  0  0  0  0  0  0  0  0  0
  152.4882  143.1982  160.9218 C   0  0  0  0  0  0  0  0  0  0  0  0
  152.9260  141.8557  160.8654 C   0  0  0  0  0  0  0  0  0  0  0  0
  152.6812  141.0612  159.7241 C   0  0  0  0  0  0  0  0  0  0  0  0
  153.0152  139.7449  159.4547 N   0  0  0  0  0  0  0  0  0  0  0  0
  152.5160  139.5853  158.2326 C   0  0  0  0  0  0  0  0  0  0  0  0
  151.9018  140.6468  157.6749 N   0  0  0  0  0  0  0  0  0  0  0  0
  151.2894  140.7197  156.3609 C   0  0  0  0  0  0  0  0  0  0  0  0
  150.1576  141.7629  156.3029 C   0  0  1  0  0  0  0  0  0  0  0  0
  150.0317  142.2381  154.9763 O   0  0  0  0  0  0  0  0  0  0  0  0
  148.8071  141.1695  156.7504 C   0  0  0  0  0  0  0  0  0  0  0  0
  147.6672  142.0969  156.5156 N   0  3  1  0  0  0  0  0  0  0  0  0
  146.9648  141.8606  155.2306 C   0  0  0  0  0  0  0  0  0  0  0  0
  146.0216  140.6480  155.3281 C   0  0  0  0  0  0  0  0  0  0  0  0
  145.0951  140.8543  156.3875 O   0  0  0  0  0  0  0  0  0  0  0  0
  145.7327  140.9741  157.6546 C   0  0  2  0  0  0  0  0  0  0  0  0
  144.6454  141.1231  158.7245 C   0  0  0  0  0  0  0  0  0  0  0  0
  146.6893  142.1868  157.6313 C   0  0  0  0  0  0  0  0  0  0  0  0
  151.9811  141.6520  158.6320 C   0  0  0  0  0  0  0  0  0  0  0  0
  151.5376  142.9856  158.6769 C   0  0  0  0  0  0  0  0  0  0  0  0
  151.7904  143.7650  159.8250 C   0  0  0  0  0  0  0  0  0  0  0  0
  151.3099  145.2051  159.8630 C   0  0  0  0  0  0  0  0  0  0  0  0
  153.3305  143.4371  162.9063 H   0  0  0  0  0  0  0  0  0  0  0  0
  151.8484  144.3500  162.6306 H   0  0  0  0  0  0  0  0  0  0  0  0
  153.3740  144.8947  161.9164 H   0  0  0  0  0  0  0  0  0  0  0  0
  153.4566  141.4237  161.7012 H   0  0  0  0  0  0  0  0  0  0  0  0
  152.6072  138.6441  157.7099 H   0  0  0  0  0  0  0  0  0  0  0  0
  152.0613  140.9462  155.6236 H   0  0  0  0  0  0  0  0  0  0  0  0
  150.9031  139.7297  156.1148 H   0  0  0  0  0  0  0  0  0  0  0  0
  150.4318  142.6034  156.9388 H   0  0  0  0  0  0  0  0  0  0  0  0
  149.4321  142.9695  154.9749 H   0  0  0  0  0  0  0  0  0  0  0  0
  148.6420  140.2420  156.1996 H   0  0  0  0  0  0  0  0  0  0  0  0
  148.8487  140.8888  157.8027 H   0  0  0  0  0  0  0  0  0  0  0  0
  146.3822  142.7506  154.9891 H   0  0  0  0  0  0  0  0  0  0  0  0
  147.6791  141.7345  154.4162 H   0  0  0  0  0  0  0  0  0  0  0  0
  145.4685  140.5282  154.3964 H   0  0  0  0  0  0  0  0  0  0  0  0
  146.5786  139.7232  155.4862 H   0  0  0  0  0  0  0  0  0  0  0  0
  146.2875  140.0584  157.8626 H   0  0  0  0  0  0  0  0  0  0  0  0
  145.0831  141.2011  159.7200 H   0  0  0  0  0  0  0  0  0  0  0  0
  143.9761  140.2625  158.7235 H   0  0  0  0  0  0  0  0  0  0  0  0
  144.0408  142.0144  158.5542 H   0  0  0  0  0  0  0  0  0  0  0  0
  147.1917  142.2960  158.5913 H   0  0  0  0  0  0  0  0  0  0  0  0
  146.1093  143.1000  157.4915 H   0  0  0  0  0  0  0  0  0  0  0  0
  151.0084  143.4052  157.8343 H   0  0  0  0  0  0  0  0  0  0  0  0
  150.7408  145.4583  158.9679 H   0  0  0  0  0  0  0  0  0  0  0  0
  152.1576  145.8875  159.9262 H   0  0  0  0  0  0  0  0  0  0  0  0
  150.6649  145.3725  160.7257 H   0  0  0  0  0  0  0  0  0  0  0  0
  148.0943  143.0088  156.4317 H   0  0  0  0  0  0  0  0  0  0  0  0
  1  2  1  0  0  0  0
  1 23  1  0  0  0  0
  1 24  1  0  0  0  0
  1 25  1  0  0  0  0
  2 21  1  0  0  0  0
  2  3  2  0  0  0  0
  3  4  1  0  0  0  0
  3 26  1  0  0  0  0
  4 19  2  0  0  0  0
  4  5  1  0  0  0  0
  5  6  2  0  0  0  0
  6  7  1  0  0  0  0
  6 27  1  0  0  0  0
  7  8  1  0  0  0  0
  7 19  1  0  0  0  0
  8  9  1  0  0  0  0
  8 28  1  0  0  0  0
  8 29  1  0  0  0  0
  9 10  1  0  0  0  0
  9 11  1  0  0  0  0
  9 30  1  0  0  0  0
 10 31  1  0  0  0  0
 11 12  1  0  0  0  0
 11 32  1  0  0  0  0
 11 33  1  0  0  0  0
 12 18  1  0  0  0  0
 12 13  1  0  0  0  0
 12 48  1  0  0  0  0
 13 14  1  0  0  0  0
 13 34  1  0  0  0  0
 13 35  1  0  0  0  0
 14 15  1  0  0  0  0
 14 36  1  0  0  0  0
 14 37  1  0  0  0  0
 15 16  1  0  0  0  0
 16 17  1  0  0  0  0
 16 18  1  0  0  0  0
 16 38  1  0  0  0  0
 17 39  1  0  0  0  0
 17 40  1  0  0  0  0
 17 41  1  0  0  0  0
 18 42  1  0  0  0  0
 18 43  1  0  0  0  0
 19 20  1  0  0  0  0
 20 21  2  0  0  0  0
 20 44  1  0  0  0  0
 21 22  1  0  0  0  0
 22 45  1  0  0  0  0
 22 46  1  0  0  0  0
 22 47  1  0  0  0  0
M  CHG  1  12   1
M  END
> <s_m_source_file>
AV-unprocessed.smi

> <i_m_source_file_index>
1554

> <i_lp_mmshare_version>
43012

> <i_f3d_flags>
0

> <s_epik_input>
W0NIM11jKFtjSF0xKWMoW0NIM10pW2NIXWMoYzEyKW4oW2NIXW4yKVtDSDJdW0NASF0oW09IXSlbQ0gyXU4zW0NIMl1bQ0gyXU9bQ0BASF0oW0NIM10pW0NIMl0z

> <s_epik_cmdline>
J2VwaWtfcHl0aG9uJywgJy1waCcsICc3LjAnLCAnLXRuJywgJzgnLCAnLW1hJywgJzIwMCcsICctbWV0YWxfYmluZGluZycsICctaW1hZScsICc8aW5maWxlLm1hZT4nLCAnLW9tYWUnLCAnPG91dGZpbGUubWFlPic=

> <r_epik_Ionization_Penalty>
0.695251

> <r_epik_Ionization_Penalty_Charging>
0.608065

> <r_epik_Ionization_Penalty_Neutral>
0.0871863

> <r_epik_State_Penalty>
0.731955

> <r_epik_Charging_Adjusted_Penalty>
1.34002

> <i_epik_Tot_Q>
1

> <i_epik_Tot_abs_Q>
1

> <r_epik_Metal_State_Penalty>
0.652186

> <b_epik_Metal_Only>
0

> <s_lp_Force_Field>
OPLS_2005

> <r_lp_Energy>
22.2934

> <b_lp_Chiralities_Consistent>
1

> <s_lp_Variant>
AV-unprocessed.smi:1554-10

> <Gold.Version>
5.8.1

> <Gold.Id.Protein>
6NUR|6NUR_protein|mol2

> <Gold.PLP.Fitness>
45.1372

> <Gold.PLP.PLP>
-38.5489

> <Gold.PLP.part.hbond>
-3.9167

> <Gold.PLP.part.metal>
0.0000

> <Gold.PLP.part.buried>
-1.5057

> <Gold.PLP.part.nonpolar>
-32.5476

> <Gold.PLP.part.repulsive>
0.0500

> <Gold.PLP.ligand.clash>
0.0000

> <Gold.PLP.ligand.torsion>
1.2552

> <Gold.PLP.Chemscore.Hbond>
3.0000

> <Gold.PLP.Chemscore.CHOScore>
0.0000

> <Gold.PLP.Chemscore.Metal>
0.0000

> <Gold.Chemscore.Hbonds>
donor molecule, donor type, donor heavy atom, donor atom, acceptor molecule, acceptor atom, score
      L1  H    10    31       P1  8028  1.00
      L1  H    12    48       P1  8028  2.00

> <Gold.PLP.Chemscore.Internal.Correction>
0.0987

> <Gold.Rescore>
     Score         DG    S(hbond)    S(metal)    S(lipo)     H(rot)  DE(clash)    DE(int)     intcor
     15.57     -19.75       1.92        0.00     112.12       2.05       1.57       2.61       ----

> <Gold.Chemscore.Fitness>
15.5689

> <Gold.Chemscore.DG>
-19.7518

> <Gold.Chemscore.ZeroCoef>
-5.4800

> <Gold.Chemscore.Hbond>
1.9203

> <Gold.Chemscore.Metal>
0.0000

> <Gold.Chemscore.Lipo>
112.1153

> <Gold.Chemscore.Internal_Hbond>
0.0000

> <Gold.Chemscore.DEClash>
1.5706

> <Gold.Chemscore.DEInternal>
2.6123

> <Gold.Chemscore.Rot>
2.0546

> <Gold.Chemscore.Internal.Correction>
   9.000000E+99

> <Gold.Chemscore.Hbonds>
donor molecule, donor type, donor heavy atom, donor atom, acceptor molecule, acceptor atom, score
      L1  H    10    31       P1  8028  0.95
      L1  H    12    48       P1  8028  0.42

> <Gold.Chemscore.Hbond.Weighted>
-6.4139

> <Gold.Chemscore.Metal.Weighted>
-0.0000

> <Gold.Chemscore.Lipo.Weighted>
-13.1175

> <Gold.Chemscore.Internal_Hbond.Weighted>
0.0000

> <Gold.Chemscore.DEClash.Weighted>
1.5706

> <Gold.Chemscore.DEInternal.Weighted>
2.6123

> <Gold.Chemscore.Rot.Weighted>
5.2597

> <Gold.Chemscore.Internal.Correction.Weighted>
   9.000000E+99

> <Gold.Protein.RotatedTorsions>
[ 6907 6896 6895 6894 ] final -176.34 input  -60.11 | X-H torsion
[ 7974 7965 7964 7962 ] final  152.93 input  175.53 | X-H torsion
[ 8008 7997 7996 7995 ] final  -70.14 input   59.86 | X-H torsion
[ 10167 10162 10161 10158 ] final  141.12 input  -65.29 | X-H torsion
[ 10718 10713 10712 10709 ] final  152.46 input   66.30 | X-H torsion
[ 10763 10752 10751 10750 ] final  -51.22 input  -60.55 | X-H torsion
[ 11005 11000 10999 10996 ] final   85.84 input  -57.11 | X-H torsion

> <Gold.Protein.ActiveResidues>
 VAL166  LYS551  ARG553  GLY616  TRP617  ASP618  TYR619  PRO620  LYS621  CYS622 
 ASP623  PHE694  ASN695  SER759  ASP760  ASP761  ALA762  ILE779  LEU786  VAL792 
 PHE793  MET794  SER795  GLU796  ALA797  LYS798  CYS799  TRP800  GLU811  SER814 

> <Gold.Protein.RotatedAtoms>
  151.6032  133.3354  159.3051 H   0  0  0  0  0  0  0  0  0  0  0  0  # atno 6907 bound_to 6896
  150.8196  134.7400  159.6772 H   0  0  0  0  0  0  0  0  0  0  0  0  # atno 6908 bound_to 6896
  152.4291  134.5818  160.0001 H   0  0  0  0  0  0  0  0  0  0  0  0  # atno 6909 bound_to 6896
  144.8189  139.6734  143.6109 H   0  0  0  0  0  0  0  0  0  0  0  0  # atno 7974 bound_to 7965
  154.4990  140.0840  156.7757 H   0  0  0  0  0  0  0  0  0  0  0  0  # atno 8008 bound_to 7997
  155.4049  140.3439  155.4241 H   0  0  0  0  0  0  0  0  0  0  0  0  # atno 8009 bound_to 7997
  156.1431  140.1535  156.8877 H   0  0  0  0  0  0  0  0  0  0  0  0  # atno 8010 bound_to 7997
  139.5029  144.6192  151.6092 H   0  0  0  0  0  0  0  0  0  0  0  0  # atno 10167 bound_to 10162
  157.2574  131.0791  151.1689 H   0  0  0  0  0  0  0  0  0  0  0  0  # atno 10718 bound_to 10713
  154.1231  135.6531  153.4907 H   0  0  0  0  0  0  0  0  0  0  0  0  # atno 10763 bound_to 10752
  153.0219  135.5275  154.7077 H   0  0  0  0  0  0  0  0  0  0  0  0  # atno 10764 bound_to 10752
  154.6290  135.2974  155.0209 H   0  0  0  0  0  0  0  0  0  0  0  0  # atno 10765 bound_to 10752
  139.8960  134.8314  156.2638 H   0  0  0  0  0  0  0  0  0  0  0  0  # atno 11005 bound_to 11000
  146.2493  139.6165  142.9438 LP  0  0  0  0  0  0  0  0  0  0  0  0  # atno 17320 bound_to 7965
  145.5151  141.0434  143.2466 LP  0  0  0  0  0  0  0  0  0  0  0  0  # atno 17321 bound_to 7965
  140.5889  143.9816  150.6312 LP  0  0  0  0  0  0  0  0  0  0  0  0  # atno 17342 bound_to 10162
  140.2989  143.3273  152.0991 LP  0  0  0  0  0  0  0  0  0  0  0  0  # atno 17343 bound_to 10162
  157.3212  130.6938  149.6270 LP  0  0  0  0  0  0  0  0  0  0  0  0  # atno 17370 bound_to 10713
  155.9664  130.4335  150.5008 LP  0  0  0  0  0  0  0  0  0  0  0  0  # atno 17371 bound_to 10713
  141.0145  133.7076  156.1166 LP  0  0  0  0  0  0  0  0  0  0  0  0  # atno 17394 bound_to 11000
  140.7321  134.4243  157.5565 LP  0  0  0  0  0  0  0  0  0  0  0  0  # atno 17395 bound_to 11000

$$$$
