AV-unprocessed.smi:453|AV-procd|sdf|2611|dock3
  -GOLD-   2262023 13D 1   1.00000     0.00000
 Structure written by MMmdl.
 43 44  0  0  0  0  0  0  0  0  1 V2000
  147.8265  134.3570  154.8080 C   0  0  0  0  0  0  0  0  0  0  0  0
  149.2968  134.0974  154.4309 C   0  0  0  0  0  0  0  0  0  0  0  0
  149.5925  132.5897  154.4461 C   0  0  0  0  0  0  0  0  0  0  0  0
  150.3019  134.8555  155.3286 C   0  0  0  0  0  0  0  0  0  0  0  0
  150.1885  136.3804  155.2313 C   0  0  0  0  0  0  0  0  0  0  0  0
  149.6592  137.0220  156.1385 O   0  0  0  0  0  0  0  0  0  0  0  0
  150.7119  136.9492  154.1344 N   0  0  0  0  0  0  0  0  0  0  0  0
  150.7143  138.3816  153.8535 C   0  0  0  0  0  0  0  0  0  0  0  0
  150.9997  139.2674  155.0590 C   0  0  0  0  0  0  0  0  0  0  0  0
  150.0490  140.2212  155.4715 C   0  0  0  0  0  0  0  0  0  0  0  0
  150.3364  141.0436  156.5774 C   0  0  0  0  0  0  0  0  0  0  0  0
  151.5757  140.8958  157.2441 C   0  0  0  0  0  0  0  0  0  0  0  0
  151.8879  141.7141  158.3516 N   0  0  0  0  0  0  0  0  0  0  0  0
  152.9864  141.2989  159.2222 C   0  0  0  0  0  0  0  0  0  0  0  0
  152.9959  142.1383  160.5107 C   0  0  0  0  0  0  0  0  0  0  0  0
  153.0505  143.5222  160.1807 O   0  0  0  0  0  0  0  0  0  0  0  0
  151.9150  143.9311  159.4256 C   0  0  0  0  0  0  0  0  0  0  0  0
  151.8624  143.1530  158.0993 C   0  0  0  0  0  0  0  0  0  0  0  0
  152.4884  139.9752  156.8465 N   0  0  0  0  0  0  0  0  0  0  0  0
  152.2080  139.1899  155.7853 C   0  0  0  0  0  0  0  0  0  0  0  0
  147.6295  134.0821  155.8448 H   0  0  0  0  0  0  0  0  0  0  0  0
  147.1533  133.7755  154.1777 H   0  0  0  0  0  0  0  0  0  0  0  0
  147.5531  135.4044  154.6817 H   0  0  0  0  0  0  0  0  0  0  0  0
  149.4374  134.4391  153.4043 H   0  0  0  0  0  0  0  0  0  0  0  0
  149.4696  132.1722  155.4460 H   0  0  0  0  0  0  0  0  0  0  0  0
  150.6133  132.3845  154.1227 H   0  0  0  0  0  0  0  0  0  0  0  0
  148.9228  132.0501  153.7756 H   0  0  0  0  0  0  0  0  0  0  0  0
  150.1653  134.5614  156.3704 H   0  0  0  0  0  0  0  0  0  0  0  0
  151.3213  134.5662  155.0679 H   0  0  0  0  0  0  0  0  0  0  0  0
  151.1338  136.3467  153.4425 H   0  0  0  0  0  0  0  0  0  0  0  0
  151.4802  138.5754  153.1023 H   0  0  0  0  0  0  0  0  0  0  0  0
  149.7631  138.6705  153.4027 H   0  0  0  0  0  0  0  0  0  0  0  0
  149.1082  140.3220  154.9503 H   0  0  0  0  0  0  0  0  0  0  0  0
  149.6027  141.7641  156.9063 H   0  0  0  0  0  0  0  0  0  0  0  0
  152.8864  140.2437  159.4795 H   0  0  0  0  0  0  0  0  0  0  0  0
  153.9327  141.4183  158.6925 H   0  0  0  0  0  0  0  0  0  0  0  0
  152.1118  141.9318  161.1161 H   0  0  0  0  0  0  0  0  0  0  0  0
  153.8644  141.8833  161.1182 H   0  0  0  0  0  0  0  0  0  0  0  0
  151.0036  143.7742  160.0049 H   0  0  0  0  0  0  0  0  0  0  0  0
  151.9864  145.0011  159.2295 H   0  0  0  0  0  0  0  0  0  0  0  0
  152.7207  143.4158  157.4793 H   0  0  0  0  0  0  0  0  0  0  0  0
  150.9714  143.4520  157.5490 H   0  0  0  0  0  0  0  0  0  0  0  0
  152.9795  138.4859  155.5108 H   0  0  0  0  0  0  0  0  0  0  0  0
  1  2  1  0  0  0  0
  1 21  1  0  0  0  0
  1 22  1  0  0  0  0
  1 23  1  0  0  0  0
  2  3  1  0  0  0  0
  2  4  1  0  0  0  0
  2 24  1  0  0  0  0
  3 25  1  0  0  0  0
  3 26  1  0  0  0  0
  3 27  1  0  0  0  0
  4  5  1  0  0  0  0
  4 28  1  0  0  0  0
  4 29  1  0  0  0  0
  5  6  2  0  0  0  0
  5  7  1  0  0  0  0
  7  8  1  0  0  0  0
  7 30  1  0  0  0  0
  8  9  1  0  0  0  0
  8 31  1  0  0  0  0
  8 32  1  0  0  0  0
  9 20  1  0  0  0  0
  9 10  2  0  0  0  0
 10 11  1  0  0  0  0
 10 33  1  0  0  0  0
 11 12  2  0  0  0  0
 11 34  1  0  0  0  0
 12 13  1  0  0  0  0
 12 19  1  0  0  0  0
 13 18  1  0  0  0  0
 13 14  1  0  0  0  0
 14 15  1  0  0  0  0
 14 35  1  0  0  0  0
 14 36  1  0  0  0  0
 15 16  1  0  0  0  0
 15 37  1  0  0  0  0
 15 38  1  0  0  0  0
 16 17  1  0  0  0  0
 17 18  1  0  0  0  0
 17 39  1  0  0  0  0
 17 40  1  0  0  0  0
 18 41  1  0  0  0  0
 18 42  1  0  0  0  0
 19 20  2  0  0  0  0
 20 43  1  0  0  0  0
M  END
> <s_m_source_file>
AV-unprocessed.smi

> <i_m_source_file_index>
453

> <i_lp_mmshare_version>
43012

> <i_f3d_flags>
0

> <s_epik_input>
W0NIM11bQ0hdKFtDSDNdKVtDSDJdQyg9TylbTkhdW0NIMl1jMVtjSF1bY0hdYyhuW2NIXTEpTjJbQ0gyXVtDSDJdT1tDSDJdW0NIMl0y

> <s_epik_cmdline>
J2VwaWtfcHl0aG9uJywgJy1waCcsICc3LjAnLCAnLXRuJywgJzgnLCAnLW1hJywgJzIwMCcsICctbWV0YWxfYmluZGluZycsICctaW1hZScsICc8aW5maWxlLm1hZT4nLCAnLW9tYWUnLCAnPG91dGZpbGUubWFlPic=

> <r_lp_tautomer_probability>
1

> <r_epik_Ionization_Penalty>
0.00505548

> <r_epik_Ionization_Penalty_Charging>
0

> <r_epik_Ionization_Penalty_Neutral>
0.00505548

> <r_epik_State_Penalty>
0.00367784

> <r_epik_Charging_Adjusted_Penalty>
0.00367784

> <i_epik_Tot_Q>
0

> <i_epik_Tot_abs_Q>
0

> <r_epik_Metal_State_Penalty>
-0

> <b_epik_Metal_Only>
0

> <s_lp_Force_Field>
OPLS_2005

> <r_lp_Energy>
17.3119

> <b_lp_Chiralities_Consistent>
1

> <s_lp_Variant>
AV-unprocessed.smi:453-1

> <Gold.Version>
5.8.1

> <Gold.Id.Protein>
6NUR|6NUR_protein|mol2

> <Gold.PLP.Fitness>
44.3639

> <Gold.PLP.PLP>
-39.6445

> <Gold.PLP.part.hbond>
-3.0000

> <Gold.PLP.part.metal>
0.0000

> <Gold.PLP.part.buried>
-4.2349

> <Gold.PLP.part.nonpolar>
-32.5667

> <Gold.PLP.part.repulsive>
0.1089

> <Gold.PLP.ligand.clash>
0.0000

> <Gold.PLP.ligand.torsion>
0.5769

> <Gold.PLP.Chemscore.Hbond>
1.8400

> <Gold.PLP.Chemscore.CHOScore>
0.0000

> <Gold.PLP.Chemscore.Metal>
0.0000

> <Gold.Chemscore.Hbonds>
donor molecule, donor type, donor heavy atom, donor atom, acceptor molecule, acceptor atom, score
      L1  H     7    30       P1  7949  0.85
      P1  H  7997  8008       L1    19  0.99

> <Gold.PLP.Chemscore.Internal.Correction>
0.3533

> <Gold.Rescore>
     Score         DG    S(hbond)    S(metal)    S(lipo)     H(rot)  DE(clash)    DE(int)     intcor
     14.80     -17.25       1.31        0.00      99.39       1.65       0.53       1.93       ----

> <Gold.Chemscore.Fitness>
14.7994

> <Gold.Chemscore.DG>
-17.2515

> <Gold.Chemscore.ZeroCoef>
-5.4800

> <Gold.Chemscore.Hbond>
1.3063

> <Gold.Chemscore.Metal>
0.0000

> <Gold.Chemscore.Lipo>
99.3950

> <Gold.Chemscore.Internal_Hbond>
0.0000

> <Gold.Chemscore.DEClash>
0.5269

> <Gold.Chemscore.DEInternal>
1.9252

> <Gold.Chemscore.Rot>
1.6488

> <Gold.Chemscore.Internal.Correction>
   9.000000E+99

> <Gold.Chemscore.Hbonds>
donor molecule, donor type, donor heavy atom, donor atom, acceptor molecule, acceptor atom, score
      L1  H     7    30       P1  7949  0.33
      P1  H  7997  8008       L1    19  0.32

> <Gold.Chemscore.Hbond.Weighted>
-4.3631

> <Gold.Chemscore.Metal.Weighted>
-0.0000

> <Gold.Chemscore.Lipo.Weighted>
-11.6292

> <Gold.Chemscore.Internal_Hbond.Weighted>
0.0000

> <Gold.Chemscore.DEClash.Weighted>
0.5269

> <Gold.Chemscore.DEInternal.Weighted>
1.9252

> <Gold.Chemscore.Rot.Weighted>
4.2208

> <Gold.Chemscore.Internal.Correction.Weighted>
   9.000000E+99

> <Gold.Protein.RotatedTorsions>
[ 6907 6896 6895 6894 ] final  171.66 input  -60.11 | X-H torsion
[ 7974 7965 7964 7962 ] final   46.19 input  175.53 | X-H torsion
[ 8008 7997 7996 7995 ] final  -70.12 input   59.86 | X-H torsion
[ 10167 10162 10161 10158 ] final   -2.59 input  -65.29 | X-H torsion
[ 10718 10713 10712 10709 ] final -102.15 input   66.30 | X-H torsion
[ 10763 10752 10751 10750 ] final  140.42 input  -60.55 | X-H torsion
[ 11005 11000 10999 10996 ] final   95.29 input  -57.11 | X-H torsion

> <Gold.Protein.ActiveResidues>
 VAL166  LYS551  ARG553  GLY616  TRP617  ASP618  TYR619  PRO620  LYS621  CYS622 
 ASP623  PHE694  ASN695  SER759  ASP760  ASP761  ALA762  ILE779  LEU786  VAL792 
 PHE793  MET794  SER795  GLU796  ALA797  LYS798  CYS799  TRP800  GLU811  SER814 

> <Gold.Protein.RotatedAtoms>
  151.7967  133.3365  159.3514 H   0  0  0  0  0  0  0  0  0  0  0  0  # atno 6907 bound_to 6896
  150.7372  134.5791  159.5939 H   0  0  0  0  0  0  0  0  0  0  0  0  # atno 6908 bound_to 6896
  152.3171  134.7427  160.0374 H   0  0  0  0  0  0  0  0  0  0  0  0  # atno 6909 bound_to 6896
  146.0412  139.4882  142.9777 H   0  0  0  0  0  0  0  0  0  0  0  0  # atno 7974 bound_to 7965
  154.4988  140.0840  156.7754 H   0  0  0  0  0  0  0  0  0  0  0  0  # atno 8008 bound_to 7997
  155.4052  140.3439  155.4241 H   0  0  0  0  0  0  0  0  0  0  0  0  # atno 8009 bound_to 7997
  156.1429  140.1535  156.8879 H   0  0  0  0  0  0  0  0  0  0  0  0  # atno 8010 bound_to 7997
  140.6857  143.6639  150.8243 H   0  0  0  0  0  0  0  0  0  0  0  0  # atno 10167 bound_to 10162
  156.0219  130.5407  150.7067 H   0  0  0  0  0  0  0  0  0  0  0  0  # atno 10718 bound_to 10713
  153.9224  135.2999  155.3447 H   0  0  0  0  0  0  0  0  0  0  0  0  # atno 10763 bound_to 10752
  154.7569  135.4953  153.9394 H   0  0  0  0  0  0  0  0  0  0  0  0  # atno 10764 bound_to 10752
  153.1135  135.6765  153.9563 H   0  0  0  0  0  0  0  0  0  0  0  0  # atno 10765 bound_to 10752
  139.8790  134.8891  156.3989 H   0  0  0  0  0  0  0  0  0  0  0  0  # atno 11005 bound_to 11000
  145.6882  141.0172  143.1570 LP  0  0  0  0  0  0  0  0  0  0  0  0  # atno 17320 bound_to 7965
  144.7075  139.8501  143.7425 LP  0  0  0  0  0  0  0  0  0  0  0  0  # atno 17321 bound_to 7965
  140.0346  143.5409  152.2745 LP  0  0  0  0  0  0  0  0  0  0  0  0  # atno 17342 bound_to 10162
  139.6214  144.7629  151.2733 LP  0  0  0  0  0  0  0  0  0  0  0  0  # atno 17343 bound_to 10162
  157.4715  131.0893  151.0637 LP  0  0  0  0  0  0  0  0  0  0  0  0  # atno 17370 bound_to 10713
  157.1097  130.6016  149.5479 LP  0  0  0  0  0  0  0  0  0  0  0  0  # atno 17371 bound_to 10713
  140.9281  133.7598  155.9990 LP  0  0  0  0  0  0  0  0  0  0  0  0  # atno 17394 bound_to 11000
  140.8362  134.3120  157.5330 LP  0  0  0  0  0  0  0  0  0  0  0  0  # atno 17395 bound_to 11000

$$$$
