#       Name:                AV-unprocessed.smi:275
#       Creating user name   scv26
#       Creation time:       Thu Mar 26 21:32:15 2020


#       File generated by GOLD software.
#

@<TRIPOS>MOLECULE
AV-unprocessed.smi:275
    73    77     1
SMALL
NO_CHARGES


@<TRIPOS>ATOM
      1 ****        -1.7387  -0.3166  -2.4623 C.3            1 S1                 0.0000
      2 ****        -3.0589  -0.1300  -1.6944 C.3            1 S1                 0.0000
      3 ****        -4.1805   0.1979  -2.6944 C.3            1 S1                 0.0000
      4 ****        -2.9500   0.9516  -0.6063 C.3            1 S1                 0.0000
      5 ****        -2.1077   0.5608   0.5217 N.3            1 S1                 0.0000
      6 ****        -0.7403   0.9419   0.4478 C.ar           1 S1                 0.0000
      7 ****        -0.3691   2.2026   0.0934 N.ar           1 S1                 0.0000
      8 ****         0.9216   2.5414   0.0208 C.ar           1 S1                 0.0000
      9 ****         1.9961   1.7868   0.2559 N.ar           1 S1                 0.0000
     10 ****         1.6356   0.5217   0.6133 C.ar           1 S1                 0.0000
     11 ****         0.3071   0.0258   0.7323 C.ar           1 S1                 0.0000
     12 ****         0.3305  -1.3103   1.1116 N.2            1 S1                 0.0000
     13 ****         1.6015  -1.5902   1.2099 C.2            1 S1                 0.0000
     14 ****         2.4553  -0.5497   0.9221 N.pl3          1 S1                 0.0000
     15 ****         3.9070  -0.5890   0.9523 C.3            1 S1                 0.0000
     16 ****         4.5252  -1.3710  -0.2346 C.3            1 S1                 0.0000
     17 ****         4.0982  -0.7516  -1.5908 C.3            1 S1                 0.0000
     18 ****         4.3040  -1.6418  -2.6672 O.3            1 S1                 0.0000
     19 ****         6.0703  -1.4509  -0.0863 C.3            1 S1                 0.0000
     20 ****         6.5595  -2.0716   1.2126 C.3            1 S1                 0.0000
     21 ****         8.0060  -2.4224   0.8848 C.3            1 S1                 0.0000
     22 ****         8.0161  -2.7468  -0.4994 O.3            1 S1                 0.0000
     23 ****         6.7861  -2.3533  -1.0995 C.3            1 S1                 0.0000
     24 ****        -2.9019   1.3768   1.4265 C.3            1 S1                 0.0000
     25 ****        -4.0663   1.1925   0.4397 C.3            1 S1                 0.0000
     26 ****        -4.9430   2.4314   0.1977 C.3            1 S1                 0.0000
     27 ****        -5.8386   2.7697   1.4012 C.3            1 S1                 0.0000
     28 ****        -6.7404   1.5856   1.7743 C.3            1 S1                 0.0000
     29 ****        -5.9201   0.3056   1.9802 C.3            1 S1                 0.0000
     30 ****        -5.0201   0.0204   0.7656 C.3            1 S1                 0.0000
     31 ****        -1.4009   0.6210  -2.9050 H              1 S1                 0.0000
     32 ****        -1.8515  -1.0430  -3.2675 H              1 S1                 0.0000
     33 ****        -0.9454  -0.6845  -1.8126 H              1 S1                 0.0000
     34 ****        -3.3054  -1.0859  -1.2308 H              1 S1                 0.0000
     35 ****        -3.9820   1.1368  -3.2123 H              1 S1                 0.0000
     36 ****        -5.1497   0.2928  -2.2081 H              1 S1                 0.0000
     37 ****        -4.2744  -0.5830  -3.4495 H              1 S1                 0.0000
     38 ****        -2.6341   1.9100  -1.0231 H              1 S1                 0.0000
     39 ****         1.1207   3.5626  -0.2688 H              1 S1                 0.0000
     40 ****         1.9548  -2.5712   1.4927 H              1 S1                 0.0000
     41 ****         4.2872   0.4330   0.9692 H              1 S1                 0.0000
     42 ****         4.1897  -1.0383   1.9039 H              1 S1                 0.0000
     43 ****         4.1263  -2.3858  -0.1892 H              1 S1                 0.0000
     44 ****         3.0371  -0.5068  -1.6043 H              1 S1                 0.0000
     45 ****         4.6354   0.1788  -1.7776 H              1 S1                 0.0000
     46 ****         4.0275  -1.2174  -3.4651 H              1 S1                 0.0000
     47 ****         6.4904  -0.4464  -0.1621 H              1 S1                 0.0000
     48 ****         6.4866  -1.4001   2.0685 H              1 S1                 0.0000
     49 ****         5.9961  -2.9782   1.4387 H              1 S1                 0.0000
     50 ****         8.6520  -1.5581   1.0439 H              1 S1                 0.0000
     51 ****         8.3844  -3.2452   1.4919 H              1 S1                 0.0000
     52 ****         6.2032  -3.2541  -1.2958 H              1 S1                 0.0000
     53 ****         6.9654  -1.8519  -2.0510 H              1 S1                 0.0000
     54 ****        -3.0510   0.9202   2.4049 H              1 S1                 0.0000
     55 ****        -2.5633   2.4113   1.5071 H              1 S1                 0.0000
     56 ****        -4.3192   3.2963  -0.0304 H              1 S1                 0.0000
     57 ****        -5.5675   2.2804  -0.6836 H              1 S1                 0.0000
     58 ****        -5.2156   3.0384   2.2552 H              1 S1                 0.0000
     59 ****        -6.4492   3.6446   1.1770 H              1 S1                 0.0000
     60 ****        -7.3092   1.8159   2.6756 H              1 S1                 0.0000
     61 ****        -7.4707   1.4229   0.9806 H              1 S1                 0.0000
     62 ****        -5.3091   0.4034   2.8780 H              1 S1                 0.0000
     63 ****        -6.5877  -0.5385   2.1544 H              1 S1                 0.0000
     64 ****        -5.6575  -0.2040  -0.0887 H              1 S1                 0.0000
     65 ****        -4.4547  -0.8925   0.9561 H              1 S1                 0.0000
     66 ****        -1.9652  -0.4126   0.7009 LP             1 S1                 0.0000
     67 ****        -1.0710   2.8837  -0.1152 LP             1 S1                 0.0000
     68 ****         2.9405   2.1066   0.1800 LP             1 S1                 0.0000
     69 ****        -0.4474  -1.9178   1.2723 LP             1 S1                 0.0000
     70 ****         3.7674  -2.4735  -2.5243 LP             1 S1                 0.0000
     71 ****         5.2738  -1.8774  -2.7292 LP             1 S1                 0.0000
     72 ****         8.1368  -3.7336  -0.6077 LP             1 S1                 0.0000
     73 ****         8.7712  -2.2675  -0.9466 LP             1 S1                 0.0000
@<TRIPOS>BOND
    1    1    2 1     
    2    1   31 1     
    3    1   32 1     
    4    1   33 1     
    5    2    3 1     
    6    2    4 1     
    7    2   34 1     
    8    3   35 1     
    9    3   36 1     
   10    3   37 1     
   11    4   25 1     
   12    4    5 1     
   13    4   38 1     
   14    5    6 1     
   15    5   24 1     
   16    6   11 ar    
   17    6    7 ar    
   18    7    8 ar    
   19    8    9 ar    
   20    8   39 1     
   21    9   10 ar    
   22   10   14 1     
   23   10   11 ar    
   24   11   12 1     
   25   12   13 2     
   26   13   14 1     
   27   13   40 1     
   28   14   15 1     
   29   15   16 1     
   30   15   41 1     
   31   15   42 1     
   32   16   17 1     
   33   16   19 1     
   34   16   43 1     
   35   17   18 1     
   36   17   44 1     
   37   17   45 1     
   38   18   46 1     
   39   19   23 1     
   40   19   20 1     
   41   19   47 1     
   42   20   21 1     
   43   20   48 1     
   44   20   49 1     
   45   21   22 1     
   46   21   50 1     
   47   21   51 1     
   48   22   23 1     
   49   23   52 1     
   50   23   53 1     
   51   24   25 1     
   52   24   54 1     
   53   24   55 1     
   54   25   30 1     
   55   25   26 1     
   56   26   27 1     
   57   26   56 1     
   58   26   57 1     
   59   27   28 1     
   60   27   58 1     
   61   27   59 1     
   62   28   29 1     
   63   28   60 1     
   64   28   61 1     
   65   29   30 1     
   66   29   62 1     
   67   29   63 1     
   68   30   64 1     
   69   30   65 1     
   70    5   66 1     
   71    7   67 1     
   72    9   68 1     
   73   12   69 1     
   74   18   70 1     
   75   18   71 1     
   76   22   72 1     
   77   22   73 1     
@<TRIPOS>SUBSTRUCTURE
      1 S1             1
@<TRIPOS>SET
LONE_PAIRS      STATIC     ATOMS    <user>   **** ""
8 66 67 68 69 70 71 72 73
DONOR_HYDROGENS      STATIC     ATOMS    <user>   **** ""
1 46
ATOM$BLUE        STATIC     ATOMS    COLORGROUP SYSTEM
8 66 67 68 69 70 71 72 73
ATOM$RED        STATIC     ATOMS    COLORGROUP SYSTEM
1 46
