AV-unprocessed.smi:2143|AV-procd|sdf|8723|dock6
  -GOLD-   2272011493D 1   1.00000     0.00000
 Structure written by MMmdl.
 44 45  0  0  0  0  0  0  0  0  1 V2000
  151.8178  144.9767  158.7966 C   0  0  0  0  0  0  0  0  0  0  0  0
  152.3332  143.5319  158.6875 C   0  0  1  0  0  0  0  0  0  0  0  0
  152.6440  142.9304  160.0731 C   0  0  0  0  0  0  0  0  0  0  0  0
  153.2554  141.5258  159.9519 C   0  0  0  0  0  0  0  0  0  0  0  0
  152.3621  140.5918  159.1219 C   0  0  0  0  0  0  0  0  0  0  0  0
  152.0572  141.1953  157.7375 C   0  0  1  0  0  0  0  0  0  0  0  0
  151.2332  140.2682  156.9654 N   0  0  0  0  0  0  0  0  0  0  0  0
  151.6403  139.5754  155.8913 C   0  0  0  0  0  0  0  0  0  0  0  0
  152.7902  139.6210  155.4523 O   0  0  0  0  0  0  0  0  0  0  0  0
  150.5834  138.6858  155.2241 C   0  0  0  0  0  0  0  0  0  0  0  0
  150.2043  137.5340  156.0527 N   0  0  0  0  0  0  0  0  0  0  0  0
  149.5580  137.7395  157.2582 C   0  0  0  0  0  0  0  0  0  0  0  0
  149.1769  136.7369  158.0794 C   0  0  0  0  0  0  0  0  0  0  0  0
  149.4384  135.3458  157.7315 C   0  0  0  0  0  0  0  0  0  0  0  0
  149.0914  134.3971  158.4365 O   0  0  0  0  0  0  0  0  0  0  0  0
  150.1164  135.1634  156.5036 N   0  0  0  0  0  0  0  0  0  0  0  0
  150.3929  133.8017  156.0945 C   0  0  0  0  0  0  0  0  0  0  0  0
  150.4957  136.2157  155.6384 C   0  0  0  0  0  0  0  0  0  0  0  0
  151.0545  136.0104  154.5579 O   0  0  0  0  0  0  0  0  0  0  0  0
  151.4089  142.6034  157.8552 C   0  0  1  0  0  0  0  0  0  0  0  0
  149.9500  142.5626  158.3678 C   0  0  0  0  0  0  0  0  0  0  0  0
  150.9226  145.0426  159.4151 H   0  0  0  0  0  0  0  0  0  0  0  0
  151.5804  145.3857  157.8142 H   0  0  0  0  0  0  0  0  0  0  0  0
  152.5706  145.6234  159.2477 H   0  0  0  0  0  0  0  0  0  0  0  0
  153.2806  143.5920  158.1494 H   0  0  0  0  0  0  0  0  0  0  0  0
  153.3361  143.5786  160.6118 H   0  0  0  0  0  0  0  0  0  0  0  0
  151.7373  142.8870  160.6773 H   0  0  0  0  0  0  0  0  0  0  0  0
  154.2381  141.5970  159.4843 H   0  0  0  0  0  0  0  0  0  0  0  0
  153.4162  141.1030  160.9440 H   0  0  0  0  0  0  0  0  0  0  0  0
  152.8576  139.6270  159.0063 H   0  0  0  0  0  0  0  0  0  0  0  0
  151.4352  140.3956  159.6622 H   0  0  0  0  0  0  0  0  0  0  0  0
  153.0117  141.3027  157.2183 H   0  0  0  0  0  0  0  0  0  0  0  0
  150.2725  140.1633  157.2584 H   0  0  0  0  0  0  0  0  0  0  0  0
  149.7073  139.2999  155.0118 H   0  0  0  0  0  0  0  0  0  0  0  0
  150.9446  138.3420  154.2530 H   0  0  0  0  0  0  0  0  0  0  0  0
  149.3446  138.7539  157.5624 H   0  0  0  0  0  0  0  0  0  0  0  0
  148.6713  136.9667  159.0058 H   0  0  0  0  0  0  0  0  0  0  0  0
  151.2270  133.7793  155.3928 H   0  0  0  0  0  0  0  0  0  0  0  0
  149.4801  133.4170  155.6378 H   0  0  0  0  0  0  0  0  0  0  0  0
  150.6764  133.2206  156.9737 H   0  0  0  0  0  0  0  0  0  0  0  0
  151.3643  143.0222  156.8487 H   0  0  0  0  0  0  0  0  0  0  0  0
  149.8831  142.1805  159.3857 H   0  0  0  0  0  0  0  0  0  0  0  0
  149.3210  141.9326  157.7389 H   0  0  0  0  0  0  0  0  0  0  0  0
  149.4952  143.5525  158.3570 H   0  0  0  0  0  0  0  0  0  0  0  0
  1  2  1  0  0  0  0
  1 22  1  0  0  0  0
  1 23  1  0  0  0  0
  1 24  1  0  0  0  0
  2 20  1  0  0  0  0
  2  3  1  0  0  0  0
  2 25  1  0  0  0  0
  3  4  1  0  0  0  0
  3 26  1  0  0  0  0
  3 27  1  0  0  0  0
  4  5  1  0  0  0  0
  4 28  1  0  0  0  0
  4 29  1  0  0  0  0
  5  6  1  0  0  0  0
  5 30  1  0  0  0  0
  5 31  1  0  0  0  0
  6  7  1  0  0  0  0
  6 20  1  0  0  0  0
  6 32  1  0  0  0  0
  7  8  1  0  0  0  0
  7 33  1  0  0  0  0
  8  9  2  0  0  0  0
  8 10  1  0  0  0  0
 10 11  1  0  0  0  0
 10 34  1  0  0  0  0
 10 35  1  0  0  0  0
 11 18  1  0  0  0  0
 11 12  1  0  0  0  0
 12 13  2  0  0  0  0
 12 36  1  0  0  0  0
 13 14  1  0  0  0  0
 13 37  1  0  0  0  0
 14 15  2  0  0  0  0
 14 16  1  0  0  0  0
 16 17  1  0  0  0  0
 16 18  1  0  0  0  0
 17 38  1  0  0  0  0
 17 39  1  0  0  0  0
 17 40  1  0  0  0  0
 18 19  2  0  0  0  0
 20 21  1  0  0  0  0
 20 41  1  0  0  0  0
 21 42  1  0  0  0  0
 21 43  1  0  0  0  0
 21 44  1  0  0  0  0
M  END
> <s_m_source_file>
AV-unprocessed.smi

> <i_m_source_file_index>
2143

> <i_lp_mmshare_version>
43012

> <i_f3d_flags>
0

> <s_epik_input>
W0NIM11bQ0BASF0xW0NIMl1bQ0gyXVtDSDJdW0NASF0oW0NASF0xW0NIM10pW05IXUMoPU8pW0NIMl1uMltjSF1bY0hdYyg9TyluKFtDSDNdKWMyPU8=

> <s_epik_cmdline>
J2VwaWtfcHl0aG9uJywgJy1waCcsICc3LjAnLCAnLXRuJywgJzgnLCAnLW1hJywgJzIwMCcsICctbWV0YWxfYmluZGluZycsICctaW1hZScsICc8aW5maWxlLm1hZT4nLCAnLW9tYWUnLCAnPG91dGZpbGUubWFlPic=

> <r_lp_tautomer_probability>
1

> <r_epik_Ionization_Penalty>
3.18445e-08

> <r_epik_Ionization_Penalty_Charging>
1.27977e-08

> <r_epik_Ionization_Penalty_Neutral>
1.90469e-08

> <r_epik_State_Penalty>
-0

> <r_epik_Charging_Adjusted_Penalty>
1.27977e-08

> <i_epik_Tot_Q>
0

> <i_epik_Tot_abs_Q>
0

> <r_epik_Metal_State_Penalty>
-0

> <b_epik_Metal_Only>
0

> <s_lp_Force_Field>
OPLS_2005

> <r_lp_Energy>
21.6223

> <b_lp_Chiralities_Consistent>
1

> <s_lp_Variant>
AV-unprocessed.smi:2143-2

> <Gold.Version>
5.8.1

> <Gold.Id.Protein>
6NUR|6NUR_protein|mol2

> <Gold.PLP.Fitness>
46.1700

> <Gold.PLP.PLP>
-37.5076

> <Gold.PLP.part.hbond>
-3.1020

> <Gold.PLP.part.metal>
0.0000

> <Gold.PLP.part.buried>
-6.6277

> <Gold.PLP.part.nonpolar>
-28.9271

> <Gold.PLP.part.repulsive>
0.6776

> <Gold.PLP.ligand.clash>
0.0000

> <Gold.PLP.ligand.torsion>
0.1756

> <Gold.PLP.Chemscore.Hbond>
3.0000

> <Gold.PLP.Chemscore.CHOScore>
0.0000

> <Gold.PLP.Chemscore.Metal>
0.0000

> <Gold.Chemscore.Hbonds>
donor molecule, donor type, donor heavy atom, donor atom, acceptor molecule, acceptor atom, score
      P1  H  6896  6908       L1    15  1.00
      P1  H  7997  8008       L1     9  1.00
      P1  H 10752 10763       L1    19  1.00

> <Gold.PLP.Chemscore.Internal.Correction>
0.0136

> <Gold.Rescore>
     Score         DG    S(hbond)    S(metal)    S(lipo)     H(rot)  DE(clash)    DE(int)     intcor
     21.32     -21.98       2.75        0.00      95.57       1.51       0.38       0.28       ----

> <Gold.Chemscore.Fitness>
21.3194

> <Gold.Chemscore.DG>
-21.9765

> <Gold.Chemscore.ZeroCoef>
-5.4800

> <Gold.Chemscore.Hbond>
2.7508

> <Gold.Chemscore.Metal>
0.0000

> <Gold.Chemscore.Lipo>
95.5737

> <Gold.Chemscore.Internal_Hbond>
0.0000

> <Gold.Chemscore.DEClash>
0.3773

> <Gold.Chemscore.DEInternal>
0.2797

> <Gold.Chemscore.Rot>
1.5131

> <Gold.Chemscore.Internal.Correction>
   9.000000E+99

> <Gold.Chemscore.Hbonds>
donor molecule, donor type, donor heavy atom, donor atom, acceptor molecule, acceptor atom, score
      P1  H  6896  6908       L1    15  0.30
      P1  H  7997  8008       L1     9  0.99
      P1  H 10752 10763       L1    19  0.95

> <Gold.Chemscore.Hbond.Weighted>
-9.1878

> <Gold.Chemscore.Metal.Weighted>
-0.0000

> <Gold.Chemscore.Lipo.Weighted>
-11.1821

> <Gold.Chemscore.Internal_Hbond.Weighted>
0.0000

> <Gold.Chemscore.DEClash.Weighted>
0.3773

> <Gold.Chemscore.DEInternal.Weighted>
0.2797

> <Gold.Chemscore.Rot.Weighted>
3.8734

> <Gold.Chemscore.Internal.Correction.Weighted>
   9.000000E+99

> <Gold.Protein.RotatedTorsions>
[ 6907 6896 6895 6894 ] final  134.76 input  -60.11 | X-H torsion
[ 7974 7965 7964 7962 ] final   -8.20 input  175.53 | X-H torsion
[ 8008 7997 7996 7995 ] final  -10.89 input   59.86 | X-H torsion
[ 10167 10162 10161 10158 ] final -164.33 input  -65.29 | X-H torsion
[ 10718 10713 10712 10709 ] final -130.45 input   66.30 | X-H torsion
[ 10763 10752 10751 10750 ] final   60.36 input  -60.55 | X-H torsion
[ 11005 11000 10999 10996 ] final  -82.70 input  -57.11 | X-H torsion

> <Gold.Protein.ActiveResidues>
 VAL166  LYS551  ARG553  GLY616  TRP617  ASP618  TYR619  PRO620  LYS621  CYS622 
 ASP623  PHE694  ASN695  SER759  ASP760  ASP761  ALA762  ILE779  LEU786  VAL792 
 PHE793  MET794  SER795  GLU796  ALA797  LYS798  CYS799  TRP800  GLU811  SER814 

> <Gold.Protein.RotatedAtoms>
  152.3078  133.5721  159.5660 H   0  0  0  0  0  0  0  0  0  0  0  0  # atno 6907 bound_to 6896
  150.7308  134.0197  159.3706 H   0  0  0  0  0  0  0  0  0  0  0  0  # atno 6908 bound_to 6896
  151.8092  135.0686  160.0461 H   0  0  0  0  0  0  0  0  0  0  0  0  # atno 6909 bound_to 6896
  146.2287  140.2432  142.8344 H   0  0  0  0  0  0  0  0  0  0  0  0  # atno 7974 bound_to 7965
  154.5514  140.2317  155.8479 H   0  0  0  0  0  0  0  0  0  0  0  0  # atno 8008 bound_to 7997
  156.1950  140.3067  155.9369 H   0  0  0  0  0  0  0  0  0  0  0  0  # atno 8009 bound_to 7997
  155.3063  140.0433  157.3023 H   0  0  0  0  0  0  0  0  0  0  0  0  # atno 8010 bound_to 7997
  139.6258  144.0535  152.1973 H   0  0  0  0  0  0  0  0  0  0  0  0  # atno 10167 bound_to 10162
  156.2146  130.6940  151.0688 H   0  0  0  0  0  0  0  0  0  0  0  0  # atno 10718 bound_to 10713
  152.9919  135.5539  154.5861 H   0  0  0  0  0  0  0  0  0  0  0  0  # atno 10763 bound_to 10752
  154.5232  135.2809  155.1246 H   0  0  0  0  0  0  0  0  0  0  0  0  # atno 10764 bound_to 10752
  154.2591  135.6384  153.5321 H   0  0  0  0  0  0  0  0  0  0  0  0  # atno 10765 bound_to 10752
  141.1662  133.7257  156.8610 H   0  0  0  0  0  0  0  0  0  0  0  0  # atno 11005 bound_to 11000
  144.9468  140.8137  143.5596 LP  0  0  0  0  0  0  0  0  0  0  0  0  # atno 17320 bound_to 7965
  145.2389  139.2081  143.5003 LP  0  0  0  0  0  0  0  0  0  0  0  0  # atno 17321 bound_to 7965
  140.0188  144.6168  150.7584 LP  0  0  0  0  0  0  0  0  0  0  0  0  # atno 17342 bound_to 10162
  140.7410  143.2812  151.3593 LP  0  0  0  0  0  0  0  0  0  0  0  0  # atno 17343 bound_to 10162
  157.7056  131.0758  150.6677 LP  0  0  0  0  0  0  0  0  0  0  0  0  # atno 17370 bound_to 10713
  156.6738  130.4547  149.5649 LP  0  0  0  0  0  0  0  0  0  0  0  0  # atno 17371 bound_to 10713
  140.1848  134.9007  157.2992 LP  0  0  0  0  0  0  0  0  0  0  0  0  # atno 17394 bound_to 11000
  140.2355  134.3858  155.7503 LP  0  0  0  0  0  0  0  0  0  0  0  0  # atno 17395 bound_to 11000

$$$$
