AV-unprocessed.smi:21|AV-procd|sdf|156|dock1
  -GOLD-   2262015383D 1   1.00000     0.00000
 Structure written by MMmdl.
 61 64  0  0  0  0  0  0  0  0  1 V2000
  148.0551  144.7530  160.4140 C   0  0  0  0  0  0  0  0  0  0  0  0
  149.3066  144.1295  160.6534 O   0  0  0  0  0  0  0  0  0  0  0  0
  150.2077  144.2444  159.5606 C   0  0  2  0  0  0  0  0  0  0  0  0
  149.9942  143.1210  158.5325 C   0  0  0  0  0  0  0  0  0  0  0  0
  151.3909  142.5153  158.3311 C   0  0  2  0  0  0  0  0  0  0  0  0
  151.3698  141.0529  157.8287 C   0  0  0  0  0  0  0  0  0  0  0  0
  151.1550  140.9329  156.3857 N   0  0  0  0  0  0  0  0  0  0  0  0
  150.3651  141.9753  155.7361 C   0  0  0  0  0  0  0  0  0  0  0  0
  151.1546  139.6889  155.8327 C   0  0  0  0  0  0  0  0  0  0  0  0
  150.7249  139.5383  154.5501 N   0  0  0  0  0  0  0  0  0  0  0  0
  150.6651  138.3278  153.9890 C   0  0  0  0  0  0  0  0  0  0  0  0
  150.9832  137.1469  154.5194 N   0  0  0  0  0  0  0  0  0  0  0  0
  151.4342  137.2881  155.7980 C   0  0  0  0  0  0  0  0  0  0  0  0
  151.5610  138.5081  156.5226 C   0  0  0  0  0  0  0  0  0  0  0  0
  152.0803  138.2453  157.7862 N   0  0  0  0  0  0  0  0  0  0  0  0
  152.2269  136.9495  157.8153 C   0  0  0  0  0  0  0  0  0  0  0  0
  151.8500  136.2950  156.6659 N   0  0  0  0  0  0  0  0  0  0  0  0
  151.8897  134.8649  156.4215 C   0  0  0  0  0  0  0  0  0  0  0  0
  150.6384  134.3237  155.6792 C   0  0  2  0  0  0  0  0  0  0  0  0
  149.4172  134.1647  156.6214 C   0  0  0  0  0  0  0  0  0  0  0  0
  149.7742  133.5870  157.8602 O   0  0  0  0  0  0  0  0  0  0  0  0
  150.9684  132.9876  154.9639 C   0  0  2  0  0  0  0  0  0  0  0  0
  149.8320  132.4055  154.1388 C   0  0  0  0  0  0  0  0  0  0  0  0
  150.2603  130.9528  153.9795 C   0  0  0  0  0  0  0  0  0  0  0  0
  150.9084  130.6202  155.1998 O   0  0  0  0  0  0  0  0  0  0  0  0
  151.2609  131.8083  155.9027 C   0  0  0  0  0  0  0  0  0  0  0  0
  152.0366  142.6926  159.6220 N   0  0  0  0  0  0  0  0  0  0  0  0
  153.4841  142.5290  159.5886 C   0  0  0  0  0  0  0  0  0  0  0  0
  151.6471  144.0264  160.0426 C   0  0  0  0  0  0  0  0  0  0  0  0
  150.1300  145.2311  159.0999 H   0  0  0  0  0  0  0  0  0  0  0  0
  151.9174  143.1302  157.5989 H   0  0  0  0  0  0  0  0  0  0  0  0
  147.4003  144.5981  161.2713 H   0  0  0  0  0  0  0  0  0  0  0  0
  147.5596  144.3402  159.5348 H   0  0  0  0  0  0  0  0  0  0  0  0
  148.1738  145.8280  160.2721 H   0  0  0  0  0  0  0  0  0  0  0  0
  149.3160  142.3675  158.9364 H   0  0  0  0  0  0  0  0  0  0  0  0
  149.5632  143.4927  157.6026 H   0  0  0  0  0  0  0  0  0  0  0  0
  152.3288  140.5817  158.0415 H   0  0  0  0  0  0  0  0  0  0  0  0
  150.6437  140.4782  158.3982 H   0  0  0  0  0  0  0  0  0  0  0  0
  150.5939  142.0279  154.6710 H   0  0  0  0  0  0  0  0  0  0  0  0
  150.5847  142.9508  156.1707 H   0  0  0  0  0  0  0  0  0  0  0  0
  149.2976  141.7853  155.8541 H   0  0  0  0  0  0  0  0  0  0  0  0
  150.3054  138.3018  152.9709 H   0  0  0  0  0  0  0  0  0  0  0  0
  152.6050  136.4323  158.6850 H   0  0  0  0  0  0  0  0  0  0  0  0
  152.7958  134.6664  155.8494 H   0  0  0  0  0  0  0  0  0  0  0  0
  152.0104  134.3529  157.3769 H   0  0  0  0  0  0  0  0  0  0  0  0
  150.3686  135.0415  154.9027 H   0  0  0  0  0  0  0  0  0  0  0  0
  148.9687  135.1289  156.8557 H   0  0  0  0  0  0  0  0  0  0  0  0
  148.6390  133.5647  156.1490 H   0  0  0  0  0  0  0  0  0  0  0  0
  149.0349  133.0995  158.1905 H   0  0  0  0  0  0  0  0  0  0  0  0
  151.8290  133.1305  154.3079 H   0  0  0  0  0  0  0  0  0  0  0  0
  148.8919  132.4605  154.6901 H   0  0  0  0  0  0  0  0  0  0  0  0
  149.6951  132.9006  153.1772 H   0  0  0  0  0  0  0  0  0  0  0  0
  149.4214  130.2869  153.7765 H   0  0  0  0  0  0  0  0  0  0  0  0
  150.9781  130.8556  153.1642 H   0  0  0  0  0  0  0  0  0  0  0  0
  152.3060  131.7738  156.2118 H   0  0  0  0  0  0  0  0  0  0  0  0
  150.6458  131.8640  156.8018 H   0  0  0  0  0  0  0  0  0  0  0  0
  153.9143  142.7326  160.5696 H   0  0  0  0  0  0  0  0  0  0  0  0
  153.9433  143.2089  158.8698 H   0  0  0  0  0  0  0  0  0  0  0  0
  153.7584  141.5101  159.3170 H   0  0  0  0  0  0  0  0  0  0  0  0
  152.2905  144.7670  159.5645 H   0  0  0  0  0  0  0  0  0  0  0  0
  151.7530  144.1514  161.1208 H   0  0  0  0  0  0  0  0  0  0  0  0
  1  2  1  0  0  0  0
  1 32  1  0  0  0  0
  1 33  1  0  0  0  0
  1 34  1  0  0  0  0
  2  3  1  0  0  0  0
  3 30  1  0  0  0  0
  3 29  1  0  0  0  0
  3  4  1  0  0  0  0
  4  5  1  0  0  0  0
  4 35  1  0  0  0  0
  4 36  1  0  0  0  0
  5 31  1  0  0  0  0
  5  6  1  0  0  0  0
  5 27  1  0  0  0  0
  6  7  1  0  0  0  0
  6 37  1  0  0  0  0
  6 38  1  0  0  0  0
  7  8  1  0  0  0  0
  7  9  1  0  0  0  0
  8 39  1  0  0  0  0
  8 40  1  0  0  0  0
  8 41  1  0  0  0  0
  9 14  1  0  0  0  0
  9 10  2  0  0  0  0
 10 11  1  0  0  0  0
 11 12  2  0  0  0  0
 11 42  1  0  0  0  0
 12 13  1  0  0  0  0
 13 17  1  0  0  0  0
 13 14  2  0  0  0  0
 14 15  1  0  0  0  0
 15 16  2  0  0  0  0
 16 17  1  0  0  0  0
 16 43  1  0  0  0  0
 17 18  1  0  0  0  0
 18 19  1  0  0  0  0
 18 44  1  0  0  0  0
 18 45  1  0  0  0  0
 19 20  1  0  0  0  0
 19 22  1  0  0  0  0
 19 46  1  0  0  0  0
 20 21  1  0  0  0  0
 20 47  1  0  0  0  0
 20 48  1  0  0  0  0
 21 49  1  0  0  0  0
 22 26  1  0  0  0  0
 22 23  1  0  0  0  0
 22 50  1  0  0  0  0
 23 24  1  0  0  0  0
 23 51  1  0  0  0  0
 23 52  1  0  0  0  0
 24 25  1  0  0  0  0
 24 53  1  0  0  0  0
 24 54  1  0  0  0  0
 25 26  1  0  0  0  0
 26 55  1  0  0  0  0
 26 56  1  0  0  0  0
 27 28  1  0  0  0  0
 27 29  1  0  0  0  0
 28 57  1  0  0  0  0
 28 58  1  0  0  0  0
 28 59  1  0  0  0  0
 29 60  1  0  0  0  0
 29 61  1  0  0  0  0
M  END
> <s_m_source_file>
AV-unprocessed.smi

> <i_m_source_file_index>
21

> <i_lp_mmshare_version>
43012

> <i_f3d_flags>
0

> <s_epik_input>
W0NIM11PW0NASF0xW0NIMl1bQ0BIXShOKFtDSDNdKVtDSDJdMSlbQ0gyXU4oW0NIM10pYyhuW2NIXW4yKWMoYzIzKW5bY0hdbjNbQ0gyXVtDQEhdKFtDSDJdW09IXSlbQ0BASF00W0NIMl1bQ0gyXU9bQ0gyXTQ=

> <s_epik_cmdline>
J2VwaWtfcHl0aG9uJywgJy1waCcsICc3LjAnLCAnLXRuJywgJzgnLCAnLW1hJywgJzIwMCcsICctbWV0YWxfYmluZGluZycsICctaW1hZScsICc8aW5maWxlLm1hZT4nLCAnLW9tYWUnLCAnPG91dGZpbGUubWFlPic=

> <r_lp_tautomer_probability>
1

> <r_epik_Ionization_Penalty>
2.17574

> <r_epik_Ionization_Penalty_Charging>
0

> <r_epik_Ionization_Penalty_Neutral>
2.17574

> <r_epik_State_Penalty>
2.31336

> <r_epik_Charging_Adjusted_Penalty>
2.31336

> <i_epik_Tot_Q>
0

> <i_epik_Tot_abs_Q>
0

> <r_epik_Metal_State_Penalty>
2.31025

> <b_epik_Metal_Only>
0

> <s_lp_Force_Field>
OPLS_2005

> <r_lp_Energy>
68.7045

> <b_lp_Chiralities_Consistent>
1

> <s_lp_Variant>
AV-unprocessed.smi:21-36

> <Gold.Version>
5.8.1

> <Gold.Id.Protein>
6NUR|6NUR_protein|mol2

> <Gold.PLP.Fitness>
55.1538

> <Gold.PLP.PLP>
-45.6292

> <Gold.PLP.part.hbond>
-3.0000

> <Gold.PLP.part.metal>
0.0000

> <Gold.PLP.part.buried>
-8.2315

> <Gold.PLP.part.nonpolar>
-34.5252

> <Gold.PLP.part.repulsive>
0.4881

> <Gold.PLP.ligand.clash>
0.0000

> <Gold.PLP.ligand.torsion>
1.3482

> <Gold.PLP.Chemscore.Hbond>
2.0558

> <Gold.PLP.Chemscore.CHOScore>
1.6949

> <Gold.PLP.Chemscore.Metal>
0.0000

> <Gold.Chemscore.Hbonds>
donor molecule, donor type, donor heavy atom, donor atom, acceptor molecule, acceptor atom, score
      P1  H  6896  6909       L1    21  1.00
      P1  H  6933  6944       L1     2  0.38
      P1  H  7989  7998       L1    10  1.00
      L1  C    11    42       P1  7948  0.55
      L1  C    11    42       P1  7949  0.04
      L1  C    11    42       P1  7957  0.85

> <Gold.PLP.Chemscore.Internal.Correction>
0.9690

> <Gold.Rescore>
     Score         DG    S(hbond)    S(metal)    S(lipo)     H(rot)  DE(clash)    DE(int)     intcor
     13.02     -16.61       2.41        0.00      92.07       3.00       0.48       3.11       ----

> <Gold.Chemscore.Fitness>
13.0225

> <Gold.Chemscore.DG>
-16.6089

> <Gold.Chemscore.ZeroCoef>
-5.4800

> <Gold.Chemscore.Hbond>
2.4086

> <Gold.Chemscore.Metal>
0.0000

> <Gold.Chemscore.Lipo>
92.0696

> <Gold.Chemscore.Internal_Hbond>
0.0000

> <Gold.Chemscore.DEClash>
0.4751

> <Gold.Chemscore.DEInternal>
3.1113

> <Gold.Chemscore.Rot>
3.0031

> <Gold.Chemscore.Internal.Correction>
   9.000000E+99

> <Gold.Chemscore.Hbonds>
donor molecule, donor type, donor heavy atom, donor atom, acceptor molecule, acceptor atom, score
      P1  H  6896  6909       L1    21  0.45
      P1  H  6933  6944       L1     2  0.06
      P1  H  7989  7998       L1    10  0.53

> <Gold.Chemscore.Hbond.Weighted>
-8.0448

> <Gold.Chemscore.Metal.Weighted>
-0.0000

> <Gold.Chemscore.Lipo.Weighted>
-10.7721

> <Gold.Chemscore.Internal_Hbond.Weighted>
0.0000

> <Gold.Chemscore.DEClash.Weighted>
0.4751

> <Gold.Chemscore.DEInternal.Weighted>
3.1113

> <Gold.Chemscore.Rot.Weighted>
7.6880

> <Gold.Chemscore.Internal.Correction.Weighted>
   9.000000E+99

> <Gold.Protein.RotatedTorsions>
[ 6907 6896 6895 6894 ] final    3.82 input  -60.11 | X-H torsion
[ 7974 7965 7964 7962 ] final  145.98 input  175.53 | X-H torsion
[ 8008 7997 7996 7995 ] final    8.62 input   59.86 | X-H torsion
[ 10167 10162 10161 10158 ] final   22.43 input  -65.29 | X-H torsion
[ 10718 10713 10712 10709 ] final   91.55 input   66.30 | X-H torsion
[ 10763 10752 10751 10750 ] final   74.65 input  -60.55 | X-H torsion
[ 11005 11000 10999 10996 ] final -159.77 input  -57.11 | X-H torsion

> <Gold.Protein.ActiveResidues>
 VAL166  LYS551  ARG553  GLY616  TRP617  ASP618  TYR619  PRO620  LYS621  CYS622 
 ASP623  PHE694  ASN695  SER759  ASP760  ASP761  ALA762  ILE779  LEU786  VAL792 
 PHE793  MET794  SER795  GLU796  ALA797  LYS798  CYS799  TRP800  GLU811  SER814 

> <Gold.Protein.RotatedAtoms>
  151.6312  135.1022  160.0121 H   0  0  0  0  0  0  0  0  0  0  0  0  # atno 6907 bound_to 6896
  152.4105  133.6952  159.6402 H   0  0  0  0  0  0  0  0  0  0  0  0  # atno 6908 bound_to 6896
  150.7996  133.8549  159.3256 H   0  0  0  0  0  0  0  0  0  0  0  0  # atno 6909 bound_to 6896
  144.8708  139.5849  143.5888 H   0  0  0  0  0  0  0  0  0  0  0  0  # atno 7974 bound_to 7965
  154.7692  140.2799  155.6151 H   0  0  0  0  0  0  0  0  0  0  0  0  # atno 8008 bound_to 7997
  156.2930  140.2645  156.2418 H   0  0  0  0  0  0  0  0  0  0  0  0  # atno 8009 bound_to 7997
  154.9921  140.0373  157.2313 H   0  0  0  0  0  0  0  0  0  0  0  0  # atno 8010 bound_to 7997
  140.5349  143.9778  150.6486 H   0  0  0  0  0  0  0  0  0  0  0  0  # atno 10167 bound_to 10162
  157.6960  131.0411  150.3747 H   0  0  0  0  0  0  0  0  0  0  0  0  # atno 10718 bound_to 10713
  153.0601  135.5018  154.8074 H   0  0  0  0  0  0  0  0  0  0  0  0  # atno 10763 bound_to 10752
  154.6869  135.2978  154.9537 H   0  0  0  0  0  0  0  0  0  0  0  0  # atno 10764 bound_to 10752
  154.0304  135.6730  153.4833 H   0  0  0  0  0  0  0  0  0  0  0  0  # atno 10765 bound_to 10752
  140.6389  134.4572  157.5232 H   0  0  0  0  0  0  0  0  0  0  0  0  # atno 11005 bound_to 11000
  146.2929  139.7191  142.9148 LP  0  0  0  0  0  0  0  0  0  0  0  0  # atno 17320 bound_to 7965
  145.4134  141.0399  143.3004 LP  0  0  0  0  0  0  0  0  0  0  0  0  # atno 17321 bound_to 7965
  140.3163  143.3166  152.0829 LP  0  0  0  0  0  0  0  0  0  0  0  0  # atno 17342 bound_to 10162
  139.4967  144.6603  151.6479 LP  0  0  0  0  0  0  0  0  0  0  0  0  # atno 17343 bound_to 10162
  156.4167  130.3945  149.6853 LP  0  0  0  0  0  0  0  0  0  0  0  0  # atno 17370 bound_to 10713
  156.4118  130.7726  151.2739 LP  0  0  0  0  0  0  0  0  0  0  0  0  # atno 17371 bound_to 10713
  139.9088  134.8391  156.1606 LP  0  0  0  0  0  0  0  0  0  0  0  0  # atno 17394 bound_to 11000
  141.0621  133.6836  156.1973 LP  0  0  0  0  0  0  0  0  0  0  0  0  # atno 17395 bound_to 11000

$$$$
