#       Name:                AV-unprocessed.smi:1645
#       Creating user name   scv26
#       Creation time:       Fri Mar 27 07:30:53 2020


#       File generated by GOLD software.
#

@<TRIPOS>MOLECULE
AV-unprocessed.smi:1645
    59    62     1
SMALL
NO_CHARGES


@<TRIPOS>ATOM
      1 ****        -0.9592   1.3263  -0.0864 O.2            1 S1                 0.0000
      2 ****        -1.3273   0.2516  -0.5607 C.2            1 S1                 0.0000
      3 ****        -0.5149  -0.7614  -0.9065 N.am           1 S1                 0.0000
      4 ****         0.8963  -0.8389  -0.7606 C.ar           1 S1                 0.0000
      5 ****         1.6312  -0.1232   0.2125 C.ar           1 S1                 0.0000
      6 ****         3.0268  -0.2954   0.2755 C.ar           1 S1                 0.0000
      7 ****         3.6563  -1.1818  -0.6288 C.ar           1 S1                 0.0000
      8 ****         5.0544  -1.3637  -0.5785 N.3            1 S1                 0.0000
      9 ****         5.5783  -1.7919   0.7197 C.3            1 S1                 0.0000
     10 ****         7.0990  -1.5750   0.8039 C.3            1 S1                 0.0000
     11 ****         7.8195  -2.2428  -0.3767 C.3            1 S1                 0.0000
     12 ****         7.2272  -1.7463  -1.7037 C.3            1 S1                 0.0000
     13 ****         5.7053  -1.9658  -1.7443 C.3            1 S1                 0.0000
     14 ****         2.9479  -1.8746  -1.5539 N.ar           1 S1                 0.0000
     15 ****         1.6095  -1.7101  -1.6078 C.ar           1 S1                 0.0000
     16 ****        -2.6110  -0.0416  -0.8139 N.am           1 S1                 0.0000
     17 ****        -3.7370   0.8583  -0.5760 C.3            1 S1                 0.0000
     18 ****        -4.8969   0.6412  -1.5577 C.3            1 S1                 0.0000
     19 ****        -6.1784   0.8859  -0.7353 C.3            1 S1                 0.0000
     20 ****        -5.7448   1.2525   0.6332 N.4            1 S1                 1.0000
     21 ****        -5.7738   2.7260   0.8509 C.3            1 S1                 0.0000
     22 ****        -5.1030   3.1335   2.1694 C.3            1 S1                 0.0000
     23 ****        -3.6576   2.6309   2.2065 C.3            1 S1                 0.0000
     24 ****        -3.6487   1.1081   2.0451 C.3            1 S1                 0.0000
     25 ****        -4.4071   0.6303   0.7859 C.3            1 S1                 0.0000
     26 ****        -0.9461  -1.5423  -1.3793 H              1 S1                 0.0000
     27 ****         1.1539   0.5415   0.9156 H              1 S1                 0.0000
     28 ****         3.5985   0.2582   1.0053 H              1 S1                 0.0000
     29 ****         5.0987  -1.2616   1.5415 H              1 S1                 0.0000
     30 ****         5.3469  -2.8491   0.8546 H              1 S1                 0.0000
     31 ****         7.3144  -0.5055   0.8055 H              1 S1                 0.0000
     32 ****         7.4795  -1.9694   1.7462 H              1 S1                 0.0000
     33 ****         8.8879  -2.0294  -0.3364 H              1 S1                 0.0000
     34 ****         7.7126  -3.3261  -0.3086 H              1 S1                 0.0000
     35 ****         7.4457  -0.6847  -1.8263 H              1 S1                 0.0000
     36 ****         7.7006  -2.2586  -2.5413 H              1 S1                 0.0000
     37 ****         5.4836  -3.0335  -1.7663 H              1 S1                 0.0000
     38 ****         5.3060  -1.5333  -2.6626 H              1 S1                 0.0000
     39 ****         1.0932  -2.2896  -2.3592 H              1 S1                 0.0000
     40 ****        -2.8230  -0.9461  -1.2093 H              1 S1                 0.0000
     41 ****        -3.4121   1.8969  -0.6604 H              1 S1                 0.0000
     42 ****        -4.8244   1.3182  -2.4095 H              1 S1                 0.0000
     43 ****        -4.9014  -0.3774  -1.9485 H              1 S1                 0.0000
     44 ****        -6.8207   1.6442  -1.1855 H              1 S1                 0.0000
     45 ****        -6.7603  -0.0348  -0.6783 H              1 S1                 0.0000
     46 ****        -5.2769   3.2346   0.0231 H              1 S1                 0.0000
     47 ****        -6.8103   3.0648   0.8442 H              1 S1                 0.0000
     48 ****        -5.1219   4.2185   2.2759 H              1 S1                 0.0000
     49 ****        -5.6617   2.7277   3.0138 H              1 S1                 0.0000
     50 ****        -3.0737   3.0991   1.4132 H              1 S1                 0.0000
     51 ****        -3.1850   2.9109   3.1483 H              1 S1                 0.0000
     52 ****        -2.6257   0.7334   2.0444 H              1 S1                 0.0000
     53 ****        -4.1218   0.6667   2.9232 H              1 S1                 0.0000
     54 ****        -4.5734  -0.4433   0.8965 H              1 S1                 0.0000
     55 ****        -6.3730   0.8380   1.3066 H              1 S1                 0.0000
     56 ****         0.0137   1.4972   0.0689 LP             1 S1                 0.0000
     57 ****        -1.6332   2.0284   0.1436 LP             1 S1                 0.0000
     58 ****         5.3651  -0.4176  -0.6693 LP             1 S1                 0.0000
     59 ****         3.4093  -2.4972  -2.1858 LP             1 S1                 0.0000
@<TRIPOS>BOND
    1    1    2 2     
    2    2    3 am    
    3    2   16 am    
    4    3    4 1     
    5    3   26 1     
    6    4   15 ar    
    7    4    5 ar    
    8    5    6 ar    
    9    5   27 1     
   10    6    7 ar    
   11    6   28 1     
   12    7    8 1     
   13    7   14 ar    
   14    8   13 1     
   15    8    9 1     
   16    9   10 1     
   17    9   29 1     
   18    9   30 1     
   19   10   11 1     
   20   10   31 1     
   21   10   32 1     
   22   11   12 1     
   23   11   33 1     
   24   11   34 1     
   25   12   13 1     
   26   12   35 1     
   27   12   36 1     
   28   13   37 1     
   29   13   38 1     
   30   14   15 ar    
   31   15   39 1     
   32   16   17 1     
   33   16   40 1     
   34   17   25 1     
   35   17   18 1     
   36   17   41 1     
   37   18   19 1     
   38   18   42 1     
   39   18   43 1     
   40   19   20 1     
   41   19   44 1     
   42   19   45 1     
   43   20   25 1     
   44   20   21 1     
   45   20   55 1     
   46   21   22 1     
   47   21   46 1     
   48   21   47 1     
   49   22   23 1     
   50   22   48 1     
   51   22   49 1     
   52   23   24 1     
   53   23   50 1     
   54   23   51 1     
   55   24   25 1     
   56   24   52 1     
   57   24   53 1     
   58   25   54 1     
   59    1   56 1     
   60    1   57 1     
   61    8   58 1     
   62   14   59 1     
@<TRIPOS>SUBSTRUCTURE
      1 S1             1
@<TRIPOS>SET
LONE_PAIRS      STATIC     ATOMS    <user>   **** ""
4 56 57 58 59
DONOR_HYDROGENS      STATIC     ATOMS    <user>   **** ""
3 26 40 55
ATOM$BLUE        STATIC     ATOMS    COLORGROUP SYSTEM
4 56 57 58 59
ATOM$RED        STATIC     ATOMS    COLORGROUP SYSTEM
3 26 40 55
