#       Name:                AV-unprocessed.smi:1809
#       Creating user name   scv26
#       Creation time:       Fri Mar 27 08:57:44 2020


#       File generated by GOLD software.
#

@<TRIPOS>MOLECULE
AV-unprocessed.smi:1809
    46    48     1
SMALL
NO_CHARGES


@<TRIPOS>ATOM
      1 ****        -7.1003   3.4224   1.6971 C.3            1 S1                 0.0000
      2 ****        -5.7569   2.7774   1.7330 C.2            1 S1                 0.0000
      3 ****        -5.5888   1.4555   1.8608 N.2            1 S1                 0.0000
      4 ****        -4.2487   1.0941   1.8676 N.2            1 S1                 0.0000
      5 ****        -3.4434   2.1582   1.7438 C.2            1 S1                 0.0000
      6 ****        -2.0260   2.0773   1.7197 N.am           1 S1                 0.0000
      7 ****        -1.2538   0.9774   1.7621 C.2            1 S1                 0.0000
      8 ****        -1.6668  -0.1793   1.8483 O.2            1 S1                 0.0000
      9 ****         0.0467   1.2962   1.6927 N.am           1 S1                 0.0000
     10 ****         1.1470   0.3381   1.6694 C.3            1 S1                 0.0000
     11 ****         1.5560  -0.0167   0.2296 C.3            1 S1                 0.0000
     12 ****         2.8288  -0.8941   0.1926 C.3            1 S1                 0.0000
     13 ****         3.1117  -1.2982  -1.1715 N.3            1 S1                 0.0000
     14 ****         4.2282  -2.1927  -1.3713 C.3            1 S1                 0.0000
     15 ****         4.0196  -2.7465  -2.7919 C.3            1 S1                 0.0000
     16 ****         2.5197  -2.5130  -3.0803 C.3            1 S1                 0.0000
     17 ****         1.9935  -2.0032  -1.7376 C.3            1 S1                 0.0000
     18 ****         0.7420  -1.1148  -1.7516 C.3            1 S1                 0.0000
     19 ****         0.4763  -0.7138  -0.4057 O.3            1 S1                 0.0000
     20 ****        -4.2658   3.7033   1.6115 S.3            1 S1                 0.0000
     21 ****        -7.8894   2.6698   1.6833 H              1 S1                 0.0000
     22 ****        -7.1928   4.0409   0.8043 H              1 S1                 0.0000
     23 ****        -7.2338   4.0531   2.5759 H              1 S1                 0.0000
     24 ****        -1.5436   2.9606   1.6455 H              1 S1                 0.0000
     25 ****         0.2946   2.2723   1.6254 H              1 S1                 0.0000
     26 ****         1.9899   0.7971   2.1865 H              1 S1                 0.0000
     27 ****         0.8960  -0.5631   2.2318 H              1 S1                 0.0000
     28 ****         1.7457   0.9048  -0.3241 H              1 S1                 0.0000
     29 ****         3.6778  -0.3441   0.5996 H              1 S1                 0.0000
     30 ****         2.6895  -1.7751   0.8210 H              1 S1                 0.0000
     31 ****         5.1830  -1.6794  -1.2557 H              1 S1                 0.0000
     32 ****         4.1917  -3.0078  -0.6464 H              1 S1                 0.0000
     33 ****         4.6327  -2.2072  -3.5150 H              1 S1                 0.0000
     34 ****         4.2878  -3.8020  -2.8459 H              1 S1                 0.0000
     35 ****         2.3991  -1.7561  -3.8566 H              1 S1                 0.0000
     36 ****         2.0075  -3.4189  -3.4056 H              1 S1                 0.0000
     37 ****         1.7767  -2.8754  -1.1167 H              1 S1                 0.0000
     38 ****         0.8862  -0.2357  -2.3816 H              1 S1                 0.0000
     39 ****        -0.1163  -1.6612  -2.1425 H              1 S1                 0.0000
     40 ****        -6.3424   0.8032   1.9420 LP             1 S1                 0.0000
     41 ****        -3.9231   0.1526   1.9544 LP             1 S1                 0.0000
     42 ****        -2.6499  -0.3572   1.8928 LP             1 S1                 0.0000
     43 ****        -1.0192  -0.9409   1.8738 LP             1 S1                 0.0000
     44 ****         3.3225  -0.4209  -1.6027 LP             1 S1                 0.0000
     45 ****        -0.3235  -0.1136  -0.4105 LP             1 S1                 0.0000
     46 ****         0.2747  -1.5334   0.1306 LP             1 S1                 0.0000
@<TRIPOS>BOND
    1    1    2 1     
    2    1   21 1     
    3    1   22 1     
    4    1   23 1     
    5    2   20 1     
    6    2    3 2     
    7    3    4 1     
    8    4    5 2     
    9    5    6 1     
   10    5   20 1     
   11    6    7 am    
   12    6   24 1     
   13    7    8 2     
   14    7    9 am    
   15    9   10 1     
   16    9   25 1     
   17   10   11 1     
   18   10   26 1     
   19   10   27 1     
   20   11   19 1     
   21   11   12 1     
   22   11   28 1     
   23   12   13 1     
   24   12   29 1     
   25   12   30 1     
   26   13   17 1     
   27   13   14 1     
   28   14   15 1     
   29   14   31 1     
   30   14   32 1     
   31   15   16 1     
   32   15   33 1     
   33   15   34 1     
   34   16   17 1     
   35   16   35 1     
   36   16   36 1     
   37   17   18 1     
   38   17   37 1     
   39   18   19 1     
   40   18   38 1     
   41   18   39 1     
   42    3   40 1     
   43    4   41 1     
   44    8   42 1     
   45    8   43 1     
   46   13   44 1     
   47   19   45 1     
   48   19   46 1     
@<TRIPOS>SUBSTRUCTURE
      1 S1             1
@<TRIPOS>SET
LONE_PAIRS      STATIC     ATOMS    <user>   **** ""
7 40 41 42 43 44 45 46
DONOR_HYDROGENS      STATIC     ATOMS    <user>   **** ""
2 24 25
ATOM$BLUE        STATIC     ATOMS    COLORGROUP SYSTEM
7 40 41 42 43 44 45 46
ATOM$RED        STATIC     ATOMS    COLORGROUP SYSTEM
2 24 25
