#       Name:                AV-unprocessed.smi:753
#       Creating user name   scv26
#       Creation time:       Fri Mar 27 00:59:44 2020


#       File generated by GOLD software.
#

@<TRIPOS>MOLECULE
AV-unprocessed.smi:753
    46    48     1
SMALL
NO_CHARGES


@<TRIPOS>ATOM
      1 ****        -3.0913   6.9215   0.2747 C.3            1 S1                 0.0000
      2 ****        -2.5552   5.5114   0.4076 C.ar           1 S1                 0.0000
      3 ****        -2.2900   4.9537   1.6762 C.ar           1 S1                 0.0000
      4 ****        -1.7921   3.6379   1.7391 C.ar           1 S1                 0.0000
      5 ****        -1.5795   2.9337   0.5364 C.ar           1 S1                 0.0000
      6 ****        -1.0384   1.5182   0.5487 C.3            1 S1                 0.0000
      7 ****         0.4873   1.4831   0.3680 C.3            1 S1                 0.0000
      8 ****         0.9891   0.1152   0.3560 N.am           1 S1                 0.0000
      9 ****         1.2378  -0.6247   1.4496 C.2            1 S1                 0.0000
     10 ****         1.0845  -0.2109   2.5972 O.2            1 S1                 0.0000
     11 ****         1.6721  -1.8722   1.1972 N.am           1 S1                 0.0000
     12 ****         2.0272  -2.9165   2.1614 C.3            1 S1                 0.0000
     13 ****         2.1927  -4.2925   1.4794 C.3            1 S1                 0.0000
     14 ****         3.6306  -4.6941   1.8578 C.3            1 S1                 0.0000
     15 ****         3.7006  -5.0021   3.3662 C.3            1 S1                 0.0000
     16 ****         3.5790  -3.6056   4.0073 C.3            1 S1                 0.0000
     17 ****         3.4268  -2.6869   2.7814 C.3            1 S1                 0.0000
     18 ****         4.3574  -3.3590   1.7765 C.3            1 S1                 0.0000
     19 ****        -1.8759   3.5834  -0.6802 C.ar           1 S1                 0.0000
     20 ****        -2.3536   4.8444  -0.7504 N.ar           1 S1                 0.0000
     21 ****        -3.2641   7.3724   1.2522 H              1 S1                 0.0000
     22 ****        -4.0360   6.9186  -0.2699 H              1 S1                 0.0000
     23 ****        -2.3820   7.5465  -0.2684 H              1 S1                 0.0000
     24 ****        -2.4619   5.5180   2.5810 H              1 S1                 0.0000
     25 ****        -1.5764   3.1808   2.6937 H              1 S1                 0.0000
     26 ****        -1.3194   1.0396   1.4880 H              1 S1                 0.0000
     27 ****        -1.5233   0.9473  -0.2445 H              1 S1                 0.0000
     28 ****         0.7616   1.9510  -0.5778 H              1 S1                 0.0000
     29 ****         0.9804   2.0575   1.1544 H              1 S1                 0.0000
     30 ****         1.1468  -0.3054  -0.5481 H              1 S1                 0.0000
     31 ****         1.7842  -2.1190   0.2245 H              1 S1                 0.0000
     32 ****         1.2571  -2.9744   2.9330 H              1 S1                 0.0000
     33 ****         1.4574  -5.0180   1.8294 H              1 S1                 0.0000
     34 ****         2.0920  -4.2192   0.3953 H              1 S1                 0.0000
     35 ****         4.0441  -5.4833   1.2296 H              1 S1                 0.0000
     36 ****         2.9075  -5.6784   3.6870 H              1 S1                 0.0000
     37 ****         4.6563  -5.4595   3.6253 H              1 S1                 0.0000
     38 ****         2.7339  -3.5315   4.6926 H              1 S1                 0.0000
     39 ****         4.4839  -3.3603   4.5648 H              1 S1                 0.0000
     40 ****         3.6605  -1.6436   2.9972 H              1 S1                 0.0000
     41 ****         5.3945  -3.4095   2.1124 H              1 S1                 0.0000
     42 ****         4.3241  -2.9069   0.7836 H              1 S1                 0.0000
     43 ****        -1.7224   3.0796  -1.6231 H              1 S1                 0.0000
     44 ****         0.7587   0.7216   2.7532 LP             1 S1                 0.0000
     45 ****         1.2856  -0.8068   3.3747 LP             1 S1                 0.0000
     46 ****        -2.5522   5.2718  -1.6324 LP             1 S1                 0.0000
@<TRIPOS>BOND
    1    1    2 1     
    2    1   21 1     
    3    1   22 1     
    4    1   23 1     
    5    2   20 ar    
    6    2    3 ar    
    7    3    4 ar    
    8    3   24 1     
    9    4    5 ar    
   10    4   25 1     
   11    5    6 1     
   12    5   19 ar    
   13    6    7 1     
   14    6   26 1     
   15    6   27 1     
   16    7    8 1     
   17    7   28 1     
   18    7   29 1     
   19    8    9 am    
   20    8   30 1     
   21    9   10 2     
   22    9   11 am    
   23   11   12 1     
   24   11   31 1     
   25   12   17 1     
   26   12   13 1     
   27   12   32 1     
   28   13   14 1     
   29   13   33 1     
   30   13   34 1     
   31   14   18 1     
   32   14   15 1     
   33   14   35 1     
   34   15   16 1     
   35   15   36 1     
   36   15   37 1     
   37   16   17 1     
   38   16   38 1     
   39   16   39 1     
   40   17   18 1     
   41   17   40 1     
   42   18   41 1     
   43   18   42 1     
   44   19   20 ar    
   45   19   43 1     
   46   10   44 1     
   47   10   45 1     
   48   20   46 1     
@<TRIPOS>SUBSTRUCTURE
      1 S1             1
@<TRIPOS>SET
LONE_PAIRS      STATIC     ATOMS    <user>   **** ""
3 44 45 46
DONOR_HYDROGENS      STATIC     ATOMS    <user>   **** ""
2 30 31
ATOM$BLUE        STATIC     ATOMS    COLORGROUP SYSTEM
3 44 45 46
ATOM$RED        STATIC     ATOMS    COLORGROUP SYSTEM
2 30 31
