AV-unprocessed.smi:2847|AV-procd|sdf|10954|dock7
  -GOLD-   2272015413D 1   1.00000     0.00000
 Structure written by MMmdl.
 45 46  0  0  0  0  0  0  0  0  1 V2000
  145.2772  131.8675  152.3479 C   0  0  0  0  0  0  0  0  0  0  0  0
  144.9854  132.7762  151.1303 C   0  0  0  0  0  0  0  0  0  0  0  0
  145.8999  132.3744  149.9587 C   0  0  0  0  0  0  0  0  0  0  0  0
  143.5091  132.5170  150.7477 C   0  0  0  0  0  0  0  0  0  0  0  0
  145.2152  134.2580  151.4760 C   0  0  0  0  0  0  0  0  0  0  0  0
  144.2069  135.1053  151.2311 N   0  0  0  0  0  0  0  0  0  0  0  0
  144.3483  136.3826  151.6422 C   0  0  0  0  0  0  0  0  0  0  0  0
  145.4963  136.8225  152.3306 C   0  0  0  0  0  0  0  0  0  0  0  0
  145.5723  138.1779  152.7485 N   0  0  0  0  0  0  0  0  0  0  0  0
  146.4540  138.7423  153.5905 C   0  0  0  0  0  0  0  0  0  0  0  0
  147.3872  138.1535  154.1348 O   0  0  0  0  0  0  0  0  0  0  0  0
  146.1918  140.0499  153.7491 N   0  0  0  0  0  0  0  0  0  0  0  0
  146.9003  141.0376  154.5747 C   0  0  2  0  0  0  0  0  0  0  0  0
  146.6636  142.4611  154.0159 C   0  0  0  0  0  0  0  0  0  0  0  0
  148.4105  140.6873  154.4530 C   0  0  0  0  0  0  0  0  0  0  0  0
  148.9631  141.1061  153.2191 O   0  0  0  0  0  0  0  0  0  0  0  0
  146.4166  141.0121  156.0360 C   0  0  0  0  0  0  0  0  0  0  0  0
  145.2515  141.8206  156.5598 C   0  0  0  0  0  0  0  0  0  0  0  0
  146.6610  142.1220  157.0323 C   0  0  0  0  0  0  0  0  0  0  0  0
  146.4767  135.8343  152.5855 C   0  0  0  0  0  0  0  0  0  0  0  0
  146.3214  134.5592  152.1690 N   0  0  0  0  0  0  0  0  0  0  0  0
  145.0678  130.8214  152.1216 H   0  0  0  0  0  0  0  0  0  0  0  0
  144.6649  132.1453  153.2068 H   0  0  0  0  0  0  0  0  0  0  0  0
  146.3223  131.9186  152.6554 H   0  0  0  0  0  0  0  0  0  0  0  0
  146.9516  132.5147  150.2108 H   0  0  0  0  0  0  0  0  0  0  0  0
  145.6925  132.9730  149.0708 H   0  0  0  0  0  0  0  0  0  0  0  0
  145.7629  131.3268  149.6886 H   0  0  0  0  0  0  0  0  0  0  0  0
  143.3314  131.4598  150.5473 H   0  0  0  0  0  0  0  0  0  0  0  0
  143.2177  133.0602  149.8481 H   0  0  0  0  0  0  0  0  0  0  0  0
  142.8323  132.8166  151.5490 H   0  0  0  0  0  0  0  0  0  0  0  0
  143.5344  137.0577  151.4212 H   0  0  0  0  0  0  0  0  0  0  0  0
  144.9037  138.8020  152.3212 H   0  0  0  0  0  0  0  0  0  0  0  0
  145.3931  140.4112  153.2483 H   0  0  0  0  0  0  0  0  0  0  0  0
  147.2953  143.1905  154.5240 H   0  0  0  0  0  0  0  0  0  0  0  0
  145.6322  142.7867  154.1515 H   0  0  0  0  0  0  0  0  0  0  0  0
  146.8830  142.5233  152.9495 H   0  0  0  0  0  0  0  0  0  0  0  0
  148.9942  141.1665  155.2375 H   0  0  0  0  0  0  0  0  0  0  0  0
  148.5766  139.6137  154.5384 H   0  0  0  0  0  0  0  0  0  0  0  0
  148.7408  140.4677  152.5584 H   0  0  0  0  0  0  0  0  0  0  0  0
  146.4626  140.0127  156.4634 H   0  0  0  0  0  0  0  0  0  0  0  0
  144.7740  142.5497  155.9108 H   0  0  0  0  0  0  0  0  0  0  0  0
  144.5834  141.3300  157.2647 H   0  0  0  0  0  0  0  0  0  0  0  0
  146.9232  141.8288  158.0469 H   0  0  0  0  0  0  0  0  0  0  0  0
  147.1101  143.0523  156.6949 H   0  0  0  0  0  0  0  0  0  0  0  0
  147.3784  136.0352  153.1428 H   0  0  0  0  0  0  0  0  0  0  0  0
  1  2  1  0  0  0  0
  1 22  1  0  0  0  0
  1 23  1  0  0  0  0
  1 24  1  0  0  0  0
  2  3  1  0  0  0  0
  2  4  1  0  0  0  0
  2  5  1  0  0  0  0
  3 25  1  0  0  0  0
  3 26  1  0  0  0  0
  3 27  1  0  0  0  0
  4 28  1  0  0  0  0
  4 29  1  0  0  0  0
  4 30  1  0  0  0  0
  5 21  1  0  0  0  0
  5  6  2  0  0  0  0
  6  7  1  0  0  0  0
  7  8  2  0  0  0  0
  7 31  1  0  0  0  0
  8  9  1  0  0  0  0
  8 20  1  0  0  0  0
  9 10  1  0  0  0  0
  9 32  1  0  0  0  0
 10 11  2  0  0  0  0
 10 12  1  0  0  0  0
 12 13  1  0  0  0  0
 12 33  1  0  0  0  0
 13 14  1  0  0  0  0
 13 15  1  0  0  0  0
 13 17  1  0  0  0  0
 14 34  1  0  0  0  0
 14 35  1  0  0  0  0
 14 36  1  0  0  0  0
 15 16  1  0  0  0  0
 15 37  1  0  0  0  0
 15 38  1  0  0  0  0
 16 39  1  0  0  0  0
 17 19  1  0  0  0  0
 17 18  1  0  0  0  0
 17 40  1  0  0  0  0
 18 19  1  0  0  0  0
 18 41  1  0  0  0  0
 18 42  1  0  0  0  0
 19 43  1  0  0  0  0
 19 44  1  0  0  0  0
 20 21  2  0  0  0  0
 20 45  1  0  0  0  0
M  END
> <s_m_source_file>
AV-unprocessed.smi

> <i_m_source_file_index>
2847

> <i_lp_mmshare_version>
43012

> <i_f3d_flags>
0

> <s_epik_input>
W0NIM11DKFtDSDNdKShbQ0gzXSljMW5bY0hdYyhbY0hdbjEpW05IXUMoPU8pW05IXVtDQEBdKFtDSDNdKShbQ0gyXVtPSF0pW0NIXTJbQ0gyXVtDSDJdMg==

> <s_epik_cmdline>
J2VwaWtfcHl0aG9uJywgJy1waCcsICc3LjAnLCAnLXRuJywgJzgnLCAnLW1hJywgJzIwMCcsICctbWV0YWxfYmluZGluZycsICctaW1hZScsICc8aW5maWxlLm1hZT4nLCAnLW9tYWUnLCAnPG91dGZpbGUubWFlPic=

> <r_lp_tautomer_probability>
1

> <r_epik_Ionization_Penalty>
2.57177e-05

> <r_epik_Ionization_Penalty_Charging>
0

> <r_epik_Ionization_Penalty_Neutral>
2.57177e-05

> <r_epik_State_Penalty>
-0

> <r_epik_Charging_Adjusted_Penalty>
0

> <i_epik_Tot_Q>
0

> <i_epik_Tot_abs_Q>
0

> <r_epik_Metal_State_Penalty>
-0

> <b_epik_Metal_Only>
0

> <s_lp_Force_Field>
OPLS_2005

> <r_lp_Energy>
20.8954

> <b_lp_Chiralities_Consistent>
1

> <s_lp_Variant>
AV-unprocessed.smi:2847-2

> <Gold.Version>
5.8.1

> <Gold.Id.Protein>
6NUR|6NUR_protein|mol2

> <Gold.PLP.Fitness>
41.3392

> <Gold.PLP.PLP>
-28.9391

> <Gold.PLP.part.hbond>
-4.3365

> <Gold.PLP.part.metal>
0.0000

> <Gold.PLP.part.buried>
-1.0961

> <Gold.PLP.part.nonpolar>
-24.6278

> <Gold.PLP.part.repulsive>
0.7396

> <Gold.PLP.ligand.clash>
0.0000

> <Gold.PLP.ligand.torsion>
1.8819

> <Gold.PLP.Chemscore.Hbond>
3.5345

> <Gold.PLP.Chemscore.CHOScore>
1.3371

> <Gold.PLP.Chemscore.Metal>
0.0000

> <Gold.Chemscore.Hbonds>
donor molecule, donor type, donor heavy atom, donor atom, acceptor molecule, acceptor atom, score
      L1  H     9    32       P1 10175  0.93
      L1  H    12    33       P1 10175  1.00
      L1  H    16    39       P1  7957  0.58
      P1  H  8011  8017       L1    16  1.00
      L1  C     7    31       P1 10171  0.76
      L1  C    20    45       P1  7948  0.59

> <Gold.PLP.Chemscore.Internal.Correction>
1.5492

> <Gold.Rescore>
     Score         DG    S(hbond)    S(metal)    S(lipo)     H(rot)  DE(clash)    DE(int)     intcor
     12.63     -17.16       2.96        0.00      62.84       2.17       0.40       4.13       ----

> <Gold.Chemscore.Fitness>
12.6298

> <Gold.Chemscore.DG>
-17.1573

> <Gold.Chemscore.ZeroCoef>
-5.4800

> <Gold.Chemscore.Hbond>
2.9565

> <Gold.Chemscore.Metal>
0.0000

> <Gold.Chemscore.Lipo>
62.8419

> <Gold.Chemscore.Internal_Hbond>
0.0000

> <Gold.Chemscore.DEClash>
0.3967

> <Gold.Chemscore.DEInternal>
4.1308

> <Gold.Chemscore.Rot>
2.1679

> <Gold.Chemscore.Internal.Correction>
   9.000000E+99

> <Gold.Chemscore.Hbonds>
donor molecule, donor type, donor heavy atom, donor atom, acceptor molecule, acceptor atom, score
      L1  H     9    32       P1 10175  0.84
      L1  H    12    33       P1 10175  0.97
      L1  H    16    39       P1  7957  0.58
      P1  H  8011  8017       L1    16  0.44

> <Gold.Chemscore.Hbond.Weighted>
-9.8746

> <Gold.Chemscore.Metal.Weighted>
-0.0000

> <Gold.Chemscore.Lipo.Weighted>
-7.3525

> <Gold.Chemscore.Internal_Hbond.Weighted>
0.0000

> <Gold.Chemscore.DEClash.Weighted>
0.3967

> <Gold.Chemscore.DEInternal.Weighted>
4.1308

> <Gold.Chemscore.Rot.Weighted>
5.5499

> <Gold.Chemscore.Internal.Correction.Weighted>
   9.000000E+99

> <Gold.Protein.RotatedTorsions>
[ 6907 6896 6895 6894 ] final -179.05 input  -60.11 | X-H torsion
[ 7974 7965 7964 7962 ] final   11.95 input  175.53 | X-H torsion
[ 8008 7997 7996 7995 ] final   39.24 input   59.86 | X-H torsion
[ 10167 10162 10161 10158 ] final -176.69 input  -65.29 | X-H torsion
[ 10718 10713 10712 10709 ] final   17.59 input   66.30 | X-H torsion
[ 10763 10752 10751 10750 ] final  130.98 input  -60.55 | X-H torsion
[ 11005 11000 10999 10996 ] final  103.87 input  -57.11 | X-H torsion

> <Gold.Protein.ActiveResidues>
 VAL166  LYS551  ARG553  GLY616  TRP617  ASP618  TYR619  PRO620  LYS621  CYS622 
 ASP623  PHE694  ASN695  SER759  ASP760  ASP761  ALA762  ILE779  LEU786  VAL792 
 PHE793  MET794  SER795  GLU796  ALA797  LYS798  CYS799  TRP800  GLU811  SER814 

> <Gold.Protein.RotatedAtoms>
  151.6471  133.3323  159.3143 H   0  0  0  0  0  0  0  0  0  0  0  0  # atno 6907 bound_to 6896
  150.7979  134.7055  159.6584 H   0  0  0  0  0  0  0  0  0  0  0  0  # atno 6908 bound_to 6896
  152.4068  134.6197  160.0099 H   0  0  0  0  0  0  0  0  0  0  0  0  # atno 6909 bound_to 6896
  146.2361  139.9409  142.8483 H   0  0  0  0  0  0  0  0  0  0  0  0  # atno 7974 bound_to 7965
  155.2334  140.3340  155.4300 H   0  0  0  0  0  0  0  0  0  0  0  0  # atno 8008 bound_to 7997
  156.2285  140.1840  156.7347 H   0  0  0  0  0  0  0  0  0  0  0  0  # atno 8009 bound_to 7997
  154.5939  140.0633  156.9262 H   0  0  0  0  0  0  0  0  0  0  0  0  # atno 8010 bound_to 7997
  139.5517  144.2092  152.1089 H   0  0  0  0  0  0  0  0  0  0  0  0  # atno 10167 bound_to 10162
  157.0843  130.6401  149.5834 H   0  0  0  0  0  0  0  0  0  0  0  0  # atno 10718 bound_to 10713
  153.7669  135.3187  155.3346 H   0  0  0  0  0  0  0  0  0  0  0  0  # atno 10763 bound_to 10752
  154.8210  135.4603  154.0783 H   0  0  0  0  0  0  0  0  0  0  0  0  # atno 10764 bound_to 10752
  153.2030  135.6925  153.8291 H   0  0  0  0  0  0  0  0  0  0  0  0  # atno 10765 bound_to 10752
  139.8787  134.9279  156.5275 H   0  0  0  0  0  0  0  0  0  0  0  0  # atno 11005 bound_to 11000
  145.1954  140.9830  143.4187 LP  0  0  0  0  0  0  0  0  0  0  0  0  # atno 17320 bound_to 7965
  144.9820  139.3773  143.6257 LP  0  0  0  0  0  0  0  0  0  0  0  0  # atno 17321 bound_to 7965
  140.1589  144.5045  150.6644 LP  0  0  0  0  0  0  0  0  0  0  0  0  # atno 17342 bound_to 10162
  140.6781  143.2314  151.5455 LP  0  0  0  0  0  0  0  0  0  0  0  0  # atno 17343 bound_to 10162
  155.9915  130.4970  150.7302 LP  0  0  0  0  0  0  0  0  0  0  0  0  # atno 17370 bound_to 10713
  157.4774  131.0899  151.0574 LP  0  0  0  0  0  0  0  0  0  0  0  0  # atno 17371 bound_to 10713
  140.8405  133.8209  155.9070 LP  0  0  0  0  0  0  0  0  0  0  0  0  # atno 17394 bound_to 11000
  140.9242  134.2104  157.4907 LP  0  0  0  0  0  0  0  0  0  0  0  0  # atno 17395 bound_to 11000

$$$$
