AV-unprocessed.smi:2607|AV-procd|sdf|10199|dock3
  -GOLD-   2272014213D 1   1.00000     0.00000
 Structure written by MMmdl.
 22 23  0  0  0  0  0  0  0  0  1 V2000
  150.4215  139.3944  158.6010 C   0  0  0  0  0  0  0  0  0  0  0  0
  151.1490  140.2810  157.5717 C   0  0  2  0  0  0  0  0  0  0  0  0
  151.5107  141.6572  158.1535 C   0  0  0  0  0  0  0  0  0  0  0  0
  151.0045  142.8681  157.6156 C   0  0  0  0  0  0  0  0  0  0  0  0
  151.3252  144.0745  158.1339 N   0  0  0  0  0  0  0  0  0  0  0  0
  152.1556  144.0754  159.1990 C   0  0  0  0  0  0  0  0  0  0  0  0
  152.6608  142.8777  159.7449 C   0  0  0  0  0  0  0  0  0  0  0  0
  152.3398  141.6720  159.2275 N   0  0  0  0  0  0  0  0  0  0  0  0
  150.3600  140.3643  156.3485 N   0  0  0  0  0  0  0  0  0  0  0  0
  151.0058  139.9003  155.2709 C   0  0  0  0  0  0  0  0  0  0  0  0
  150.5754  139.8879  154.1203 O   0  0  0  0  0  0  0  0  0  0  0  0
  152.1945  139.4434  155.6720 N   0  0  0  0  0  0  0  0  0  0  0  0
  152.3764  139.5831  156.9839 C   0  0  0  0  0  0  0  0  0  0  0  0
  153.3543  139.2058  157.6279 O   0  0  0  0  0  0  0  0  0  0  0  0
  151.0212  139.2495  159.5004 H   0  0  0  0  0  0  0  0  0  0  0  0
  150.1982  138.4064  158.1953 H   0  0  0  0  0  0  0  0  0  0  0  0
  149.4765  139.8451  158.9060 H   0  0  0  0  0  0  0  0  0  0  0  0
  150.3380  142.8851  156.7665 H   0  0  0  0  0  0  0  0  0  0  0  0
  152.4175  145.0352  159.6190 H   0  0  0  0  0  0  0  0  0  0  0  0
  153.3231  142.8865  160.5977 H   0  0  0  0  0  0  0  0  0  0  0  0
  149.4340  140.7658  156.3242 H   0  0  0  0  0  0  0  0  0  0  0  0
  152.8713  139.0204  155.0537 H   0  0  0  0  0  0  0  0  0  0  0  0
  1  2  1  0  0  0  0
  1 15  1  0  0  0  0
  1 16  1  0  0  0  0
  1 17  1  0  0  0  0
  2 13  1  0  0  0  0
  2  3  1  0  0  0  0
  2  9  1  0  0  0  0
  3  8  1  0  0  0  0
  3  4  2  0  0  0  0
  4  5  1  0  0  0  0
  4 18  1  0  0  0  0
  5  6  2  0  0  0  0
  6  7  1  0  0  0  0
  6 19  1  0  0  0  0
  7  8  2  0  0  0  0
  7 20  1  0  0  0  0
  9 10  1  0  0  0  0
  9 21  1  0  0  0  0
 10 11  2  0  0  0  0
 10 12  1  0  0  0  0
 12 13  1  0  0  0  0
 12 22  1  0  0  0  0
 13 14  2  0  0  0  0
M  END
> <s_m_source_file>
AV-unprocessed.smi

> <i_m_source_file_index>
2607

> <i_lp_mmshare_version>
43012

> <i_f3d_flags>
0

> <s_epik_input>
Tz1DMVtOSF1DKD1PKVtOSF1bQ0BAXTEoW0NIM10pYzJbY0hdbltjSF1bY0hdbjI=

> <s_epik_cmdline>
J2VwaWtfcHl0aG9uJywgJy1waCcsICc3LjAnLCAnLXRuJywgJzgnLCAnLW1hJywgJzIwMCcsICctbWV0YWxfYmluZGluZycsICctaW1hZScsICc8aW5maWxlLm1hZT4nLCAnLW9tYWUnLCAnPG91dGZpbGUubWFlPic=

> <r_lp_tautomer_probability>
1

> <r_epik_Ionization_Penalty>
0.0333762

> <r_epik_Ionization_Penalty_Charging>
0

> <r_epik_Ionization_Penalty_Neutral>
0.0333762

> <r_epik_State_Penalty>
0.027503

> <r_epik_Charging_Adjusted_Penalty>
0.027503

> <i_epik_Tot_Q>
0

> <i_epik_Tot_abs_Q>
0

> <r_epik_Metal_State_Penalty>
0.445281

> <b_epik_Metal_Only>
0

> <s_lp_Force_Field>
OPLS_2005

> <r_lp_Energy>
24.1998

> <b_lp_Chiralities_Consistent>
1

> <s_lp_Variant>
AV-unprocessed.smi:2607-2

> <Gold.Version>
5.8.1

> <Gold.Id.Protein>
6NUR|6NUR_protein|mol2

> <Gold.PLP.Fitness>
31.6496

> <Gold.PLP.PLP>
-22.9752

> <Gold.PLP.part.hbond>
-2.0000

> <Gold.PLP.part.metal>
0.0000

> <Gold.PLP.part.buried>
-2.4585

> <Gold.PLP.part.nonpolar>
-18.5833

> <Gold.PLP.part.repulsive>
0.6297

> <Gold.PLP.ligand.clash>
0.0000

> <Gold.PLP.ligand.torsion>
0.0595

> <Gold.PLP.Chemscore.Hbond>
2.0000

> <Gold.PLP.Chemscore.CHOScore>
0.8920

> <Gold.PLP.Chemscore.Metal>
0.0000

> <Gold.Chemscore.Hbonds>
donor molecule, donor type, donor heavy atom, donor atom, acceptor molecule, acceptor atom, score
      P1  H  7989  7998       L1    11  0.90
      P1  H  7997  8010       L1    14  1.00
      L1  C     4    18       P1  8028  0.86

> <Gold.PLP.Chemscore.Internal.Correction>
0.1175

> <Gold.Rescore>
     Score         DG    S(hbond)    S(metal)    S(lipo)     H(rot)  DE(clash)    DE(int)     intcor
     12.47     -12.68       1.14        0.00      50.76       1.00       0.15       0.06       ----

> <Gold.Chemscore.Fitness>
12.4734

> <Gold.Chemscore.DG>
-12.6785

> <Gold.Chemscore.ZeroCoef>
-5.4800

> <Gold.Chemscore.Hbond>
1.1435

> <Gold.Chemscore.Metal>
0.0000

> <Gold.Chemscore.Lipo>
50.7633

> <Gold.Chemscore.Internal_Hbond>
0.0000

> <Gold.Chemscore.DEClash>
0.1461

> <Gold.Chemscore.DEInternal>
0.0591

> <Gold.Chemscore.Rot>
1.0000

> <Gold.Chemscore.Internal.Correction>
   9.000000E+99

> <Gold.Chemscore.Hbonds>
donor molecule, donor type, donor heavy atom, donor atom, acceptor molecule, acceptor atom, score
      P1  H  7989  7998       L1    11  0.17
      P1  H  7997  8010       L1    14  0.75

> <Gold.Chemscore.Hbond.Weighted>
-3.8192

> <Gold.Chemscore.Metal.Weighted>
-0.0000

> <Gold.Chemscore.Lipo.Weighted>
-5.9393

> <Gold.Chemscore.Internal_Hbond.Weighted>
0.0000

> <Gold.Chemscore.DEClash.Weighted>
0.1461

> <Gold.Chemscore.DEInternal.Weighted>
0.0591

> <Gold.Chemscore.Rot.Weighted>
2.5600

> <Gold.Chemscore.Internal.Correction.Weighted>
   9.000000E+99

> <Gold.Protein.RotatedTorsions>
[ 6907 6896 6895 6894 ] final  -24.25 input  -60.11 | X-H torsion
[ 7974 7965 7964 7962 ] final   -3.26 input  175.53 | X-H torsion
[ 8008 7997 7996 7995 ] final   22.95 input   59.86 | X-H torsion
[ 10167 10162 10161 10158 ] final -138.71 input  -65.29 | X-H torsion
[ 10718 10713 10712 10709 ] final  175.51 input   66.30 | X-H torsion
[ 10763 10752 10751 10750 ] final  -59.85 input  -60.55 | X-H torsion
[ 11005 11000 10999 10996 ] final  -45.88 input  -57.11 | X-H torsion

> <Gold.Protein.ActiveResidues>
 VAL166  LYS551  ARG553  GLY616  TRP617  ASP618  TYR619  PRO620  LYS621  CYS622 
 ASP623  PHE694  ASN695  SER759  ASP760  ASP761  ALA762  ILE779  LEU786  VAL792 
 PHE793  MET794  SER795  GLU796  ALA797  LYS798  CYS799  TRP800  GLU811  SER814 

> <Gold.Protein.RotatedAtoms>
  151.1923  135.0408  159.8837 H   0  0  0  0  0  0  0  0  0  0  0  0  # atno 6907 bound_to 6896
  152.5438  134.0942  159.8300 H   0  0  0  0  0  0  0  0  0  0  0  0  # atno 6908 bound_to 6896
  151.1072  133.5152  159.2639 H   0  0  0  0  0  0  0  0  0  0  0  0  # atno 6909 bound_to 6896
  146.2392  140.1694  142.8332 H   0  0  0  0  0  0  0  0  0  0  0  0  # atno 7974 bound_to 7965
  154.9735  140.3093  155.4977 H   0  0  0  0  0  0  0  0  0  0  0  0  # atno 8008 bound_to 7997
  156.2963  140.2279  156.4769 H   0  0  0  0  0  0  0  0  0  0  0  0  # atno 8009 bound_to 7997
  154.7854  140.0443  157.1148 H   0  0  0  0  0  0  0  0  0  0  0  0  # atno 8010 bound_to 7997
  139.8451  143.7271  152.2661 H   0  0  0  0  0  0  0  0  0  0  0  0  # atno 10167 bound_to 10162
  156.9338  130.9979  151.2982 H   0  0  0  0  0  0  0  0  0  0  0  0  # atno 10718 bound_to 10713
  154.2601  135.6310  153.5271 H   0  0  0  0  0  0  0  0  0  0  0  0  # atno 10763 bound_to 10752
  152.9897  135.5585  154.5713 H   0  0  0  0  0  0  0  0  0  0  0  0  # atno 10764 bound_to 10752
  154.5260  135.2885  155.1196 H   0  0  0  0  0  0  0  0  0  0  0  0  # atno 10765 bound_to 10752
  141.0543  133.6731  156.3075 H   0  0  0  0  0  0  0  0  0  0  0  0  # atno 11005 bound_to 11000
  145.0024  140.8643  143.5274 LP  0  0  0  0  0  0  0  0  0  0  0  0  # atno 17320 bound_to 7965
  145.1715  139.2401  143.5339 LP  0  0  0  0  0  0  0  0  0  0  0  0  # atno 17321 bound_to 7965
  139.7520  144.7531  151.0492 LP  0  0  0  0  0  0  0  0  0  0  0  0  # atno 17342 bound_to 10162
  140.7794  143.4849  150.9969 LP  0  0  0  0  0  0  0  0  0  0  0  0  # atno 17343 bound_to 10162
  157.5829  130.8389  149.8548 LP  0  0  0  0  0  0  0  0  0  0  0  0  # atno 17370 bound_to 10713
  156.0435  130.3733  150.1376 LP  0  0  0  0  0  0  0  0  0  0  0  0  # atno 17371 bound_to 10713
  140.5994  134.5570  157.5514 LP  0  0  0  0  0  0  0  0  0  0  0  0  # atno 17394 bound_to 11000
  139.9377  134.7845  156.0760 LP  0  0  0  0  0  0  0  0  0  0  0  0  # atno 17395 bound_to 11000

$$$$
