AV-unprocessed.smi:221|AV-procd|sdf|1698|dock3
  -GOLD-   2262020153D 1   1.00000     0.00000
 Structure written by MMmdl.
 50 53  0  0  0  0  0  0  0  0  1 V2000
  142.3881  134.4237  153.6629 N   0  0  0  0  0  0  0  0  0  0  0  0
  143.2775  135.1520  152.9842 C   0  0  0  0  0  0  0  0  0  0  0  0
  143.2135  136.3791  152.9315 O   0  0  0  0  0  0  0  0  0  0  0  0
  144.4072  134.3849  152.2817 C   0  0  2  0  0  0  0  0  0  0  0  0
  143.8904  133.5644  151.0924 C   0  0  0  0  0  0  0  0  0  0  0  0
  144.9466  132.4757  150.9411 C   0  0  1  0  0  0  0  0  0  0  0  0
  145.9917  132.9575  150.2663 F   0  0  0  0  0  0  0  0  0  0  0  0
  145.3599  132.1885  152.3856 C   0  0  0  0  0  0  0  0  0  0  0  0
  145.0276  133.3855  153.1551 N   0  0  0  0  0  0  0  0  0  0  0  0
  145.9960  133.8477  153.9776 C   0  0  0  0  0  0  0  0  0  0  0  0
  147.2305  134.1301  153.4841 N   0  0  0  0  0  0  0  0  0  0  0  0
  148.1829  134.5943  154.2990 C   0  0  0  0  0  0  0  0  0  0  0  0
  148.1134  134.8420  155.6090 N   0  0  0  0  0  0  0  0  0  0  0  0
  146.8739  134.5572  156.1032 C   0  0  0  0  0  0  0  0  0  0  0  0
  145.7665  134.0611  155.3613 C   0  0  0  0  0  0  0  0  0  0  0  0
  144.6687  133.8916  156.1951 N   0  0  0  0  0  0  0  0  0  0  0  0
  145.1031  134.2661  157.3676 C   0  0  0  0  0  0  0  0  0  0  0  0
  146.4181  134.6725  157.4048 N   0  0  0  0  0  0  0  0  0  0  0  0
  147.1513  135.1275  158.5733 C   0  0  0  0  0  0  0  0  0  0  0  0
  147.1594  134.0950  159.7280 C   0  0  1  0  0  0  0  0  0  0  0  0
  147.8586  132.7684  159.3415 C   0  0  0  0  0  0  0  0  0  0  0  0
  149.1171  133.0028  158.7432 O   0  0  0  0  0  0  0  0  0  0  0  0
  147.7359  134.7001  161.0329 C   0  0  1  0  0  0  0  0  0  0  0  0
  147.2955  136.1231  161.3284 C   0  0  0  0  0  0  0  0  0  0  0  0
  147.6149  136.2516  162.8132 C   0  0  0  0  0  0  0  0  0  0  0  0
  147.3830  134.9603  163.3636 O   0  0  0  0  0  0  0  0  0  0  0  0
  147.2888  133.9958  162.3192 C   0  0  0  0  0  0  0  0  0  0  0  0
  145.1611  135.0907  151.9262 H   0  0  0  0  0  0  0  0  0  0  0  0
  144.5895  131.5934  150.4094 H   0  0  0  0  0  0  0  0  0  0  0  0
  141.6261  134.8825  154.1406 H   0  0  0  0  0  0  0  0  0  0  0  0
  142.4784  133.4186  153.6957 H   0  0  0  0  0  0  0  0  0  0  0  0
  142.9269  133.1060  151.3236 H   0  0  0  0  0  0  0  0  0  0  0  0
  143.7685  134.1611  150.1879 H   0  0  0  0  0  0  0  0  0  0  0  0
  144.7638  131.3679  152.7862 H   0  0  0  0  0  0  0  0  0  0  0  0
  146.4072  131.8881  152.4558 H   0  0  0  0  0  0  0  0  0  0  0  0
  149.1367  134.7971  153.8349 H   0  0  0  0  0  0  0  0  0  0  0  0
  144.4739  134.2504  158.2459 H   0  0  0  0  0  0  0  0  0  0  0  0
  148.1720  135.3685  158.2741 H   0  0  0  0  0  0  0  0  0  0  0  0
  146.6979  136.0638  158.8996 H   0  0  0  0  0  0  0  0  0  0  0  0
  146.1170  133.8418  159.9268 H   0  0  0  0  0  0  0  0  0  0  0  0
  148.0028  132.1359  160.2172 H   0  0  0  0  0  0  0  0  0  0  0  0
  147.2461  132.1874  158.6522 H   0  0  0  0  0  0  0  0  0  0  0  0
  149.2689  132.3373  158.0897 H   0  0  0  0  0  0  0  0  0  0  0  0
  148.8265  134.6857  160.9910 H   0  0  0  0  0  0  0  0  0  0  0  0
  147.8144  136.8694  160.7264 H   0  0  0  0  0  0  0  0  0  0  0  0
  146.2225  136.2346  161.1647 H   0  0  0  0  0  0  0  0  0  0  0  0
  148.6661  136.5056  162.9548 H   0  0  0  0  0  0  0  0  0  0  0  0
  147.0119  137.0133  163.3079 H   0  0  0  0  0  0  0  0  0  0  0  0
  146.2481  133.6773  162.2459 H   0  0  0  0  0  0  0  0  0  0  0  0
  147.8940  133.1172  162.5430 H   0  0  0  0  0  0  0  0  0  0  0  0
  1  2  1  0  0  0  0
  1 30  1  0  0  0  0
  1 31  1  0  0  0  0
  2  3  2  0  0  0  0
  2  4  1  0  0  0  0
  4 28  1  0  0  0  0
  4  9  1  0  0  0  0
  4  5  1  0  0  0  0
  5  6  1  0  0  0  0
  5 32  1  0  0  0  0
  5 33  1  0  0  0  0
  6 29  1  0  0  0  0
  6  7  1  0  0  0  0
  6  8  1  0  0  0  0
  8  9  1  0  0  0  0
  8 34  1  0  0  0  0
  8 35  1  0  0  0  0
  9 10  1  0  0  0  0
 10 15  1  0  0  0  0
 10 11  2  0  0  0  0
 11 12  1  0  0  0  0
 12 13  2  0  0  0  0
 12 36  1  0  0  0  0
 13 14  1  0  0  0  0
 14 18  1  0  0  0  0
 14 15  2  0  0  0  0
 15 16  1  0  0  0  0
 16 17  2  0  0  0  0
 17 18  1  0  0  0  0
 17 37  1  0  0  0  0
 18 19  1  0  0  0  0
 19 20  1  0  0  0  0
 19 38  1  0  0  0  0
 19 39  1  0  0  0  0
 20 21  1  0  0  0  0
 20 23  1  0  0  0  0
 20 40  1  0  0  0  0
 21 22  1  0  0  0  0
 21 41  1  0  0  0  0
 21 42  1  0  0  0  0
 22 43  1  0  0  0  0
 23 27  1  0  0  0  0
 23 24  1  0  0  0  0
 23 44  1  0  0  0  0
 24 25  1  0  0  0  0
 24 45  1  0  0  0  0
 24 46  1  0  0  0  0
 25 26  1  0  0  0  0
 25 47  1  0  0  0  0
 25 48  1  0  0  0  0
 26 27  1  0  0  0  0
 27 49  1  0  0  0  0
 27 50  1  0  0  0  0
M  END
> <s_m_source_file>
AV-unprocessed.smi

> <i_m_source_file_index>
221

> <i_lp_mmshare_version>
43012

> <i_f3d_flags>
0

> <s_epik_input>
W05IMl1DKD1PKVtDQEBIXTFbQ0gyXVtDQEBIXShGKVtDSDJdTjFjKG5bY0hdbjIpYyhjMjMpbltjSF1uM1tDSDJdW0NASF0oW0NIMl1bT0hdKVtDQEBIXTRbQ0gyXVtDSDJdT1tDSDJdNA==

> <s_epik_cmdline>
J2VwaWtfcHl0aG9uJywgJy1waCcsICc3LjAnLCAnLXRuJywgJzgnLCAnLW1hJywgJzIwMCcsICctbWV0YWxfYmluZGluZycsICctaW1hZScsICc8aW5maWxlLm1hZT4nLCAnLW9tYWUnLCAnPG91dGZpbGUubWFlPic=

> <r_lp_tautomer_probability>
1

> <r_epik_Ionization_Penalty>
0.000818822

> <r_epik_Ionization_Penalty_Charging>
0

> <r_epik_Ionization_Penalty_Neutral>
0.000818822

> <r_epik_State_Penalty>
0.000440551

> <r_epik_Charging_Adjusted_Penalty>
0.000440551

> <i_epik_Tot_Q>
0

> <i_epik_Tot_abs_Q>
0

> <r_epik_Metal_State_Penalty>
-0

> <b_epik_Metal_Only>
0

> <s_lp_Force_Field>
OPLS_2005

> <r_lp_Energy>
50.4935

> <b_lp_Chiralities_Consistent>
1

> <s_lp_Variant>
AV-unprocessed.smi:221-13

> <Gold.Version>
5.8.1

> <Gold.Id.Protein>
6NUR|6NUR_protein|mol2

> <Gold.PLP.Fitness>
40.5144

> <Gold.PLP.PLP>
-34.4705

> <Gold.PLP.part.hbond>
-3.3143

> <Gold.PLP.part.metal>
0.0000

> <Gold.PLP.part.buried>
-5.5977

> <Gold.PLP.part.nonpolar>
-25.8323

> <Gold.PLP.part.repulsive>
0.5825

> <Gold.PLP.ligand.clash>
0.0000

> <Gold.PLP.ligand.torsion>
0.9054

> <Gold.PLP.Chemscore.Hbond>
1.9920

> <Gold.PLP.Chemscore.CHOScore>
0.5497

> <Gold.PLP.Chemscore.Metal>
0.0000

> <Gold.Chemscore.Hbonds>
donor molecule, donor type, donor heavy atom, donor atom, acceptor molecule, acceptor atom, score
      L1  H     1    31       P1 10957  0.98
      P1  H  6896  6909       L1    22  1.00
      L1  C    12    36       P1  7948  0.68

> <Gold.PLP.Chemscore.Internal.Correction>
0.2294

> <Gold.Rescore>
     Score         DG    S(hbond)    S(metal)    S(lipo)     H(rot)  DE(clash)    DE(int)     intcor
      9.36     -10.37       1.92        0.00      68.30       3.72       0.09       0.91       ----

> <Gold.Chemscore.Fitness>
9.3620

> <Gold.Chemscore.DG>
-10.3705

> <Gold.Chemscore.ZeroCoef>
-5.4800

> <Gold.Chemscore.Hbond>
1.9232

> <Gold.Chemscore.Metal>
0.0000

> <Gold.Chemscore.Lipo>
68.2972

> <Gold.Chemscore.Internal_Hbond>
0.0000

> <Gold.Chemscore.DEClash>
0.0936

> <Gold.Chemscore.DEInternal>
0.9149

> <Gold.Chemscore.Rot>
3.7202

> <Gold.Chemscore.Internal.Correction>
   9.000000E+99

> <Gold.Chemscore.Hbonds>
donor molecule, donor type, donor heavy atom, donor atom, acceptor molecule, acceptor atom, score
      L1  H     1    31       P1 10957  0.91
      P1  H  6896  6909       L1    22  0.68

> <Gold.Chemscore.Hbond.Weighted>
-6.4234

> <Gold.Chemscore.Metal.Weighted>
-0.0000

> <Gold.Chemscore.Lipo.Weighted>
-7.9908

> <Gold.Chemscore.Internal_Hbond.Weighted>
0.0000

> <Gold.Chemscore.DEClash.Weighted>
0.0936

> <Gold.Chemscore.DEInternal.Weighted>
0.9149

> <Gold.Chemscore.Rot.Weighted>
9.5237

> <Gold.Chemscore.Internal.Correction.Weighted>
   9.000000E+99

> <Gold.Protein.RotatedTorsions>
[ 6907 6896 6895 6894 ] final   -2.49 input  -60.11 | X-H torsion
[ 7974 7965 7964 7962 ] final   46.73 input  175.53 | X-H torsion
[ 8008 7997 7996 7995 ] final  100.83 input   59.86 | X-H torsion
[ 10167 10162 10161 10158 ] final  -58.94 input  -65.29 | X-H torsion
[ 10718 10713 10712 10709 ] final  -12.37 input   66.30 | X-H torsion
[ 10763 10752 10751 10750 ] final  -28.16 input  -60.55 | X-H torsion
[ 11005 11000 10999 10996 ] final  117.87 input  -57.11 | X-H torsion

> <Gold.Protein.ActiveResidues>
 VAL166  LYS551  ARG553  GLY616  TRP617  ASP618  TYR619  PRO620  LYS621  CYS622 
 ASP623  PHE694  ASN695  SER759  ASP760  ASP761  ALA762  ILE779  LEU786  VAL792 
 PHE793  MET794  SER795  GLU796  ALA797  LYS798  CYS799  TRP800  GLU811  SER814 

> <Gold.Protein.RotatedAtoms>
  151.5291  135.1068  159.9897 H   0  0  0  0  0  0  0  0  0  0  0  0  # atno 6907 bound_to 6896
  152.4586  133.7771  159.6841 H   0  0  0  0  0  0  0  0  0  0  0  0  # atno 6908 bound_to 6896
  150.8539  133.7679  159.3040 H   0  0  0  0  0  0  0  0  0  0  0  0  # atno 6909 bound_to 6896
  146.0362  139.4824  142.9806 H   0  0  0  0  0  0  0  0  0  0  0  0  # atno 7974 bound_to 7965
  156.1241  140.3207  155.8251 H   0  0  0  0  0  0  0  0  0  0  0  0  # atno 8008 bound_to 7997
  155.4452  140.0528  157.3024 H   0  0  0  0  0  0  0  0  0  0  0  0  # atno 8009 bound_to 7997
  154.4849  140.2068  155.9692 H   0  0  0  0  0  0  0  0  0  0  0  0  # atno 8010 bound_to 7997
  140.6166  143.2404  151.5582 H   0  0  0  0  0  0  0  0  0  0  0  0  # atno 10167 bound_to 10162
  156.6455  130.4940  149.6080 H   0  0  0  0  0  0  0  0  0  0  0  0  # atno 10718 bound_to 10713
  153.7438  135.6931  153.4961 H   0  0  0  0  0  0  0  0  0  0  0  0  # atno 10763 bound_to 10752
  153.2051  135.4423  155.0312 H   0  0  0  0  0  0  0  0  0  0  0  0  # atno 10764 bound_to 10752
  154.8211  135.3423  154.6962 H   0  0  0  0  0  0  0  0  0  0  0  0  # atno 10765 bound_to 10752
  139.9089  134.9614  156.7416 H   0  0  0  0  0  0  0  0  0  0  0  0  # atno 11005 bound_to 11000
  145.6959  141.0150  143.1530 LP  0  0  0  0  0  0  0  0  0  0  0  0  # atno 17320 bound_to 7965
  144.7053  139.8587  143.7432 LP  0  0  0  0  0  0  0  0  0  0  0  0  # atno 17321 bound_to 7965
  139.5404  144.2664  152.1338 LP  0  0  0  0  0  0  0  0  0  0  0  0  # atno 17342 bound_to 10162
  140.1875  144.4784  150.6496 LP  0  0  0  0  0  0  0  0  0  0  0  0  # atno 17343 bound_to 10162
  156.2125  130.6687  151.1284 LP  0  0  0  0  0  0  0  0  0  0  0  0  # atno 17370 bound_to 10713
  157.7157  131.0711  150.6334 LP  0  0  0  0  0  0  0  0  0  0  0  0  # atno 17371 bound_to 10713
  140.6845  133.9445  155.7929 LP  0  0  0  0  0  0  0  0  0  0  0  0  # atno 17394 bound_to 11000
  141.0486  134.0517  157.3812 LP  0  0  0  0  0  0  0  0  0  0  0  0  # atno 17395 bound_to 11000

$$$$
