AV-unprocessed.smi:33|AV-procd|sdf|205|dock4
  -GOLD-   2262015493D 1   1.00000     0.00000
 Structure written by MMmdl.
 67 72  0  0  0  0  0  0  0  0  1 V2000
  153.6563  140.2464  158.8442 O   0  0  0  0  0  0  0  0  0  0  0  0
  152.7051  140.9750  158.5551 C   0  0  0  0  0  0  0  0  0  0  0  0
  151.7919  140.6711  157.6130 O   0  0  0  0  0  0  0  0  0  0  0  0
  152.0851  139.6992  156.6223 C   0  0  0  0  0  0  0  0  0  0  0  0
  150.8238  139.4249  155.7886 C   0  0  2  0  0  0  0  0  0  0  0  0
  149.8559  138.8224  156.6475 O   0  0  0  0  0  0  0  0  0  0  0  0
  149.4375  137.5903  156.1398 C   0  0  2  0  0  0  0  0  0  0  0  0
  149.1233  136.6529  157.2697 N   0  0  0  0  0  0  0  0  0  0  0  0
  149.5762  136.7100  158.5720 C   0  0  0  0  0  0  0  0  0  0  0  0
  149.1946  135.7304  159.3458 N   0  0  0  0  0  0  0  0  0  0  0  0
  148.4491  134.9141  158.5070 C   0  0  0  0  0  0  0  0  0  0  0  0
  147.7653  133.6806  158.6826 C   0  0  0  0  0  0  0  0  0  0  0  0
  147.7264  133.0213  159.8645 N   0  0  0  0  0  0  0  0  0  0  0  0
  148.1540  131.6142  159.8639 C   0  0  0  0  0  0  0  0  0  0  0  0
  148.9364  131.2179  158.9977 O   0  0  0  0  0  0  0  0  0  0  0  0
  147.6914  130.6737  160.9406 C   0  0  0  0  0  0  0  0  0  0  0  0
  148.6343  129.9091  161.6622 C   0  0  0  0  0  0  0  0  0  0  0  0
  148.2071  129.0140  162.6619 C   0  0  0  0  0  0  0  0  0  0  0  0
  146.8339  128.8640  162.9341 C   0  0  0  0  0  0  0  0  0  0  0  0
  145.8868  129.6025  162.1995 C   0  0  0  0  0  0  0  0  0  0  0  0
  146.3132  130.4976  161.1995 C   0  0  0  0  0  0  0  0  0  0  0  0
  147.2535  133.7718  161.0369 C   0  0  0  0  0  0  0  0  0  0  0  0
  147.6050  133.4233  162.1654 O   0  0  0  0  0  0  0  0  0  0  0  0
  146.3839  134.9846  160.8632 C   0  0  0  0  0  0  0  0  0  0  0  0
  145.3504  134.9827  159.9009 C   0  0  0  0  0  0  0  0  0  0  0  0
  144.5387  136.1209  159.7289 C   0  0  0  0  0  0  0  0  0  0  0  0
  144.7689  137.2745  160.5025 C   0  0  0  0  0  0  0  0  0  0  0  0
  145.8172  137.2934  161.4421 C   0  0  0  0  0  0  0  0  0  0  0  0
  146.6272  136.1550  161.6170 C   0  0  0  0  0  0  0  0  0  0  0  0
  147.1383  133.1395  157.6063 N   0  0  0  0  0  0  0  0  0  0  0  0
  147.1829  133.7675  156.4283 C   0  0  0  0  0  0  0  0  0  0  0  0
  147.7827  134.9191  156.1186 N   0  0  0  0  0  0  0  0  0  0  0  0
  148.4079  135.4726  157.1992 C   0  0  0  0  0  0  0  0  0  0  0  0
  150.5727  137.1007  155.2308 C   0  0  2  0  0  0  0  0  0  0  0  0
  151.6192  136.4611  155.9421 O   0  0  0  0  0  0  0  0  0  0  0  0
  151.0135  138.4256  154.6392 C   0  0  2  0  0  0  0  0  0  0  0  0
  152.2361  138.3918  154.1055 F   0  0  0  0  0  0  0  0  0  0  0  0
  152.4447  142.2887  159.2116 C   0  0  0  0  0  0  0  0  0  0  0  0
  152.0581  143.3951  158.4197 C   0  0  0  0  0  0  0  0  0  0  0  0
  151.8058  144.6479  159.0119 C   0  0  0  0  0  0  0  0  0  0  0  0
  151.9377  144.8099  160.4032 C   0  0  0  0  0  0  0  0  0  0  0  0
  152.3221  143.7172  161.2020 C   0  0  0  0  0  0  0  0  0  0  0  0
  152.5741  142.4634  160.6117 C   0  0  0  0  0  0  0  0  0  0  0  0
  152.9083  140.0251  155.9858 H   0  0  0  0  0  0  0  0  0  0  0  0
  152.4039  138.7835  157.1219 H   0  0  0  0  0  0  0  0  0  0  0  0
  150.4208  140.3663  155.4133 H   0  0  0  0  0  0  0  0  0  0  0  0
  148.4924  137.7119  155.6085 H   0  0  0  0  0  0  0  0  0  0  0  0
  150.2034  137.5105  158.9368 H   0  0  0  0  0  0  0  0  0  0  0  0
  149.6907  130.0159  161.4615 H   0  0  0  0  0  0  0  0  0  0  0  0
  148.9338  128.4414  163.2192 H   0  0  0  0  0  0  0  0  0  0  0  0
  146.5071  128.1773  163.7010 H   0  0  0  0  0  0  0  0  0  0  0  0
  144.8327  129.4818  162.4020 H   0  0  0  0  0  0  0  0  0  0  0  0
  145.5765  131.0551  160.6389 H   0  0  0  0  0  0  0  0  0  0  0  0
  145.1642  134.1022  159.3027 H   0  0  0  0  0  0  0  0  0  0  0  0
  143.7392  136.1091  159.0029 H   0  0  0  0  0  0  0  0  0  0  0  0
  144.1460  138.1468  160.3703 H   0  0  0  0  0  0  0  0  0  0  0  0
  146.0013  138.1815  162.0285 H   0  0  0  0  0  0  0  0  0  0  0  0
  147.4317  136.1819  162.3381 H   0  0  0  0  0  0  0  0  0  0  0  0
  146.6664  133.2767  155.6169 H   0  0  0  0  0  0  0  0  0  0  0  0
  150.1843  136.4176  154.4749 H   0  0  0  0  0  0  0  0  0  0  0  0
  151.8629  137.0081  156.6732 H   0  0  0  0  0  0  0  0  0  0  0  0
  150.3354  138.6915  153.8271 H   0  0  0  0  0  0  0  0  0  0  0  0
  151.9500  143.2952  157.3491 H   0  0  0  0  0  0  0  0  0  0  0  0
  151.5105  145.4851  158.3969 H   0  0  0  0  0  0  0  0  0  0  0  0
  151.7445  145.7707  160.8572 H   0  0  0  0  0  0  0  0  0  0  0  0
  152.4241  143.8404  162.2702 H   0  0  0  0  0  0  0  0  0  0  0  0
  152.8674  141.6461  161.2540 H   0  0  0  0  0  0  0  0  0  0  0  0
  1  2  2  0  0  0  0
  2  3  1  0  0  0  0
  2 38  1  0  0  0  0
  3  4  1  0  0  0  0
  4  5  1  0  0  0  0
  4 44  1  0  0  0  0
  4 45  1  0  0  0  0
  5 36  1  0  0  0  0
  5  6  1  0  0  0  0
  5 46  1  0  0  0  0
  6  7  1  0  0  0  0
  7  8  1  0  0  0  0
  7 34  1  0  0  0  0
  7 47  1  0  0  0  0
  8 33  1  0  0  0  0
  8  9  1  0  0  0  0
  9 10  2  0  0  0  0
  9 48  1  0  0  0  0
 10 11  1  0  0  0  0
 11 33  2  0  0  0  0
 11 12  1  0  0  0  0
 12 13  1  0  0  0  0
 12 30  2  0  0  0  0
 13 14  1  0  0  0  0
 13 22  1  0  0  0  0
 14 15  2  0  0  0  0
 14 16  1  0  0  0  0
 16 21  1  0  0  0  0
 16 17  2  0  0  0  0
 17 18  1  0  0  0  0
 17 49  1  0  0  0  0
 18 19  2  0  0  0  0
 18 50  1  0  0  0  0
 19 20  1  0  0  0  0
 19 51  1  0  0  0  0
 20 21  2  0  0  0  0
 20 52  1  0  0  0  0
 21 53  1  0  0  0  0
 22 23  2  0  0  0  0
 22 24  1  0  0  0  0
 24 29  1  0  0  0  0
 24 25  2  0  0  0  0
 25 26  1  0  0  0  0
 25 54  1  0  0  0  0
 26 27  2  0  0  0  0
 26 55  1  0  0  0  0
 27 28  1  0  0  0  0
 27 56  1  0  0  0  0
 28 29  2  0  0  0  0
 28 57  1  0  0  0  0
 29 58  1  0  0  0  0
 30 31  1  0  0  0  0
 31 32  2  0  0  0  0
 31 59  1  0  0  0  0
 32 33  1  0  0  0  0
 34 35  1  0  0  0  0
 34 36  1  0  0  0  0
 34 60  1  0  0  0  0
 35 61  1  0  0  0  0
 36 37  1  0  0  0  0
 36 62  1  0  0  0  0
 38 43  1  0  0  0  0
 38 39  2  0  0  0  0
 39 40  1  0  0  0  0
 39 63  1  0  0  0  0
 40 41  2  0  0  0  0
 40 64  1  0  0  0  0
 41 42  1  0  0  0  0
 41 65  1  0  0  0  0
 42 43  2  0  0  0  0
 42 66  1  0  0  0  0
 43 67  1  0  0  0  0
M  END
> <s_m_source_file>
AV-unprocessed.smi

> <i_m_source_file_index>
33

> <i_lp_mmshare_version>
43012

> <i_f3d_flags>
0

> <s_epik_input>
W2NIXTFbY0hdW2NIXVtjSF1bY0hdYzFDKD1PKU9bQ0gyXVtDQEBIXTJPW0NASF0oW0NAQEhdKFtPSF0pW0NAQEhdMkYpbihbY0hdbjMpYyhjMzQpbltjSF1uYzROKEMoPU8pYzVbY0hdW2NIXVtjSF1bY0hdW2NIXTUpQyg9TyljNltjSF1bY0hdW2NIXVtjSF1bY0hdNg==

> <s_epik_cmdline>
J2VwaWtfcHl0aG9uJywgJy1waCcsICc3LjAnLCAnLXRuJywgJzgnLCAnLW1hJywgJzIwMCcsICctbWV0YWxfYmluZGluZycsICctaW1hZScsICc8aW5maWxlLm1hZT4nLCAnLW9tYWUnLCAnPG91dGZpbGUubWFlPic=

> <r_lp_tautomer_probability>
1

> <r_epik_Ionization_Penalty>
0.00067664

> <r_epik_Ionization_Penalty_Charging>
0

> <r_epik_Ionization_Penalty_Neutral>
0.00067664

> <r_epik_State_Penalty>
0.000428095

> <r_epik_Charging_Adjusted_Penalty>
0.000428095

> <i_epik_Tot_Q>
0

> <i_epik_Tot_abs_Q>
0

> <r_epik_Metal_State_Penalty>
-0

> <b_epik_Metal_Only>
0

> <s_epik_Chemistry_Notes>
This compound has an ester and may undergo hydrolysis at high or low pH. This compound contains an acetal/aminal-like group ( X-CH(R)-Y where X, Y are N, S, or O) that may be acid/base labile, releasing an aldehyde.

> <s_lp_Force_Field>
OPLS_2005

> <r_lp_Energy>
85.1188

> <b_lp_Chiralities_Consistent>
1

> <s_lp_Variant>
AV-unprocessed.smi:33-7

> <Gold.Version>
5.8.1

> <Gold.Id.Protein>
6NUR|6NUR_protein|mol2

> <Gold.PLP.Fitness>
60.8946

> <Gold.PLP.PLP>
-57.0098

> <Gold.PLP.part.hbond>
-3.0000

> <Gold.PLP.part.metal>
0.0000

> <Gold.PLP.part.buried>
-7.5540

> <Gold.PLP.part.nonpolar>
-45.9419

> <Gold.PLP.part.repulsive>
0.0212

> <Gold.PLP.ligand.clash>
0.0000

> <Gold.PLP.ligand.torsion>
4.5657

> <Gold.PLP.Chemscore.Hbond>
2.9760

> <Gold.PLP.Chemscore.CHOScore>
0.0000

> <Gold.PLP.Chemscore.Metal>
0.0000

> <Gold.Chemscore.Hbonds>
donor molecule, donor type, donor heavy atom, donor atom, acceptor molecule, acceptor atom, score
      P1  H  6896  6908       L1    10  1.00
      P1  H  7997  8008       L1     1  0.91
      P1  H 10752 10763       L1    35  1.00

> <Gold.PLP.Chemscore.Internal.Correction>
4.0882

> <Gold.Rescore>
     Score         DG    S(hbond)    S(metal)    S(lipo)     H(rot)  DE(clash)    DE(int)     intcor
     15.59     -22.40       1.94        0.00     144.42       2.52       0.72       6.08       ----

> <Gold.Chemscore.Fitness>
15.5934

> <Gold.Chemscore.DG>
-22.4011

> <Gold.Chemscore.ZeroCoef>
-5.4800

> <Gold.Chemscore.Hbond>
1.9424

> <Gold.Chemscore.Metal>
0.0000

> <Gold.Chemscore.Lipo>
144.4158

> <Gold.Chemscore.Internal_Hbond>
0.0000

> <Gold.Chemscore.DEClash>
0.7231

> <Gold.Chemscore.DEInternal>
6.0846

> <Gold.Chemscore.Rot>
2.5247

> <Gold.Chemscore.Internal.Correction>
   9.000000E+99

> <Gold.Chemscore.Hbonds>
donor molecule, donor type, donor heavy atom, donor atom, acceptor molecule, acceptor atom, score
      P1  H  6896  6908       L1    10  0.22
      P1  H  7997  8008       L1     1  0.52
      P1  H 10752 10763       L1    35  0.91

> <Gold.Chemscore.Hbond.Weighted>
-6.4877

> <Gold.Chemscore.Metal.Weighted>
-0.0000

> <Gold.Chemscore.Lipo.Weighted>
-16.8966

> <Gold.Chemscore.Internal_Hbond.Weighted>
0.0000

> <Gold.Chemscore.DEClash.Weighted>
0.7231

> <Gold.Chemscore.DEInternal.Weighted>
6.0846

> <Gold.Chemscore.Rot.Weighted>
6.4633

> <Gold.Chemscore.Internal.Correction.Weighted>
   9.000000E+99

> <Gold.Protein.RotatedTorsions>
[ 6907 6896 6895 6894 ] final -173.68 input  -60.11 | X-H torsion
[ 7974 7965 7964 7962 ] final -118.78 input  175.53 | X-H torsion
[ 8008 7997 7996 7995 ] final  -99.47 input   59.86 | X-H torsion
[ 10167 10162 10161 10158 ] final   65.90 input  -65.29 | X-H torsion
[ 10718 10713 10712 10709 ] final  101.00 input   66.30 | X-H torsion
[ 10763 10752 10751 10750 ] final   78.62 input  -60.55 | X-H torsion
[ 11005 11000 10999 10996 ] final   65.49 input  -57.11 | X-H torsion

> <Gold.Protein.ActiveResidues>
 VAL166  LYS551  ARG553  GLY616  TRP617  ASP618  TYR619  PRO620  LYS621  CYS622 
 ASP623  PHE694  ASN695  SER759  ASP760  ASP761  ALA762  ILE779  LEU786  VAL792 
 PHE793  MET794  SER795  GLU796  ALA797  LYS798  CYS799  TRP800  GLU811  SER814 

> <Gold.Protein.RotatedAtoms>
  151.5601  133.3404  159.2969 H   0  0  0  0  0  0  0  0  0  0  0  0  # atno 6907 bound_to 6896
  150.8428  134.7729  159.6957 H   0  0  0  0  0  0  0  0  0  0  0  0  # atno 6908 bound_to 6896
  152.4492  134.5438  159.9898 H   0  0  0  0  0  0  0  0  0  0  0  0  # atno 6909 bound_to 6896
  145.0699  140.8351  143.4102 H   0  0  0  0  0  0  0  0  0  0  0  0  # atno 7974 bound_to 7965
  154.8153  140.0447  157.1372 H   0  0  0  0  0  0  0  0  0  0  0  0  # atno 8008 bound_to 7997
  154.9322  140.3041  155.5142 H   0  0  0  0  0  0  0  0  0  0  0  0  # atno 8009 bound_to 7997
  156.2975  140.2321  156.4383 H   0  0  0  0  0  0  0  0  0  0  0  0  # atno 8010 bound_to 7997
  140.1062  144.4859  150.7006 H   0  0  0  0  0  0  0  0  0  0  0  0  # atno 10167 bound_to 10162
  157.6840  131.0714  150.5185 H   0  0  0  0  0  0  0  0  0  0  0  0  # atno 10718 bound_to 10713
  153.0889  135.4870  154.8651 H   0  0  0  0  0  0  0  0  0  0  0  0  # atno 10763 bound_to 10752
  154.7245  135.3046  154.8996 H   0  0  0  0  0  0  0  0  0  0  0  0  # atno 10764 bound_to 10752
  153.9651  135.6808  153.4799 H   0  0  0  0  0  0  0  0  0  0  0  0  # atno 10765 bound_to 10752
  139.9891  134.6620  156.0123 H   0  0  0  0  0  0  0  0  0  0  0  0  # atno 11005 bound_to 11000
  145.1305  139.2635  143.5542 LP  0  0  0  0  0  0  0  0  0  0  0  0  # atno 17320 bound_to 7965
  146.3528  140.0954  142.8610 LP  0  0  0  0  0  0  0  0  0  0  0  0  # atno 17321 bound_to 7965
  140.6951  143.2399  151.5024 LP  0  0  0  0  0  0  0  0  0  0  0  0  # atno 17342 bound_to 10162
  139.5644  144.2078  152.1742 LP  0  0  0  0  0  0  0  0  0  0  0  0  # atno 17343 bound_to 10162
  156.5499  130.4229  149.6112 LP  0  0  0  0  0  0  0  0  0  0  0  0  # atno 17370 bound_to 10713
  156.2911  130.7125  151.1974 LP  0  0  0  0  0  0  0  0  0  0  0  0  # atno 17371 bound_to 10713
  141.1550  133.6544  156.4134 LP  0  0  0  0  0  0  0  0  0  0  0  0  # atno 17394 bound_to 11000
  140.4944  134.6545  157.5223 LP  0  0  0  0  0  0  0  0  0  0  0  0  # atno 17395 bound_to 11000

$$$$
