AV-unprocessed.smi:2083|AV-procd|sdf|8512|dock1
  -GOLD-   2272011223D 1   1.00000     0.00000
 Structure written by MMmdl.
 44 45  0  0  0  0  0  0  0  0  3 V2000
  152.4345  140.5195  159.7140 C   0  0  0  0  0  0  0  0  0  0  0  0
  152.0077  139.4585  158.7579 C   0  0  0  0  0  0  0  0  0  0  0  0
  150.9026  138.6575  158.6942 C   0  0  0  0  0  0  0  0  0  0  0  0
  151.1367  137.8789  157.5297 C   0  0  0  0  0  0  0  0  0  0  0  0
  150.1933  136.9046  157.1089 N   0  0  0  0  0  0  0  0  0  0  0  0
  150.3108  135.9837  156.1351 C   0  0  0  0  0  0  0  0  0  0  0  0
  151.3543  135.8995  155.4763 O   0  0  0  0  0  0  0  0  0  0  0  0
  149.1862  135.2272  156.0014 N   0  5  0  0  0  0  0  0  0  0  0  0
  148.2190  135.3524  154.9096 C   0  0  0  0  0  0  0  0  0  0  0  0
  148.0833  134.0192  154.1219 C   0  0  2  0  0  0  0  0  0  0  0  0
  149.4264  133.2874  153.8734 C   0  0  0  0  0  0  0  0  0  0  0  0
  147.2937  134.2278  152.8676 N   0  3  2  0  0  0  0  0  0  0  0  0
  146.1168  135.1176  153.0571 C   0  0  0  0  0  0  0  0  0  0  0  0
  145.5016  135.5111  151.7044 C   0  0  0  0  0  0  0  0  0  0  0  0
  145.1280  134.2707  150.8826 C   0  0  0  0  0  0  0  0  0  0  0  0
  146.3477  133.3474  150.7235 C   0  0  2  0  0  0  0  0  0  0  0  0
  145.9956  132.0853  149.9236 C   0  0  0  0  0  0  0  0  0  0  0  0
  146.9271  132.9954  152.1074 C   0  0  0  0  0  0  0  0  0  0  0  0
  152.2821  138.1795  156.9357 N   0  0  0  0  0  0  0  0  0  0  0  0
  152.8460  139.1932  157.7194 O   0  0  0  0  0  0  0  0  0  0  0  0
  152.2271  140.2200  160.7414 H   0  0  0  0  0  0  0  0  0  0  0  0
  151.9021  141.4503  159.5186 H   0  0  0  0  0  0  0  0  0  0  0  0
  153.5034  140.7168  159.6299 H   0  0  0  0  0  0  0  0  0  0  0  0
  150.0630  138.6334  159.3727 H   0  0  0  0  0  0  0  0  0  0  0  0
  149.3155  136.9049  157.6069 H   0  0  0  0  0  0  0  0  0  0  0  0
  147.2351  135.6436  155.2810 H   0  0  0  0  0  0  0  0  0  0  0  0
  148.5049  136.1448  154.2178 H   0  0  0  0  0  0  0  0  0  0  0  0
  147.4870  133.3605  154.7549 H   0  0  0  0  0  0  0  0  0  0  0  0
  149.9112  133.0022  154.8087 H   0  0  0  0  0  0  0  0  0  0  0  0
  150.1402  133.8918  153.3110 H   0  0  0  0  0  0  0  0  0  0  0  0
  149.2671  132.3650  153.3148 H   0  0  0  0  0  0  0  0  0  0  0  0
  145.3747  134.6176  153.6812 H   0  0  0  0  0  0  0  0  0  0  0  0
  146.4129  136.0269  153.5818 H   0  0  0  0  0  0  0  0  0  0  0  0
  144.6194  136.1320  151.8626 H   0  0  0  0  0  0  0  0  0  0  0  0
  146.2119  136.1211  151.1443 H   0  0  0  0  0  0  0  0  0  0  0  0
  144.3166  133.7347  151.3770 H   0  0  0  0  0  0  0  0  0  0  0  0
  144.7516  134.5734  149.9048 H   0  0  0  0  0  0  0  0  0  0  0  0
  147.1132  133.8882  150.1643 H   0  0  0  0  0  0  0  0  0  0  0  0
  145.2329  131.4934  150.4307 H   0  0  0  0  0  0  0  0  0  0  0  0
  146.8717  131.4509  149.7853 H   0  0  0  0  0  0  0  0  0  0  0  0
  145.6156  132.3408  148.9340 H   0  0  0  0  0  0  0  0  0  0  0  0
  147.8023  132.3587  151.9752 H   0  0  0  0  0  0  0  0  0  0  0  0
  146.1966  132.4139  152.6715 H   0  0  0  0  0  0  0  0  0  0  0  0
  147.9178  134.7478  152.2672 H   0  0  0  0  0  0  0  0  0  0  0  0
  1  2  1  0  0  0  0
  1 21  1  0  0  0  0
  1 22  1  0  0  0  0
  1 23  1  0  0  0  0
  2 20  1  0  0  0  0
  2  3  2  0  0  0  0
  3  4  1  0  0  0  0
  3 24  1  0  0  0  0
  4  5  1  0  0  0  0
  4 19  2  0  0  0  0
  5  6  1  0  0  0  0
  5 25  1  0  0  0  0
  6  7  2  0  0  0  0
  6  8  1  0  0  0  0
  8  9  1  0  0  0  0
  9 10  1  0  0  0  0
  9 26  1  0  0  0  0
  9 27  1  0  0  0  0
 10 11  1  0  0  0  0
 10 12  1  0  0  0  0
 10 28  1  0  0  0  0
 11 29  1  0  0  0  0
 11 30  1  0  0  0  0
 11 31  1  0  0  0  0
 12 18  1  0  0  0  0
 12 13  1  0  0  0  0
 12 44  1  0  0  0  0
 13 14  1  0  0  0  0
 13 32  1  0  0  0  0
 13 33  1  0  0  0  0
 14 15  1  0  0  0  0
 14 34  1  0  0  0  0
 14 35  1  0  0  0  0
 15 16  1  0  0  0  0
 15 36  1  0  0  0  0
 15 37  1  0  0  0  0
 16 17  1  0  0  0  0
 16 18  1  0  0  0  0
 16 38  1  0  0  0  0
 17 39  1  0  0  0  0
 17 40  1  0  0  0  0
 17 41  1  0  0  0  0
 18 42  1  0  0  0  0
 18 43  1  0  0  0  0
 19 20  1  0  0  0  0
M  CHG  1   8  -1
M  CHG  1  12   1
M  END
> <s_m_source_file>
AV-unprocessed.smi

> <i_m_source_file_index>
2083

> <i_lp_mmshare_version>
43012

> <i_f3d_flags>
0

> <s_epik_input>
W0NIM11jMVtjSF1jKG5vMSlbTkhdQyg9TylbTkhdW0NIMl1bQ0BIXShbQ0gzXSlOMltDSDJdW0NIMl1bQ0gyXVtDQEBIXShbQ0gzXSlbQ0gyXTI=

> <s_epik_cmdline>
J2VwaWtfcHl0aG9uJywgJy1waCcsICc3LjAnLCAnLXRuJywgJzgnLCAnLW1hJywgJzIwMCcsICctbWV0YWxfYmluZGluZycsICctaW1hZScsICc8aW5maWxlLm1hZT4nLCAnLW9tYWUnLCAnPG91dGZpbGUubWFlPic=

> <r_epik_Ionization_Penalty>
6.76934

> <r_epik_Ionization_Penalty_Charging>
6.76934

> <r_epik_Ionization_Penalty_Neutral>
5.77849e-06

> <r_epik_State_Penalty>
6.79457

> <r_epik_Charging_Adjusted_Penalty>
13.5639

> <i_epik_Tot_Q>
0

> <i_epik_Tot_abs_Q>
2

> <r_epik_Metal_State_Penalty>
2.72837

> <b_epik_Metal_Only>
1

> <s_lp_Force_Field>
OPLS_2005

> <r_lp_Energy>
16.9315

> <b_lp_Chiralities_Consistent>
1

> <s_lp_Variant>
AV-unprocessed.smi:2083-23

> <Gold.Version>
5.8.1

> <Gold.Id.Protein>
6NUR|6NUR_protein|mol2

> <Gold.PLP.Fitness>
39.1365

> <Gold.PLP.PLP>
-28.7991

> <Gold.PLP.part.hbond>
-3.0000

> <Gold.PLP.part.metal>
0.0000

> <Gold.PLP.part.buried>
-2.9403

> <Gold.PLP.part.nonpolar>
-22.6314

> <Gold.PLP.part.repulsive>
0.2010

> <Gold.PLP.ligand.clash>
0.0000

> <Gold.PLP.ligand.torsion>
0.9440

> <Gold.PLP.Chemscore.Hbond>
4.0000

> <Gold.PLP.Chemscore.CHOScore>
0.0000

> <Gold.PLP.Chemscore.Metal>
0.0000

> <Gold.Chemscore.Hbonds>
donor molecule, donor type, donor heavy atom, donor atom, acceptor molecule, acceptor atom, score
      L1  H    12    44       P1  7948  2.00
      P1  H  7997  8009       L1    20  0.88
      P1  H 10752 10765       L1     7  1.00

> <Gold.PLP.Chemscore.Internal.Correction>
0.2253

> <Gold.Rescore>
     Score         DG    S(hbond)    S(metal)    S(lipo)     H(rot)  DE(clash)    DE(int)     intcor
     16.85     -19.02       2.93        0.00      65.41       1.52       0.00       2.17       ----

> <Gold.Chemscore.Fitness>
16.8485

> <Gold.Chemscore.DG>
-19.0248

> <Gold.Chemscore.ZeroCoef>
-5.4800

> <Gold.Chemscore.Hbond>
2.9285

> <Gold.Chemscore.Metal>
0.0000

> <Gold.Chemscore.Lipo>
65.4054

> <Gold.Chemscore.Internal_Hbond>
0.0000

> <Gold.Chemscore.DEClash>
0.0025

> <Gold.Chemscore.DEInternal>
2.1738

> <Gold.Chemscore.Rot>
1.5190

> <Gold.Chemscore.Internal.Correction>
   9.000000E+99

> <Gold.Chemscore.Hbonds>
donor molecule, donor type, donor heavy atom, donor atom, acceptor molecule, acceptor atom, score
      L1  H    12    44       P1  7948  0.59
      P1  H  7997  8009       L1    20  0.80
      P1  H 10752 10765       L1     7  1.00

> <Gold.Chemscore.Hbond.Weighted>
-9.7810

> <Gold.Chemscore.Metal.Weighted>
-0.0000

> <Gold.Chemscore.Lipo.Weighted>
-7.6524

> <Gold.Chemscore.Internal_Hbond.Weighted>
0.0000

> <Gold.Chemscore.DEClash.Weighted>
0.0025

> <Gold.Chemscore.DEInternal.Weighted>
2.1738

> <Gold.Chemscore.Rot.Weighted>
3.8886

> <Gold.Chemscore.Internal.Correction.Weighted>
   9.000000E+99

> <Gold.Protein.RotatedTorsions>
[ 6907 6896 6895 6894 ] final  163.88 input  -60.11 | X-H torsion
[ 7974 7965 7964 7962 ] final -102.82 input  175.53 | X-H torsion
[ 8008 7997 7996 7995 ] final  150.45 input   59.86 | X-H torsion
[ 10167 10162 10161 10158 ] final -136.86 input  -65.29 | X-H torsion
[ 10718 10713 10712 10709 ] final  145.66 input   66.30 | X-H torsion
[ 10763 10752 10751 10750 ] final  179.89 input  -60.55 | X-H torsion
[ 11005 11000 10999 10996 ] final  173.46 input  -57.11 | X-H torsion

> <Gold.Protein.ActiveResidues>
 VAL166  LYS551  ARG553  GLY616  TRP617  ASP618  TYR619  PRO620  LYS621  CYS622 
 ASP623  PHE694  ASN695  SER759  ASP760  ASP761  ALA762  ILE779  LEU786  VAL792 
 PHE793  MET794  SER795  GLU796  ALA797  LYS798  CYS799  TRP800  GLU811  SER814 

> <Gold.Protein.RotatedAtoms>
  151.9184  133.3579  159.3888 H   0  0  0  0  0  0  0  0  0  0  0  0  # atno 6907 bound_to 6896
  150.7042  134.4660  159.5412 H   0  0  0  0  0  0  0  0  0  0  0  0  # atno 6908 bound_to 6896
  152.2279  134.8350  160.0528 H   0  0  0  0  0  0  0  0  0  0  0  0  # atno 6909 bound_to 6896
  145.2638  140.9277  143.3025 H   0  0  0  0  0  0  0  0  0  0  0  0  # atno 7974 bound_to 7965
  156.2715  140.2074  156.6019 H   0  0  0  0  0  0  0  0  0  0  0  0  # atno 8008 bound_to 7997
  154.6900  140.0531  157.0377 H   0  0  0  0  0  0  0  0  0  0  0  0  # atno 8009 bound_to 7997
  155.0880  140.3193  155.4585 H   0  0  0  0  0  0  0  0  0  0  0  0  # atno 8010 bound_to 7997
  139.8635  143.7046  152.2647 H   0  0  0  0  0  0  0  0  0  0  0  0  # atno 10167 bound_to 10162
  157.3426  131.0938  151.1070 H   0  0  0  0  0  0  0  0  0  0  0  0  # atno 10718 bound_to 10713
  154.5264  135.2797  155.1218 H   0  0  0  0  0  0  0  0  0  0  0  0  # atno 10763 bound_to 10752
  154.2755  135.6295  153.5330 H   0  0  0  0  0  0  0  0  0  0  0  0  # atno 10764 bound_to 10752
  152.9947  135.5638  154.5766 H   0  0  0  0  0  0  0  0  0  0  0  0  # atno 10765 bound_to 10752
  140.3408  134.7278  157.4200 H   0  0  0  0  0  0  0  0  0  0  0  0  # atno 11005 bound_to 11000
  144.9395  139.4206  143.6456 LP  0  0  0  0  0  0  0  0  0  0  0  0  # atno 17320 bound_to 7965
  146.3267  139.8347  142.8901 LP  0  0  0  0  0  0  0  0  0  0  0  0  # atno 17321 bound_to 7965
  139.7351  144.7573  151.0741 LP  0  0  0  0  0  0  0  0  0  0  0  0  # atno 17342 bound_to 10162
  140.7771  143.5041  150.9735 LP  0  0  0  0  0  0  0  0  0  0  0  0  # atno 17343 bound_to 10162
  157.2276  130.6510  149.5836 LP  0  0  0  0  0  0  0  0  0  0  0  0  # atno 17370 bound_to 10713
  155.9710  130.4609  150.6090 LP  0  0  0  0  0  0  0  0  0  0  0  0  # atno 17371 bound_to 10713
  140.0783  134.5766  155.8567 LP  0  0  0  0  0  0  0  0  0  0  0  0  # atno 17394 bound_to 11000
  141.2039  133.6635  156.6090 LP  0  0  0  0  0  0  0  0  0  0  0  0  # atno 17395 bound_to 11000

$$$$
