AV-unprocessed.smi:2118|AV-procd|sdf|8628|dock10
  -GOLD-   2272011373D 1   1.00000     0.00000
 Structure written by MMmdl.
 40 41  0  0  0  0  0  0  0  0  1 V2000
  152.8344  142.3355  159.6913 C   0  0  0  0  0  0  0  0  0  0  0  0
  152.2474  140.9190  159.6176 C   0  0  0  0  0  0  0  0  0  0  0  0
  153.3401  139.8439  159.7410 C   0  0  0  0  0  0  0  0  0  0  0  0
  152.7500  138.4257  159.6390 C   0  0  0  0  0  0  0  0  0  0  0  0
  151.9584  138.2564  158.4043 N   0  0  0  0  0  0  0  0  0  0  0  0
  152.7221  137.5809  156.9948 S   0  0  0  0  0  0  0  0  0  0  0  0
  153.5472  138.6170  156.3548 O   0  0  0  0  0  0  0  0  0  0  0  0
  153.2925  136.2695  157.3391 O   0  0  0  0  0  0  0  0  0  0  0  0
  151.3371  137.3164  156.0069 N   0  0  0  0  0  0  0  0  0  0  0  0
  151.2584  137.9956  154.7173 C   0  0  0  0  0  0  0  0  0  0  0  0
  150.8721  139.4661  154.9184 C   0  0  0  0  0  0  0  0  0  0  0  0
  149.4612  139.7565  154.4459 C   0  0  0  0  0  0  0  0  0  0  0  0
  148.9368  141.0647  154.4932 C   0  0  0  0  0  0  0  0  0  0  0  0
  147.6213  141.2850  154.0415 C   0  0  0  0  0  0  0  0  0  0  0  0
  146.8847  140.1844  153.5597 C   0  0  0  0  0  0  0  0  0  0  0  0
  147.3771  138.9277  153.5084 N   0  0  0  0  0  0  0  0  0  0  0  0
  148.6395  138.7252  153.9436 C   0  0  0  0  0  0  0  0  0  0  0  0
  150.8957  139.2668  158.2336 C   0  0  0  0  0  0  0  0  0  0  0  0
  151.4581  140.6978  158.3166 C   0  0  0  0  0  0  0  0  0  0  0  0
  153.5320  142.5192  158.8734 H   0  0  0  0  0  0  0  0  0  0  0  0
  153.3713  142.4893  160.6277 H   0  0  0  0  0  0  0  0  0  0  0  0
  152.0488  143.0895  159.6346 H   0  0  0  0  0  0  0  0  0  0  0  0
  151.5592  140.8000  160.4559 H   0  0  0  0  0  0  0  0  0  0  0  0
  154.0964  139.9889  158.9696 H   0  0  0  0  0  0  0  0  0  0  0  0
  153.8580  139.9510  160.6947 H   0  0  0  0  0  0  0  0  0  0  0  0
  153.5416  137.6781  159.6861 H   0  0  0  0  0  0  0  0  0  0  0  0
  152.1002  138.2389  160.4947 H   0  0  0  0  0  0  0  0  0  0  0  0
  151.0948  136.3279  155.9482 H   0  0  0  0  0  0  0  0  0  0  0  0
  152.2232  137.9192  154.2145 H   0  0  0  0  0  0  0  0  0  0  0  0
  150.5228  137.4883  154.0919 H   0  0  0  0  0  0  0  0  0  0  0  0
  150.9547  139.7348  155.9725 H   0  0  0  0  0  0  0  0  0  0  0  0
  151.5673  140.1126  154.3806 H   0  0  0  0  0  0  0  0  0  0  0  0
  149.5304  141.8857  154.8679 H   0  0  0  0  0  0  0  0  0  0  0  0
  147.1871  142.2737  154.0634 H   0  0  0  0  0  0  0  0  0  0  0  0
  145.8733  140.3170  153.2050 H   0  0  0  0  0  0  0  0  0  0  0  0
  149.0046  137.7102  153.8878 H   0  0  0  0  0  0  0  0  0  0  0  0
  150.3769  139.1136  157.2877 H   0  0  0  0  0  0  0  0  0  0  0  0
  150.1525  139.1212  159.0183 H   0  0  0  0  0  0  0  0  0  0  0  0
  150.6360  141.4118  158.2577 H   0  0  0  0  0  0  0  0  0  0  0  0
  152.0943  140.8990  157.4547 H   0  0  0  0  0  0  0  0  0  0  0  0
  1  2  1  0  0  0  0
  1 20  1  0  0  0  0
  1 21  1  0  0  0  0
  1 22  1  0  0  0  0
  2 19  1  0  0  0  0
  2  3  1  0  0  0  0
  2 23  1  0  0  0  0
  3  4  1  0  0  0  0
  3 24  1  0  0  0  0
  3 25  1  0  0  0  0
  4  5  1  0  0  0  0
  4 26  1  0  0  0  0
  4 27  1  0  0  0  0
  5  6  1  0  0  0  0
  5 18  1  0  0  0  0
  6  7  2  0  0  0  0
  6  8  2  0  0  0  0
  6  9  1  0  0  0  0
  9 10  1  0  0  0  0
  9 28  1  0  0  0  0
 10 11  1  0  0  0  0
 10 29  1  0  0  0  0
 10 30  1  0  0  0  0
 11 12  1  0  0  0  0
 11 31  1  0  0  0  0
 11 32  1  0  0  0  0
 12 17  1  0  0  0  0
 12 13  2  0  0  0  0
 13 14  1  0  0  0  0
 13 33  1  0  0  0  0
 14 15  2  0  0  0  0
 14 34  1  0  0  0  0
 15 16  1  0  0  0  0
 15 35  1  0  0  0  0
 16 17  2  0  0  0  0
 17 36  1  0  0  0  0
 18 19  1  0  0  0  0
 18 37  1  0  0  0  0
 18 38  1  0  0  0  0
 19 39  1  0  0  0  0
 19 40  1  0  0  0  0
M  END
> <s_m_source_file>
AV-unprocessed.smi

> <i_m_source_file_index>
2118

> <i_lp_mmshare_version>
43012

> <i_f3d_flags>
0

> <s_epik_input>
W0NIM11bQ0hdMVtDSDJdW0NIMl1OKFtDSDJdW0NIMl0xKVMoPU8pKD1PKVtOSF1bQ0gyXVtDSDJdYzJbY0hdW2NIXVtjSF1uW2NIXTI=

> <s_epik_cmdline>
J2VwaWtfcHl0aG9uJywgJy1waCcsICc3LjAnLCAnLXRuJywgJzgnLCAnLW1hJywgJzIwMCcsICctbWV0YWxfYmluZGluZycsICctaW1hZScsICc8aW5maWxlLm1hZT4nLCAnLW9tYWUnLCAnPG91dGZpbGUubWFlPic=

> <r_epik_Ionization_Penalty>
0.0259724

> <r_epik_Ionization_Penalty_Charging>
0

> <r_epik_Ionization_Penalty_Neutral>
0.0259724

> <r_epik_State_Penalty>
0.0167858

> <r_epik_Charging_Adjusted_Penalty>
0.0167858

> <i_epik_Tot_Q>
0

> <i_epik_Tot_abs_Q>
0

> <r_epik_Metal_State_Penalty>
0.268382

> <b_epik_Metal_Only>
0

> <s_lp_Force_Field>
OPLS_2005

> <r_lp_Energy>
6.97296

> <b_lp_Chiralities_Consistent>
1

> <s_lp_Variant>
AV-unprocessed.smi:2118-1

> <Gold.Version>
5.8.1

> <Gold.Id.Protein>
6NUR|6NUR_protein|mol2

> <Gold.PLP.Fitness>
44.9471

> <Gold.PLP.PLP>
-35.0876

> <Gold.PLP.part.hbond>
-2.0000

> <Gold.PLP.part.metal>
0.0000

> <Gold.PLP.part.buried>
-1.9662

> <Gold.PLP.part.nonpolar>
-31.0564

> <Gold.PLP.part.repulsive>
0.2079

> <Gold.PLP.ligand.clash>
0.0000

> <Gold.PLP.ligand.torsion>
1.6561

> <Gold.PLP.Chemscore.Hbond>
1.8000

> <Gold.PLP.Chemscore.CHOScore>
1.8858

> <Gold.PLP.Chemscore.Metal>
0.0000

> <Gold.Chemscore.Hbonds>
donor molecule, donor type, donor heavy atom, donor atom, acceptor molecule, acceptor atom, score
      P1  H  7997  8008       L1     7  0.85
      P1  H 10752 10765       L1     8  0.24
      L1  C    15    35       P1 10175  1.00
      L1  C    17    36       P1  7948  0.92

> <Gold.PLP.Chemscore.Internal.Correction>
2.1143

> <Gold.Rescore>
     Score         DG    S(hbond)    S(metal)    S(lipo)     H(rot)  DE(clash)    DE(int)     intcor
     14.81     -16.47       1.66        0.00      78.86       1.47       0.04       1.62       ----

> <Gold.Chemscore.Fitness>
14.8066

> <Gold.Chemscore.DG>
-16.4691

> <Gold.Chemscore.ZeroCoef>
-5.4800

> <Gold.Chemscore.Hbond>
1.6564

> <Gold.Chemscore.Metal>
0.0000

> <Gold.Chemscore.Lipo>
78.8578

> <Gold.Chemscore.Internal_Hbond>
0.0000

> <Gold.Chemscore.DEClash>
0.0392

> <Gold.Chemscore.DEInternal>
1.6233

> <Gold.Chemscore.Rot>
1.4725

> <Gold.Chemscore.Internal.Correction>
   9.000000E+99

> <Gold.Chemscore.Hbonds>
donor molecule, donor type, donor heavy atom, donor atom, acceptor molecule, acceptor atom, score
      P1  H  7997  8008       L1     7  0.83
      P1  H 10752 10765       L1     8  0.03

> <Gold.Chemscore.Hbond.Weighted>
-5.5325

> <Gold.Chemscore.Metal.Weighted>
-0.0000

> <Gold.Chemscore.Lipo.Weighted>
-9.2264

> <Gold.Chemscore.Internal_Hbond.Weighted>
0.0000

> <Gold.Chemscore.DEClash.Weighted>
0.0392

> <Gold.Chemscore.DEInternal.Weighted>
1.6233

> <Gold.Chemscore.Rot.Weighted>
3.7697

> <Gold.Chemscore.Internal.Correction.Weighted>
   9.000000E+99

> <Gold.Protein.RotatedTorsions>
[ 6907 6896 6895 6894 ] final   92.42 input  -60.11 | X-H torsion
[ 7974 7965 7964 7962 ] final   48.19 input  175.53 | X-H torsion
[ 8008 7997 7996 7995 ] final  -49.58 input   59.86 | X-H torsion
[ 10167 10162 10161 10158 ] final  -95.95 input  -65.29 | X-H torsion
[ 10718 10713 10712 10709 ] final   -3.74 input   66.30 | X-H torsion
[ 10763 10752 10751 10750 ] final -139.75 input  -60.55 | X-H torsion
[ 11005 11000 10999 10996 ] final -109.60 input  -57.11 | X-H torsion

> <Gold.Protein.ActiveResidues>
 VAL166  LYS551  ARG553  GLY616  TRP617  ASP618  TYR619  PRO620  LYS621  CYS622 
 ASP623  PHE694  ASN695  SER759  ASP760  ASP761  ALA762  ILE779  LEU786  VAL792 
 PHE793  MET794  SER795  GLU796  ALA797  LYS798  CYS799  TRP800  GLU811  SER814 

> <Gold.Protein.RotatedAtoms>
  152.5452  134.1504  159.8515 H   0  0  0  0  0  0  0  0  0  0  0  0  # atno 6907 bound_to 6896
  151.1532  133.4887  159.2602 H   0  0  0  0  0  0  0  0  0  0  0  0  # atno 6908 bound_to 6896
  151.1451  135.0210  159.8698 H   0  0  0  0  0  0  0  0  0  0  0  0  # atno 6909 bound_to 6896
  146.0227  139.4670  142.9887 H   0  0  0  0  0  0  0  0  0  0  0  0  # atno 7974 bound_to 7965
  154.4046  140.1293  156.4525 H   0  0  0  0  0  0  0  0  0  0  0  0  # atno 8008 bound_to 7997
  155.7352  140.3490  155.5058 H   0  0  0  0  0  0  0  0  0  0  0  0  # atno 8009 bound_to 7997
  155.9090  140.1032  157.1284 H   0  0  0  0  0  0  0  0  0  0  0  0  # atno 8010 bound_to 7997
  140.2989  143.3175  152.0269 H   0  0  0  0  0  0  0  0  0  0  0  0  # atno 10167 bound_to 10162
  156.7715  130.5301  149.5766 H   0  0  0  0  0  0  0  0  0  0  0  0  # atno 10718 bound_to 10713
  154.8600  135.3573  154.5597 H   0  0  0  0  0  0  0  0  0  0  0  0  # atno 10763 bound_to 10752
  153.6213  135.7006  153.5314 H   0  0  0  0  0  0  0  0  0  0  0  0  # atno 10764 bound_to 10752
  153.3127  135.4174  155.1309 H   0  0  0  0  0  0  0  0  0  0  0  0  # atno 10765 bound_to 10752
  141.0839  133.9173  157.2229 H   0  0  0  0  0  0  0  0  0  0  0  0  # atno 11005 bound_to 11000
  145.7167  141.0088  143.1424 LP  0  0  0  0  0  0  0  0  0  0  0  0  # atno 17320 bound_to 7965
  144.6997  139.8821  143.7448 LP  0  0  0  0  0  0  0  0  0  0  0  0  # atno 17321 bound_to 7965
  139.4920  144.6470  151.6756 LP  0  0  0  0  0  0  0  0  0  0  0  0  # atno 17342 bound_to 10162
  140.5668  144.0176  150.6196 LP  0  0  0  0  0  0  0  0  0  0  0  0  # atno 17343 bound_to 10162
  156.1275  130.6154  151.0284 LP  0  0  0  0  0  0  0  0  0  0  0  0  # atno 17370 bound_to 10713
  157.6688  131.0866  150.7662 LP  0  0  0  0  0  0  0  0  0  0  0  0  # atno 17371 bound_to 10713
  139.9655  135.0143  156.9375 LP  0  0  0  0  0  0  0  0  0  0  0  0  # atno 17394 bound_to 11000
  140.5408  134.0722  155.7341 LP  0  0  0  0  0  0  0  0  0  0  0  0  # atno 17395 bound_to 11000

$$$$
