#       Name:                AV-unprocessed.smi:2301
#       Creating user name   scv26
#       Creation time:       Fri Mar 27 12:45:33 2020


#       File generated by GOLD software.
#

@<TRIPOS>MOLECULE
AV-unprocessed.smi:2301
    42    43     1
SMALL
NO_CHARGES


@<TRIPOS>ATOM
      1 ****        -5.5897   1.3110  -0.6643 C.3            1 S1                 0.0000
      2 ****        -4.8530  -0.0059  -0.5402 C.ar           1 S1                 0.0000
      3 ****        -5.5338  -1.2325  -0.6686 C.ar           1 S1                 0.0000
      4 ****        -4.7900  -2.4194  -0.5442 C.ar           1 S1                 0.0000
      5 ****        -3.4060  -2.3317  -0.2989 C.ar           1 S1                 0.0000
      6 ****        -2.7988  -1.0605  -0.1860 C.ar           1 S1                 0.0000
      7 ****        -1.3993  -1.0809   0.0568 N.am           1 S1                 0.0000
      8 ****        -0.5616  -0.0362   0.1826 C.2            1 S1                 0.0000
      9 ****        -0.8868   1.1499   0.1180 O.2            1 S1                 0.0000
     10 ****         0.6988  -0.4475   0.3864 N.am           1 S1                 0.0000
     11 ****         1.8577   0.4269   0.5433 C.3            1 S1                 0.0000
     12 ****         2.9365  -0.2891   1.3763 C.3            1 S1                 0.0000
     13 ****         4.2023   0.5736   1.5246 C.3            1 S1                 0.0000
     14 ****         4.7636   1.0255   0.1632 C.3            1 S1                 0.0000
     15 ****         5.3133  -0.0797  -0.5272 O.3            1 S1                 0.0000
     16 ****         3.6809   1.7022  -0.6985 C.3            1 S1                 0.0000
     17 ****         2.4159   0.8370  -0.8343 C.3            1 S1                 0.0000
     18 ****        -3.5256   0.0786  -0.3069 N.ar           1 S1                 0.0000
     19 ****         1.5556   1.3262   1.0839 H              1 S1                 0.0000
     20 ****         5.5778   1.7315   0.3300 H              1 S1                 0.0000
     21 ****        -6.6692   1.1591  -0.6894 H              1 S1                 0.0000
     22 ****        -5.2952   1.8228  -1.5809 H              1 S1                 0.0000
     23 ****        -5.3584   1.9592   0.1817 H              1 S1                 0.0000
     24 ****        -6.5968  -1.2660  -0.8577 H              1 S1                 0.0000
     25 ****        -5.2717  -3.3816  -0.6358 H              1 S1                 0.0000
     26 ****        -2.8199  -3.2340  -0.2012 H              1 S1                 0.0000
     27 ****        -0.9859  -1.9985   0.1320 H              1 S1                 0.0000
     28 ****         0.8737  -1.4410   0.4251 H              1 S1                 0.0000
     29 ****         2.5438  -0.5320   2.3643 H              1 S1                 0.0000
     30 ****         3.1969  -1.2391   0.9074 H              1 S1                 0.0000
     31 ****         3.9591   1.4560   2.1179 H              1 S1                 0.0000
     32 ****         4.9632   0.0312   2.0872 H              1 S1                 0.0000
     33 ****         6.0117  -0.4436  -0.0046 H              1 S1                 0.0000
     34 ****         3.4080   2.6541  -0.2412 H              1 S1                 0.0000
     35 ****         4.0779   1.9431  -1.6853 H              1 S1                 0.0000
     36 ****         2.6460  -0.0542  -1.4199 H              1 S1                 0.0000
     37 ****         1.6605   1.3863  -1.3974 H              1 S1                 0.0000
     38 ****        -1.8425   1.3984  -0.0397 LP             1 S1                 0.0000
     39 ****        -0.1952   1.8644   0.2234 LP             1 S1                 0.0000
     40 ****         5.6741   0.2200  -1.4103 LP             1 S1                 0.0000
     41 ****         4.6061  -0.7715  -0.6734 LP             1 S1                 0.0000
     42 ****        -3.0830   0.9715  -0.2241 LP             1 S1                 0.0000
@<TRIPOS>BOND
    1    1    2 1     
    2    1   21 1     
    3    1   22 1     
    4    1   23 1     
    5    2   18 ar    
    6    2    3 ar    
    7    3    4 ar    
    8    3   24 1     
    9    4    5 ar    
   10    4   25 1     
   11    5    6 ar    
   12    5   26 1     
   13    6    7 1     
   14    6   18 ar    
   15    7    8 am    
   16    7   27 1     
   17    8    9 2     
   18    8   10 am    
   19   10   11 1     
   20   10   28 1     
   21   11   19 1     
   22   11   17 1     
   23   11   12 1     
   24   12   13 1     
   25   12   29 1     
   26   12   30 1     
   27   13   14 1     
   28   13   31 1     
   29   13   32 1     
   30   14   20 1     
   31   14   15 1     
   32   14   16 1     
   33   15   33 1     
   34   16   17 1     
   35   16   34 1     
   36   16   35 1     
   37   17   36 1     
   38   17   37 1     
   39    9   38 1     
   40    9   39 1     
   41   15   40 1     
   42   15   41 1     
   43   18   42 1     
@<TRIPOS>SUBSTRUCTURE
      1 S1             1
@<TRIPOS>SET
LONE_PAIRS      STATIC     ATOMS    <user>   **** ""
5 38 39 40 41 42
DONOR_HYDROGENS      STATIC     ATOMS    <user>   **** ""
3 27 28 33
ATOM$BLUE        STATIC     ATOMS    COLORGROUP SYSTEM
5 38 39 40 41 42
ATOM$RED        STATIC     ATOMS    COLORGROUP SYSTEM
3 27 28 33
