AV-unprocessed.smi:3315|AV-procd|sdf|12751|dock8
  -GOLD-   2272019 93D 1   1.00000     0.00000
 Structure written by MMmdl.
 37 38  0  0  0  0  0  0  0  0  1 V2000
  145.8898  131.1601  150.9561 C   0  0  0  0  0  0  0  0  0  0  0  0
  144.6273  131.6386  151.4042 O   0  0  0  0  0  0  0  0  0  0  0  0
  144.0720  132.7723  150.7230 C   0  0  1  0  0  0  0  0  0  0  0  0
  144.2064  132.6049  149.2042 C   0  0  0  0  0  0  0  0  0  0  0  0
  142.7007  133.1374  151.3235 C   0  0  0  0  0  0  0  0  0  0  0  0
  143.4600  133.9080  152.4015 C   0  0  2  0  0  0  0  0  0  0  0  0
  142.7901  135.1471  152.7829 N   0  0  0  0  0  0  0  0  0  0  0  0
  141.5787  135.2073  153.3526 C   0  0  0  0  0  0  0  0  0  0  0  0
  140.9008  134.2129  153.6126 O   0  0  0  0  0  0  0  0  0  0  0  0
  141.2168  136.4780  153.5983 N   0  0  0  0  0  0  0  0  0  0  0  0
  140.0195  136.9328  154.2073 C   0  0  0  0  0  0  0  0  0  0  0  0
  139.1835  137.8780  153.5552 C   0  0  0  0  0  0  0  0  0  0  0  0
  138.1647  138.0489  154.4488 C   0  0  0  0  0  0  0  0  0  0  0  0
  138.3583  137.2780  155.5519 O   0  0  0  0  0  0  0  0  0  0  0  0
  139.5515  136.5635  155.3906 N   0  0  0  0  0  0  0  0  0  0  0  0
  144.6263  134.0729  151.3929 C   0  0  0  0  0  0  0  0  0  0  0  0
  146.0386  133.9912  151.9833 C   0  0  0  0  0  0  0  0  0  0  0  0
  144.6122  135.3414  150.5188 C   0  0  0  0  0  0  0  0  0  0  0  0
  146.1141  130.2227  151.4643 H   0  0  0  0  0  0  0  0  0  0  0  0
  146.6933  131.8555  151.1975 H   0  0  0  0  0  0  0  0  0  0  0  0
  145.9049  130.9651  149.8845 H   0  0  0  0  0  0  0  0  0  0  0  0
  143.8903  133.4989  148.6680 H   0  0  0  0  0  0  0  0  0  0  0  0
  143.5863  131.7923  148.8265 H   0  0  0  0  0  0  0  0  0  0  0  0
  145.2383  132.4003  148.9183 H   0  0  0  0  0  0  0  0  0  0  0  0
  142.1078  133.7752  150.6655 H   0  0  0  0  0  0  0  0  0  0  0  0
  142.1046  132.3092  151.7045 H   0  0  0  0  0  0  0  0  0  0  0  0
  143.7176  133.2664  153.2476 H   0  0  0  0  0  0  0  0  0  0  0  0
  143.2818  136.0097  152.6006 H   0  0  0  0  0  0  0  0  0  0  0  0
  141.8701  137.1972  153.3254 H   0  0  0  0  0  0  0  0  0  0  0  0
  139.3070  138.3529  152.5933 H   0  0  0  0  0  0  0  0  0  0  0  0
  137.2712  138.6555  154.4468 H   0  0  0  0  0  0  0  0  0  0  0  0
  146.3157  134.9154  152.4917 H   0  0  0  0  0  0  0  0  0  0  0  0
  146.7834  133.8039  151.2095 H   0  0  0  0  0  0  0  0  0  0  0  0
  146.1279  133.1929  152.7201 H   0  0  0  0  0  0  0  0  0  0  0  0
  144.8385  136.2348  151.1016 H   0  0  0  0  0  0  0  0  0  0  0  0
  143.6434  135.5067  150.0474 H   0  0  0  0  0  0  0  0  0  0  0  0
  145.3529  135.2839  149.7205 H   0  0  0  0  0  0  0  0  0  0  0  0
  1  2  1  0  0  0  0
  1 19  1  0  0  0  0
  1 20  1  0  0  0  0
  1 21  1  0  0  0  0
  2  3  1  0  0  0  0
  3 16  1  0  0  0  0
  3  4  1  0  0  0  0
  3  5  1  0  0  0  0
  4 22  1  0  0  0  0
  4 23  1  0  0  0  0
  4 24  1  0  0  0  0
  5  6  1  0  0  0  0
  5 25  1  0  0  0  0
  5 26  1  0  0  0  0
  6  7  1  0  0  0  0
  6 16  1  0  0  0  0
  6 27  1  0  0  0  0
  7  8  1  0  0  0  0
  7 28  1  0  0  0  0
  8  9  2  0  0  0  0
  8 10  1  0  0  0  0
 10 11  1  0  0  0  0
 10 29  1  0  0  0  0
 11 15  2  0  0  0  0
 11 12  1  0  0  0  0
 12 13  2  0  0  0  0
 12 30  1  0  0  0  0
 13 14  1  0  0  0  0
 13 31  1  0  0  0  0
 14 15  1  0  0  0  0
 16 17  1  0  0  0  0
 16 18  1  0  0  0  0
 17 32  1  0  0  0  0
 17 33  1  0  0  0  0
 17 34  1  0  0  0  0
 18 35  1  0  0  0  0
 18 36  1  0  0  0  0
 18 37  1  0  0  0  0
M  END
> <s_m_source_file>
AV-unprocessed.smi

> <i_m_source_file_index>
3315

> <i_lp_mmshare_version>
43012

> <i_f3d_flags>
0

> <s_epik_input>
W0NIM11PW0NAQF0xKFtDSDNdKVtDSDJdW0NASF0oQzEoW0NIM10pW0NIM10pW05IXUMoPU8pW05IXWMyW2NIXVtjSF1vbjI=

> <s_epik_cmdline>
J2VwaWtfcHl0aG9uJywgJy1waCcsICc3LjAnLCAnLXRuJywgJzgnLCAnLW1hJywgJzIwMCcsICctbWV0YWxfYmluZGluZycsICctaW1hZScsICc8aW5maWxlLm1hZT4nLCAnLW9tYWUnLCAnPG91dGZpbGUubWFlPic=

> <r_lp_tautomer_probability>
1

> <r_epik_Ionization_Penalty>
2.28875e-05

> <r_epik_Ionization_Penalty_Charging>
0

> <r_epik_Ionization_Penalty_Neutral>
2.28875e-05

> <r_epik_State_Penalty>
-0

> <r_epik_Charging_Adjusted_Penalty>
0

> <i_epik_Tot_Q>
0

> <i_epik_Tot_abs_Q>
0

> <r_epik_Metal_State_Penalty>
-0

> <b_epik_Metal_Only>
0

> <s_lp_Force_Field>
OPLS_2005

> <r_lp_Energy>
22.1239

> <b_lp_Chiralities_Consistent>
1

> <s_lp_Variant>
AV-unprocessed.smi:3315-3

> <Gold.Version>
5.8.1

> <Gold.Id.Protein>
6NUR|6NUR_protein|mol2

> <Gold.PLP.Fitness>
35.7224

> <Gold.PLP.PLP>
-33.1409

> <Gold.PLP.part.hbond>
-2.3179

> <Gold.PLP.part.metal>
0.0000

> <Gold.PLP.part.buried>
-3.1082

> <Gold.PLP.part.nonpolar>
-28.0062

> <Gold.PLP.part.repulsive>
0.5622

> <Gold.PLP.ligand.clash>
0.0000

> <Gold.PLP.ligand.torsion>
0.8375

> <Gold.PLP.Chemscore.Hbond>
1.2948

> <Gold.PLP.Chemscore.CHOScore>
0.0000

> <Gold.PLP.Chemscore.Metal>
0.0000

> <Gold.Chemscore.Hbonds>
donor molecule, donor type, donor heavy atom, donor atom, acceptor molecule, acceptor atom, score
      P1  H 10995 11001       L1     9  0.15
      P1  H 11000 11005       L1    15  1.00

> <Gold.PLP.Chemscore.Internal.Correction>
0.3721

> <Gold.Rescore>
     Score         DG    S(hbond)    S(metal)    S(lipo)     H(rot)  DE(clash)    DE(int)     intcor
     14.26     -16.51       1.44        0.00      81.59       1.30       1.46       0.79       ----

> <Gold.Chemscore.Fitness>
14.2578

> <Gold.Chemscore.DG>
-16.5085

> <Gold.Chemscore.ZeroCoef>
-5.4800

> <Gold.Chemscore.Hbond>
1.4432

> <Gold.Chemscore.Metal>
0.0000

> <Gold.Chemscore.Lipo>
81.5893

> <Gold.Chemscore.Internal_Hbond>
0.0000

> <Gold.Chemscore.DEClash>
1.4645

> <Gold.Chemscore.DEInternal>
0.7862

> <Gold.Chemscore.Rot>
1.3038

> <Gold.Chemscore.Internal.Correction>
   9.000000E+99

> <Gold.Chemscore.Hbonds>
donor molecule, donor type, donor heavy atom, donor atom, acceptor molecule, acceptor atom, score
      P1  H 10995 11001       L1     9  0.16
      P1  H 11000 11005       L1    15  0.99

> <Gold.Chemscore.Hbond.Weighted>
-4.8203

> <Gold.Chemscore.Metal.Weighted>
-0.0000

> <Gold.Chemscore.Lipo.Weighted>
-9.5460

> <Gold.Chemscore.Internal_Hbond.Weighted>
0.0000

> <Gold.Chemscore.DEClash.Weighted>
1.4645

> <Gold.Chemscore.DEInternal.Weighted>
0.7862

> <Gold.Chemscore.Rot.Weighted>
3.3377

> <Gold.Chemscore.Internal.Correction.Weighted>
   9.000000E+99

> <Gold.Protein.RotatedTorsions>
[ 6907 6896 6895 6894 ] final   51.15 input  -60.11 | X-H torsion
[ 7974 7965 7964 7962 ] final  -54.10 input  175.53 | X-H torsion
[ 8008 7997 7996 7995 ] final   50.83 input   59.86 | X-H torsion
[ 10167 10162 10161 10158 ] final -144.88 input  -65.29 | X-H torsion
[ 10718 10713 10712 10709 ] final  101.57 input   66.30 | X-H torsion
[ 10763 10752 10751 10750 ] final  151.64 input  -60.55 | X-H torsion
[ 11005 11000 10999 10996 ] final   85.49 input  -57.11 | X-H torsion

> <Gold.Protein.ActiveResidues>
 VAL166  LYS551  ARG553  GLY616  TRP617  ASP618  TYR619  PRO620  LYS621  CYS622 
 ASP623  PHE694  ASN695  SER759  ASP760  ASP761  ALA762  ILE779  LEU786  VAL792 
 PHE793  MET794  SER795  GLU796  ALA797  LYS798  CYS799  TRP800  GLU811  SER814 

> <Gold.Protein.RotatedAtoms>
  152.3095  134.7515  160.0339 H   0  0  0  0  0  0  0  0  0  0  0  0  # atno 6907 bound_to 6896
  151.8000  133.3363  159.3532 H   0  0  0  0  0  0  0  0  0  0  0  0  # atno 6908 bound_to 6896
  150.7313  134.5692  159.5926 H   0  0  0  0  0  0  0  0  0  0  0  0  # atno 6909 bound_to 6896
  145.8894  140.8082  142.9799 H   0  0  0  0  0  0  0  0  0  0  0  0  # atno 7974 bound_to 7965
  155.4252  140.3448  155.4275 H   0  0  0  0  0  0  0  0  0  0  0  0  # atno 8008 bound_to 7997
  156.1369  140.1530  156.9011 H   0  0  0  0  0  0  0  0  0  0  0  0  # atno 8009 bound_to 7997
  154.4939  140.0833  156.7635 H   0  0  0  0  0  0  0  0  0  0  0  0  # atno 8010 bound_to 7997
  139.7857  143.8037  152.2644 H   0  0  0  0  0  0  0  0  0  0  0  0  # atno 10167 bound_to 10162
  157.6826  131.0730  150.5272 H   0  0  0  0  0  0  0  0  0  0  0  0  # atno 10718 bound_to 10713
  154.1071  135.2841  155.3239 H   0  0  0  0  0  0  0  0  0  0  0  0  # atno 10763 bound_to 10752
  154.6515  135.5367  153.7911 H   0  0  0  0  0  0  0  0  0  0  0  0  # atno 10764 bound_to 10752
  153.0358  135.6511  154.1232 H   0  0  0  0  0  0  0  0  0  0  0  0  # atno 10765 bound_to 10752
  139.8970  134.8290  156.2589 H   0  0  0  0  0  0  0  0  0  0  0  0  # atno 11005 bound_to 11000
  144.6730  140.1506  143.7430 LP  0  0  0  0  0  0  0  0  0  0  0  0  # atno 17320 bound_to 7965
  145.8927  139.2385  143.1540 LP  0  0  0  0  0  0  0  0  0  0  0  0  # atno 17321 bound_to 7965
  139.8113  144.7334  150.9693 LP  0  0  0  0  0  0  0  0  0  0  0  0  # atno 17342 bound_to 10162
  140.7819  143.4248  151.0786 LP  0  0  0  0  0  0  0  0  0  0  0  0  # atno 17343 bound_to 10162
  156.5583  130.4249  149.6075 LP  0  0  0  0  0  0  0  0  0  0  0  0  # atno 17370 bound_to 10713
  156.2843  130.7088  151.1920 LP  0  0  0  0  0  0  0  0  0  0  0  0  # atno 17371 bound_to 10713
  141.0175  133.7060  156.1213 LP  0  0  0  0  0  0  0  0  0  0  0  0  # atno 17394 bound_to 11000
  140.7280  134.4285  157.5568 LP  0  0  0  0  0  0  0  0  0  0  0  0  # atno 17395 bound_to 11000

$$$$
