AV-unprocessed.smi:2641|AV-procd|sdf|10272|dock3
  -GOLD-   2272014283D 1   1.00000     0.00000
 Structure written by MMmdl.
 39 40  0  0  0  0  0  0  0  0  2 V2000
  153.1161  142.9453  162.9128 C   0  0  0  0  0  0  0  0  0  0  0  0
  152.7299  143.0143  161.4501 C   0  0  0  0  0  0  0  0  0  0  0  0
  153.2167  142.0640  160.5277 C   0  0  0  0  0  0  0  0  0  0  0  0
  152.8217  142.1745  159.1806 C   0  0  0  0  0  0  0  0  0  0  0  0
  151.9581  143.2256  158.8085 C   0  0  0  0  0  0  0  0  0  0  0  0
  151.4963  143.3832  157.3706 C   0  0  0  0  0  0  0  0  0  0  0  0
  150.7965  142.1121  156.8861 C   0  0  0  0  0  0  0  0  0  0  0  0
  151.3171  141.0193  157.1055 O   0  0  0  0  0  0  0  0  0  0  0  0
  149.6285  142.3019  156.2434 N   0  0  0  0  0  0  0  0  0  0  0  0
  148.6608  141.3625  155.6521 C   0  0  0  0  0  0  0  0  0  0  0  0
  148.0101  140.6428  156.8621 C   0  0  0  0  0  0  0  0  0  0  0  0
  147.0850  139.8314  156.6327 O   0  0  0  0  0  0  0  0  0  0  0  0
  148.4104  140.9452  158.0088 O   0  5  0  0  0  0  0  0  0  0  0  0
  147.6166  142.2187  154.8786 C   0  0  0  0  0  0  0  0  0  0  0  0
  146.5492  141.3775  154.1503 C   0  0  0  0  0  0  0  0  0  0  0  0
  147.1944  140.3660  153.1927 C   0  0  0  0  0  0  0  0  0  0  0  0
  148.2123  139.4807  153.9256 C   0  0  0  0  0  0  0  0  0  0  0  0
  149.2739  140.3342  154.6471 C   0  0  0  0  0  0  0  0  0  0  0  0
  151.5319  144.1252  159.8086 C   0  0  0  0  0  0  0  0  0  0  0  0
  151.9052  144.0271  161.1029 N   0  0  0  0  0  0  0  0  0  0  0  0
  153.7060  142.0531  163.1247 H   0  0  0  0  0  0  0  0  0  0  0  0
  152.2252  142.9192  163.5413 H   0  0  0  0  0  0  0  0  0  0  0  0
  153.7076  143.8183  163.1896 H   0  0  0  0  0  0  0  0  0  0  0  0
  153.8766  141.2683  160.8415 H   0  0  0  0  0  0  0  0  0  0  0  0
  153.1755  141.4642  158.4475 H   0  0  0  0  0  0  0  0  0  0  0  0
  150.8056  144.2236  157.2919 H   0  0  0  0  0  0  0  0  0  0  0  0
  152.3518  143.6200  156.7358 H   0  0  0  0  0  0  0  0  0  0  0  0
  149.3421  143.2668  156.1650 H   0  0  0  0  0  0  0  0  0  0  0  0
  147.1253  142.9324  155.5416 H   0  0  0  0  0  0  0  0  0  0  0  0
  148.1377  142.8288  154.1391 H   0  0  0  0  0  0  0  0  0  0  0  0
  145.9257  140.8517  154.8741 H   0  0  0  0  0  0  0  0  0  0  0  0
  145.8796  142.0344  153.5945 H   0  0  0  0  0  0  0  0  0  0  0  0
  146.4256  139.7465  152.7306 H   0  0  0  0  0  0  0  0  0  0  0  0
  147.6926  140.8988  152.3817 H   0  0  0  0  0  0  0  0  0  0  0  0
  147.6953  138.8368  154.6378 H   0  0  0  0  0  0  0  0  0  0  0  0
  148.6993  138.8144  153.2131 H   0  0  0  0  0  0  0  0  0  0  0  0
  149.8348  140.8682  153.8793 H   0  0  0  0  0  0  0  0  0  0  0  0
  149.9907  139.6759  155.1400 H   0  0  0  0  0  0  0  0  0  0  0  0
  150.8724  144.9452  159.5646 H   0  0  0  0  0  0  0  0  0  0  0  0
  1  2  1  0  0  0  0
  1 21  1  0  0  0  0
  1 22  1  0  0  0  0
  1 23  1  0  0  0  0
  2 20  1  0  0  0  0
  2  3  2  0  0  0  0
  3  4  1  0  0  0  0
  3 24  1  0  0  0  0
  4  5  2  0  0  0  0
  4 25  1  0  0  0  0
  5  6  1  0  0  0  0
  5 19  1  0  0  0  0
  6  7  1  0  0  0  0
  6 26  1  0  0  0  0
  6 27  1  0  0  0  0
  7  8  2  0  0  0  0
  7  9  1  0  0  0  0
  9 10  1  0  0  0  0
  9 28  1  0  0  0  0
 10 18  1  0  0  0  0
 10 11  1  0  0  0  0
 10 14  1  0  0  0  0
 11 12  2  0  0  0  0
 11 13  1  0  0  0  0
 14 15  1  0  0  0  0
 14 29  1  0  0  0  0
 14 30  1  0  0  0  0
 15 16  1  0  0  0  0
 15 31  1  0  0  0  0
 15 32  1  0  0  0  0
 16 17  1  0  0  0  0
 16 33  1  0  0  0  0
 16 34  1  0  0  0  0
 17 18  1  0  0  0  0
 17 35  1  0  0  0  0
 17 36  1  0  0  0  0
 18 37  1  0  0  0  0
 18 38  1  0  0  0  0
 19 20  2  0  0  0  0
 19 39  1  0  0  0  0
M  CHG  1  13  -1
M  END
> <s_m_source_file>
AV-unprocessed.smi

> <i_m_source_file_index>
2641

> <i_lp_mmshare_version>
43012

> <i_f3d_flags>
0

> <s_epik_input>
W0NIM11jMVtjSF1bY0hdYyhbY0hdbjEpW0NIMl1DKD1PKVtOSF1DMihDKD1PKVtPSF0pW0NIMl1bQ0gyXVtDSDJdW0NIMl1bQ0gyXTI=

> <s_epik_cmdline>
J2VwaWtfcHl0aG9uJywgJy1waCcsICc3LjAnLCAnLXRuJywgJzgnLCAnLW1hJywgJzIwMCcsICctbWV0YWxfYmluZGluZycsICctaW1hZScsICc8aW5maWxlLm1hZT4nLCAnLW9tYWUnLCAnPG91dGZpbGUubWFlPic=

> <r_epik_Ionization_Penalty>
0.0190831

> <r_epik_Ionization_Penalty_Charging>
0.000391215

> <r_epik_Ionization_Penalty_Neutral>
0.0186919

> <r_epik_State_Penalty>
0.0148876

> <r_epik_Charging_Adjusted_Penalty>
0.0152789

> <i_epik_Tot_Q>
-1

> <i_epik_Tot_abs_Q>
1

> <r_epik_Metal_State_Penalty>
0.0144298

> <b_epik_Metal_Only>
0

> <s_lp_Force_Field>
OPLS_2005

> <r_lp_Energy>
4.43457

> <b_lp_Chiralities_Consistent>
1

> <s_lp_Variant>
AV-unprocessed.smi:2641-1

> <Gold.Version>
5.8.1

> <Gold.Id.Protein>
6NUR|6NUR_protein|mol2

> <Gold.PLP.Fitness>
44.7809

> <Gold.PLP.PLP>
-42.3054

> <Gold.PLP.part.hbond>
-1.2521

> <Gold.PLP.part.metal>
0.0000

> <Gold.PLP.part.buried>
-3.1149

> <Gold.PLP.part.nonpolar>
-38.8722

> <Gold.PLP.part.repulsive>
0.2694

> <Gold.PLP.ligand.clash>
0.0000

> <Gold.PLP.ligand.torsion>
0.2862

> <Gold.PLP.Chemscore.Hbond>
1.0000

> <Gold.PLP.Chemscore.CHOScore>
0.0000

> <Gold.PLP.Chemscore.Metal>
0.0000

> <Gold.Chemscore.Hbonds>
donor molecule, donor type, donor heavy atom, donor atom, acceptor molecule, acceptor atom, score
      L1  H     9    28       P1  8028  1.00

> <Gold.PLP.Chemscore.Internal.Correction>
0.0480

> <Gold.Rescore>
     Score         DG    S(hbond)    S(metal)    S(lipo)     H(rot)  DE(clash)    DE(int)     intcor
     12.79     -17.65       1.00        0.00     115.91       1.85       0.12       4.75       ----

> <Gold.Chemscore.Fitness>
12.7877

> <Gold.Chemscore.DG>
-17.6526

> <Gold.Chemscore.ZeroCoef>
-5.4800

> <Gold.Chemscore.Hbond>
1.0000

> <Gold.Chemscore.Metal>
0.0000

> <Gold.Chemscore.Lipo>
115.9150

> <Gold.Chemscore.Internal_Hbond>
0.0000

> <Gold.Chemscore.DEClash>
0.1162

> <Gold.Chemscore.DEInternal>
4.7487

> <Gold.Chemscore.Rot>
1.8474

> <Gold.Chemscore.Internal.Correction>
   9.000000E+99

> <Gold.Chemscore.Hbonds>
donor molecule, donor type, donor heavy atom, donor atom, acceptor molecule, acceptor atom, score
      L1  H     9    28       P1  8028  0.99

> <Gold.Chemscore.Hbond.Weighted>
-3.3399

> <Gold.Chemscore.Metal.Weighted>
-0.0000

> <Gold.Chemscore.Lipo.Weighted>
-13.5621

> <Gold.Chemscore.Internal_Hbond.Weighted>
0.0000

> <Gold.Chemscore.DEClash.Weighted>
0.1162

> <Gold.Chemscore.DEInternal.Weighted>
4.7487

> <Gold.Chemscore.Rot.Weighted>
4.7294

> <Gold.Chemscore.Internal.Correction.Weighted>
   9.000000E+99

> <Gold.Protein.RotatedTorsions>
[ 6907 6896 6895 6894 ] final  153.53 input  -60.11 | X-H torsion
[ 7974 7965 7964 7962 ] final  126.85 input  175.53 | X-H torsion
[ 8008 7997 7996 7995 ] final   79.33 input   59.86 | X-H torsion
[ 10167 10162 10161 10158 ] final   -6.47 input  -65.29 | X-H torsion
[ 10718 10713 10712 10709 ] final  116.35 input   66.30 | X-H torsion
[ 10763 10752 10751 10750 ] final  172.92 input  -60.55 | X-H torsion
[ 11005 11000 10999 10996 ] final   16.21 input  -57.11 | X-H torsion

> <Gold.Protein.ActiveResidues>
 VAL166  LYS551  ARG553  GLY616  TRP617  ASP618  TYR619  PRO620  LYS621  CYS622 
 ASP623  PHE694  ASN695  SER759  ASP760  ASP761  ALA762  ILE779  LEU786  VAL792 
 PHE793  MET794  SER795  GLU796  ALA797  LYS798  CYS799  TRP800  GLU811  SER814 

> <Gold.Protein.RotatedAtoms>
  152.0714  133.4108  159.4460 H   0  0  0  0  0  0  0  0  0  0  0  0  # atno 6907 bound_to 6896
  150.6863  134.3087  159.4746 H   0  0  0  0  0  0  0  0  0  0  0  0  # atno 6908 bound_to 6896
  152.0919  134.9401  160.0622 H   0  0  0  0  0  0  0  0  0  0  0  0  # atno 6909 bound_to 6896
  145.0572  139.3835  143.5024 H   0  0  0  0  0  0  0  0  0  0  0  0  # atno 7974 bound_to 7965
  155.8682  140.3450  155.5803 H   0  0  0  0  0  0  0  0  0  0  0  0  # atno 8008 bound_to 7997
  155.7857  140.0864  157.2055 H   0  0  0  0  0  0  0  0  0  0  0  0  # atno 8009 bound_to 7997
  154.4015  140.1492  156.3092 H   0  0  0  0  0  0  0  0  0  0  0  0  # atno 8010 bound_to 7997
  140.6998  143.6191  150.8630 H   0  0  0  0  0  0  0  0  0  0  0  0  # atno 10167 bound_to 10162
  157.6166  131.1024  150.7460 H   0  0  0  0  0  0  0  0  0  0  0  0  # atno 10718 bound_to 10713
  154.4328  135.2760  155.1901 H   0  0  0  0  0  0  0  0  0  0  0  0  # atno 10763 bound_to 10752
  154.3799  135.6090  153.5789 H   0  0  0  0  0  0  0  0  0  0  0  0  # atno 10764 bound_to 10752
  152.9837  135.5878  154.4642 H   0  0  0  0  0  0  0  0  0  0  0  0  # atno 10765 bound_to 10752
  140.4497  134.1237  155.7701 H   0  0  0  0  0  0  0  0  0  0  0  0  # atno 11005 bound_to 11000
  146.3522  140.0251  142.8655 LP  0  0  0  0  0  0  0  0  0  0  0  0  # atno 17320 bound_to 7965
  145.1454  140.9594  143.4464 LP  0  0  0  0  0  0  0  0  0  0  0  0  # atno 17321 bound_to 7965
  139.9912  143.5845  152.2909 LP  0  0  0  0  0  0  0  0  0  0  0  0  # atno 17342 bound_to 10162
  139.6501  144.7660  151.2165 LP  0  0  0  0  0  0  0  0  0  0  0  0  # atno 17343 bound_to 10162
  156.7826  130.4864  149.5398 LP  0  0  0  0  0  0  0  0  0  0  0  0  # atno 17370 bound_to 10713
  156.1291  130.6165  151.0307 LP  0  0  0  0  0  0  0  0  0  0  0  0  # atno 17371 bound_to 10713
  141.1670  133.8684  157.1686 LP  0  0  0  0  0  0  0  0  0  0  0  0  # atno 17394 bound_to 11000
  140.0015  135.0026  157.0200 LP  0  0  0  0  0  0  0  0  0  0  0  0  # atno 17395 bound_to 11000

$$$$
