AV-unprocessed.smi:3316|AV-procd|sdf|12760|dock3
  -GOLD-   2272019 93D 1   1.00000     0.00000
 Structure written by MMmdl.
 41 43  0  0  0  0  0  0  0  0  2 V2000
  148.5090  140.2782  153.9166 C   0  0  0  0  0  0  0  0  0  0  0  0
  149.7592  140.6812  154.7137 C   0  0  1  0  0  0  0  0  0  0  0  0
  149.3871  141.4315  156.0076 C   0  0  0  0  0  0  0  0  0  0  0  0
  150.3983  142.4537  156.3449 N   0  3  0  0  0  0  0  0  0  0  0  0
  150.8070  142.4608  157.7620 C   0  0  0  0  0  0  0  0  0  0  0  0
  150.8252  143.8956  158.3216 C   0  0  1  0  0  0  0  0  0  0  0  0
  149.9067  144.1007  159.5651 C   0  0  0  0  0  0  0  0  0  0  0  0
  150.8656  144.7212  160.6077 C   0  0  1  0  0  0  0  0  0  0  0  0
  151.8669  143.6570  161.0033 C   0  0  0  0  0  0  0  0  0  0  0  0
  152.6675  143.4568  159.9553 C   0  0  0  0  0  0  0  0  0  0  0  0
  152.2027  144.3831  158.8492 C   0  0  2  0  0  0  0  0  0  0  0  0
  151.7395  145.5800  159.6880 C   0  0  0  0  0  0  0  0  0  0  0  0
  150.6493  139.4752  154.9917 C   0  0  0  0  0  0  0  0  0  0  0  0
  150.2985  138.1980  154.5048 C   0  0  0  0  0  0  0  0  0  0  0  0
  151.1587  137.1138  154.7713 C   0  0  0  0  0  0  0  0  0  0  0  0
  152.3084  137.2342  155.4682 N   0  0  0  0  0  0  0  0  0  0  0  0
  152.6392  138.4569  155.9346 C   0  0  0  0  0  0  0  0  0  0  0  0
  151.8494  139.6049  155.7242 C   0  0  0  0  0  0  0  0  0  0  0  0
  148.7828  139.7936  152.9788 H   0  0  0  0  0  0  0  0  0  0  0  0
  147.9022  141.1500  153.6702 H   0  0  0  0  0  0  0  0  0  0  0  0
  147.8797  139.5863  154.4770 H   0  0  0  0  0  0  0  0  0  0  0  0
  150.3251  141.3721  154.0867 H   0  0  0  0  0  0  0  0  0  0  0  0
  148.4183  141.9194  155.8952 H   0  0  0  0  0  0  0  0  0  0  0  0
  149.2928  140.7289  156.8370 H   0  0  0  0  0  0  0  0  0  0  0  0
  151.2202  142.2743  155.7855 H   0  0  0  0  0  0  0  0  0  0  0  0
  150.1081  141.8486  158.3330 H   0  0  0  0  0  0  0  0  0  0  0  0
  151.7876  141.9943  157.8629 H   0  0  0  0  0  0  0  0  0  0  0  0
  150.4939  144.5750  157.5338 H   0  0  0  0  0  0  0  0  0  0  0  0
  149.0884  144.7828  159.3307 H   0  0  0  0  0  0  0  0  0  0  0  0
  149.4675  143.1697  159.9271 H   0  0  0  0  0  0  0  0  0  0  0  0
  150.4009  145.2466  161.4424 H   0  0  0  0  0  0  0  0  0  0  0  0
  151.8834  143.1486  161.9562 H   0  0  0  0  0  0  0  0  0  0  0  0
  153.4776  142.7479  159.8667 H   0  0  0  0  0  0  0  0  0  0  0  0
  152.9569  144.6111  158.0955 H   0  0  0  0  0  0  0  0  0  0  0  0
  151.1828  146.3307  159.1233 H   0  0  0  0  0  0  0  0  0  0  0  0
  152.5581  146.0735  160.2164 H   0  0  0  0  0  0  0  0  0  0  0  0
  149.3913  138.0442  153.9388 H   0  0  0  0  0  0  0  0  0  0  0  0
  150.9175  136.1242  154.4126 H   0  0  0  0  0  0  0  0  0  0  0  0
  153.5627  138.5238  156.4904 H   0  0  0  0  0  0  0  0  0  0  0  0
  152.1635  140.5597  156.1192 H   0  0  0  0  0  0  0  0  0  0  0  0
  150.0380  143.3657  156.1031 H   0  0  0  0  0  0  0  0  0  0  0  0
  1  2  1  0  0  0  0
  1 19  1  0  0  0  0
  1 20  1  0  0  0  0
  1 21  1  0  0  0  0
  2  3  1  0  0  0  0
  2 13  1  0  0  0  0
  2 22  1  0  0  0  0
  3  4  1  0  0  0  0
  3 23  1  0  0  0  0
  3 24  1  0  0  0  0
  4  5  1  0  0  0  0
  4 25  1  0  0  0  0
  4 41  1  0  0  0  0
  5  6  1  0  0  0  0
  5 26  1  0  0  0  0
  5 27  1  0  0  0  0
  6 11  1  0  0  0  0
  6  7  1  0  0  0  0
  6 28  1  0  0  0  0
  7  8  1  0  0  0  0
  7 29  1  0  0  0  0
  7 30  1  0  0  0  0
  8 12  1  0  0  0  0
  8  9  1  0  0  0  0
  8 31  1  0  0  0  0
  9 10  2  0  0  0  0
  9 32  1  0  0  0  0
 10 11  1  0  0  0  0
 10 33  1  0  0  0  0
 11 12  1  0  0  0  0
 11 34  1  0  0  0  0
 12 35  1  0  0  0  0
 12 36  1  0  0  0  0
 13 18  1  0  0  0  0
 13 14  2  0  0  0  0
 14 15  1  0  0  0  0
 14 37  1  0  0  0  0
 15 16  2  0  0  0  0
 15 38  1  0  0  0  0
 16 17  1  0  0  0  0
 17 18  2  0  0  0  0
 17 39  1  0  0  0  0
 18 40  1  0  0  0  0
M  CHG  1   4   1
M  END
> <s_m_source_file>
AV-unprocessed.smi

> <i_m_source_file_index>
3316

> <i_lp_mmshare_version>
43012

> <i_f3d_flags>
0

> <s_epik_input>
W2NIXTFbY0hdbltjSF1bY0hdYzFbQ0BIXShbQ0gzXSlbQ0gyXVtOSF1bQ0gyXVtDQEhdKFtDSDJdW0NASF0yMylbQ0BIXShbQ0gyXTMpW0NIXT1bQ0hdMg==

> <s_epik_cmdline>
J2VwaWtfcHl0aG9uJywgJy1waCcsICc3LjAnLCAnLXRuJywgJzgnLCAnLW1hJywgJzIwMCcsICctbWV0YWxfYmluZGluZycsICctaW1hZScsICc8aW5maWxlLm1hZT4nLCAnLW9tYWUnLCAnPG91dGZpbGUubWFlPic=

> <r_lp_tautomer_probability>
1

> <r_epik_Ionization_Penalty>
0.00280406

> <r_epik_Ionization_Penalty_Charging>
0.000446589

> <r_epik_Ionization_Penalty_Neutral>
0.00235747

> <r_epik_State_Penalty>
-0

> <r_epik_Charging_Adjusted_Penalty>
0.000446589

> <i_epik_Tot_Q>
1

> <i_epik_Tot_abs_Q>
1

> <r_epik_Metal_State_Penalty>
-0

> <b_epik_Metal_Only>
0

> <s_lp_Force_Field>
OPLS_2005

> <r_lp_Energy>
65.5471

> <b_lp_Chiralities_Consistent>
1

> <s_lp_Variant>
AV-unprocessed.smi:3316-8

> <Gold.Version>
5.8.1

> <Gold.Id.Protein>
6NUR|6NUR_protein|mol2

> <Gold.PLP.Fitness>
54.8420

> <Gold.PLP.PLP>
-48.7189

> <Gold.PLP.part.hbond>
-2.0000

> <Gold.PLP.part.metal>
0.0000

> <Gold.PLP.part.buried>
-0.3434

> <Gold.PLP.part.nonpolar>
-46.1246

> <Gold.PLP.part.repulsive>
0.1855

> <Gold.PLP.ligand.clash>
0.0000

> <Gold.PLP.ligand.torsion>
1.8348

> <Gold.PLP.Chemscore.Hbond>
2.7520

> <Gold.PLP.Chemscore.CHOScore>
0.4828

> <Gold.PLP.Chemscore.Metal>
0.0000

> <Gold.Chemscore.Hbonds>
donor molecule, donor type, donor heavy atom, donor atom, acceptor molecule, acceptor atom, score
      L1  H     4    41       P1  8028  2.00
      P1  H 10752 10765       L1    16  0.38

> <Gold.PLP.Chemscore.Internal.Correction>
0.0882

> <Gold.Rescore>
     Score         DG    S(hbond)    S(metal)    S(lipo)     H(rot)  DE(clash)    DE(int)     intcor
     23.12     -24.83       1.91        0.00     140.62       1.36       0.02       1.68       ----

> <Gold.Chemscore.Fitness>
23.1240

> <Gold.Chemscore.DG>
-24.8306

> <Gold.Chemscore.ZeroCoef>
-5.4800

> <Gold.Chemscore.Hbond>
1.9133

> <Gold.Chemscore.Metal>
0.0000

> <Gold.Chemscore.Lipo>
140.6164

> <Gold.Chemscore.Internal_Hbond>
0.0000

> <Gold.Chemscore.DEClash>
0.0235

> <Gold.Chemscore.DEInternal>
1.6830

> <Gold.Chemscore.Rot>
1.3640

> <Gold.Chemscore.Internal.Correction>
   9.000000E+99

> <Gold.Chemscore.Hbonds>
donor molecule, donor type, donor heavy atom, donor atom, acceptor molecule, acceptor atom, score
      L1  H     4    41       P1  8028  1.00
      P1  H 10752 10765       L1    16  0.02

> <Gold.Chemscore.Hbond.Weighted>
-6.3904

> <Gold.Chemscore.Metal.Weighted>
-0.0000

> <Gold.Chemscore.Lipo.Weighted>
-16.4521

> <Gold.Chemscore.Internal_Hbond.Weighted>
0.0000

> <Gold.Chemscore.DEClash.Weighted>
0.0235

> <Gold.Chemscore.DEInternal.Weighted>
1.6830

> <Gold.Chemscore.Rot.Weighted>
3.4919

> <Gold.Chemscore.Internal.Correction.Weighted>
   9.000000E+99

> <Gold.Protein.RotatedTorsions>
[ 6907 6896 6895 6894 ] final -158.55 input  -60.11 | X-H torsion
[ 7974 7965 7964 7962 ] final -109.29 input  175.53 | X-H torsion
[ 8008 7997 7996 7995 ] final   59.27 input   59.86 | X-H torsion
[ 10167 10162 10161 10158 ] final -100.02 input  -65.29 | X-H torsion
[ 10718 10713 10712 10709 ] final  -38.16 input   66.30 | X-H torsion
[ 10763 10752 10751 10750 ] final -178.51 input  -60.55 | X-H torsion
[ 11005 11000 10999 10996 ] final -120.60 input  -57.11 | X-H torsion

> <Gold.Protein.ActiveResidues>
 VAL166  LYS551  ARG553  GLY616  TRP617  ASP618  TYR619  PRO620  LYS621  CYS622 
 ASP623  PHE694  ASN695  SER759  ASP760  ASP761  ALA762  ILE779  LEU786  VAL792 
 PHE793  MET794  SER795  GLU796  ALA797  LYS798  CYS799  TRP800  GLU811  SER814 

> <Gold.Protein.RotatedAtoms>
  151.3199  133.4044  159.2653 H   0  0  0  0  0  0  0  0  0  0  0  0  # atno 6907 bound_to 6896
  151.0043  134.9348  159.7982 H   0  0  0  0  0  0  0  0  0  0  0  0  # atno 6908 bound_to 6896
  152.5284  134.3163  159.9184 H   0  0  0  0  0  0  0  0  0  0  0  0  # atno 6909 bound_to 6896
  145.1823  140.8977  143.3473 H   0  0  0  0  0  0  0  0  0  0  0  0  # atno 7974 bound_to 7965
  155.5635  140.3488  155.4497 H   0  0  0  0  0  0  0  0  0  0  0  0  # atno 8008 bound_to 7997
  156.0497  140.1315  157.0090 H   0  0  0  0  0  0  0  0  0  0  0  0  # atno 8009 bound_to 7997
  154.4428  140.1007  156.6343 H   0  0  0  0  0  0  0  0  0  0  0  0  # atno 8010 bound_to 7997
  140.2563  143.3438  152.0668 H   0  0  0  0  0  0  0  0  0  0  0  0  # atno 10167 bound_to 10162
  156.3070  130.4247  149.8087 H   0  0  0  0  0  0  0  0  0  0  0  0  # atno 10718 bound_to 10713
  154.5468  135.2810  155.1045 H   0  0  0  0  0  0  0  0  0  0  0  0  # atno 10763 bound_to 10752
  154.2507  135.6340  153.5243 H   0  0  0  0  0  0  0  0  0  0  0  0  # atno 10764 bound_to 10752
  152.9992  135.5582  154.6022 H   0  0  0  0  0  0  0  0  0  0  0  0  # atno 10765 bound_to 10752
  141.0132  134.0234  157.3386 H   0  0  0  0  0  0  0  0  0  0  0  0  # atno 11005 bound_to 11000
  145.0124  139.3498  143.6113 LP  0  0  0  0  0  0  0  0  0  0  0  0  # atno 17320 bound_to 7965
  146.3451  139.9392  142.8743 LP  0  0  0  0  0  0  0  0  0  0  0  0  # atno 17321 bound_to 7965
  139.5030  144.6747  151.6157 LP  0  0  0  0  0  0  0  0  0  0  0  0  # atno 17342 bound_to 10162
  140.6001  143.9625  150.6380 LP  0  0  0  0  0  0  0  0  0  0  0  0  # atno 17343 bound_to 10162
  156.5445  130.8314  151.3279 LP  0  0  0  0  0  0  0  0  0  0  0  0  # atno 17370 bound_to 10713
  157.7382  130.9809  150.2237 LP  0  0  0  0  0  0  0  0  0  0  0  0  # atno 17371 bound_to 10713
  139.9102  135.0188  156.7657 LP  0  0  0  0  0  0  0  0  0  0  0  0  # atno 17394 bound_to 11000
  140.6699  133.9569  155.7851 LP  0  0  0  0  0  0  0  0  0  0  0  0  # atno 17395 bound_to 11000

$$$$
