AV-unprocessed.smi:3225|AV-procd|sdf|12312|dock5
  -GOLD-   2272018153D 1   1.00000     0.00000
 Structure written by MMmdl.
 41 42  0  0  0  0  0  0  0  0  2 V2000
  143.9381  136.6981  152.6158 C   0  0  0  0  0  0  0  0  0  0  0  0
  145.2759  136.2104  152.0358 C   0  0  1  0  0  0  0  0  0  0  0  0
  145.1295  135.5755  150.6378 C   0  0  0  0  0  0  0  0  0  0  0  0
  145.1500  134.1240  150.6689 N   0  0  0  0  0  0  0  0  0  0  0  0
  144.1334  133.2430  150.3640 C   0  0  0  0  0  0  0  0  0  0  0  0
  144.6261  131.9809  150.5328 C   0  0  0  0  0  0  0  0  0  0  0  0
  145.9726  132.1945  150.9404 C   0  0  0  0  0  0  0  0  0  0  0  0
  146.2835  133.4785  151.0189 N   0  0  0  0  0  0  0  0  0  0  0  0
  146.2362  137.3341  151.9765 N   0  3  0  0  0  0  0  0  0  0  0  0
  146.1392  138.2896  153.0980 C   0  0  0  0  0  0  0  0  0  0  0  0
  147.4038  139.1512  153.2014 C   0  0  0  0  0  0  0  0  0  0  0  0
  148.3401  138.6799  154.3269 C   0  0  0  0  0  0  0  0  0  0  0  0
  148.9264  139.8060  155.0494 N   0  0  0  0  0  0  0  0  0  0  0  0
  148.1095  140.6386  155.9168 C   0  0  0  0  0  0  0  0  0  0  0  0
  149.0974  141.5817  156.6198 C   0  0  0  0  0  0  0  0  0  0  0  0
  150.4424  141.3938  155.9090 C   0  0  0  0  0  0  0  0  0  0  0  0
  150.2097  140.1843  155.0207 C   0  0  0  0  0  0  0  0  0  0  0  0
  151.1074  139.6502  154.3710 O   0  0  0  0  0  0  0  0  0  0  0  0
  143.2336  135.8756  152.7428 H   0  0  0  0  0  0  0  0  0  0  0  0
  143.4707  137.4397  151.9673 H   0  0  0  0  0  0  0  0  0  0  0  0
  144.0798  137.1545  153.5962 H   0  0  0  0  0  0  0  0  0  0  0  0
  145.6657  135.4486  152.7134 H   0  0  0  0  0  0  0  0  0  0  0  0
  144.1957  135.8958  150.1730 H   0  0  0  0  0  0  0  0  0  0  0  0
  145.9347  135.9126  149.9832 H   0  0  0  0  0  0  0  0  0  0  0  0
  143.1545  133.5824  150.0585 H   0  0  0  0  0  0  0  0  0  0  0  0
  144.1047  131.0466  150.3851 H   0  0  0  0  0  0  0  0  0  0  0  0
  146.7280  131.4603  151.1787 H   0  0  0  0  0  0  0  0  0  0  0  0
  147.1714  136.9527  151.9621 H   0  0  0  0  0  0  0  0  0  0  0  0
  145.2658  138.9265  152.9512 H   0  0  0  0  0  0  0  0  0  0  0  0
  145.9877  137.7369  154.0264 H   0  0  0  0  0  0  0  0  0  0  0  0
  147.9327  139.1298  152.2475 H   0  0  0  0  0  0  0  0  0  0  0  0
  147.1238  140.1911  153.3768 H   0  0  0  0  0  0  0  0  0  0  0  0
  147.7915  138.0481  155.0265 H   0  0  0  0  0  0  0  0  0  0  0  0
  149.1395  138.0599  153.9175 H   0  0  0  0  0  0  0  0  0  0  0  0
  147.3938  141.1977  155.3127 H   0  0  0  0  0  0  0  0  0  0  0  0
  147.5534  140.0347  156.6350 H   0  0  0  0  0  0  0  0  0  0  0  0
  148.7601  142.6179  156.5763 H   0  0  0  0  0  0  0  0  0  0  0  0
  149.1909  141.3131  157.6727 H   0  0  0  0  0  0  0  0  0  0  0  0
  150.6926  142.2574  155.2921 H   0  0  0  0  0  0  0  0  0  0  0  0
  151.2569  141.2169  156.6120 H   0  0  0  0  0  0  0  0  0  0  0  0
  146.0832  137.8378  151.1145 H   0  0  0  0  0  0  0  0  0  0  0  0
  1  2  1  0  0  0  0
  1 19  1  0  0  0  0
  1 20  1  0  0  0  0
  1 21  1  0  0  0  0
  2  3  1  0  0  0  0
  2  9  1  0  0  0  0
  2 22  1  0  0  0  0
  3  4  1  0  0  0  0
  3 23  1  0  0  0  0
  3 24  1  0  0  0  0
  4  8  1  0  0  0  0
  4  5  1  0  0  0  0
  5  6  2  0  0  0  0
  5 25  1  0  0  0  0
  6  7  1  0  0  0  0
  6 26  1  0  0  0  0
  7  8  2  0  0  0  0
  7 27  1  0  0  0  0
  9 10  1  0  0  0  0
  9 28  1  0  0  0  0
  9 41  1  0  0  0  0
 10 11  1  0  0  0  0
 10 29  1  0  0  0  0
 10 30  1  0  0  0  0
 11 12  1  0  0  0  0
 11 31  1  0  0  0  0
 11 32  1  0  0  0  0
 12 13  1  0  0  0  0
 12 33  1  0  0  0  0
 12 34  1  0  0  0  0
 13 17  1  0  0  0  0
 13 14  1  0  0  0  0
 14 15  1  0  0  0  0
 14 35  1  0  0  0  0
 14 36  1  0  0  0  0
 15 16  1  0  0  0  0
 15 37  1  0  0  0  0
 15 38  1  0  0  0  0
 16 17  1  0  0  0  0
 16 39  1  0  0  0  0
 16 40  1  0  0  0  0
 17 18  2  0  0  0  0
M  CHG  1   9   1
M  END
> <s_m_source_file>
AV-unprocessed.smi

> <i_m_source_file_index>
3225

> <i_lp_mmshare_version>
43012

> <i_f3d_flags>
0

> <s_epik_input>
bjFbY0hdW2NIXVtjSF1uMVtDSDJdW0NAQEhdKFtDSDNdKVtOSF1bQ0gyXVtDSDJdW0NIMl1OMltDSDJdW0NIMl1bQ0gyXUMyPU8=

> <s_epik_cmdline>
J2VwaWtfcHl0aG9uJywgJy1waCcsICc3LjAnLCAnLXRuJywgJzgnLCAnLW1hJywgJzIwMCcsICctbWV0YWxfYmluZGluZycsICctaW1hZScsICc8aW5maWxlLm1hZT4nLCAnLW9tYWUnLCAnPG91dGZpbGUubWFlPic=

> <r_lp_tautomer_probability>
1

> <r_epik_Ionization_Penalty>
0.00490443

> <r_epik_Ionization_Penalty_Charging>
0.00490019

> <r_epik_Ionization_Penalty_Neutral>
4.24076e-06

> <r_epik_State_Penalty>
0.00355741

> <r_epik_Charging_Adjusted_Penalty>
0.0084576

> <i_epik_Tot_Q>
1

> <i_epik_Tot_abs_Q>
1

> <r_epik_Metal_State_Penalty>
-0

> <b_epik_Metal_Only>
0

> <s_lp_Force_Field>
OPLS_2005

> <r_lp_Energy>
22.636

> <b_lp_Chiralities_Consistent>
1

> <s_lp_Variant>
AV-unprocessed.smi:3225-2

> <Gold.Version>
5.8.1

> <Gold.Id.Protein>
6NUR|6NUR_protein|mol2

> <Gold.PLP.Fitness>
44.7869

> <Gold.PLP.PLP>
-32.9573

> <Gold.PLP.part.hbond>
-2.0000

> <Gold.PLP.part.metal>
0.0000

> <Gold.PLP.part.buried>
-3.4373

> <Gold.PLP.part.nonpolar>
-27.7190

> <Gold.PLP.part.repulsive>
0.3721

> <Gold.PLP.ligand.clash>
0.0000

> <Gold.PLP.ligand.torsion>
1.6147

> <Gold.PLP.Chemscore.Hbond>
3.0000

> <Gold.PLP.Chemscore.CHOScore>
2.0000

> <Gold.PLP.Chemscore.Metal>
0.0000

> <Gold.Chemscore.Hbonds>
donor molecule, donor type, donor heavy atom, donor atom, acceptor molecule, acceptor atom, score
      L1  H     9    28       P1  7948  2.00
      P1  H  7989  7998       L1    18  1.00
      L1  C     5    25       P1 10186  1.00
      L1  C     7    27       P1 10747  1.00

> <Gold.PLP.Chemscore.Internal.Correction>
0.0591

> <Gold.Rescore>
     Score         DG    S(hbond)    S(metal)    S(lipo)     H(rot)  DE(clash)    DE(int)     intcor
     13.57     -15.09       1.99        0.00      73.29       2.19       0.01       1.52       ----

> <Gold.Chemscore.Fitness>
13.5666

> <Gold.Chemscore.DG>
-15.0905

> <Gold.Chemscore.ZeroCoef>
-5.4800

> <Gold.Chemscore.Hbond>
1.9875

> <Gold.Chemscore.Metal>
0.0000

> <Gold.Chemscore.Lipo>
73.2867

> <Gold.Chemscore.Internal_Hbond>
0.0000

> <Gold.Chemscore.DEClash>
0.0089

> <Gold.Chemscore.DEInternal>
1.5150

> <Gold.Chemscore.Rot>
2.1884

> <Gold.Chemscore.Internal.Correction>
   9.000000E+99

> <Gold.Chemscore.Hbonds>
donor molecule, donor type, donor heavy atom, donor atom, acceptor molecule, acceptor atom, score
      L1  H     9    28       P1  7948  1.00
      P1  H  7989  7998       L1    18  0.34

> <Gold.Chemscore.Hbond.Weighted>
-6.6383

> <Gold.Chemscore.Metal.Weighted>
-0.0000

> <Gold.Chemscore.Lipo.Weighted>
-8.5745

> <Gold.Chemscore.Internal_Hbond.Weighted>
0.0000

> <Gold.Chemscore.DEClash.Weighted>
0.0089

> <Gold.Chemscore.DEInternal.Weighted>
1.5150

> <Gold.Chemscore.Rot.Weighted>
5.6023

> <Gold.Chemscore.Internal.Correction.Weighted>
   9.000000E+99

> <Gold.Protein.RotatedTorsions>
[ 6907 6896 6895 6894 ] final  148.64 input  -60.11 | X-H torsion
[ 7974 7965 7964 7962 ] final    5.85 input  175.53 | X-H torsion
[ 8008 7997 7996 7995 ] final  -14.04 input   59.86 | X-H torsion
[ 10167 10162 10161 10158 ] final  -17.19 input  -65.29 | X-H torsion
[ 10718 10713 10712 10709 ] final  -30.03 input   66.30 | X-H torsion
[ 10763 10752 10751 10750 ] final   88.93 input  -60.55 | X-H torsion
[ 11005 11000 10999 10996 ] final  129.60 input  -57.11 | X-H torsion

> <Gold.Protein.ActiveResidues>
 VAL166  LYS551  ARG553  GLY616  TRP617  ASP618  TYR619  PRO620  LYS621  CYS622 
 ASP623  PHE694  ASN695  SER759  ASP760  ASP761  ALA762  ILE779  LEU786  VAL792 
 PHE793  MET794  SER795  GLU796  ALA797  LYS798  CYS799  TRP800  GLU811  SER814 

> <Gold.Protein.RotatedAtoms>
  152.1387  133.4451  159.4755 H   0  0  0  0  0  0  0  0  0  0  0  0  # atno 6907 bound_to 6896
  150.6884  134.2332  159.4452 H   0  0  0  0  0  0  0  0  0  0  0  0  # atno 6908 bound_to 6896
  152.0221  134.9816  160.0621 H   0  0  0  0  0  0  0  0  0  0  0  0  # atno 6909 bound_to 6896
  146.2438  140.0322  142.8389 H   0  0  0  0  0  0  0  0  0  0  0  0  # atno 7974 bound_to 7965
  154.5242  140.2233  155.8920 H   0  0  0  0  0  0  0  0  0  0  0  0  # atno 8008 bound_to 7997
  156.1695  140.3125  155.8913 H   0  0  0  0  0  0  0  0  0  0  0  0  # atno 8009 bound_to 7997
  155.3587  140.0460  157.3037 H   0  0  0  0  0  0  0  0  0  0  0  0  # atno 8010 bound_to 7997
  140.7244  143.5040  150.9833 H   0  0  0  0  0  0  0  0  0  0  0  0  # atno 10167 bound_to 10162
  156.4049  130.4397  149.7295 H   0  0  0  0  0  0  0  0  0  0  0  0  # atno 10718 bound_to 10713
  153.1818  135.4489  155.0038 H   0  0  0  0  0  0  0  0  0  0  0  0  # atno 10763 bound_to 10752
  154.8035  135.3265  154.7493 H   0  0  0  0  0  0  0  0  0  0  0  0  # atno 10764 bound_to 10752
  153.7956  135.6966  153.4919 H   0  0  0  0  0  0  0  0  0  0  0  0  # atno 10765 bound_to 10752
  139.9625  134.9599  156.9172 H   0  0  0  0  0  0  0  0  0  0  0  0  # atno 11005 bound_to 11000
  145.1144  140.9425  143.4637 LP  0  0  0  0  0  0  0  0  0  0  0  0  # atno 17320 bound_to 7965
  145.0543  139.3156  143.5912 LP  0  0  0  0  0  0  0  0  0  0  0  0  # atno 17321 bound_to 7965
  139.8751  143.7143  152.3163 LP  0  0  0  0  0  0  0  0  0  0  0  0  # atno 17342 bound_to 10162
  139.7406  144.7560  151.0659 LP  0  0  0  0  0  0  0  0  0  0  0  0  # atno 17343 bound_to 10162
  156.4296  130.7809  151.2828 LP  0  0  0  0  0  0  0  0  0  0  0  0  # atno 17370 bound_to 10713
  157.7505  131.0158  150.3518 LP  0  0  0  0  0  0  0  0  0  0  0  0  # atno 17371 bound_to 10713
  140.5470  134.0664  155.7358 LP  0  0  0  0  0  0  0  0  0  0  0  0  # atno 17394 bound_to 11000
  141.1302  133.9314  157.2550 LP  0  0  0  0  0  0  0  0  0  0  0  0  # atno 17395 bound_to 11000

$$$$
