AV-unprocessed.smi:40|AV-procd|sdf|381|dock10
  -GOLD-   2262016243D 1   1.00000     0.00000
 Structure written by MMmdl.
 47 48  0  0  0  0  0  0  0  0  1 V2000
  152.1583  144.7956  160.4747 C   0  0  0  0  0  0  0  0  0  0  0  0
  152.1474  145.1187  158.9749 C   0  0  0  0  0  0  0  0  0  0  0  0
  152.2346  143.8780  158.0712 C   0  0  0  0  0  0  0  0  0  0  0  0
  151.0240  142.9353  158.1928 C   0  0  0  0  0  0  0  0  0  0  0  0
  150.8879  141.9781  157.0011 C   0  0  0  0  0  0  0  0  0  0  0  0
  149.7649  141.1363  157.2017 O   0  0  0  0  0  0  0  0  0  0  0  0
  149.2914  140.3781  156.1965 C   0  0  0  0  0  0  0  0  0  0  0  0
  149.7847  140.3440  155.0693 O   0  0  0  0  0  0  0  0  0  0  0  0
  148.1516  139.5807  156.6199 N   0  0  0  0  0  0  0  0  0  0  0  0
  147.4095  138.7021  155.9016 C   0  0  0  0  0  0  0  0  0  0  0  0
  146.0919  138.7933  155.8061 N   0  0  0  0  0  0  0  0  0  0  0  0
  145.3161  137.9361  155.0739 C   0  0  0  0  0  0  0  0  0  0  0  0
  144.0948  138.0779  155.0243 O   0  0  0  0  0  0  0  0  0  0  0  0
  145.9750  136.8961  154.3779 N   0  0  0  0  0  0  0  0  0  0  0  0
  145.1371  135.9381  153.5557 C   0  0  2  0  0  0  0  0  0  0  0  0
  145.9541  134.9200  153.0503 O   0  0  0  0  0  0  0  0  0  0  0  0
  146.0410  135.0182  151.6321 C   0  0  1  0  0  0  0  0  0  0  0  0
  146.3294  133.6394  151.0274 C   0  0  0  0  0  0  0  0  0  0  0  0
  144.6860  135.6046  151.2434 C   0  0  2  0  0  0  0  0  0  0  0  0
  144.6822  136.1740  149.9477 O   0  0  0  0  0  0  0  0  0  0  0  0
  144.4356  136.6176  152.3558 C   0  0  2  0  0  0  0  0  0  0  0  0
  144.9603  137.8993  152.0410 O   0  0  0  0  0  0  0  0  0  0  0  0
  147.3575  136.7964  154.4436 C   0  0  0  0  0  0  0  0  0  0  0  0
  148.0984  137.6576  155.1739 C   0  0  0  0  0  0  0  0  0  0  0  0
  149.4370  137.5427  155.2202 F   0  0  0  0  0  0  0  0  0  0  0  0
  144.4387  135.4713  154.2523 H   0  0  0  0  0  0  0  0  0  0  0  0
  146.8387  135.7163  151.3737 H   0  0  0  0  0  0  0  0  0  0  0  0
  143.9229  134.8263  151.2926 H   0  0  0  0  0  0  0  0  0  0  0  0
  143.3716  136.7259  152.5683 H   0  0  0  0  0  0  0  0  0  0  0  0
  152.1588  145.7113  161.0663 H   0  0  0  0  0  0  0  0  0  0  0  0
  153.0454  144.2241  160.7483 H   0  0  0  0  0  0  0  0  0  0  0  0
  151.2813  144.2186  160.7677 H   0  0  0  0  0  0  0  0  0  0  0  0
  151.2542  145.6939  158.7280 H   0  0  0  0  0  0  0  0  0  0  0  0
  152.9942  145.7697  158.7554 H   0  0  0  0  0  0  0  0  0  0  0  0
  152.3193  144.2175  157.0383 H   0  0  0  0  0  0  0  0  0  0  0  0
  153.1536  143.3304  158.2840 H   0  0  0  0  0  0  0  0  0  0  0  0
  151.1146  142.3418  159.1024 H   0  0  0  0  0  0  0  0  0  0  0  0
  150.1079  143.5179  158.2962 H   0  0  0  0  0  0  0  0  0  0  0  0
  150.7764  142.5387  156.0719 H   0  0  0  0  0  0  0  0  0  0  0  0
  151.7879  141.3684  156.9109 H   0  0  0  0  0  0  0  0  0  0  0  0
  147.8766  139.7322  157.5795 H   0  0  0  0  0  0  0  0  0  0  0  0
  146.3729  133.6907  149.9393 H   0  0  0  0  0  0  0  0  0  0  0  0
  145.5571  132.9190  151.2985 H   0  0  0  0  0  0  0  0  0  0  0  0
  147.2852  133.2525  151.3813 H   0  0  0  0  0  0  0  0  0  0  0  0
  144.6510  137.1148  150.0340 H   0  0  0  0  0  0  0  0  0  0  0  0
  144.8191  138.0610  151.1208 H   0  0  0  0  0  0  0  0  0  0  0  0
  147.8776  136.0220  153.9012 H   0  0  0  0  0  0  0  0  0  0  0  0
  1  2  1  0  0  0  0
  1 30  1  0  0  0  0
  1 31  1  0  0  0  0
  1 32  1  0  0  0  0
  2  3  1  0  0  0  0
  2 33  1  0  0  0  0
  2 34  1  0  0  0  0
  3  4  1  0  0  0  0
  3 35  1  0  0  0  0
  3 36  1  0  0  0  0
  4  5  1  0  0  0  0
  4 37  1  0  0  0  0
  4 38  1  0  0  0  0
  5  6  1  0  0  0  0
  5 39  1  0  0  0  0
  5 40  1  0  0  0  0
  6  7  1  0  0  0  0
  7  8  2  0  0  0  0
  7  9  1  0  0  0  0
  9 10  1  0  0  0  0
  9 41  1  0  0  0  0
 10 24  1  0  0  0  0
 10 11  2  0  0  0  0
 11 12  1  0  0  0  0
 12 13  2  0  0  0  0
 12 14  1  0  0  0  0
 14 15  1  0  0  0  0
 14 23  1  0  0  0  0
 15 26  1  0  0  0  0
 15 21  1  0  0  0  0
 15 16  1  0  0  0  0
 16 17  1  0  0  0  0
 17 27  1  0  0  0  0
 17 18  1  0  0  0  0
 17 19  1  0  0  0  0
 18 42  1  0  0  0  0
 18 43  1  0  0  0  0
 18 44  1  0  0  0  0
 19 28  1  0  0  0  0
 19 20  1  0  0  0  0
 19 21  1  0  0  0  0
 20 45  1  0  0  0  0
 21 29  1  0  0  0  0
 21 22  1  0  0  0  0
 22 46  1  0  0  0  0
 23 24  2  0  0  0  0
 23 47  1  0  0  0  0
 24 25  1  0  0  0  0
M  END
> <s_m_source_file>
AV-unprocessed.smi

> <i_m_source_file_index>
40

> <i_lp_mmshare_version>
43012

> <i_f3d_flags>
0

> <s_epik_input>
W0NIM11bQ0gyXVtDSDJdW0NIMl1bQ0gyXU9DKD1PKVtOSF1jMW5jKD1PKW4oW2NIXWMxRilbQ0BASF0yT1tDQEhdKFtDSDNdKVtDQEBIXShbT0hdKVtDQEhdMltPSF0=

> <s_epik_cmdline>
J2VwaWtfcHl0aG9uJywgJy1waCcsICc3LjAnLCAnLXRuJywgJzgnLCAnLW1hJywgJzIwMCcsICctbWV0YWxfYmluZGluZycsICctaW1hZScsICc8aW5maWxlLm1hZT4nLCAnLW9tYWUnLCAnPG91dGZpbGUubWFlPic=

> <r_lp_tautomer_probability>
1

> <r_epik_Ionization_Penalty>
2.29506e-06

> <r_epik_Ionization_Penalty_Charging>
8.26867e-09

> <r_epik_Ionization_Penalty_Neutral>
2.2868e-06

> <r_epik_State_Penalty>
-0

> <r_epik_Charging_Adjusted_Penalty>
8.26867e-09

> <i_epik_Tot_Q>
0

> <i_epik_Tot_abs_Q>
0

> <r_epik_Metal_State_Penalty>
-0

> <b_epik_Metal_Only>
0

> <s_epik_Chemistry_Notes>
This compound has an ester and may undergo hydrolysis at high or low pH. This compound contains an acetal/aminal-like group ( X-CH(R)-Y where X, Y are N, S, or O) that may be acid/base labile, releasing an aldehyde.

> <s_lp_Force_Field>
OPLS_2005

> <r_lp_Energy>
41.7027

> <b_lp_Chiralities_Consistent>
1

> <s_lp_Variant>
AV-unprocessed.smi:40-15

> <Gold.Version>
5.8.1

> <Gold.Id.Protein>
6NUR|6NUR_protein|mol2

> <Gold.PLP.Fitness>
42.5501

> <Gold.PLP.PLP>
-34.8161

> <Gold.PLP.part.hbond>
-3.9259

> <Gold.PLP.part.metal>
0.0000

> <Gold.PLP.part.buried>
-4.9931

> <Gold.PLP.part.nonpolar>
-26.4857

> <Gold.PLP.part.repulsive>
0.3749

> <Gold.PLP.ligand.clash>
0.0000

> <Gold.PLP.ligand.torsion>
0.6735

> <Gold.PLP.Chemscore.Hbond>
2.0000

> <Gold.PLP.Chemscore.CHOScore>
0.9653

> <Gold.PLP.Chemscore.Metal>
0.0000

> <Gold.Chemscore.Hbonds>
donor molecule, donor type, donor heavy atom, donor atom, acceptor molecule, acceptor atom, score
      L1  H    20    45       P1 10171  1.00
      L1  H    22    46       P1 10171  1.00
      L1  C    23    47       P1  7948  0.95

> <Gold.PLP.Chemscore.Internal.Correction>
0.1852

> <Gold.Rescore>
     Score         DG    S(hbond)    S(metal)    S(lipo)     H(rot)  DE(clash)    DE(int)     intcor
     10.48     -11.55       1.95        0.00      77.05       3.70       0.01       1.06       ----

> <Gold.Chemscore.Fitness>
10.4829

> <Gold.Chemscore.DG>
-11.5526

> <Gold.Chemscore.ZeroCoef>
-5.4800

> <Gold.Chemscore.Hbond>
1.9519

> <Gold.Chemscore.Metal>
0.0000

> <Gold.Chemscore.Lipo>
77.0457

> <Gold.Chemscore.Internal_Hbond>
0.0000

> <Gold.Chemscore.DEClash>
0.0098

> <Gold.Chemscore.DEInternal>
1.0599

> <Gold.Chemscore.Rot>
3.6957

> <Gold.Chemscore.Internal.Correction>
   9.000000E+99

> <Gold.Chemscore.Hbonds>
donor molecule, donor type, donor heavy atom, donor atom, acceptor molecule, acceptor atom, score
      L1  H    20    45       P1 10171  0.94
      L1  H    22    46       P1 10171  0.96
      P1  H  7989  7998       L1     8  0.02

> <Gold.Chemscore.Hbond.Weighted>
-6.5192

> <Gold.Chemscore.Metal.Weighted>
-0.0000

> <Gold.Chemscore.Lipo.Weighted>
-9.0143

> <Gold.Chemscore.Internal_Hbond.Weighted>
0.0000

> <Gold.Chemscore.DEClash.Weighted>
0.0098

> <Gold.Chemscore.DEInternal.Weighted>
1.0599

> <Gold.Chemscore.Rot.Weighted>
9.4610

> <Gold.Chemscore.Internal.Correction.Weighted>
   9.000000E+99

> <Gold.Protein.RotatedTorsions>
[ 6907 6896 6895 6894 ] final  171.57 input  -60.11 | X-H torsion
[ 7974 7965 7964 7962 ] final   23.16 input  175.53 | X-H torsion
[ 8008 7997 7996 7995 ] final -120.50 input   59.86 | X-H torsion
[ 10167 10162 10161 10158 ] final -146.41 input  -65.29 | X-H torsion
[ 10718 10713 10712 10709 ] final  -31.89 input   66.30 | X-H torsion
[ 10763 10752 10751 10750 ] final   68.04 input  -60.55 | X-H torsion
[ 11005 11000 10999 10996 ] final   40.55 input  -57.11 | X-H torsion

> <Gold.Protein.ActiveResidues>
 VAL166  LYS551  ARG553  GLY616  TRP617  ASP618  TYR619  PRO620  LYS621  CYS622 
 ASP623  PHE694  ASN695  SER759  ASP760  ASP761  ALA762  ILE779  LEU786  VAL792 
 PHE793  MET794  SER795  GLU796  ALA797  LYS798  CYS799  TRP800  GLU811  SER814 

> <Gold.Protein.RotatedAtoms>
  151.7981  133.3367  159.3518 H   0  0  0  0  0  0  0  0  0  0  0  0  # atno 6907 bound_to 6896
  150.7368  134.5779  159.5933 H   0  0  0  0  0  0  0  0  0  0  0  0  # atno 6908 bound_to 6896
  152.3162  134.7438  160.0376 H   0  0  0  0  0  0  0  0  0  0  0  0  # atno 6909 bound_to 6896
  146.1997  139.7784  142.8771 H   0  0  0  0  0  0  0  0  0  0  0  0  # atno 7974 bound_to 7965
  155.1328  140.0400  157.2779 H   0  0  0  0  0  0  0  0  0  0  0  0  # atno 8008 bound_to 7997
  154.6530  140.2573  155.7167 H   0  0  0  0  0  0  0  0  0  0  0  0  # atno 8009 bound_to 7997
  156.2585  140.2832  156.0971 H   0  0  0  0  0  0  0  0  0  0  0  0  # atno 8010 bound_to 7997
  139.7716  143.8229  152.2625 H   0  0  0  0  0  0  0  0  0  0  0  0  # atno 10167 bound_to 10162
  156.3817  130.4357  149.7464 H   0  0  0  0  0  0  0  0  0  0  0  0  # atno 10718 bound_to 10713
  153.0216  135.5262  154.7073 H   0  0  0  0  0  0  0  0  0  0  0  0  # atno 10763 bound_to 10752
  154.6165  135.2884  155.0376 H   0  0  0  0  0  0  0  0  0  0  0  0  # atno 10764 bound_to 10752
  154.1378  135.6583  153.4988 H   0  0  0  0  0  0  0  0  0  0  0  0  # atno 10765 bound_to 10752
  140.1920  134.3975  155.8141 H   0  0  0  0  0  0  0  0  0  0  0  0  # atno 11005 bound_to 11000
  145.3526  141.0310  143.3330 LP  0  0  0  0  0  0  0  0  0  0  0  0  # atno 17320 bound_to 7965
  144.8656  139.5113  143.6792 LP  0  0  0  0  0  0  0  0  0  0  0  0  # atno 17321 bound_to 7965
  139.8265  144.7272  150.9505 LP  0  0  0  0  0  0  0  0  0  0  0  0  # atno 17342 bound_to 10162
  140.7814  143.4109  151.0994 LP  0  0  0  0  0  0  0  0  0  0  0  0  # atno 17343 bound_to 10162
  156.4552  130.7925  151.2946 LP  0  0  0  0  0  0  0  0  0  0  0  0  # atno 17370 bound_to 10713
  157.7493  131.0083  150.3223 LP  0  0  0  0  0  0  0  0  0  0  0  0  # atno 17371 bound_to 10713
  141.2226  133.7051  156.8111 LP  0  0  0  0  0  0  0  0  0  0  0  0  # atno 17394 bound_to 11000
  140.2149  134.8800  157.3315 LP  0  0  0  0  0  0  0  0  0  0  0  0  # atno 17395 bound_to 11000

$$$$
