AV-unprocessed.smi:2851|AV-procd|sdf|10971|dock6
  -GOLD-   2272015423D 1   1.00000     0.00000
 Structure written by MMmdl.
 43 44  0  0  0  0  0  0  0  0  2 V2000
  150.5078  144.8461  159.6019 C   0  0  0  0  0  0  0  0  0  0  0  0
  151.5105  143.8993  160.1966 C   0  0  0  0  0  0  0  0  0  0  0  0
  151.8439  144.0212  161.4710 N   0  0  0  0  0  0  0  0  0  0  0  0
  152.7327  143.0310  161.6897 N   0  0  0  0  0  0  0  0  0  0  0  0
  153.3017  142.8666  163.0131 C   0  0  0  0  0  0  0  0  0  0  0  0
  152.9710  142.2906  160.5484 C   0  0  0  0  0  0  0  0  0  0  0  0
  153.9172  141.1329  160.5336 C   0  0  0  0  0  0  0  0  0  0  0  0
  152.1935  142.8249  159.5548 C   0  0  0  0  0  0  0  0  0  0  0  0
  152.0624  142.3887  158.1172 C   0  0  0  0  0  0  0  0  0  0  0  0
  151.7131  140.9016  158.0671 C   0  0  0  0  0  0  0  0  0  0  0  0
  151.6974  140.2517  159.1108 O   0  0  0  0  0  0  0  0  0  0  0  0
  151.4709  140.4107  156.8377 N   0  0  0  0  0  0  0  0  0  0  0  0
  151.1404  139.0631  156.3456 C   0  0  0  0  0  0  0  0  0  0  0  0
  152.4232  138.2295  156.5919 C   0  0  0  0  0  0  0  0  0  0  0  0
  153.3969  138.7933  157.1397 O   0  0  0  0  0  0  0  0  0  0  0  0
  152.4356  137.0447  156.1866 O   0  5  0  0  0  0  0  0  0  0  0  0
  149.9119  138.3614  157.0142 C   0  0  0  0  0  0  0  0  0  0  0  0
  148.5454  138.9431  156.5985 C   0  0  0  0  0  0  0  0  0  0  0  0
  148.3895  138.9848  155.0752 C   0  0  0  0  0  0  0  0  0  0  0  0
  149.5403  139.7729  154.4409 C   0  0  0  0  0  0  0  0  0  0  0  0
  150.9015  139.1605  154.8105 C   0  0  0  0  0  0  0  0  0  0  0  0
  150.9947  145.5620  158.9398 H   0  0  0  0  0  0  0  0  0  0  0  0
  149.9771  145.4094  160.3702 H   0  0  0  0  0  0  0  0  0  0  0  0
  149.7633  144.3065  159.0163 H   0  0  0  0  0  0  0  0  0  0  0  0
  154.3497  143.1666  162.9998 H   0  0  0  0  0  0  0  0  0  0  0  0
  153.2333  141.8214  163.3157 H   0  0  0  0  0  0  0  0  0  0  0  0
  152.7664  143.4776  163.7411 H   0  0  0  0  0  0  0  0  0  0  0  0
  154.1368  140.8138  159.5152 H   0  0  0  0  0  0  0  0  0  0  0  0
  153.4912  140.2820  161.0655 H   0  0  0  0  0  0  0  0  0  0  0  0
  154.8620  141.3929  161.0107 H   0  0  0  0  0  0  0  0  0  0  0  0
  151.2856  142.9521  157.5995 H   0  0  0  0  0  0  0  0  0  0  0  0
  152.9822  142.5660  157.5585 H   0  0  0  0  0  0  0  0  0  0  0  0
  151.5574  141.0893  156.0954 H   0  0  0  0  0  0  0  0  0  0  0  0
  149.9109  137.3090  156.7247 H   0  0  0  0  0  0  0  0  0  0  0  0
  149.9980  138.3503  158.1009 H   0  0  0  0  0  0  0  0  0  0  0  0
  147.7450  138.3447  157.0342 H   0  0  0  0  0  0  0  0  0  0  0  0
  148.4196  139.9492  156.9956 H   0  0  0  0  0  0  0  0  0  0  0  0
  148.3731  137.9696  154.6770 H   0  0  0  0  0  0  0  0  0  0  0  0
  147.4344  139.4393  154.8107 H   0  0  0  0  0  0  0  0  0  0  0  0
  149.4247  139.7862  153.3569 H   0  0  0  0  0  0  0  0  0  0  0  0
  149.5007  140.8126  154.7683 H   0  0  0  0  0  0  0  0  0  0  0  0
  151.6891  139.7460  154.3329 H   0  0  0  0  0  0  0  0  0  0  0  0
  150.9583  138.1652  154.3658 H   0  0  0  0  0  0  0  0  0  0  0  0
  1  2  1  0  0  0  0
  1 22  1  0  0  0  0
  1 23  1  0  0  0  0
  1 24  1  0  0  0  0
  2  8  1  0  0  0  0
  2  3  2  0  0  0  0
  3  4  1  0  0  0  0
  4  5  1  0  0  0  0
  4  6  1  0  0  0  0
  5 25  1  0  0  0  0
  5 26  1  0  0  0  0
  5 27  1  0  0  0  0
  6  7  1  0  0  0  0
  6  8  2  0  0  0  0
  7 28  1  0  0  0  0
  7 29  1  0  0  0  0
  7 30  1  0  0  0  0
  8  9  1  0  0  0  0
  9 10  1  0  0  0  0
  9 31  1  0  0  0  0
  9 32  1  0  0  0  0
 10 11  2  0  0  0  0
 10 12  1  0  0  0  0
 12 13  1  0  0  0  0
 12 33  1  0  0  0  0
 13 21  1  0  0  0  0
 13 14  1  0  0  0  0
 13 17  1  0  0  0  0
 14 15  2  0  0  0  0
 14 16  1  0  0  0  0
 17 18  1  0  0  0  0
 17 34  1  0  0  0  0
 17 35  1  0  0  0  0
 18 19  1  0  0  0  0
 18 36  1  0  0  0  0
 18 37  1  0  0  0  0
 19 20  1  0  0  0  0
 19 38  1  0  0  0  0
 19 39  1  0  0  0  0
 20 21  1  0  0  0  0
 20 40  1  0  0  0  0
 20 41  1  0  0  0  0
 21 42  1  0  0  0  0
 21 43  1  0  0  0  0
M  CHG  1  16  -1
M  END
> <s_m_source_file>
AV-unprocessed.smi

> <i_m_source_file_index>
2851

> <i_lp_mmshare_version>
43012

> <i_f3d_flags>
0

> <s_epik_input>
W0NIM11jMW5uKFtDSDNdKWMoW0NIM10pYzFbQ0gyXUMoPU8pW05IXUMyKEMoPU8pW09IXSlbQ0gyXVtDSDJdW0NIMl1bQ0gyXVtDSDJdMg==

> <s_epik_cmdline>
J2VwaWtfcHl0aG9uJywgJy1waCcsICc3LjAnLCAnLXRuJywgJzgnLCAnLW1hJywgJzIwMCcsICctbWV0YWxfYmluZGluZycsICctaW1hZScsICc8aW5maWxlLm1hZT4nLCAnLW9tYWUnLCAnPG91dGZpbGUubWFlPic=

> <r_lp_tautomer_probability>
1

> <r_epik_Ionization_Penalty>
0.00398412

> <r_epik_Ionization_Penalty_Charging>
0.000391215

> <r_epik_Ionization_Penalty_Neutral>
0.0035929

> <r_epik_State_Penalty>
-0

> <r_epik_Charging_Adjusted_Penalty>
0.000391215

> <i_epik_Tot_Q>
-1

> <i_epik_Tot_abs_Q>
1

> <r_epik_Metal_State_Penalty>
-0

> <b_epik_Metal_Only>
0

> <s_lp_Force_Field>
OPLS_2005

> <r_lp_Energy>
3.24008

> <b_lp_Chiralities_Consistent>
1

> <s_lp_Variant>
AV-unprocessed.smi:2851-1

> <Gold.Version>
5.8.1

> <Gold.Id.Protein>
6NUR|6NUR_protein|mol2

> <Gold.PLP.Fitness>
52.2463

> <Gold.PLP.PLP>
-40.7059

> <Gold.PLP.part.hbond>
-2.0000

> <Gold.PLP.part.metal>
0.0000

> <Gold.PLP.part.buried>
-6.6734

> <Gold.PLP.part.nonpolar>
-32.3037

> <Gold.PLP.part.repulsive>
0.2734

> <Gold.PLP.ligand.clash>
0.0000

> <Gold.PLP.ligand.torsion>
0.1420

> <Gold.PLP.Chemscore.Hbond>
3.9200

> <Gold.PLP.Chemscore.CHOScore>
0.0000

> <Gold.PLP.Chemscore.Metal>
0.0000

> <Gold.Chemscore.Hbonds>
donor molecule, donor type, donor heavy atom, donor atom, acceptor molecule, acceptor atom, score
      P1  H  7997  8008       L1    15  2.00
      P1  H 10752 10765       L1    16  1.78

> <Gold.PLP.Chemscore.Internal.Correction>
0.0645

> <Gold.Rescore>
     Score         DG    S(hbond)    S(metal)    S(lipo)     H(rot)  DE(clash)    DE(int)     intcor
     15.46     -18.14       1.87        0.00      95.95       1.88       0.01       2.68       ----

> <Gold.Chemscore.Fitness>
15.4579

> <Gold.Chemscore.DG>
-18.1431

> <Gold.Chemscore.ZeroCoef>
-5.4800

> <Gold.Chemscore.Hbond>
1.8718

> <Gold.Chemscore.Metal>
0.0000

> <Gold.Chemscore.Lipo>
95.9526

> <Gold.Chemscore.Internal_Hbond>
0.0000

> <Gold.Chemscore.DEClash>
0.0057

> <Gold.Chemscore.DEInternal>
2.6795

> <Gold.Chemscore.Rot>
1.8809

> <Gold.Chemscore.Internal.Correction>
   9.000000E+99

> <Gold.Chemscore.Hbonds>
donor molecule, donor type, donor heavy atom, donor atom, acceptor molecule, acceptor atom, score
      P1  H  7997  8008       L1    15  0.96
      P1  H 10752 10765       L1    16  0.82

> <Gold.Chemscore.Hbond.Weighted>
-6.2518

> <Gold.Chemscore.Metal.Weighted>
-0.0000

> <Gold.Chemscore.Lipo.Weighted>
-11.2265

> <Gold.Chemscore.Internal_Hbond.Weighted>
0.0000

> <Gold.Chemscore.DEClash.Weighted>
0.0057

> <Gold.Chemscore.DEInternal.Weighted>
2.6795

> <Gold.Chemscore.Rot.Weighted>
4.8152

> <Gold.Chemscore.Internal.Correction.Weighted>
   9.000000E+99

> <Gold.Protein.RotatedTorsions>
[ 6907 6896 6895 6894 ] final  -56.60 input  -60.11 | X-H torsion
[ 7974 7965 7964 7962 ] final   37.42 input  175.53 | X-H torsion
[ 8008 7997 7996 7995 ] final  -57.02 input   59.86 | X-H torsion
[ 10167 10162 10161 10158 ] final   94.31 input  -65.29 | X-H torsion
[ 10718 10713 10712 10709 ] final  -71.40 input   66.30 | X-H torsion
[ 10763 10752 10751 10750 ] final -147.66 input  -60.55 | X-H torsion
[ 11005 11000 10999 10996 ] final -110.82 input  -57.11 | X-H torsion

> <Gold.Protein.ActiveResidues>
 VAL166  LYS551  ARG553  GLY616  TRP617  ASP618  TYR619  PRO620  LYS621  CYS622 
 ASP623  PHE694  ASN695  SER759  ASP760  ASP761  ALA762  ILE779  LEU786  VAL792 
 PHE793  MET794  SER795  GLU796  ALA797  LYS798  CYS799  TRP800  GLU811  SER814 

> <Gold.Protein.RotatedAtoms>
  150.8155  134.7334  159.6725 H   0  0  0  0  0  0  0  0  0  0  0  0  # atno 6907 bound_to 6896
  152.4273  134.5840  159.9965 H   0  0  0  0  0  0  0  0  0  0  0  0  # atno 6908 bound_to 6896
  151.6038  133.3316  159.3089 H   0  0  0  0  0  0  0  0  0  0  0  0  # atno 6909 bound_to 6896
  146.1138  139.5896  142.9334 H   0  0  0  0  0  0  0  0  0  0  0  0  # atno 7974 bound_to 7965
  154.4252  140.1116  156.5731 H   0  0  0  0  0  0  0  0  0  0  0  0  # atno 8008 bound_to 7997
  155.6191  140.3495  155.4627 H   0  0  0  0  0  0  0  0  0  0  0  0  # atno 8009 bound_to 7997
  156.0038  140.1205  157.0510 H   0  0  0  0  0  0  0  0  0  0  0  0  # atno 8010 bound_to 7997
  139.8095  144.6779  150.9658 H   0  0  0  0  0  0  0  0  0  0  0  0  # atno 10167 bound_to 10162
  156.0364  130.4350  150.2439 H   0  0  0  0  0  0  0  0  0  0  0  0  # atno 10718 bound_to 10713
  154.8274  135.3354  154.6852 H   0  0  0  0  0  0  0  0  0  0  0  0  # atno 10763 bound_to 10752
  153.7477  135.6941  153.4957 H   0  0  0  0  0  0  0  0  0  0  0  0  # atno 10764 bound_to 10752
  153.2199  135.4452  155.0428 H   0  0  0  0  0  0  0  0  0  0  0  0  # atno 10765 bound_to 10752
  141.0770  133.9285  157.2369 H   0  0  0  0  0  0  0  0  0  0  0  0  # atno 11005 bound_to 11000
  145.5608  141.0404  143.2227 LP  0  0  0  0  0  0  0  0  0  0  0  0  # atno 17320 bound_to 7965
  144.7535  139.7133  143.7263 LP  0  0  0  0  0  0  0  0  0  0  0  0  # atno 17321 bound_to 7965
  140.7818  143.4199  151.0858 LP  0  0  0  0  0  0  0  0  0  0  0  0  # atno 17342 bound_to 10162
  139.7866  143.8278  152.3146 LP  0  0  0  0  0  0  0  0  0  0  0  0  # atno 17343 bound_to 10162
  157.0537  131.0070  151.3245 LP  0  0  0  0  0  0  0  0  0  0  0  0  # atno 17370 bound_to 10713
  157.5121  130.7945  149.7716 LP  0  0  0  0  0  0  0  0  0  0  0  0  # atno 17371 bound_to 10713
  139.9582  135.0160  156.9188 LP  0  0  0  0  0  0  0  0  0  0  0  0  # atno 17394 bound_to 11000
  140.5552  134.0588  155.7381 LP  0  0  0  0  0  0  0  0  0  0  0  0  # atno 17395 bound_to 11000

$$$$
