AV-unprocessed.smi:40|AV-procd|sdf|373|dock1
  -GOLD-   2262016223D 1   1.00000     0.00000
 Structure written by MMmdl.
 47 48  0  0  0  0  0  0  0  0  1 V2000
  152.0353  145.3147  159.3189 C   0  0  0  0  0  0  0  0  0  0  0  0
  152.3591  143.8899  158.8502 C   0  0  0  0  0  0  0  0  0  0  0  0
  152.5610  142.8889  159.9996 C   0  0  0  0  0  0  0  0  0  0  0  0
  152.8881  141.4611  159.5265 C   0  0  0  0  0  0  0  0  0  0  0  0
  151.7833  140.8450  158.6574 C   0  0  0  0  0  0  0  0  0  0  0  0
  152.0753  139.4738  158.4431 O   0  0  0  0  0  0  0  0  0  0  0  0
  151.2901  138.7107  157.6599 C   0  0  0  0  0  0  0  0  0  0  0  0
  150.2255  139.0831  157.1678 O   0  0  0  0  0  0  0  0  0  0  0  0
  151.8540  137.3842  157.5081 N   0  0  0  0  0  0  0  0  0  0  0  0
  151.3275  136.3675  156.7905 C   0  0  0  0  0  0  0  0  0  0  0  0
  151.3490  135.1656  157.3344 N   0  0  0  0  0  0  0  0  0  0  0  0
  150.8692  134.0431  156.7146 C   0  0  0  0  0  0  0  0  0  0  0  0
  150.9515  132.9431  157.2587 O   0  0  0  0  0  0  0  0  0  0  0  0
  150.2857  134.1964  155.4330 N   0  0  0  0  0  0  0  0  0  0  0  0
  149.7844  132.9483  154.7253 C   0  0  2  0  0  0  0  0  0  0  0  0
  149.2442  133.2857  153.4830 O   0  0  0  0  0  0  0  0  0  0  0  0
  147.8394  133.4555  153.6086 C   0  0  1  0  0  0  0  0  0  0  0  0
  147.1705  133.3392  152.2346 C   0  0  0  0  0  0  0  0  0  0  0  0
  147.4424  132.3589  154.5962 C   0  0  2  0  0  0  0  0  0  0  0  0
  146.2876  132.7455  155.3141 O   0  0  0  0  0  0  0  0  0  0  0  0
  148.6535  132.2568  155.5238 C   0  0  1  0  0  0  0  0  0  0  0  0
  148.9544  130.9000  155.7804 O   0  0  0  0  0  0  0  0  0  0  0  0
  150.2640  135.4547  154.8431 C   0  0  0  0  0  0  0  0  0  0  0  0
  150.7508  136.5469  155.4700 C   0  0  0  0  0  0  0  0  0  0  0  0
  150.6877  137.7524  154.8779 F   0  0  0  0  0  0  0  0  0  0  0  0
  150.6774  132.3359  154.5853 H   0  0  0  0  0  0  0  0  0  0  0  0
  147.6373  134.4379  154.0381 H   0  0  0  0  0  0  0  0  0  0  0  0
  147.2670  131.4194  154.0691 H   0  0  0  0  0  0  0  0  0  0  0  0
  148.4812  132.7801  156.4658 H   0  0  0  0  0  0  0  0  0  0  0  0
  151.9650  145.9930  158.4685 H   0  0  0  0  0  0  0  0  0  0  0  0
  152.8107  145.6962  159.9837 H   0  0  0  0  0  0  0  0  0  0  0  0
  151.0850  145.3572  159.8503 H   0  0  0  0  0  0  0  0  0  0  0  0
  151.5742  143.5335  158.1822 H   0  0  0  0  0  0  0  0  0  0  0  0
  153.2709  143.9226  158.2531 H   0  0  0  0  0  0  0  0  0  0  0  0
  153.3778  143.2527  160.6243 H   0  0  0  0  0  0  0  0  0  0  0  0
  151.6767  142.8756  160.6378 H   0  0  0  0  0  0  0  0  0  0  0  0
  153.8139  141.4696  158.9520 H   0  0  0  0  0  0  0  0  0  0  0  0
  153.0681  140.8181  160.3888 H   0  0  0  0  0  0  0  0  0  0  0  0
  150.8098  140.9436  159.1386 H   0  0  0  0  0  0  0  0  0  0  0  0
  151.7351  141.3783  157.7068 H   0  0  0  0  0  0  0  0  0  0  0  0
  152.7654  137.2579  157.9232 H   0  0  0  0  0  0  0  0  0  0  0  0
  146.0878  133.4359  152.3174 H   0  0  0  0  0  0  0  0  0  0  0  0
  147.3868  132.3773  151.7692 H   0  0  0  0  0  0  0  0  0  0  0  0
  147.5250  134.1210  151.5627 H   0  0  0  0  0  0  0  0  0  0  0  0
  145.5319  132.6142  154.7622 H   0  0  0  0  0  0  0  0  0  0  0  0
  149.7216  130.6629  155.2823 H   0  0  0  0  0  0  0  0  0  0  0  0
  149.8556  135.6017  153.8553 H   0  0  0  0  0  0  0  0  0  0  0  0
  1  2  1  0  0  0  0
  1 30  1  0  0  0  0
  1 31  1  0  0  0  0
  1 32  1  0  0  0  0
  2  3  1  0  0  0  0
  2 33  1  0  0  0  0
  2 34  1  0  0  0  0
  3  4  1  0  0  0  0
  3 35  1  0  0  0  0
  3 36  1  0  0  0  0
  4  5  1  0  0  0  0
  4 37  1  0  0  0  0
  4 38  1  0  0  0  0
  5  6  1  0  0  0  0
  5 39  1  0  0  0  0
  5 40  1  0  0  0  0
  6  7  1  0  0  0  0
  7  8  2  0  0  0  0
  7  9  1  0  0  0  0
  9 10  1  0  0  0  0
  9 41  1  0  0  0  0
 10 24  1  0  0  0  0
 10 11  2  0  0  0  0
 11 12  1  0  0  0  0
 12 13  2  0  0  0  0
 12 14  1  0  0  0  0
 14 15  1  0  0  0  0
 14 23  1  0  0  0  0
 15 26  1  0  0  0  0
 15 21  1  0  0  0  0
 15 16  1  0  0  0  0
 16 17  1  0  0  0  0
 17 27  1  0  0  0  0
 17 18  1  0  0  0  0
 17 19  1  0  0  0  0
 18 42  1  0  0  0  0
 18 43  1  0  0  0  0
 18 44  1  0  0  0  0
 19 28  1  0  0  0  0
 19 20  1  0  0  0  0
 19 21  1  0  0  0  0
 20 45  1  0  0  0  0
 21 29  1  0  0  0  0
 21 22  1  0  0  0  0
 22 46  1  0  0  0  0
 23 24  2  0  0  0  0
 23 47  1  0  0  0  0
 24 25  1  0  0  0  0
M  END
> <s_m_source_file>
AV-unprocessed.smi

> <i_m_source_file_index>
40

> <i_lp_mmshare_version>
43012

> <i_f3d_flags>
0

> <s_epik_input>
W0NIM11bQ0gyXVtDSDJdW0NIMl1bQ0gyXU9DKD1PKVtOSF1jMW5jKD1PKW4oW2NIXWMxRilbQ0BASF0yT1tDQEhdKFtDSDNdKVtDQEBIXShbT0hdKVtDQEhdMltPSF0=

> <s_epik_cmdline>
J2VwaWtfcHl0aG9uJywgJy1waCcsICc3LjAnLCAnLXRuJywgJzgnLCAnLW1hJywgJzIwMCcsICctbWV0YWxfYmluZGluZycsICctaW1hZScsICc8aW5maWxlLm1hZT4nLCAnLW9tYWUnLCAnPG91dGZpbGUubWFlPic=

> <r_lp_tautomer_probability>
1

> <r_epik_Ionization_Penalty>
2.29506e-06

> <r_epik_Ionization_Penalty_Charging>
8.26867e-09

> <r_epik_Ionization_Penalty_Neutral>
2.2868e-06

> <r_epik_State_Penalty>
-0

> <r_epik_Charging_Adjusted_Penalty>
8.26867e-09

> <i_epik_Tot_Q>
0

> <i_epik_Tot_abs_Q>
0

> <r_epik_Metal_State_Penalty>
-0

> <b_epik_Metal_Only>
0

> <s_epik_Chemistry_Notes>
This compound has an ester and may undergo hydrolysis at high or low pH. This compound contains an acetal/aminal-like group ( X-CH(R)-Y where X, Y are N, S, or O) that may be acid/base labile, releasing an aldehyde.

> <s_lp_Force_Field>
OPLS_2005

> <r_lp_Energy>
31.7957

> <b_lp_Chiralities_Consistent>
1

> <s_lp_Variant>
AV-unprocessed.smi:40-7

> <Gold.Version>
5.8.1

> <Gold.Id.Protein>
6NUR|6NUR_protein|mol2

> <Gold.PLP.Fitness>
43.6604

> <Gold.PLP.PLP>
-39.7868

> <Gold.PLP.part.hbond>
-2.0000

> <Gold.PLP.part.metal>
0.0000

> <Gold.PLP.part.buried>
-5.5123

> <Gold.PLP.part.nonpolar>
-33.8178

> <Gold.PLP.part.repulsive>
0.3097

> <Gold.PLP.ligand.clash>
0.0000

> <Gold.PLP.ligand.torsion>
0.4129

> <Gold.PLP.Chemscore.Hbond>
0.9600

> <Gold.PLP.Chemscore.CHOScore>
0.5292

> <Gold.PLP.Chemscore.Metal>
0.0000

> <Gold.Chemscore.Hbonds>
donor molecule, donor type, donor heavy atom, donor atom, acceptor molecule, acceptor atom, score
      P1  H  6896  6908       L1    13  0.96
      L1  C    23    47       P1  7948  0.71

> <Gold.PLP.Chemscore.Internal.Correction>
0.2318

> <Gold.Rescore>
     Score         DG    S(hbond)    S(metal)    S(lipo)     H(rot)  DE(clash)    DE(int)     intcor
      4.88      -8.63       0.71        0.00      87.60       3.70       0.07       3.68       ----

> <Gold.Chemscore.Fitness>
4.8784

> <Gold.Chemscore.DG>
-8.6278

> <Gold.Chemscore.ZeroCoef>
-5.4800

> <Gold.Chemscore.Hbond>
0.7064

> <Gold.Chemscore.Metal>
0.0000

> <Gold.Chemscore.Lipo>
87.6019

> <Gold.Chemscore.Internal_Hbond>
0.0000

> <Gold.Chemscore.DEClash>
0.0710

> <Gold.Chemscore.DEInternal>
3.6783

> <Gold.Chemscore.Rot>
3.6957

> <Gold.Chemscore.Internal.Correction>
   9.000000E+99

> <Gold.Chemscore.Hbonds>
donor molecule, donor type, donor heavy atom, donor atom, acceptor molecule, acceptor atom, score
      P1  H  6896  6908       L1    13  0.39

> <Gold.Chemscore.Hbond.Weighted>
-2.3593

> <Gold.Chemscore.Metal.Weighted>
-0.0000

> <Gold.Chemscore.Lipo.Weighted>
-10.2494

> <Gold.Chemscore.Internal_Hbond.Weighted>
0.0000

> <Gold.Chemscore.DEClash.Weighted>
0.0710

> <Gold.Chemscore.DEInternal.Weighted>
3.6783

> <Gold.Chemscore.Rot.Weighted>
9.4610

> <Gold.Chemscore.Internal.Correction.Weighted>
   9.000000E+99

> <Gold.Protein.RotatedTorsions>
[ 6907 6896 6895 6894 ] final   79.37 input  -60.11 | X-H torsion
[ 7974 7965 7964 7962 ] final    9.11 input  175.53 | X-H torsion
[ 8008 7997 7996 7995 ] final  121.05 input   59.86 | X-H torsion
[ 10167 10162 10161 10158 ] final  107.55 input  -65.29 | X-H torsion
[ 10718 10713 10712 10709 ] final   10.90 input   66.30 | X-H torsion
[ 10763 10752 10751 10750 ] final    3.94 input  -60.55 | X-H torsion
[ 11005 11000 10999 10996 ] final -121.26 input  -57.11 | X-H torsion

> <Gold.Protein.ActiveResidues>
 VAL166  LYS551  ARG553  GLY616  TRP617  ASP618  TYR619  PRO620  LYS621  CYS622 
 ASP623  PHE694  ASN695  SER759  ASP760  ASP761  ALA762  ILE779  LEU786  VAL792 
 PHE793  MET794  SER795  GLU796  ALA797  LYS798  CYS799  TRP800  GLU811  SER814 

> <Gold.Protein.RotatedAtoms>
  152.5196  134.3521  159.9254 H   0  0  0  0  0  0  0  0  0  0  0  0  # atno 6907 bound_to 6896
  151.3472  133.3933  159.2684 H   0  0  0  0  0  0  0  0  0  0  0  0  # atno 6908 bound_to 6896
  150.9756  134.9139  159.7872 H   0  0  0  0  0  0  0  0  0  0  0  0  # atno 6909 bound_to 6896
  146.2408  139.9833  142.8433 H   0  0  0  0  0  0  0  0  0  0  0  0  # atno 7974 bound_to 7965
  156.2669  140.2817  156.1246 H   0  0  0  0  0  0  0  0  0  0  0  0  # atno 8008 bound_to 7997
  155.1119  140.0391  157.2744 H   0  0  0  0  0  0  0  0  0  0  0  0  # atno 8009 bound_to 7997
  154.6736  140.2593  155.6987 H   0  0  0  0  0  0  0  0  0  0  0  0  # atno 8010 bound_to 7997
  139.6918  144.7107  151.1336 H   0  0  0  0  0  0  0  0  0  0  0  0  # atno 10167 bound_to 10162
  156.9878  130.6030  149.5683 H   0  0  0  0  0  0  0  0  0  0  0  0  # atno 10718 bound_to 10713
  153.2772  135.6937  153.7421 H   0  0  0  0  0  0  0  0  0  0  0  0  # atno 10763 bound_to 10752
  153.6422  135.3391  155.3075 H   0  0  0  0  0  0  0  0  0  0  0  0  # atno 10764 bound_to 10752
  154.8483  135.4434  154.1814 H   0  0  0  0  0  0  0  0  0  0  0  0  # atno 10765 bound_to 10752
  141.0083  134.0302  157.3447 H   0  0  0  0  0  0  0  0  0  0  0  0  # atno 11005 bound_to 11000
  145.1571  140.9654  143.4399 LP  0  0  0  0  0  0  0  0  0  0  0  0  # atno 17320 bound_to 7965
  145.0150  139.3475  143.6101 LP  0  0  0  0  0  0  0  0  0  0  0  0  # atno 17321 bound_to 7965
  140.7685  143.5549  150.9163 LP  0  0  0  0  0  0  0  0  0  0  0  0  # atno 17342 bound_to 10162
  139.9226  143.6587  152.3093 LP  0  0  0  0  0  0  0  0  0  0  0  0  # atno 17343 bound_to 10162
  156.0219  130.5314  150.8299 LP  0  0  0  0  0  0  0  0  0  0  0  0  # atno 17370 bound_to 10713
  157.5480  131.0943  150.9735 LP  0  0  0  0  0  0  0  0  0  0  0  0  # atno 17371 bound_to 10713
  139.9076  135.0183  156.7552 LP  0  0  0  0  0  0  0  0  0  0  0  0  # atno 17394 bound_to 11000
  140.6775  133.9504  155.7891 LP  0  0  0  0  0  0  0  0  0  0  0  0  # atno 17395 bound_to 11000

$$$$
