AV-unprocessed.smi:562|AV-procd|sdf|2945|dock8
  -GOLD-   2262023443D 1   1.00000     0.00000
 Structure written by MMmdl.
 40 42  0  0  0  0  0  0  0  0  2 V2000
  150.3238  139.3798  154.7114 C   0  0  0  0  0  0  0  0  0  0  0  0
  150.9959  140.5632  155.1018 O   0  0  0  0  0  0  0  0  0  0  0  0
  151.9891  140.3278  156.0862 C   0  0  0  0  0  0  0  0  0  0  0  0
  151.4026  140.5912  157.4798 C   0  0  0  0  0  0  0  0  0  0  0  0
  152.2845  140.1187  158.5443 N   0  0  0  0  0  0  0  0  0  0  0  0
  152.8428  140.8397  159.5513 C   0  0  0  0  0  0  0  0  0  0  0  0
  152.6062  142.2235  159.6937 N   0  0  0  0  0  0  0  0  0  0  0  0
  152.1949  142.9575  158.6364 N   0  0  0  0  0  0  0  0  0  0  0  0
  152.0840  144.1906  159.1017 C   0  0  0  0  0  0  0  0  0  0  0  0
  151.6255  145.2864  158.1855 C   0  0  0  0  0  0  0  0  0  0  0  0
  152.4411  144.2822  160.4761 C   0  0  0  0  0  0  0  0  0  0  0  0
  152.7802  143.0045  160.8221 C   0  0  0  0  0  0  0  0  0  0  0  0
  153.2552  142.4524  162.1268 C   0  0  0  0  0  0  0  0  0  0  0  0
  153.5913  140.1348  160.4020 N   0  0  0  0  0  0  0  0  0  0  0  0
  153.5047  138.8487  159.8888 C   0  0  0  0  0  0  0  0  0  0  0  0
  152.7208  138.8116  158.7774 C   0  0  0  0  0  0  0  0  0  0  0  0
  152.4189  137.5763  158.0223 C   0  0  0  0  0  0  0  0  0  0  0  0
  151.6934  137.6003  157.0300 O   0  0  0  0  0  0  0  0  0  0  0  0
  153.0269  136.4759  158.5683 N   0  5  0  0  0  0  0  0  0  0  0  0
  153.8285  136.4662  159.6899 C   0  0  0  0  0  0  0  0  0  0  0  0
  154.3336  135.4276  160.1185 O   0  0  0  0  0  0  0  0  0  0  0  0
  154.0785  137.6358  160.3590 N   0  0  0  0  0  0  0  0  0  0  0  0
  154.9226  137.6541  161.5571 C   0  0  0  0  0  0  0  0  0  0  0  0
  149.5775  139.6172  153.9533 H   0  0  0  0  0  0  0  0  0  0  0  0
  149.8100  138.9220  155.5575 H   0  0  0  0  0  0  0  0  0  0  0  0
  151.0182  138.6538  154.2865 H   0  0  0  0  0  0  0  0  0  0  0  0
  152.3489  139.3002  156.0173 H   0  0  0  0  0  0  0  0  0  0  0  0
  152.8433  140.9845  155.9151 H   0  0  0  0  0  0  0  0  0  0  0  0
  151.2111  141.6540  157.6212 H   0  0  0  0  0  0  0  0  0  0  0  0
  150.4288  140.1124  157.5641 H   0  0  0  0  0  0  0  0  0  0  0  0
  151.6287  146.2512  158.6930 H   0  0  0  0  0  0  0  0  0  0  0  0
  150.6114  145.1019  157.8304 H   0  0  0  0  0  0  0  0  0  0  0  0
  152.2759  145.3684  157.3142 H   0  0  0  0  0  0  0  0  0  0  0  0
  152.4513  145.1553  161.1115 H   0  0  0  0  0  0  0  0  0  0  0  0
  153.0306  143.1377  162.9441 H   0  0  0  0  0  0  0  0  0  0  0  0
  154.3332  142.2917  162.1070 H   0  0  0  0  0  0  0  0  0  0  0  0
  152.7774  141.4986  162.3505 H   0  0  0  0  0  0  0  0  0  0  0  0
  155.9127  137.2537  161.3350 H   0  0  0  0  0  0  0  0  0  0  0  0
  154.4769  137.0462  162.3453 H   0  0  0  0  0  0  0  0  0  0  0  0
  155.0617  138.6573  161.9586 H   0  0  0  0  0  0  0  0  0  0  0  0
  1  2  1  0  0  0  0
  1 24  1  0  0  0  0
  1 25  1  0  0  0  0
  1 26  1  0  0  0  0
  2  3  1  0  0  0  0
  3  4  1  0  0  0  0
  3 27  1  0  0  0  0
  3 28  1  0  0  0  0
  4  5  1  0  0  0  0
  4 29  1  0  0  0  0
  4 30  1  0  0  0  0
  5 16  1  0  0  0  0
  5  6  1  0  0  0  0
  6  7  1  0  0  0  0
  6 14  2  0  0  0  0
  7 12  1  0  0  0  0
  7  8  1  0  0  0  0
  8  9  2  0  0  0  0
  9 10  1  0  0  0  0
  9 11  1  0  0  0  0
 10 31  1  0  0  0  0
 10 32  1  0  0  0  0
 10 33  1  0  0  0  0
 11 12  2  0  0  0  0
 11 34  1  0  0  0  0
 12 13  1  0  0  0  0
 13 35  1  0  0  0  0
 13 36  1  0  0  0  0
 13 37  1  0  0  0  0
 14 15  1  0  0  0  0
 15 22  1  0  0  0  0
 15 16  2  0  0  0  0
 16 17  1  0  0  0  0
 17 18  2  0  0  0  0
 17 19  1  0  0  0  0
 19 20  1  0  0  0  0
 20 21  2  0  0  0  0
 20 22  1  0  0  0  0
 22 23  1  0  0  0  0
 23 38  1  0  0  0  0
 23 39  1  0  0  0  0
 23 40  1  0  0  0  0
M  CHG  1  19  -1
M  END
> <s_m_source_file>
AV-unprocessed.smi

> <i_m_source_file_index>
562

> <i_lp_mmshare_version>
43012

> <i_f3d_flags>
0

> <s_epik_input>
W0NIM11uMWMoPU8pW25IXWMoPU8pYyhjMTIpbihbQ0gyXVtDSDJdT1tDSDNdKWMobjIpLW4zbmMoW0NIM10pW2NIXWMzW0NIM10=

> <s_epik_cmdline>
J2VwaWtfcHl0aG9uJywgJy1waCcsICc3LjAnLCAnLXRuJywgJzgnLCAnLW1hJywgJzIwMCcsICctbWV0YWxfYmluZGluZycsICctaW1hZScsICc8aW5maWxlLm1hZT4nLCAnLW9tYWUnLCAnPG91dGZpbGUubWFlPic=

> <r_lp_tautomer_probability>
1

> <r_epik_Ionization_Penalty>
3.9873

> <r_epik_Ionization_Penalty_Charging>
0.0180637

> <r_epik_Ionization_Penalty_Neutral>
3.96924

> <r_epik_State_Penalty>
3.96767

> <r_epik_Charging_Adjusted_Penalty>
3.98573

> <i_epik_Tot_Q>
-1

> <i_epik_Tot_abs_Q>
1

> <r_epik_Metal_State_Penalty>
0.612149

> <b_epik_Metal_Only>
1

> <s_lp_Force_Field>
OPLS_2005

> <r_lp_Energy>
28.5769

> <b_lp_Chiralities_Consistent>
1

> <s_lp_Variant>
AV-unprocessed.smi:562-2

> <Gold.Version>
5.8.1

> <Gold.Id.Protein>
6NUR|6NUR_protein|mol2

> <Gold.PLP.Fitness>
47.3951

> <Gold.PLP.PLP>
-42.7249

> <Gold.PLP.part.hbond>
-3.0000

> <Gold.PLP.part.metal>
0.0000

> <Gold.PLP.part.buried>
-5.7086

> <Gold.PLP.part.nonpolar>
-33.1699

> <Gold.PLP.part.repulsive>
0.0610

> <Gold.PLP.ligand.clash>
0.0000

> <Gold.PLP.ligand.torsion>
0.4433

> <Gold.PLP.Chemscore.Hbond>
1.7320

> <Gold.PLP.Chemscore.CHOScore>
0.0000

> <Gold.PLP.Chemscore.Metal>
0.0000

> <Gold.Chemscore.Hbonds>
donor molecule, donor type, donor heavy atom, donor atom, acceptor molecule, acceptor atom, score
      P1  H  6896  6907       L1    21  0.53
      P1  H  7989  7998       L1     2  0.72

> <Gold.PLP.Chemscore.Internal.Correction>
0.3609

> <Gold.Rescore>
     Score         DG    S(hbond)    S(metal)    S(lipo)     H(rot)  DE(clash)    DE(int)     intcor
      9.99     -14.94       0.81        0.00      90.88       1.52       1.85       3.10       ----

> <Gold.Chemscore.Fitness>
9.9878

> <Gold.Chemscore.DG>
-14.9440

> <Gold.Chemscore.ZeroCoef>
-5.4800

> <Gold.Chemscore.Hbond>
0.8118

> <Gold.Chemscore.Metal>
0.0000

> <Gold.Chemscore.Lipo>
90.8818

> <Gold.Chemscore.Internal_Hbond>
0.0000

> <Gold.Chemscore.DEClash>
1.8528

> <Gold.Chemscore.DEInternal>
3.1035

> <Gold.Chemscore.Rot>
1.5159

> <Gold.Chemscore.Internal.Correction>
   9.000000E+99

> <Gold.Chemscore.Hbonds>
donor molecule, donor type, donor heavy atom, donor atom, acceptor molecule, acceptor atom, score
      P1  H  6896  6907       L1    21  0.08
      P1  H  7989  7998       L1     2  0.08

> <Gold.Chemscore.Hbond.Weighted>
-2.7115

> <Gold.Chemscore.Metal.Weighted>
-0.0000

> <Gold.Chemscore.Lipo.Weighted>
-10.6332

> <Gold.Chemscore.Internal_Hbond.Weighted>
0.0000

> <Gold.Chemscore.DEClash.Weighted>
1.8528

> <Gold.Chemscore.DEInternal.Weighted>
3.1035

> <Gold.Chemscore.Rot.Weighted>
3.8806

> <Gold.Chemscore.Internal.Correction.Weighted>
   9.000000E+99

> <Gold.Protein.RotatedTorsions>
[ 6907 6896 6895 6894 ] final   91.79 input  -60.11 | X-H torsion
[ 7974 7965 7964 7962 ] final   13.91 input  175.53 | X-H torsion
[ 8008 7997 7996 7995 ] final  133.62 input   59.86 | X-H torsion
[ 10167 10162 10161 10158 ] final   98.03 input  -65.29 | X-H torsion
[ 10718 10713 10712 10709 ] final  132.38 input   66.30 | X-H torsion
[ 10763 10752 10751 10750 ] final -148.98 input  -60.55 | X-H torsion
[ 11005 11000 10999 10996 ] final  -45.01 input  -57.11 | X-H torsion

> <Gold.Protein.ActiveResidues>
 VAL166  LYS551  ARG553  GLY616  TRP617  ASP618  TYR619  PRO620  LYS621  CYS622 
 ASP623  PHE694  ASN695  SER759  ASP760  ASP761  ALA762  ILE779  LEU786  VAL792 
 PHE793  MET794  SER795  GLU796  ALA797  LYS798  CYS799  TRP800  GLU811  SER814 

> <Gold.Protein.RotatedAtoms>
  152.5451  134.1603  159.8554 H   0  0  0  0  0  0  0  0  0  0  0  0  # atno 6907 bound_to 6896
  151.1622  133.4831  159.2601 H   0  0  0  0  0  0  0  0  0  0  0  0  # atno 6908 bound_to 6896
  151.1361  135.0167  159.8660 H   0  0  0  0  0  0  0  0  0  0  0  0  # atno 6909 bound_to 6896
  146.2318  139.9119  142.8523 H   0  0  0  0  0  0  0  0  0  0  0  0  # atno 7974 bound_to 7965
  156.2993  140.2517  156.3282 H   0  0  0  0  0  0  0  0  0  0  0  0  # atno 8008 bound_to 7997
  154.9170  140.0402  157.1996 H   0  0  0  0  0  0  0  0  0  0  0  0  # atno 8009 bound_to 7997
  154.8349  140.2881  155.5702 H   0  0  0  0  0  0  0  0  0  0  0  0  # atno 8010 bound_to 7997
  139.7746  144.6910  151.0107 H   0  0  0  0  0  0  0  0  0  0  0  0  # atno 10167 bound_to 10162
  157.4877  131.1089  150.9598 H   0  0  0  0  0  0  0  0  0  0  0  0  # atno 10718 bound_to 10713
  154.8203  135.3321  154.7058 H   0  0  0  0  0  0  0  0  0  0  0  0  # atno 10763 bound_to 10752
  153.7691  135.6927  153.4914 H   0  0  0  0  0  0  0  0  0  0  0  0  # atno 10764 bound_to 10752
  153.2057  135.4500  155.0268 H   0  0  0  0  0  0  0  0  0  0  0  0  # atno 10765 bound_to 10752
  141.0488  133.6751  156.2953 H   0  0  0  0  0  0  0  0  0  0  0  0  # atno 11005 bound_to 11000
  145.2221  140.9939  143.4039 LP  0  0  0  0  0  0  0  0  0  0  0  0  # atno 17320 bound_to 7965
  144.9601  139.3989  143.6360 LP  0  0  0  0  0  0  0  0  0  0  0  0  # atno 17321 bound_to 7965
  140.7816  143.4550  151.0359 LP  0  0  0  0  0  0  0  0  0  0  0  0  # atno 17342 bound_to 10162
  139.8232  143.7791  152.3177 LP  0  0  0  0  0  0  0  0  0  0  0  0  # atno 17343 bound_to 10162
  157.0310  130.5711  149.5343 LP  0  0  0  0  0  0  0  0  0  0  0  0  # atno 17370 bound_to 10713
  156.0156  130.5250  150.8123 LP  0  0  0  0  0  0  0  0  0  0  0  0  # atno 17371 bound_to 10713
  140.6096  134.5472  157.5531 LP  0  0  0  0  0  0  0  0  0  0  0  0  # atno 17394 bound_to 11000
  139.9333  134.7922  156.0871 LP  0  0  0  0  0  0  0  0  0  0  0  0  # atno 17395 bound_to 11000

$$$$
