#       Name:                AV-unprocessed.smi:560
#       Creating user name   scv26
#       Creation time:       Thu Mar 26 23:42:24 2020


#       File generated by GOLD software.
#

@<TRIPOS>MOLECULE
AV-unprocessed.smi:560
    47    48     1
SMALL
NO_CHARGES


@<TRIPOS>ATOM
      1 ****        -2.3635  -3.5106  -1.5170 C.3            1 S1                 0.0000
      2 ****        -1.8425  -2.5090  -0.4664 C.3            1 S1                 0.0000
      3 ****        -0.3467  -2.1899  -0.6284 C.2            1 S1                 0.0000
      4 ****         0.3790  -2.8969  -1.3284 O.2            1 S1                 0.0000
      5 ****         0.1017  -1.1072   0.0280 N.am           1 S1                 0.0000
      6 ****         1.4860  -0.6376   0.0438 C.3            1 S1                 0.0000
      7 ****         1.7247   0.2828   1.2532 C.3            1 S1                 0.0000
      8 ****         1.0323   1.6482   1.0875 C.3            1 S1                 0.0000
      9 ****         1.4486   2.3140  -0.1730 N.4            1 S1                 1.0000
     10 ****         0.9098   3.6936  -0.2905 C.3            1 S1                 0.0000
     11 ****         1.7503   4.5886  -1.2072 C.2            1 S1                 0.0000
     12 ****         1.1551   5.6789  -1.6962 N.am           1 S1                 0.0000
     13 ****         2.9217   4.3124  -1.4596 O.2            1 S1                 0.0000
     14 ****         1.1544   1.4685  -1.3607 C.3            1 S1                 0.0000
     15 ****         1.8573   0.1041  -1.2559 C.3            1 S1                 0.0000
     16 ****        -2.1274  -2.9504   0.8944 N.pl3          1 S1                 0.0000
     17 ****        -2.7262  -2.2344   1.9110 C.2            1 S1                 0.0000
     18 ****        -2.7563  -3.0361   3.0157 C.2            1 S1                 0.0000
     19 ****        -2.1372  -4.2393   2.5772 C.2            1 S1                 0.0000
     20 ****        -1.7555  -4.1829   1.3120 N.2            1 S1                 0.0000
     21 ****        -2.2077  -3.1364  -2.5293 H              1 S1                 0.0000
     22 ****        -3.4336  -3.6803  -1.3944 H              1 S1                 0.0000
     23 ****        -1.8666  -4.4788  -1.4415 H              1 S1                 0.0000
     24 ****        -2.3825  -1.5730  -0.6195 H              1 S1                 0.0000
     25 ****        -0.5631  -0.5892   0.5840 H              1 S1                 0.0000
     26 ****         2.1341  -1.5096   0.1501 H              1 S1                 0.0000
     27 ****         1.3857  -0.2011   2.1702 H              1 S1                 0.0000
     28 ****         2.7972   0.4415   1.3743 H              1 S1                 0.0000
     29 ****        -0.0524   1.5299   1.0972 H              1 S1                 0.0000
     30 ****         1.2883   2.2803   1.9385 H              1 S1                 0.0000
     31 ****        -0.1276   3.6631  -0.6278 H              1 S1                 0.0000
     32 ****         0.9068   4.1709   0.6904 H              1 S1                 0.0000
     33 ****         1.6593   6.3029  -2.3098 H              1 S1                 0.0000
     34 ****         0.1943   5.8756  -1.4536 H              1 S1                 0.0000
     35 ****         0.0761   1.3318  -1.4561 H              1 S1                 0.0000
     36 ****         1.4870   1.9694  -2.2702 H              1 S1                 0.0000
     37 ****         2.9367   0.2590  -1.2815 H              1 S1                 0.0000
     38 ****         1.6225  -0.5055  -2.1292 H              1 S1                 0.0000
     39 ****        -3.0786  -1.2239   1.7655 H              1 S1                 0.0000
     40 ****        -3.1577  -2.7988   3.9896 H              1 S1                 0.0000
     41 ****        -1.9518  -5.1439   3.1374 H              1 S1                 0.0000
     42 ****         2.4533   2.4115  -0.1244 H              1 S1                 0.0000
     43 ****        -0.0024  -3.6913  -1.8012 LP             1 S1                 0.0000
     44 ****         1.3498  -2.6767  -1.4241 LP             1 S1                 0.0000
     45 ****         3.3387   3.4937  -1.0647 LP             1 S1                 0.0000
     46 ****         3.4574   4.9065  -2.0598 LP             1 S1                 0.0000
     47 ****        -1.2940  -4.8939   0.7813 LP             1 S1                 0.0000
@<TRIPOS>BOND
    1    1    2 1     
    2    1   21 1     
    3    1   22 1     
    4    1   23 1     
    5    2    3 1     
    6    2   16 1     
    7    2   24 1     
    8    3    4 2     
    9    3    5 am    
   10    5    6 1     
   11    5   25 1     
   12    6   15 1     
   13    6    7 1     
   14    6   26 1     
   15    7    8 1     
   16    7   27 1     
   17    7   28 1     
   18    8    9 1     
   19    8   29 1     
   20    8   30 1     
   21    9   10 1     
   22    9   14 1     
   23    9   42 1     
   24   10   11 1     
   25   10   31 1     
   26   10   32 1     
   27   11   12 am    
   28   11   13 2     
   29   12   33 1     
   30   12   34 1     
   31   14   15 1     
   32   14   35 1     
   33   14   36 1     
   34   15   37 1     
   35   15   38 1     
   36   16   20 1     
   37   16   17 1     
   38   17   18 2     
   39   17   39 1     
   40   18   19 1     
   41   18   40 1     
   42   19   20 2     
   43   19   41 1     
   44    4   43 1     
   45    4   44 1     
   46   13   45 1     
   47   13   46 1     
   48   20   47 1     
@<TRIPOS>SUBSTRUCTURE
      1 S1             1
@<TRIPOS>SET
LONE_PAIRS      STATIC     ATOMS    <user>   **** ""
5 43 44 45 46 47
DONOR_HYDROGENS      STATIC     ATOMS    <user>   **** ""
4 25 42 33 34
ATOM$BLUE        STATIC     ATOMS    COLORGROUP SYSTEM
5 43 44 45 46 47
ATOM$RED        STATIC     ATOMS    COLORGROUP SYSTEM
4 25 42 33 34
