#       Name:                AV-unprocessed.smi:2784
#       Creating user name   scv26
#       Creation time:       Fri Mar 27 15:17:27 2020


#       File generated by GOLD software.
#

@<TRIPOS>MOLECULE
AV-unprocessed.smi:2784
    38    39     1
SMALL
NO_CHARGES


@<TRIPOS>ATOM
      1 ****        -1.5362   1.0906  -1.9308 C.3            1 S1                 0.0000
      2 ****        -1.1451  -0.2718  -1.9764 O.3            1 S1                 0.0000
      3 ****         0.2561  -0.4621  -2.1544 C.3            1 S1                 0.0000
      4 ****         0.4197  -1.5270  -3.2402 C.3            1 S1                 0.0000
      5 ****         0.2507  -2.8499  -2.4983 C.3            1 S1                 0.0000
      6 ****         0.9102  -2.6176  -1.1364 C.3            1 S1                 0.0000
      7 ****         0.9001  -1.0944  -0.8982 C.3            1 S1                 0.0000
      8 ****         0.1926  -0.7619   0.3372 N.am           1 S1                 0.0000
      9 ****         0.4231   0.3146   1.1030 C.2            1 S1                 0.0000
     10 ****         1.2959   1.1388   0.8119 O.2            1 S1                 0.0000
     11 ****        -0.4465   0.3219   2.1845 N.2            1 S1                 0.0000
     12 ****        -0.3951   1.2823   3.0561 C.2            1 S1                 0.0000
     13 ****         0.4081   2.4134   3.1768 N.pl3          1 S1                 0.0000
     14 ****         0.0268   3.0891   4.3021 C.2            1 S1                 0.0000
     15 ****        -0.9722   2.4177   4.8668 C.2            1 S1                 0.0000
     16 ****        -1.2521   1.3079   4.1274 O.3            1 S1                 0.0000
     17 ****        -2.6087   1.1572  -1.7496 H              1 S1                 0.0000
     18 ****        -1.3225   1.5886  -2.8773 H              1 S1                 0.0000
     19 ****        -1.0255   1.6271  -1.1306 H              1 S1                 0.0000
     20 ****         0.7583   0.4637  -2.4429 H              1 S1                 0.0000
     21 ****        -0.2874  -1.4090  -4.0621 H              1 S1                 0.0000
     22 ****         1.4255  -1.4715  -3.6590 H              1 S1                 0.0000
     23 ****        -0.8116  -3.0574  -2.3615 H              1 S1                 0.0000
     24 ****         0.6864  -3.6917  -3.0370 H              1 S1                 0.0000
     25 ****         0.3969  -3.1763  -0.3523 H              1 S1                 0.0000
     26 ****         1.9405  -2.9755  -1.1587 H              1 S1                 0.0000
     27 ****         1.9391  -0.7662  -0.8303 H              1 S1                 0.0000
     28 ****        -0.5422  -1.3931   0.6224 H              1 S1                 0.0000
     29 ****         1.1533   2.7179   2.5668 H              1 S1                 0.0000
     30 ****         0.5254   4.0043   4.5858 H              1 S1                 0.0000
     31 ****        -1.5624   2.5900   5.7549 H              1 S1                 0.0000
     32 ****        -1.6223  -0.7115  -2.7373 LP             1 S1                 0.0000
     33 ****        -1.4158  -0.7065  -1.1174 LP             1 S1                 0.0000
     34 ****         1.8495   1.0112  -0.0110 LP             1 S1                 0.0000
     35 ****         1.4488   1.9337   1.3991 LP             1 S1                 0.0000
     36 ****        -1.1144  -0.4145   2.2926 LP             1 S1                 0.0000
     37 ****        -1.1227   0.4878   4.6847 LP             1 S1                 0.0000
     38 ****        -2.1977   1.3455   3.8042 LP             1 S1                 0.0000
@<TRIPOS>BOND
    1    1    2 1     
    2    1   17 1     
    3    1   18 1     
    4    1   19 1     
    5    2    3 1     
    6    3    7 1     
    7    3    4 1     
    8    3   20 1     
    9    4    5 1     
   10    4   21 1     
   11    4   22 1     
   12    5    6 1     
   13    5   23 1     
   14    5   24 1     
   15    6    7 1     
   16    6   25 1     
   17    6   26 1     
   18    7    8 1     
   19    7   27 1     
   20    8   28 1     
   21    8    9 am    
   22    9   11 1     
   23    9   10 2     
   24   11   12 2     
   25   12   16 1     
   26   12   13 1     
   27   13   29 1     
   28   13   14 1     
   29   14   30 1     
   30   14   15 2     
   31   15   31 1     
   32   15   16 1     
   33    2   32 1     
   34    2   33 1     
   35   10   34 1     
   36   10   35 1     
   37   11   36 1     
   38   16   37 1     
   39   16   38 1     
@<TRIPOS>SUBSTRUCTURE
      1 S1             1
@<TRIPOS>SET
LONE_PAIRS      STATIC     ATOMS    <user>   **** ""
7 32 33 34 35 36 37 38
DONOR_HYDROGENS      STATIC     ATOMS    <user>   **** ""
2 28 29
ATOM$BLUE        STATIC     ATOMS    COLORGROUP SYSTEM
7 32 33 34 35 36 37 38
ATOM$RED        STATIC     ATOMS    COLORGROUP SYSTEM
2 28 29
