#       Name:                AV-unprocessed.smi:1154
#       Creating user name   scv26
#       Creation time:       Fri Mar 27 03:47:50 2020


#       File generated by GOLD software.
#

@<TRIPOS>MOLECULE
AV-unprocessed.smi:1154
    47    48     1
SMALL
NO_CHARGES


@<TRIPOS>ATOM
      1 ****        -0.0158   0.9152  -4.2276 C.3            1 S1                 0.0000
      2 ****        -0.5535   0.6398  -2.8163 C.3            1 S1                 0.0000
      3 ****        -2.0919   0.6710  -2.7886 C.3            1 S1                 0.0000
      4 ****        -2.6238   0.4428  -1.3628 C.3            1 S1                 0.0000
      5 ****        -4.1573   0.5006  -1.3209 C.3            1 S1                 0.0000
      6 ****        -1.9961   1.4667  -0.3938 C.3            1 S1                 0.0000
      7 ****        -0.5103   1.4231  -0.4173 N.4            1 S1                 1.0000
      8 ****         0.0581   0.2495   0.2992 C.3            1 S1                 0.0000
      9 ****         1.5063   0.4834   0.7584 C.3            1 S1                 0.0000
     10 ****         1.9971  -0.6698   1.4998 N.am           1 S1                 0.0000
     11 ****         3.1226  -0.6773   2.2299 C.2            1 S1                 0.0000
     12 ****         3.8647   0.2985   2.3348 O.2            1 S1                 0.0000
     13 ****         3.4708  -1.9837   2.9461 C.3            1 S1                 0.0000
     14 ****         2.5186  -2.2802   4.0004 N.pl3          1 S1                 0.0000
     15 ****         1.4467  -3.0751   4.0156 C.2            1 S1                 0.0000
     16 ****         0.8359  -3.0502   5.1901 N.2            1 S1                 0.0000
     17 ****         1.6119  -2.1734   5.9298 N.2            1 S1                 0.0000
     18 ****         2.6121  -1.7136   5.2293 N.2            1 S1                 0.0000
     19 ****         0.0227   1.6408  -1.7904 C.3            1 S1                 0.0000
     20 ****        -0.3090   1.9052  -4.5789 H              1 S1                 0.0000
     21 ****        -0.3958   0.1837  -4.9414 H              1 S1                 0.0000
     22 ****         1.0730   0.8623  -4.2516 H              1 S1                 0.0000
     23 ****        -0.2297  -0.3652  -2.5444 H              1 S1                 0.0000
     24 ****        -2.4472   1.6322  -3.1637 H              1 S1                 0.0000
     25 ****        -2.4907  -0.0897  -3.4612 H              1 S1                 0.0000
     26 ****        -2.3305  -0.5591  -1.0465 H              1 S1                 0.0000
     27 ****        -4.5271   1.4797  -1.6273 H              1 S1                 0.0000
     28 ****        -4.5306   0.3034  -0.3154 H              1 S1                 0.0000
     29 ****        -4.5965  -0.2437  -1.9858 H              1 S1                 0.0000
     30 ****        -2.3121   2.4735  -0.6712 H              1 S1                 0.0000
     31 ****        -2.3584   1.3078   0.6228 H              1 S1                 0.0000
     32 ****        -0.5448   0.0540   1.1873 H              1 S1                 0.0000
     33 ****        -0.0087  -0.6483  -0.3149 H              1 S1                 0.0000
     34 ****         2.1705   0.6474  -0.0900 H              1 S1                 0.0000
     35 ****         1.5556   1.3753   1.3857 H              1 S1                 0.0000
     36 ****         1.4461  -1.5151   1.4598 H              1 S1                 0.0000
     37 ****         3.4761  -2.8069   2.2306 H              1 S1                 0.0000
     38 ****         4.4715  -1.9236   3.3768 H              1 S1                 0.0000
     39 ****         1.1133  -3.6622   3.1725 H              1 S1                 0.0000
     40 ****         1.1113   1.6046  -1.7918 H              1 S1                 0.0000
     41 ****        -0.2393   2.6560  -2.0921 H              1 S1                 0.0000
     42 ****        -0.2145   2.2222   0.1254 H              1 S1                 0.0000
     43 ****         3.6399   1.1507   1.8624 LP             1 S1                 0.0000
     44 ****         4.6926   0.2393   2.8925 LP             1 S1                 0.0000
     45 ****         0.0141  -3.5443   5.4740 LP             1 S1                 0.0000
     46 ****         1.4287  -1.9242   6.8808 LP             1 S1                 0.0000
     47 ****         3.3114  -1.0690   5.5382 LP             1 S1                 0.0000
@<TRIPOS>BOND
    1    1    2 1     
    2    1   20 1     
    3    1   21 1     
    4    1   22 1     
    5    2   19 1     
    6    2    3 1     
    7    2   23 1     
    8    3    4 1     
    9    3   24 1     
   10    3   25 1     
   11    4    5 1     
   12    4    6 1     
   13    4   26 1     
   14    5   27 1     
   15    5   28 1     
   16    5   29 1     
   17    6    7 1     
   18    6   30 1     
   19    6   31 1     
   20    7    8 1     
   21    7   19 1     
   22    7   42 1     
   23    8    9 1     
   24    8   32 1     
   25    8   33 1     
   26    9   10 1     
   27    9   34 1     
   28    9   35 1     
   29   10   11 am    
   30   10   36 1     
   31   11   12 2     
   32   11   13 1     
   33   13   14 1     
   34   13   37 1     
   35   13   38 1     
   36   14   18 1     
   37   14   15 1     
   38   15   16 2     
   39   15   39 1     
   40   16   17 1     
   41   17   18 2     
   42   19   40 1     
   43   19   41 1     
   44   12   43 1     
   45   12   44 1     
   46   16   45 1     
   47   17   46 1     
   48   18   47 1     
@<TRIPOS>SUBSTRUCTURE
      1 S1             1
@<TRIPOS>SET
LONE_PAIRS      STATIC     ATOMS    <user>   **** ""
5 43 44 45 46 47
DONOR_HYDROGENS      STATIC     ATOMS    <user>   **** ""
2 42 36
ATOM$BLUE        STATIC     ATOMS    COLORGROUP SYSTEM
5 43 44 45 46 47
ATOM$RED        STATIC     ATOMS    COLORGROUP SYSTEM
2 42 36
