AV-unprocessed.smi:1329|AV-procd|sdf|5484|dock10
  -GOLD-   22720 5 63D 1   1.00000     0.00000
 Structure written by MMmdl.
 42 43  0  0  0  0  0  0  0  0  1 V2000
  148.4090  131.7742  159.0666 C   0  0  0  0  0  0  0  0  0  0  0  0
  148.4941  133.2761  159.0241 C   0  0  0  0  0  0  0  0  0  0  0  0
  149.0364  133.7978  157.9732 N   0  0  0  0  0  0  0  0  0  0  0  0
  149.1676  135.1654  157.8353 N   0  0  0  0  0  0  0  0  0  0  0  0
  149.8259  135.5782  156.5895 C   0  0  0  0  0  0  0  0  0  0  0  0
  148.8673  135.5074  155.3797 C   0  0  1  0  0  0  0  0  0  0  0  0
  149.2296  136.5376  154.4812 O   0  0  0  0  0  0  0  0  0  0  0  0
  148.9939  134.1763  154.6201 C   0  0  0  0  0  0  0  0  0  0  0  0
  147.8886  134.0425  153.7415 O   0  0  0  0  0  0  0  0  0  0  0  0
  148.0943  133.0616  152.7398 C   0  0  0  0  0  0  0  0  0  0  0  0
  146.8399  132.8481  151.9179 C   0  0  0  0  0  0  0  0  0  0  0  0
  146.2192  131.5817  151.8842 C   0  0  0  0  0  0  0  0  0  0  0  0
  145.0490  131.3881  151.1241 C   0  0  0  0  0  0  0  0  0  0  0  0
  144.4960  132.4597  150.3963 C   0  0  0  0  0  0  0  0  0  0  0  0
  145.1124  133.7255  150.4295 C   0  0  0  0  0  0  0  0  0  0  0  0
  146.2821  133.9198  151.1900 C   0  0  0  0  0  0  0  0  0  0  0  0
  148.7520  136.0824  158.7555 C   0  0  0  0  0  0  0  0  0  0  0  0
  148.8931  137.2953  158.5928 O   0  0  0  0  0  0  0  0  0  0  0  0
  148.1367  135.4849  159.9427 C   0  0  0  0  0  0  0  0  0  0  0  0
  147.6909  136.4099  160.9342 C   0  0  0  0  0  0  0  0  0  0  0  0
  147.3461  137.1550  161.7502 N   0  0  0  0  0  0  0  0  0  0  0  0
  148.0044  134.1431  160.0911 C   0  0  0  0  0  0  0  0  0  0  0  0
  147.3776  133.4725  161.3060 C   0  0  0  0  0  0  0  0  0  0  0  0
  147.3706  131.4467  159.1198 H   0  0  0  0  0  0  0  0  0  0  0  0
  148.9331  131.3812  159.9379 H   0  0  0  0  0  0  0  0  0  0  0  0
  148.8537  131.3160  158.1818 H   0  0  0  0  0  0  0  0  0  0  0  0
  150.2513  136.5796  156.6841 H   0  0  0  0  0  0  0  0  0  0  0  0
  150.6863  134.9279  156.4221 H   0  0  0  0  0  0  0  0  0  0  0  0
  147.8341  135.6415  155.7027 H   0  0  0  0  0  0  0  0  0  0  0  0
  149.0928  136.2270  153.5993 H   0  0  0  0  0  0  0  0  0  0  0  0
  149.9425  134.1129  154.0833 H   0  0  0  0  0  0  0  0  0  0  0  0
  148.9655  133.3435  155.3245 H   0  0  0  0  0  0  0  0  0  0  0  0
  148.9053  133.3690  152.0776 H   0  0  0  0  0  0  0  0  0  0  0  0
  148.3941  132.1165  153.1960 H   0  0  0  0  0  0  0  0  0  0  0  0
  146.6364  130.7566  152.4428 H   0  0  0  0  0  0  0  0  0  0  0  0
  144.5752  130.4179  151.1003 H   0  0  0  0  0  0  0  0  0  0  0  0
  143.5986  132.3113  149.8140 H   0  0  0  0  0  0  0  0  0  0  0  0
  144.6875  134.5480  149.8731 H   0  0  0  0  0  0  0  0  0  0  0  0
  146.7489  134.8936  151.2155 H   0  0  0  0  0  0  0  0  0  0  0  0
  147.0086  134.1957  162.0327 H   0  0  0  0  0  0  0  0  0  0  0  0
  148.1088  132.8420  161.8125 H   0  0  0  0  0  0  0  0  0  0  0  0
  146.5333  132.8500  161.0087 H   0  0  0  0  0  0  0  0  0  0  0  0
  1  2  1  0  0  0  0
  1 24  1  0  0  0  0
  1 25  1  0  0  0  0
  1 26  1  0  0  0  0
  2 22  1  0  0  0  0
  2  3  2  0  0  0  0
  3  4  1  0  0  0  0
  4  5  1  0  0  0  0
  4 17  1  0  0  0  0
  5  6  1  0  0  0  0
  5 27  1  0  0  0  0
  5 28  1  0  0  0  0
  6  7  1  0  0  0  0
  6  8  1  0  0  0  0
  6 29  1  0  0  0  0
  7 30  1  0  0  0  0
  8  9  1  0  0  0  0
  8 31  1  0  0  0  0
  8 32  1  0  0  0  0
  9 10  1  0  0  0  0
 10 11  1  0  0  0  0
 10 33  1  0  0  0  0
 10 34  1  0  0  0  0
 11 16  1  0  0  0  0
 11 12  2  0  0  0  0
 12 13  1  0  0  0  0
 12 35  1  0  0  0  0
 13 14  2  0  0  0  0
 13 36  1  0  0  0  0
 14 15  1  0  0  0  0
 14 37  1  0  0  0  0
 15 16  2  0  0  0  0
 15 38  1  0  0  0  0
 16 39  1  0  0  0  0
 17 18  2  0  0  0  0
 17 19  1  0  0  0  0
 19 20  1  0  0  0  0
 19 22  2  0  0  0  0
 20 21  3  0  0  0  0
 22 23  1  0  0  0  0
 23 40  1  0  0  0  0
 23 41  1  0  0  0  0
 23 42  1  0  0  0  0
M  END
> <s_m_source_file>
AV-unprocessed.smi

> <i_m_source_file_index>
1329

> <i_lp_mmshare_version>
43012

> <i_f3d_flags>
0

> <s_epik_input>
TiNDYyhjMVtDSDNdKWMoPU8pbihuYzFbQ0gzXSlbQ0gyXVtDQEhdKFtPSF0pW0NIMl1PW0NIMl1jMltjSF1bY0hdW2NIXVtjSF1bY0hdMg==

> <s_epik_cmdline>
J2VwaWtfcHl0aG9uJywgJy1waCcsICc3LjAnLCAnLXRuJywgJzgnLCAnLW1hJywgJzIwMCcsICctbWV0YWxfYmluZGluZycsICctaW1hZScsICc8aW5maWxlLm1hZT4nLCAnLW9tYWUnLCAnPG91dGZpbGUubWFlPic=

> <r_lp_tautomer_probability>
1

> <r_epik_Ionization_Penalty>
6.13319e-08

> <r_epik_Ionization_Penalty_Charging>
2.19172e-10

> <r_epik_Ionization_Penalty_Neutral>
6.11128e-08

> <r_epik_State_Penalty>
-0

> <r_epik_Charging_Adjusted_Penalty>
2.19172e-10

> <i_epik_Tot_Q>
0

> <i_epik_Tot_abs_Q>
0

> <r_epik_Metal_State_Penalty>
-0

> <b_epik_Metal_Only>
0

> <s_lp_Force_Field>
OPLS_2005

> <r_lp_Energy>
31.6334

> <b_lp_Chiralities_Consistent>
1

> <s_lp_Variant>
AV-unprocessed.smi:1329-2

> <Gold.Version>
5.8.1

> <Gold.Id.Protein>
6NUR|6NUR_protein|mol2

> <Gold.PLP.Fitness>
43.0029

> <Gold.PLP.PLP>
-36.3290

> <Gold.PLP.part.hbond>
-3.6427

> <Gold.PLP.part.metal>
0.0000

> <Gold.PLP.part.buried>
-4.7646

> <Gold.PLP.part.nonpolar>
-28.2871

> <Gold.PLP.part.repulsive>
0.1291

> <Gold.PLP.ligand.clash>
0.0000

> <Gold.PLP.ligand.torsion>
0.8705

> <Gold.PLP.Chemscore.Hbond>
2.7735

> <Gold.PLP.Chemscore.CHOScore>
0.0000

> <Gold.PLP.Chemscore.Metal>
0.0000

> <Gold.Chemscore.Hbonds>
donor molecule, donor type, donor heavy atom, donor atom, acceptor molecule, acceptor atom, score
      L1  H     7    30       P1  7948  1.00
      P1  H  6896  6908       L1     3  0.03
      P1  H  6931  6943       L1    21  0.91
      P1  H  6934  6947       L1    21  0.81

> <Gold.PLP.Chemscore.Internal.Correction>
0.0944

> <Gold.Rescore>
     Score         DG    S(hbond)    S(metal)    S(lipo)     H(rot)  DE(clash)    DE(int)     intcor
     16.03     -16.99       2.28        0.00      87.40       2.48       0.10       0.87       ----

> <Gold.Chemscore.Fitness>
16.0286

> <Gold.Chemscore.DG>
-16.9932

> <Gold.Chemscore.ZeroCoef>
-5.4800

> <Gold.Chemscore.Hbond>
2.2845

> <Gold.Chemscore.Metal>
0.0000

> <Gold.Chemscore.Lipo>
87.3999

> <Gold.Chemscore.Internal_Hbond>
0.0000

> <Gold.Chemscore.DEClash>
0.0993

> <Gold.Chemscore.DEInternal>
0.8653

> <Gold.Chemscore.Rot>
2.4777

> <Gold.Chemscore.Internal.Correction>
   9.000000E+99

> <Gold.Chemscore.Hbonds>
donor molecule, donor type, donor heavy atom, donor atom, acceptor molecule, acceptor atom, score
      L1  H     7    30       P1  7948  0.96
      P1  H  6931  6943       L1    21  0.22
      P1  H  6934  6947       L1    21  0.57

> <Gold.Chemscore.Hbond.Weighted>
-7.6303

> <Gold.Chemscore.Metal.Weighted>
-0.0000

> <Gold.Chemscore.Lipo.Weighted>
-10.2258

> <Gold.Chemscore.Internal_Hbond.Weighted>
0.0000

> <Gold.Chemscore.DEClash.Weighted>
0.0993

> <Gold.Chemscore.DEInternal.Weighted>
0.8653

> <Gold.Chemscore.Rot.Weighted>
6.3428

> <Gold.Chemscore.Internal.Correction.Weighted>
   9.000000E+99

> <Gold.Protein.RotatedTorsions>
[ 6907 6896 6895 6894 ] final  109.51 input  -60.11 | X-H torsion
[ 7974 7965 7964 7962 ] final  179.12 input  175.53 | X-H torsion
[ 8008 7997 7996 7995 ] final  -26.96 input   59.86 | X-H torsion
[ 10167 10162 10161 10158 ] final   -5.86 input  -65.29 | X-H torsion
[ 10718 10713 10712 10709 ] final  -79.02 input   66.30 | X-H torsion
[ 10763 10752 10751 10750 ] final   16.41 input  -60.55 | X-H torsion
[ 11005 11000 10999 10996 ] final  -24.07 input  -57.11 | X-H torsion

> <Gold.Protein.ActiveResidues>
 VAL166  LYS551  ARG553  GLY616  TRP617  ASP618  TYR619  PRO620  LYS621  CYS622 
 ASP623  PHE694  ASN695  SER759  ASP760  ASP761  ALA762  ILE779  LEU786  VAL792 
 PHE793  MET794  SER795  GLU796  ALA797  LYS798  CYS799  TRP800  GLU811  SER814 

> <Gold.Protein.RotatedAtoms>
  152.5064  133.8934  159.7404 H   0  0  0  0  0  0  0  0  0  0  0  0  # atno 6907 bound_to 6896
  150.9367  133.6695  159.2806 H   0  0  0  0  0  0  0  0  0  0  0  0  # atno 6908 bound_to 6896
  151.4021  135.0977  159.9611 H   0  0  0  0  0  0  0  0  0  0  0  0  # atno 6909 bound_to 6896
  144.7149  140.0500  143.6435 H   0  0  0  0  0  0  0  0  0  0  0  0  # atno 7974 bound_to 7965
  154.4400  140.1885  156.0857 H   0  0  0  0  0  0  0  0  0  0  0  0  # atno 8008 bound_to 7997
  156.0404  140.3320  155.7211 H   0  0  0  0  0  0  0  0  0  0  0  0  # atno 8009 bound_to 7997
  155.5708  140.0612  157.2798 H   0  0  0  0  0  0  0  0  0  0  0  0  # atno 8010 bound_to 7997
  140.6977  143.6260  150.8568 H   0  0  0  0  0  0  0  0  0  0  0  0  # atno 10167 bound_to 10162
  156.0103  130.4534  150.3585 H   0  0  0  0  0  0  0  0  0  0  0  0  # atno 10718 bound_to 10713
  153.1433  135.6764  153.8993 H   0  0  0  0  0  0  0  0  0  0  0  0  # atno 10763 bound_to 10752
  153.8442  135.3101  155.3429 H   0  0  0  0  0  0  0  0  0  0  0  0  # atno 10764 bound_to 10752
  154.7805  135.4891  153.9919 H   0  0  0  0  0  0  0  0  0  0  0  0  # atno 10765 bound_to 10752
  140.8811  133.7653  156.0303 H   0  0  0  0  0  0  0  0  0  0  0  0  # atno 11005 bound_to 11000
  145.9952  139.3047  143.0961 LP  0  0  0  0  0  0  0  0  0  0  0  0  # atno 17320 bound_to 7965
  145.8857  140.9335  143.0578 LP  0  0  0  0  0  0  0  0  0  0  0  0  # atno 17321 bound_to 7965
  139.9979  143.5776  152.2886 LP  0  0  0  0  0  0  0  0  0  0  0  0  # atno 17342 bound_to 10162
  139.6454  144.7658  151.2253 LP  0  0  0  0  0  0  0  0  0  0  0  0  # atno 17343 bound_to 10162
  157.1674  131.0360  151.2812 LP  0  0  0  0  0  0  0  0  0  0  0  0  # atno 17370 bound_to 10713
  157.4258  130.7463  149.6950 LP  0  0  0  0  0  0  0  0  0  0  0  0  # atno 17371 bound_to 10713
  140.8460  134.3010  157.5294 LP  0  0  0  0  0  0  0  0  0  0  0  0  # atno 17394 bound_to 11000
  139.8720  134.9442  156.3875 LP  0  0  0  0  0  0  0  0  0  0  0  0  # atno 17395 bound_to 11000

$$$$
