AV-unprocessed.smi:1817|AV-procd|sdf|7369|dock2
  -GOLD-   22720 9 33D 1   1.00000     0.00000
 Structure written by MMmdl.
 43 44  0  0  0  0  0  0  0  0  2 V2000
  145.6447  131.1373  151.1858 C   0  0  0  0  0  0  0  0  0  0  0  0
  146.4070  130.2404  152.1717 C   0  0  0  0  0  0  0  0  0  0  0  0
  147.6806  130.8484  152.6306 N   0  3  0  0  0  0  0  0  0  0  0  0
  148.3879  130.0473  153.6616 C   0  0  0  0  0  0  0  0  0  0  0  0
  149.7108  130.7338  154.0630 C   0  0  0  0  0  0  0  0  0  0  0  0
  149.4873  132.0836  154.6020 N   0  0  0  0  0  0  0  0  0  0  0  0
  148.8025  132.1450  155.9141 C   0  0  1  0  0  0  0  0  0  0  0  0
  149.6259  131.3991  156.9923 C   0  0  0  0  0  0  0  0  0  0  0  0
  148.5482  133.6196  156.3323 C   0  0  0  0  0  0  0  0  0  0  0  0
  147.8643  133.7384  157.6182 N   0  0  0  0  0  0  0  0  0  0  0  0
  148.2459  134.5277  158.6335 C   0  0  0  0  0  0  0  0  0  0  0  0
  149.2470  135.2426  158.5991 O   0  0  0  0  0  0  0  0  0  0  0  0
  147.4015  134.4239  159.6724 N   0  0  0  0  0  0  0  0  0  0  0  0
  147.4721  135.0879  160.9228 C   0  0  0  0  0  0  0  0  0  0  0  0
  147.7540  136.3962  160.9236 N   0  0  0  0  0  0  0  0  0  0  0  0
  147.7915  136.9196  162.2104 N   0  0  0  0  0  0  0  0  0  0  0  0
  147.5356  135.9844  163.1304 C   0  0  0  0  0  0  0  0  0  0  0  0
  147.2228  134.3702  162.5174 S   0  0  0  0  0  0  0  0  0  0  0  0
  148.8584  132.8527  153.5180 C   0  0  0  0  0  0  0  0  0  0  0  0
  147.5039  132.2465  153.0939 C   0  0  0  0  0  0  0  0  0  0  0  0
  144.6753  130.7013  150.9437 H   0  0  0  0  0  0  0  0  0  0  0  0
  146.1830  131.2647  150.2471 H   0  0  0  0  0  0  0  0  0  0  0  0
  145.4646  132.1259  151.6093 H   0  0  0  0  0  0  0  0  0  0  0  0
  145.7636  130.0725  153.0364 H   0  0  0  0  0  0  0  0  0  0  0  0
  146.5970  129.2600  151.7322 H   0  0  0  0  0  0  0  0  0  0  0  0
  147.7458  129.8919  154.5292 H   0  0  0  0  0  0  0  0  0  0  0  0
  148.6184  129.0589  153.2658 H   0  0  0  0  0  0  0  0  0  0  0  0
  150.2733  130.1129  154.7576 H   0  0  0  0  0  0  0  0  0  0  0  0
  150.3523  130.8134  153.1840 H   0  0  0  0  0  0  0  0  0  0  0  0
  147.8348  131.6504  155.8423 H   0  0  0  0  0  0  0  0  0  0  0  0
  149.1732  131.4806  157.9794 H   0  0  0  0  0  0  0  0  0  0  0  0
  150.6395  131.7955  157.0637 H   0  0  0  0  0  0  0  0  0  0  0  0
  149.6896  130.3290  156.8010 H   0  0  0  0  0  0  0  0  0  0  0  0
  149.4841  134.1814  156.3280 H   0  0  0  0  0  0  0  0  0  0  0  0
  147.8887  134.1175  155.6241 H   0  0  0  0  0  0  0  0  0  0  0  0
  147.0294  133.1839  157.7394 H   0  0  0  0  0  0  0  0  0  0  0  0
  146.6179  133.7981  159.5590 H   0  0  0  0  0  0  0  0  0  0  0  0
  147.5319  136.2472  164.1776 H   0  0  0  0  0  0  0  0  0  0  0  0
  148.7467  133.9023  153.7815 H   0  0  0  0  0  0  0  0  0  0  0  0
  149.5325  132.8550  152.6599 H   0  0  0  0  0  0  0  0  0  0  0  0
  147.0888  132.8423  152.2803 H   0  0  0  0  0  0  0  0  0  0  0  0
  146.7799  132.2872  153.9085 H   0  0  0  0  0  0  0  0  0  0  0  0
  148.2897  130.8942  151.8262 H   0  0  0  0  0  0  0  0  0  0  0  0
  1  2  1  0  0  0  0
  1 21  1  0  0  0  0
  1 22  1  0  0  0  0
  1 23  1  0  0  0  0
  2  3  1  0  0  0  0
  2 24  1  0  0  0  0
  2 25  1  0  0  0  0
  3 20  1  0  0  0  0
  3  4  1  0  0  0  0
  3 43  1  0  0  0  0
  4  5  1  0  0  0  0
  4 26  1  0  0  0  0
  4 27  1  0  0  0  0
  5  6  1  0  0  0  0
  5 28  1  0  0  0  0
  5 29  1  0  0  0  0
  6  7  1  0  0  0  0
  6 19  1  0  0  0  0
  7  8  1  0  0  0  0
  7  9  1  0  0  0  0
  7 30  1  0  0  0  0
  8 31  1  0  0  0  0
  8 32  1  0  0  0  0
  8 33  1  0  0  0  0
  9 10  1  0  0  0  0
  9 34  1  0  0  0  0
  9 35  1  0  0  0  0
 10 11  1  0  0  0  0
 10 36  1  0  0  0  0
 11 12  2  0  0  0  0
 11 13  1  0  0  0  0
 13 14  1  0  0  0  0
 13 37  1  0  0  0  0
 14 18  1  0  0  0  0
 14 15  2  0  0  0  0
 15 16  1  0  0  0  0
 16 17  2  0  0  0  0
 17 18  1  0  0  0  0
 17 38  1  0  0  0  0
 19 20  1  0  0  0  0
 19 39  1  0  0  0  0
 19 40  1  0  0  0  0
 20 41  1  0  0  0  0
 20 42  1  0  0  0  0
M  CHG  1   3   1
M  END
> <s_m_source_file>
AV-unprocessed.smi

> <i_m_source_file_index>
1817

> <i_lp_mmshare_version>
43012

> <i_f3d_flags>
0

> <s_epik_input>
W0NIM11bQ0gyXU4xW0NIMl1bQ0gyXU4oW0NIMl1bQ0gyXTEpW0NASF0oW0NIM10pW0NIMl1bTkhdQyg9TylbTkhdYzJubltjSF1zMg==

> <s_epik_cmdline>
J2VwaWtfcHl0aG9uJywgJy1waCcsICc3LjAnLCAnLXRuJywgJzgnLCAnLW1hJywgJzIwMCcsICctbWV0YWxfYmluZGluZycsICctaW1hZScsICc8aW5maWxlLm1hZT4nLCAnLW9tYWUnLCAnPG91dGZpbGUubWFlPic=

> <r_lp_tautomer_probability>
1

> <r_epik_Ionization_Penalty>
0.0474318

> <r_epik_Ionization_Penalty_Charging>
0.0451959

> <r_epik_Ionization_Penalty_Neutral>
0.00223598

> <r_epik_State_Penalty>
0.165541

> <r_epik_Charging_Adjusted_Penalty>
0.210737

> <i_epik_Tot_Q>
1

> <i_epik_Tot_abs_Q>
1

> <r_epik_Metal_State_Penalty>
0.500395

> <b_epik_Metal_Only>
0

> <s_lp_Force_Field>
OPLS_2005

> <r_lp_Energy>
20.492

> <b_lp_Chiralities_Consistent>
1

> <s_lp_Variant>
AV-unprocessed.smi:1817-2

> <Gold.Version>
5.8.1

> <Gold.Id.Protein>
6NUR|6NUR_protein|mol2

> <Gold.PLP.Fitness>
41.5362

> <Gold.PLP.PLP>
-33.4194

> <Gold.PLP.part.hbond>
-4.3466

> <Gold.PLP.part.metal>
0.0000

> <Gold.PLP.part.buried>
-4.4246

> <Gold.PLP.part.nonpolar>
-24.0643

> <Gold.PLP.part.repulsive>
0.1218

> <Gold.PLP.ligand.clash>
0.0000

> <Gold.PLP.ligand.torsion>
0.4824

> <Gold.PLP.Chemscore.Hbond>
3.0087

> <Gold.PLP.Chemscore.CHOScore>
0.0000

> <Gold.PLP.Chemscore.Metal>
0.0000

> <Gold.Chemscore.Hbonds>
donor molecule, donor type, donor heavy atom, donor atom, acceptor molecule, acceptor atom, score
      L1  H     3    43       P1 10747  1.00
      P1  H  6896  6908       L1    12  1.00
      P1  H  6931  6943       L1    16  0.95

> <Gold.PLP.Chemscore.Internal.Correction>
0.0553

> <Gold.Rescore>
     Score         DG    S(hbond)    S(metal)    S(lipo)     H(rot)  DE(clash)    DE(int)     intcor
     18.15     -18.78       2.93        0.00      72.09       1.92       0.02       0.61       ----

> <Gold.Chemscore.Fitness>
18.1492

> <Gold.Chemscore.DG>
-18.7768

> <Gold.Chemscore.ZeroCoef>
-5.4800

> <Gold.Chemscore.Hbond>
2.9270

> <Gold.Chemscore.Metal>
0.0000

> <Gold.Chemscore.Lipo>
72.0904

> <Gold.Chemscore.Internal_Hbond>
0.0000

> <Gold.Chemscore.DEClash>
0.0179

> <Gold.Chemscore.DEInternal>
0.6097

> <Gold.Chemscore.Rot>
1.9196

> <Gold.Chemscore.Internal.Correction>
   9.000000E+99

> <Gold.Chemscore.Hbonds>
donor molecule, donor type, donor heavy atom, donor atom, acceptor molecule, acceptor atom, score
      L1  H     3    43       P1 10747  1.00
      P1  H  6896  6908       L1    12  0.91
      P1  H  6931  6943       L1    16  0.21

> <Gold.Chemscore.Hbond.Weighted>
-9.7763

> <Gold.Chemscore.Metal.Weighted>
-0.0000

> <Gold.Chemscore.Lipo.Weighted>
-8.4346

> <Gold.Chemscore.Internal_Hbond.Weighted>
0.0000

> <Gold.Chemscore.DEClash.Weighted>
0.0179

> <Gold.Chemscore.DEInternal.Weighted>
0.6097

> <Gold.Chemscore.Rot.Weighted>
4.9141

> <Gold.Chemscore.Internal.Correction.Weighted>
   9.000000E+99

> <Gold.Protein.RotatedTorsions>
[ 6907 6896 6895 6894 ] final  172.24 input  -60.11 | X-H torsion
[ 7974 7965 7964 7962 ] final -106.31 input  175.53 | X-H torsion
[ 8008 7997 7996 7995 ] final  127.90 input   59.86 | X-H torsion
[ 10167 10162 10161 10158 ] final -129.73 input  -65.29 | X-H torsion
[ 10718 10713 10712 10709 ] final  107.32 input   66.30 | X-H torsion
[ 10763 10752 10751 10750 ] final  110.89 input  -60.55 | X-H torsion
[ 11005 11000 10999 10996 ] final  -69.90 input  -57.11 | X-H torsion

> <Gold.Protein.ActiveResidues>
 VAL166  LYS551  ARG553  GLY616  TRP617  ASP618  TYR619  PRO620  LYS621  CYS622 
 ASP623  PHE694  ASN695  SER759  ASP760  ASP761  ALA762  ILE779  LEU786  VAL792 
 PHE793  MET794  SER795  GLU796  ALA797  LYS798  CYS799  TRP800  GLU811  SER814 

> <Gold.Protein.RotatedAtoms>
  151.7874  133.3356  159.3488 H   0  0  0  0  0  0  0  0  0  0  0  0  # atno 6907 bound_to 6896
  150.7404  134.5874  159.5979 H   0  0  0  0  0  0  0  0  0  0  0  0  # atno 6908 bound_to 6896
  152.3234  134.7353  160.0359 H   0  0  0  0  0  0  0  0  0  0  0  0  # atno 6909 bound_to 6896
  145.2195  140.9128  143.3268 H   0  0  0  0  0  0  0  0  0  0  0  0  # atno 7974 bound_to 7965
  156.2902  140.2657  156.2349 H   0  0  0  0  0  0  0  0  0  0  0  0  # atno 8008 bound_to 7997
  155.0035  140.0387  157.2388 H   0  0  0  0  0  0  0  0  0  0  0  0  # atno 8009 bound_to 7997
  154.7580  140.2755  155.6242 H   0  0  0  0  0  0  0  0  0  0  0  0  # atno 8010 bound_to 7997
  139.9367  143.6210  152.2515 H   0  0  0  0  0  0  0  0  0  0  0  0  # atno 10167 bound_to 10162
  157.6633  131.0870  150.6139 H   0  0  0  0  0  0  0  0  0  0  0  0  # atno 10718 bound_to 10713
  153.4555  135.3734  155.2308 H   0  0  0  0  0  0  0  0  0  0  0  0  # atno 10763 bound_to 10752
  154.8757  135.3896  154.3987 H   0  0  0  0  0  0  0  0  0  0  0  0  # atno 10764 bound_to 10752
  153.4553  135.7086  153.6148 H   0  0  0  0  0  0  0  0  0  0  0  0  # atno 10765 bound_to 10752
  141.1563  133.6776  156.6670 H   0  0  0  0  0  0  0  0  0  0  0  0  # atno 11005 bound_to 11000
  144.9779  139.3813  143.6276 LP  0  0  0  0  0  0  0  0  0  0  0  0  # atno 17320 bound_to 7965
  146.3379  139.8906  142.8809 LP  0  0  0  0  0  0  0  0  0  0  0  0  # atno 17321 bound_to 7965
  139.6738  144.7659  151.1734 LP  0  0  0  0  0  0  0  0  0  0  0  0  # atno 17342 bound_to 10162
  140.7622  143.5826  150.8879 LP  0  0  0  0  0  0  0  0  0  0  0  0  # atno 17343 bound_to 10162
  156.6441  130.4466  149.5742 LP  0  0  0  0  0  0  0  0  0  0  0  0  # atno 17370 bound_to 10713
  156.2187  130.6724  151.1346 LP  0  0  0  0  0  0  0  0  0  0  0  0  # atno 17371 bound_to 10713
  140.3203  134.8013  157.4247 LP  0  0  0  0  0  0  0  0  0  0  0  0  # atno 17394 bound_to 11000
  140.1102  134.5355  155.8273 LP  0  0  0  0  0  0  0  0  0  0  0  0  # atno 17395 bound_to 11000

$$$$
