AV-unprocessed.smi:1033|AV-procd|sdf|4493|dock3
  -GOLD-   22720 2483D 1   1.00000     0.00000
 Structure written by MMmdl.
 56 58  0  0  0  0  0  0  0  0  2 V2000
  152.2756  143.7252  160.5413 C   0  0  0  0  0  0  0  0  0  0  0  0
  152.1209  142.6953  159.4361 C   0  0  0  0  0  0  0  0  0  0  0  0
  151.2091  142.9462  158.3858 C   0  0  0  0  0  0  0  0  0  0  0  0
  151.0360  142.0145  157.3390 C   0  0  0  0  0  0  0  0  0  0  0  0
  150.2117  142.0522  156.2274 N   0  0  0  0  0  0  0  0  0  0  0  0
  150.5058  140.8984  155.6351 C   0  0  0  0  0  0  0  0  0  0  0  0
  151.4195  140.1127  156.2371 N   0  0  0  0  0  0  0  0  0  0  0  0
  151.8958  138.8159  155.7915 C   0  0  0  0  0  0  0  0  0  0  0  0
  150.9911  138.2062  154.7041 C   0  0  1  0  0  0  0  0  0  0  0  0
  151.6881  137.1610  154.0530 O   0  0  0  0  0  0  0  0  0  0  0  0
  149.6853  137.6407  155.2961 C   0  0  0  0  0  0  0  0  0  0  0  0
  148.5787  137.5939  154.3063 N   0  3  0  0  0  0  0  0  0  0  0  0
  148.0586  138.9339  153.9229 C   0  0  0  0  0  0  0  0  0  0  0  0
  146.9607  138.7914  152.8498 C   0  0  0  0  0  0  0  0  0  0  0  0
  145.8471  137.9365  153.2683 N   0  0  0  0  0  0  0  0  0  0  0  0
  144.9832  138.5159  154.3039 C   0  0  0  0  0  0  0  0  0  0  0  0
  143.5786  137.8913  154.4240 C   0  0  1  0  0  0  0  0  0  0  0  0
  142.6767  138.6246  155.4272 C   0  0  0  0  0  0  0  0  0  0  0  0
  142.9636  137.9504  153.1547 O   0  0  0  0  0  0  0  0  0  0  0  0
  146.3830  136.6284  153.6451 C   0  0  0  0  0  0  0  0  0  0  0  0
  147.4686  136.7060  154.7387 C   0  0  0  0  0  0  0  0  0  0  0  0
  151.8057  140.8152  157.3729 C   0  0  0  0  0  0  0  0  0  0  0  0
  152.7166  140.5541  158.4115 C   0  0  0  0  0  0  0  0  0  0  0  0
  152.8778  141.4961  159.4491 C   0  0  0  0  0  0  0  0  0  0  0  0
  153.8649  141.2065  160.5661 C   0  0  0  0  0  0  0  0  0  0  0  0
  151.6016  144.5700  160.3955 H   0  0  0  0  0  0  0  0  0  0  0  0
  153.2953  144.1102  160.5636 H   0  0  0  0  0  0  0  0  0  0  0  0
  152.0504  143.2827  161.5117 H   0  0  0  0  0  0  0  0  0  0  0  0
  150.6334  143.8601  158.3748 H   0  0  0  0  0  0  0  0  0  0  0  0
  150.0250  140.6043  154.7134 H   0  0  0  0  0  0  0  0  0  0  0  0
  152.9189  138.9221  155.4274 H   0  0  0  0  0  0  0  0  0  0  0  0
  151.9400  138.1569  156.6594 H   0  0  0  0  0  0  0  0  0  0  0  0
  150.7704  138.9783  153.9681 H   0  0  0  0  0  0  0  0  0  0  0  0
  151.3263  137.0529  153.1858 H   0  0  0  0  0  0  0  0  0  0  0  0
  149.8831  136.6347  155.6704 H   0  0  0  0  0  0  0  0  0  0  0  0
  149.3692  138.2292  156.1586 H   0  0  0  0  0  0  0  0  0  0  0  0
  147.6790  139.4556  154.8022 H   0  0  0  0  0  0  0  0  0  0  0  0
  148.8607  139.5497  153.5188 H   0  0  0  0  0  0  0  0  0  0  0  0
  146.5993  139.7745  152.5514 H   0  0  0  0  0  0  0  0  0  0  0  0
  147.4086  138.3675  151.9498 H   0  0  0  0  0  0  0  0  0  0  0  0
  145.4782  138.4105  155.2705 H   0  0  0  0  0  0  0  0  0  0  0  0
  144.8788  139.5892  154.1463 H   0  0  0  0  0  0  0  0  0  0  0  0
  143.6467  136.8377  154.6931 H   0  0  0  0  0  0  0  0  0  0  0  0
  143.0855  138.5692  156.4365 H   0  0  0  0  0  0  0  0  0  0  0  0
  141.6796  138.1838  155.4548 H   0  0  0  0  0  0  0  0  0  0  0  0
  142.5690  139.6789  155.1704 H   0  0  0  0  0  0  0  0  0  0  0  0
  143.2164  138.7580  152.7338 H   0  0  0  0  0  0  0  0  0  0  0  0
  145.5726  135.9756  153.9721 H   0  0  0  0  0  0  0  0  0  0  0  0
  146.8081  136.1512  152.7609 H   0  0  0  0  0  0  0  0  0  0  0  0
  147.8559  135.7042  154.9281 H   0  0  0  0  0  0  0  0  0  0  0  0
  147.0502  137.0637  155.6804 H   0  0  0  0  0  0  0  0  0  0  0  0
  153.2872  139.6372  158.4090 H   0  0  0  0  0  0  0  0  0  0  0  0
  154.3656  140.2493  160.4173 H   0  0  0  0  0  0  0  0  0  0  0  0
  153.3530  141.1702  161.5279 H   0  0  0  0  0  0  0  0  0  0  0  0
  154.6305  141.9815  160.6096 H   0  0  0  0  0  0  0  0  0  0  0  0
  148.9626  137.1766  153.4701 H   0  0  0  0  0  0  0  0  0  0  0  0
  1  2  1  0  0  0  0
  1 26  1  0  0  0  0
  1 27  1  0  0  0  0
  1 28  1  0  0  0  0
  2 24  1  0  0  0  0
  2  3  2  0  0  0  0
  3  4  1  0  0  0  0
  3 29  1  0  0  0  0
  4 22  2  0  0  0  0
  4  5  1  0  0  0  0
  5  6  2  0  0  0  0
  6  7  1  0  0  0  0
  6 30  1  0  0  0  0
  7  8  1  0  0  0  0
  7 22  1  0  0  0  0
  8  9  1  0  0  0  0
  8 31  1  0  0  0  0
  8 32  1  0  0  0  0
  9 10  1  0  0  0  0
  9 11  1  0  0  0  0
  9 33  1  0  0  0  0
 10 34  1  0  0  0  0
 11 12  1  0  0  0  0
 11 35  1  0  0  0  0
 11 36  1  0  0  0  0
 12 21  1  0  0  0  0
 12 13  1  0  0  0  0
 12 56  1  0  0  0  0
 13 14  1  0  0  0  0
 13 37  1  0  0  0  0
 13 38  1  0  0  0  0
 14 15  1  0  0  0  0
 14 39  1  0  0  0  0
 14 40  1  0  0  0  0
 15 16  1  0  0  0  0
 15 20  1  0  0  0  0
 16 17  1  0  0  0  0
 16 41  1  0  0  0  0
 16 42  1  0  0  0  0
 17 18  1  0  0  0  0
 17 19  1  0  0  0  0
 17 43  1  0  0  0  0
 18 44  1  0  0  0  0
 18 45  1  0  0  0  0
 18 46  1  0  0  0  0
 19 47  1  0  0  0  0
 20 21  1  0  0  0  0
 20 48  1  0  0  0  0
 20 49  1  0  0  0  0
 21 50  1  0  0  0  0
 21 51  1  0  0  0  0
 22 23  1  0  0  0  0
 23 24  2  0  0  0  0
 23 52  1  0  0  0  0
 24 25  1  0  0  0  0
 25 53  1  0  0  0  0
 25 54  1  0  0  0  0
 25 55  1  0  0  0  0
M  CHG  1  12   1
M  END
> <s_m_source_file>
AV-unprocessed.smi

> <i_m_source_file_index>
1033

> <i_lp_mmshare_version>
43012

> <i_f3d_flags>
0

> <s_epik_input>
W0NIM11jKFtjSF0xKWMoW0NIM10pW2NIXWMoYzEyKW4oW2NIXW4yKVtDSDJdW0NASF0oW09IXSlbQ0gyXU4zW0NIMl1bQ0gyXU4oW0NIMl1bQ0gyXTMpW0NIMl1bQ0BIXShbQ0gzXSlbT0hd

> <s_epik_cmdline>
J2VwaWtfcHl0aG9uJywgJy1waCcsICc3LjAnLCAnLXRuJywgJzgnLCAnLW1hJywgJzIwMCcsICctbWV0YWxfYmluZGluZycsICctaW1hZScsICc8aW5maWxlLm1hZT4nLCAnLW9tYWUnLCAnPG91dGZpbGUubWFlPic=

> <r_epik_Ionization_Penalty>
0.131893

> <r_epik_Ionization_Penalty_Charging>
0.00208556

> <r_epik_Ionization_Penalty_Neutral>
0.129808

> <r_epik_State_Penalty>
0.452125

> <r_epik_Charging_Adjusted_Penalty>
0.454211

> <i_epik_Tot_Q>
1

> <i_epik_Tot_abs_Q>
1

> <r_epik_Metal_State_Penalty>
0.376389

> <b_epik_Metal_Only>
0

> <s_lp_Force_Field>
OPLS_2005

> <r_lp_Energy>
31.8043

> <b_lp_Chiralities_Consistent>
1

> <s_lp_Variant>
AV-unprocessed.smi:1033-4

> <Gold.Version>
5.8.1

> <Gold.Id.Protein>
6NUR|6NUR_protein|mol2

> <Gold.PLP.Fitness>
54.2519

> <Gold.PLP.PLP>
-40.7865

> <Gold.PLP.part.hbond>
-4.0000

> <Gold.PLP.part.metal>
0.0000

> <Gold.PLP.part.buried>
-3.7661

> <Gold.PLP.part.nonpolar>
-34.2792

> <Gold.PLP.part.repulsive>
1.1735

> <Gold.PLP.ligand.clash>
0.0000

> <Gold.PLP.ligand.torsion>
0.8295

> <Gold.PLP.Chemscore.Hbond>
5.0000

> <Gold.PLP.Chemscore.CHOScore>
0.0000

> <Gold.PLP.Chemscore.Metal>
0.0000

> <Gold.Chemscore.Hbonds>
donor molecule, donor type, donor heavy atom, donor atom, acceptor molecule, acceptor atom, score
      L1  H    10    34       P1  7949  0.99
      L1  H    12    56       P1  7948  2.00
      L1  H    19    47       P1 10175  1.00
      P1  H 10752 10763       L1    10  1.00

> <Gold.PLP.Chemscore.Internal.Correction>
0.1243

> <Gold.Rescore>
     Score         DG    S(hbond)    S(metal)    S(lipo)     H(rot)  DE(clash)    DE(int)     intcor
     21.38     -22.61       3.61        0.00     110.37       3.07       0.38       0.85       ----

> <Gold.Chemscore.Fitness>
21.3774

> <Gold.Chemscore.DG>
-22.6080

> <Gold.Chemscore.ZeroCoef>
-5.4800

> <Gold.Chemscore.Hbond>
3.6113

> <Gold.Chemscore.Metal>
0.0000

> <Gold.Chemscore.Lipo>
110.3657

> <Gold.Chemscore.Internal_Hbond>
0.0000

> <Gold.Chemscore.DEClash>
0.3766

> <Gold.Chemscore.DEInternal>
0.8540

> <Gold.Chemscore.Rot>
3.0650

> <Gold.Chemscore.Internal.Correction>
   9.000000E+99

> <Gold.Chemscore.Hbonds>
donor molecule, donor type, donor heavy atom, donor atom, acceptor molecule, acceptor atom, score
      L1  H    10    34       P1  7949  0.67
      L1  H    12    56       P1  7948  0.99
      L1  H    19    47       P1 10175  1.00
      P1  H 10752 10763       L1    10  0.60

> <Gold.Chemscore.Hbond.Weighted>
-12.0617

> <Gold.Chemscore.Metal.Weighted>
-0.0000

> <Gold.Chemscore.Lipo.Weighted>
-12.9128

> <Gold.Chemscore.Internal_Hbond.Weighted>
0.0000

> <Gold.Chemscore.DEClash.Weighted>
0.3766

> <Gold.Chemscore.DEInternal.Weighted>
0.8540

> <Gold.Chemscore.Rot.Weighted>
7.8465

> <Gold.Chemscore.Internal.Correction.Weighted>
   9.000000E+99

> <Gold.Protein.RotatedTorsions>
[ 6907 6896 6895 6894 ] final  129.17 input  -60.11 | X-H torsion
[ 7974 7965 7964 7962 ] final   83.83 input  175.53 | X-H torsion
[ 8008 7997 7996 7995 ] final  154.36 input   59.86 | X-H torsion
[ 10167 10162 10161 10158 ] final  174.50 input  -65.29 | X-H torsion
[ 10718 10713 10712 10709 ] final   24.54 input   66.30 | X-H torsion
[ 10763 10752 10751 10750 ] final   49.95 input  -60.55 | X-H torsion
[ 11005 11000 10999 10996 ] final -100.29 input  -57.11 | X-H torsion

> <Gold.Protein.ActiveResidues>
 VAL166  LYS551  ARG553  GLY616  TRP617  ASP618  TYR619  PRO620  LYS621  CYS622 
 ASP623  PHE694  ASN695  SER759  ASP760  ASP761  ALA762  ILE779  LEU786  VAL792 
 PHE793  MET794  SER795  GLU796  ALA797  LYS798  CYS799  TRP800  GLU811  SER814 

> <Gold.Protein.RotatedAtoms>
  152.3650  133.6345  159.6043 H   0  0  0  0  0  0  0  0  0  0  0  0  # atno 6907 bound_to 6896
  150.7627  133.9363  159.3451 H   0  0  0  0  0  0  0  0  0  0  0  0  # atno 6908 bound_to 6896
  151.7195  135.0898  160.0333 H   0  0  0  0  0  0  0  0  0  0  0  0  # atno 6909 bound_to 6896
  145.6068  139.2361  143.2215 H   0  0  0  0  0  0  0  0  0  0  0  0  # atno 7974 bound_to 7965
  156.2535  140.1969  156.6633 H   0  0  0  0  0  0  0  0  0  0  0  0  # atno 8008 bound_to 7997
  154.6448  140.0579  156.9912 H   0  0  0  0  0  0  0  0  0  0  0  0  # atno 8009 bound_to 7997
  155.1508  140.3251  155.4434 H   0  0  0  0  0  0  0  0  0  0  0  0  # atno 8010 bound_to 7997
  139.5144  144.3139  152.0265 H   0  0  0  0  0  0  0  0  0  0  0  0  # atno 10167 bound_to 10162
  157.1812  130.6803  149.6114 H   0  0  0  0  0  0  0  0  0  0  0  0  # atno 10718 bound_to 10713
  152.9785  135.5895  154.4173 H   0  0  0  0  0  0  0  0  0  0  0  0  # atno 10763 bound_to 10752
  154.3802  135.2767  155.2218 H   0  0  0  0  0  0  0  0  0  0  0  0  # atno 10764 bound_to 10752
  154.4135  135.6076  153.6021 H   0  0  0  0  0  0  0  0  0  0  0  0  # atno 10765 bound_to 10752
  141.1276  133.8387  157.1083 H   0  0  0  0  0  0  0  0  0  0  0  0  # atno 11005 bound_to 11000
  146.1535  140.6892  142.9311 LP  0  0  0  0  0  0  0  0  0  0  0  0  # atno 17320 bound_to 7965
  144.7287  140.4604  143.6954 LP  0  0  0  0  0  0  0  0  0  0  0  0  # atno 17321 bound_to 7965
  140.2583  144.4095  150.6195 LP  0  0  0  0  0  0  0  0  0  0  0  0  # atno 17342 bound_to 10162
  140.6175  143.2173  151.6761 LP  0  0  0  0  0  0  0  0  0  0  0  0  # atno 17343 bound_to 10162
  155.9724  130.4646  150.6223 LP  0  0  0  0  0  0  0  0  0  0  0  0  # atno 17370 bound_to 10713
  157.3950  131.0801  151.1359 LP  0  0  0  0  0  0  0  0  0  0  0  0  # atno 17371 bound_to 10713
  140.0291  134.9910  157.0744 LP  0  0  0  0  0  0  0  0  0  0  0  0  # atno 17394 bound_to 11000
  140.4314  134.1776  155.7168 LP  0  0  0  0  0  0  0  0  0  0  0  0  # atno 17395 bound_to 11000

$$$$
