AV-unprocessed.smi:54|AV-procd|sdf|535|dock5
  -GOLD-   2262016413D 1   1.00000     0.00000
 Structure written by MMmdl.
 44 46  0  0  0  0  0  0  0  0  1 V2000
  152.5655  143.8319  160.1741 C   0  0  0  0  0  0  0  0  0  0  0  0
  152.0245  144.1251  158.7652 C   0  0  0  0  0  0  0  0  0  0  0  0
  150.9299  145.2038  158.8001 C   0  0  0  0  0  0  0  0  0  0  0  0
  151.4973  142.8421  158.1139 C   0  0  0  0  0  0  0  0  0  0  0  0
  151.6616  141.7328  158.6224 O   0  0  0  0  0  0  0  0  0  0  0  0
  150.7790  143.0188  156.8677 N   0  0  0  0  0  0  0  0  0  0  0  0
  150.2497  142.0305  156.1146 C   0  0  0  0  0  0  0  0  0  0  0  0
  150.7711  140.8133  156.0792 N   0  0  0  0  0  0  0  0  0  0  0  0
  150.1236  139.9314  155.2567 C   0  0  0  0  0  0  0  0  0  0  0  0
  149.0108  140.2132  154.4872 C   0  0  0  0  0  0  0  0  0  0  0  0
  148.6082  139.0842  153.7873 N   0  0  0  0  0  0  0  0  0  0  0  0
  149.4702  138.1742  154.1390 C   0  0  0  0  0  0  0  0  0  0  0  0
  150.4432  138.6036  155.0102 N   0  0  0  0  0  0  0  0  0  0  0  0
  151.5523  137.7575  155.5758 C   0  0  2  0  0  0  0  0  0  0  0  0
  151.2183  136.4149  155.4197 O   0  0  0  0  0  0  0  0  0  0  0  0
  150.6639  135.9047  156.6239 C   0  0  1  0  0  0  0  0  0  0  0  0
  150.8731  134.3842  156.6895 C   0  0  0  0  0  0  0  0  0  0  0  0
  150.0563  133.8227  157.6946 O   0  0  0  0  0  0  0  0  0  0  0  0
  151.4298  136.6678  157.7163 C   0  0  2  0  0  0  0  0  0  0  0  0
  150.6037  136.8722  158.8443 O   0  0  0  0  0  0  0  0  0  0  0  0
  151.8073  138.0044  157.0723 C   0  0  1  0  0  0  0  0  0  0  0  0
  153.1697  138.2912  157.3171 O   0  0  0  0  0  0  0  0  0  0  0  0
  148.4479  141.5331  154.4998 C   0  0  0  0  0  0  0  0  0  0  0  0
  147.4772  141.9532  153.8733 O   0  0  0  0  0  0  0  0  0  0  0  0
  149.1443  142.3975  155.3515 N   0  0  0  0  0  0  0  0  0  0  0  0
  152.4102  138.0009  154.9472 H   0  0  0  0  0  0  0  0  0  0  0  0
  149.6011  136.1398  156.6589 H   0  0  0  0  0  0  0  0  0  0  0  0
  152.3226  136.1120  158.0083 H   0  0  0  0  0  0  0  0  0  0  0  0
  151.2099  138.8415  157.4330 H   0  0  0  0  0  0  0  0  0  0  0  0
  153.3304  143.0546  160.1525 H   0  0  0  0  0  0  0  0  0  0  0  0
  151.7738  143.5003  160.8473 H   0  0  0  0  0  0  0  0  0  0  0  0
  153.0174  144.7227  160.6107 H   0  0  0  0  0  0  0  0  0  0  0  0
  152.8504  144.4995  158.1587 H   0  0  0  0  0  0  0  0  0  0  0  0
  150.5420  145.4086  157.8016 H   0  0  0  0  0  0  0  0  0  0  0  0
  151.3206  146.1413  159.1965 H   0  0  0  0  0  0  0  0  0  0  0  0
  150.0904  144.9041  159.4289 H   0  0  0  0  0  0  0  0  0  0  0  0
  150.6014  143.9695  156.5786 H   0  0  0  0  0  0  0  0  0  0  0  0
  149.4242  137.1627  153.7622 H   0  0  0  0  0  0  0  0  0  0  0  0
  150.6721  133.9127  155.7269 H   0  0  0  0  0  0  0  0  0  0  0  0
  151.9081  134.1614  156.9504 H   0  0  0  0  0  0  0  0  0  0  0  0
  149.4636  133.2071  157.2913 H   0  0  0  0  0  0  0  0  0  0  0  0
  150.9375  137.6132  159.3281 H   0  0  0  0  0  0  0  0  0  0  0  0
  153.5305  137.5991  157.8497 H   0  0  0  0  0  0  0  0  0  0  0  0
  148.8021  143.3451  155.4139 H   0  0  0  0  0  0  0  0  0  0  0  0
  1  2  1  0  0  0  0
  1 30  1  0  0  0  0
  1 31  1  0  0  0  0
  1 32  1  0  0  0  0
  2  3  1  0  0  0  0
  2  4  1  0  0  0  0
  2 33  1  0  0  0  0
  3 34  1  0  0  0  0
  3 35  1  0  0  0  0
  3 36  1  0  0  0  0
  4  5  2  0  0  0  0
  4  6  1  0  0  0  0
  6 37  1  0  0  0  0
  6  7  1  0  0  0  0
  7 25  1  0  0  0  0
  7  8  2  0  0  0  0
  8  9  1  0  0  0  0
  9 13  1  0  0  0  0
  9 10  2  0  0  0  0
 10 11  1  0  0  0  0
 10 23  1  0  0  0  0
 11 12  2  0  0  0  0
 12 13  1  0  0  0  0
 12 38  1  0  0  0  0
 13 14  1  0  0  0  0
 14 26  1  0  0  0  0
 14 21  1  0  0  0  0
 14 15  1  0  0  0  0
 15 16  1  0  0  0  0
 16 27  1  0  0  0  0
 16 17  1  0  0  0  0
 16 19  1  0  0  0  0
 17 18  1  0  0  0  0
 17 39  1  0  0  0  0
 17 40  1  0  0  0  0
 18 41  1  0  0  0  0
 19 28  1  0  0  0  0
 19 20  1  0  0  0  0
 19 21  1  0  0  0  0
 20 42  1  0  0  0  0
 21 29  1  0  0  0  0
 21 22  1  0  0  0  0
 22 43  1  0  0  0  0
 23 24  2  0  0  0  0
 23 25  1  0  0  0  0
 25 44  1  0  0  0  0
M  END
> <s_m_source_file>
AV-unprocessed.smi

> <i_m_source_file_index>
54

> <i_lp_mmshare_version>
43012

> <i_f3d_flags>
0

> <s_epik_input>
W0NIM11bQ0hdKFtDSDNdKUMoPU8pW05IXWMobjEpW25IXWMoPU8pYyhjMTIpbltjSF1uMltDQEBIXTNPW0NASF0oW0NIMl1bT0hdKVtDQEBIXShbT0hdKVtDQEhdM1tPSF0=

> <s_epik_cmdline>
J2VwaWtfcHl0aG9uJywgJy1waCcsICc3LjAnLCAnLXRuJywgJzgnLCAnLW1hJywgJzIwMCcsICctbWV0YWxfYmluZGluZycsICctaW1hZScsICc8aW5maWxlLm1hZT4nLCAnLW9tYWUnLCAnPG91dGZpbGUubWFlPic=

> <r_lp_tautomer_probability>
0.85571

> <r_epik_Ionization_Penalty>
0.0316551

> <r_epik_Ionization_Penalty_Charging>
0.0316043

> <r_epik_Ionization_Penalty_Neutral>
5.07097e-05

> <r_epik_State_Penalty>
3.15494e-07

> <r_epik_Charging_Adjusted_Penalty>
0.0316047

> <i_epik_Tot_Q>
0

> <i_epik_Tot_abs_Q>
0

> <r_epik_Metal_State_Penalty>
0.421206

> <b_epik_Metal_Only>
0

> <s_epik_Chemistry_Notes>
This compound contains an acetal/aminal-like group ( X-CH(R)-Y where X, Y are N, S, or O) that may be acid/base labile, releasing an aldehyde.

> <s_lp_Force_Field>
OPLS_2005

> <r_lp_Energy>
37.5812

> <b_lp_Chiralities_Consistent>
1

> <s_lp_Variant>
AV-unprocessed.smi:54-7

> <Gold.Version>
5.8.1

> <Gold.Id.Protein>
6NUR|6NUR_protein|mol2

> <Gold.PLP.Fitness>
56.0118

> <Gold.PLP.PLP>
-39.4933

> <Gold.PLP.part.hbond>
-5.8099

> <Gold.PLP.part.metal>
0.0000

> <Gold.PLP.part.buried>
-6.5524

> <Gold.PLP.part.nonpolar>
-31.1908

> <Gold.PLP.part.repulsive>
2.1508

> <Gold.PLP.ligand.clash>
0.0000

> <Gold.PLP.ligand.torsion>
1.0570

> <Gold.PLP.Chemscore.Hbond>
5.1991

> <Gold.PLP.Chemscore.CHOScore>
1.0000

> <Gold.PLP.Chemscore.Metal>
0.0000

> <Gold.Chemscore.Hbonds>
donor molecule, donor type, donor heavy atom, donor atom, acceptor molecule, acceptor atom, score
      L1  H     6    37       P1  8028  0.52
      L1  H    25    44       P1  8028  0.65
      P1  H  6896  6908       L1    18  0.72
      P1  H  6896  6909       L1    20  0.62
      P1  H  7997  8010       L1    22  0.50
      P1  H 10752 10764       L1    15  0.71
      L1  C    12    38       P1  7948  1.00

> <Gold.PLP.Chemscore.Internal.Correction>
0.0352

> <Gold.Rescore>
     Score         DG    S(hbond)    S(metal)    S(lipo)     H(rot)  DE(clash)    DE(int)     intcor
     13.79     -16.92       4.54        0.00      56.95       4.05       0.58       2.55       ----

> <Gold.Chemscore.Fitness>
13.7946

> <Gold.Chemscore.DG>
-16.9241

> <Gold.Chemscore.ZeroCoef>
-5.4800

> <Gold.Chemscore.Hbond>
4.5352

> <Gold.Chemscore.Metal>
0.0000

> <Gold.Chemscore.Lipo>
56.9477

> <Gold.Chemscore.Internal_Hbond>
0.0000

> <Gold.Chemscore.DEClash>
0.5758

> <Gold.Chemscore.DEInternal>
2.5537

> <Gold.Chemscore.Rot>
4.0493

> <Gold.Chemscore.Internal.Correction>
   9.000000E+99

> <Gold.Chemscore.Hbonds>
donor molecule, donor type, donor heavy atom, donor atom, acceptor molecule, acceptor atom, score
      L1  H     6    37       P1  8028  0.51
      L1  H    25    44       P1  8028  0.64
      P1  H  6896  6908       L1    18  0.50
      P1  H  6896  6909       L1    20  0.06
      P1  H  7997  8010       L1    22  0.48
      P1  H 10752 10764       L1    15  0.23

> <Gold.Chemscore.Hbond.Weighted>
-15.1475

> <Gold.Chemscore.Metal.Weighted>
-0.0000

> <Gold.Chemscore.Lipo.Weighted>
-6.6629

> <Gold.Chemscore.Internal_Hbond.Weighted>
0.0000

> <Gold.Chemscore.DEClash.Weighted>
0.5758

> <Gold.Chemscore.DEInternal.Weighted>
2.5537

> <Gold.Chemscore.Rot.Weighted>
10.3662

> <Gold.Chemscore.Internal.Correction.Weighted>
   9.000000E+99

> <Gold.Protein.RotatedTorsions>
[ 6907 6896 6895 6894 ] final   95.89 input  -60.11 | X-H torsion
[ 7974 7965 7964 7962 ] final -176.49 input  175.53 | X-H torsion
[ 8008 7997 7996 7995 ] final   52.02 input   59.86 | X-H torsion
[ 10167 10162 10161 10158 ] final -177.78 input  -65.29 | X-H torsion
[ 10718 10713 10712 10709 ] final   22.55 input   66.30 | X-H torsion
[ 10763 10752 10751 10750 ] final  -73.55 input  -60.55 | X-H torsion
[ 11005 11000 10999 10996 ] final   94.02 input  -57.11 | X-H torsion

> <Gold.Protein.ActiveResidues>
 VAL166  LYS551  ARG553  GLY616  TRP617  ASP618  TYR619  PRO620  LYS621  CYS622 
 ASP623  PHE694  ASN695  SER759  ASP760  ASP761  ALA762  ILE779  LEU786  VAL792 
 PHE793  MET794  SER795  GLU796  ALA797  LYS798  CYS799  TRP800  GLU811  SER814 

> <Gold.Protein.RotatedAtoms>
  152.5440  134.0970  159.8301 H   0  0  0  0  0  0  0  0  0  0  0  0  # atno 6907 bound_to 6896
  151.1052  133.5206  159.2615 H   0  0  0  0  0  0  0  0  0  0  0  0  # atno 6908 bound_to 6896
  151.1946  135.0426  159.8901 H   0  0  0  0  0  0  0  0  0  0  0  0  # atno 6909 bound_to 6896
  144.7127  140.1162  143.6408 H   0  0  0  0  0  0  0  0  0  0  0  0  # atno 7974 bound_to 7965
  155.4450  140.3456  155.4294 H   0  0  0  0  0  0  0  0  0  0  0  0  # atno 8008 bound_to 7997
  156.1256  140.1499  156.9172 H   0  0  0  0  0  0  0  0  0  0  0  0  # atno 8009 bound_to 7997
  154.4855  140.0856  156.7457 H   0  0  0  0  0  0  0  0  0  0  0  0  # atno 8010 bound_to 7997
  139.5463  144.2226  152.0994 H   0  0  0  0  0  0  0  0  0  0  0  0  # atno 10167 bound_to 10162
  157.1538  130.6686  149.6021 H   0  0  0  0  0  0  0  0  0  0  0  0  # atno 10718 bound_to 10713
  154.4610  135.5893  153.6255 H   0  0  0  0  0  0  0  0  0  0  0  0  # atno 10763 bound_to 10752
  152.9823  135.6044  154.3486 H   0  0  0  0  0  0  0  0  0  0  0  0  # atno 10764 bound_to 10752
  154.3358  135.2842  155.2427 H   0  0  0  0  0  0  0  0  0  0  0  0  # atno 10765 bound_to 10752
  139.8803  134.8822  156.3803 H   0  0  0  0  0  0  0  0  0  0  0  0  # atno 11005 bound_to 11000
  145.9412  139.2670  143.1268 LP  0  0  0  0  0  0  0  0  0  0  0  0  # atno 17320 bound_to 7965
  145.9422  140.8971  143.0302 LP  0  0  0  0  0  0  0  0  0  0  0  0  # atno 17321 bound_to 7965
  140.1713  144.4933  150.6578 LP  0  0  0  0  0  0  0  0  0  0  0  0  # atno 17342 bound_to 10162
  140.6712  143.2287  151.5619 LP  0  0  0  0  0  0  0  0  0  0  0  0  # atno 17343 bound_to 10162
  155.9765  130.4735  150.6536 LP  0  0  0  0  0  0  0  0  0  0  0  0  # atno 17370 bound_to 10713
  157.4196  131.0835  151.1144 LP  0  0  0  0  0  0  0  0  0  0  0  0  # atno 17371 bound_to 10713
  140.9403  133.7519  156.0138 LP  0  0  0  0  0  0  0  0  0  0  0  0  # atno 17394 bound_to 11000
  140.8227  134.3270  157.5376 LP  0  0  0  0  0  0  0  0  0  0  0  0  # atno 17395 bound_to 11000

$$$$
