AV-unprocessed.smi:1859|AV-procd|sdf|7544|dock1
  -GOLD-   22720 9263D 1   1.00000     0.00000
 Structure written by MMmdl.
 45 47  0  0  0  0  0  0  0  0  1 V2000
  151.7169  136.1540  156.4672 O   0  0  0  0  0  0  0  0  0  0  0  0
  150.8237  136.9605  156.2075 C   0  0  0  0  0  0  0  0  0  0  0  0
  149.7565  137.1465  157.0014 N   0  0  0  0  0  0  0  0  0  0  0  0
  149.5259  136.4781  158.2806 C   0  0  0  0  0  0  0  0  0  0  0  0
  148.2345  136.9602  158.9731 C   0  0  0  0  0  0  0  0  0  0  0  0
  147.9550  136.2690  160.2975 C   0  0  0  0  0  0  0  0  0  0  0  0
  147.8460  134.8631  160.3689 C   0  0  0  0  0  0  0  0  0  0  0  0
  147.5362  134.2762  161.6106 C   0  0  0  0  0  0  0  0  0  0  0  0
  147.3539  135.1120  162.7290 C   0  0  0  0  0  0  0  0  0  0  0  0
  147.4936  136.5035  162.5554 C   0  0  0  0  0  0  0  0  0  0  0  0
  147.7905  137.0767  161.3692 N   0  0  0  0  0  0  0  0  0  0  0  0
  150.9002  137.8416  154.9461 C   0  0  1  0  0  0  0  0  0  0  0  0
  149.5091  138.3980  154.5512 C   0  0  0  0  0  0  0  0  0  0  0  0
  149.0785  139.6191  155.3896 C   0  0  0  0  0  0  0  0  0  0  0  0
  150.2003  140.6700  155.4298 C   0  0  0  0  0  0  0  0  0  0  0  0
  151.4184  140.0509  155.9723 N   0  0  0  0  0  0  0  0  0  0  0  0
  152.0154  140.3618  157.1511 C   0  0  0  0  0  0  0  0  0  0  0  0
  153.1026  139.8832  157.4778 O   0  0  0  0  0  0  0  0  0  0  0  0
  151.2816  141.2937  158.0694 C   0  0  0  0  0  0  0  0  0  0  0  0
  151.9182  142.6439  158.3226 C   0  0  0  0  0  0  0  0  0  0  0  0
  151.8971  141.6125  159.4203 C   0  0  0  0  0  0  0  0  0  0  0  0
  151.9269  138.9964  155.0793 C   0  0  0  0  0  0  0  0  0  0  0  0
  149.0666  137.8249  156.7126 H   0  0  0  0  0  0  0  0  0  0  0  0
  149.4595  135.4062  158.0939 H   0  0  0  0  0  0  0  0  0  0  0  0
  150.3810  136.6159  158.9445 H   0  0  0  0  0  0  0  0  0  0  0  0
  148.2888  138.0368  159.1391 H   0  0  0  0  0  0  0  0  0  0  0  0
  147.3841  136.8020  158.3086 H   0  0  0  0  0  0  0  0  0  0  0  0
  147.9777  134.2491  159.4899 H   0  0  0  0  0  0  0  0  0  0  0  0
  147.4351  133.2049  161.7024 H   0  0  0  0  0  0  0  0  0  0  0  0
  147.1128  134.6973  163.6965 H   0  0  0  0  0  0  0  0  0  0  0  0
  147.3620  137.1740  163.3918 H   0  0  0  0  0  0  0  0  0  0  0  0
  151.2374  137.1998  154.1304 H   0  0  0  0  0  0  0  0  0  0  0  0
  149.5408  138.6917  153.5014 H   0  0  0  0  0  0  0  0  0  0  0  0
  148.7492  137.6181  154.6154 H   0  0  0  0  0  0  0  0  0  0  0  0
  148.1731  140.0555  154.9674 H   0  0  0  0  0  0  0  0  0  0  0  0
  148.8235  139.3112  156.4042 H   0  0  0  0  0  0  0  0  0  0  0  0
  150.4060  141.0238  154.4185 H   0  0  0  0  0  0  0  0  0  0  0  0
  149.8732  141.5553  155.9724 H   0  0  0  0  0  0  0  0  0  0  0  0
  150.1946  141.2377  158.0615 H   0  0  0  0  0  0  0  0  0  0  0  0
  152.8782  142.8555  157.8544 H   0  0  0  0  0  0  0  0  0  0  0  0
  151.2478  143.4968  158.4056 H   0  0  0  0  0  0  0  0  0  0  0  0
  151.2106  141.7669  160.2504 H   0  0  0  0  0  0  0  0  0  0  0  0
  152.8482  141.1587  159.6933 H   0  0  0  0  0  0  0  0  0  0  0  0
  152.8886  138.5951  155.4028 H   0  0  0  0  0  0  0  0  0  0  0  0
  152.1169  139.4317  154.0972 H   0  0  0  0  0  0  0  0  0  0  0  0
  1  2  2  0  0  0  0
  2  3  1  0  0  0  0
  2 12  1  0  0  0  0
  3  4  1  0  0  0  0
  3 23  1  0  0  0  0
  4  5  1  0  0  0  0
  4 24  1  0  0  0  0
  4 25  1  0  0  0  0
  5  6  1  0  0  0  0
  5 26  1  0  0  0  0
  5 27  1  0  0  0  0
  6 11  1  0  0  0  0
  6  7  2  0  0  0  0
  7  8  1  0  0  0  0
  7 28  1  0  0  0  0
  8  9  2  0  0  0  0
  8 29  1  0  0  0  0
  9 10  1  0  0  0  0
  9 30  1  0  0  0  0
 10 11  2  0  0  0  0
 10 31  1  0  0  0  0
 12 22  1  0  0  0  0
 12 13  1  0  0  0  0
 12 32  1  0  0  0  0
 13 14  1  0  0  0  0
 13 33  1  0  0  0  0
 13 34  1  0  0  0  0
 14 15  1  0  0  0  0
 14 35  1  0  0  0  0
 14 36  1  0  0  0  0
 15 16  1  0  0  0  0
 15 37  1  0  0  0  0
 15 38  1  0  0  0  0
 16 17  1  0  0  0  0
 16 22  1  0  0  0  0
 17 18  2  0  0  0  0
 17 19  1  0  0  0  0
 19 21  1  0  0  0  0
 19 20  1  0  0  0  0
 19 39  1  0  0  0  0
 20 21  1  0  0  0  0
 20 40  1  0  0  0  0
 20 41  1  0  0  0  0
 21 42  1  0  0  0  0
 21 43  1  0  0  0  0
 22 44  1  0  0  0  0
 22 45  1  0  0  0  0
M  END
> <s_m_source_file>
AV-unprocessed.smi

> <i_m_source_file_index>
1859

> <i_lp_mmshare_version>
43012

> <i_f3d_flags>
0

> <s_epik_input>
W0NIMl0xW0NIMl1bQ0hdMUMoPU8pTihbQ0gyXTIpW0NIMl1bQ0gyXVtDSDJdW0NASF0yQyg9TylbTkhdW0NIMl1bQ0gyXWMzW2NIXVtjSF1bY0hdW2NIXW4z

> <s_epik_cmdline>
J2VwaWtfcHl0aG9uJywgJy1waCcsICc3LjAnLCAnLXRuJywgJzgnLCAnLW1hJywgJzIwMCcsICctbWV0YWxfYmluZGluZycsICctaW1hZScsICc8aW5maWxlLm1hZT4nLCAnLW9tYWUnLCAnPG91dGZpbGUubWFlPic=

> <r_epik_Ionization_Penalty>
0.0268048

> <r_epik_Ionization_Penalty_Charging>
0

> <r_epik_Ionization_Penalty_Neutral>
0.0268048

> <r_epik_State_Penalty>
0.0219025

> <r_epik_Charging_Adjusted_Penalty>
0.0219025

> <i_epik_Tot_Q>
0

> <i_epik_Tot_abs_Q>
0

> <r_epik_Metal_State_Penalty>
0.020951

> <b_epik_Metal_Only>
0

> <s_lp_Force_Field>
OPLS_2005

> <r_lp_Energy>
25.8976

> <b_lp_Chiralities_Consistent>
1

> <s_lp_Variant>
AV-unprocessed.smi:1859-2

> <Gold.Version>
5.8.1

> <Gold.Id.Protein>
6NUR|6NUR_protein|mol2

> <Gold.PLP.Fitness>
51.6160

> <Gold.PLP.PLP>
-42.2687

> <Gold.PLP.part.hbond>
-3.4826

> <Gold.PLP.part.metal>
0.0000

> <Gold.PLP.part.buried>
-3.9441

> <Gold.PLP.part.nonpolar>
-35.2147

> <Gold.PLP.part.repulsive>
0.0217

> <Gold.PLP.ligand.clash>
0.0000

> <Gold.PLP.ligand.torsion>
0.5761

> <Gold.PLP.Chemscore.Hbond>
3.4177

> <Gold.PLP.Chemscore.CHOScore>
0.0000

> <Gold.PLP.Chemscore.Metal>
0.0000

> <Gold.Chemscore.Hbonds>
donor molecule, donor type, donor heavy atom, donor atom, acceptor molecule, acceptor atom, score
      P1  H  6931  6943       L1    11  1.00
      P1  H  6934  6947       L1    11  0.69
      P1  H  7997  8008       L1    18  1.00
      P1  H 10752 10764       L1     1  0.73

> <Gold.PLP.Chemscore.Internal.Correction>
0.2467

> <Gold.Rescore>
     Score         DG    S(hbond)    S(metal)    S(lipo)     H(rot)  DE(clash)    DE(int)     intcor
     20.30     -22.17       2.74        0.00      99.33       1.59       0.27       1.59       ----

> <Gold.Chemscore.Fitness>
20.3048

> <Gold.Chemscore.DG>
-22.1676

> <Gold.Chemscore.ZeroCoef>
-5.4800

> <Gold.Chemscore.Hbond>
2.7386

> <Gold.Chemscore.Metal>
0.0000

> <Gold.Chemscore.Lipo>
99.3343

> <Gold.Chemscore.Internal_Hbond>
0.0000

> <Gold.Chemscore.DEClash>
0.2714

> <Gold.Chemscore.DEInternal>
1.5914

> <Gold.Chemscore.Rot>
1.5943

> <Gold.Chemscore.Internal.Correction>
   9.000000E+99

> <Gold.Chemscore.Hbonds>
donor molecule, donor type, donor heavy atom, donor atom, acceptor molecule, acceptor atom, score
      P1  H  6931  6943       L1    11  0.25
      P1  H  6934  6947       L1    11  0.61
      P1  H  7997  8008       L1    18  0.89
      P1  H 10752 10764       L1     1  0.71

> <Gold.Chemscore.Hbond.Weighted>
-9.1470

> <Gold.Chemscore.Metal.Weighted>
-0.0000

> <Gold.Chemscore.Lipo.Weighted>
-11.6221

> <Gold.Chemscore.Internal_Hbond.Weighted>
0.0000

> <Gold.Chemscore.DEClash.Weighted>
0.2714

> <Gold.Chemscore.DEInternal.Weighted>
1.5914

> <Gold.Chemscore.Rot.Weighted>
4.0814

> <Gold.Chemscore.Internal.Correction.Weighted>
   9.000000E+99

> <Gold.Protein.RotatedTorsions>
[ 6907 6896 6895 6894 ] final -132.01 input  -60.11 | X-H torsion
[ 7974 7965 7964 7962 ] final  164.28 input  175.53 | X-H torsion
[ 8008 7997 7996 7995 ] final  -57.46 input   59.86 | X-H torsion
[ 10167 10162 10161 10158 ] final -161.67 input  -65.29 | X-H torsion
[ 10718 10713 10712 10709 ] final   30.02 input   66.30 | X-H torsion
[ 10763 10752 10751 10750 ] final  -39.63 input  -60.55 | X-H torsion
[ 11005 11000 10999 10996 ] final  -31.46 input  -57.11 | X-H torsion

> <Gold.Protein.ActiveResidues>
 VAL166  LYS551  ARG553  GLY616  TRP617  ASP618  TYR619  PRO620  LYS621  CYS622 
 ASP623  PHE694  ASN695  SER759  ASP760  ASP761  ALA762  ILE779  LEU786  VAL792 
 PHE793  MET794  SER795  GLU796  ALA797  LYS798  CYS799  TRP800  GLU811  SER814 

> <Gold.Protein.RotatedAtoms>
  150.9575  133.6481  159.2760 H   0  0  0  0  0  0  0  0  0  0  0  0  # atno 6907 bound_to 6896
  151.3816  135.0939  159.9507 H   0  0  0  0  0  0  0  0  0  0  0  0  # atno 6908 bound_to 6896
  152.5134  133.9108  159.7541 H   0  0  0  0  0  0  0  0  0  0  0  0  # atno 6909 bound_to 6896
  144.7552  139.8303  143.6352 H   0  0  0  0  0  0  0  0  0  0  0  0  # atno 7974 bound_to 7965
  154.4269  140.1106  156.5800 H   0  0  0  0  0  0  0  0  0  0  0  0  # atno 8008 bound_to 7997
  155.6122  140.3494  155.4607 H   0  0  0  0  0  0  0  0  0  0  0  0  # atno 8009 bound_to 7997
  156.0090  140.1215  157.0462 H   0  0  0  0  0  0  0  0  0  0  0  0  # atno 8010 bound_to 7997
  139.6448  144.0192  152.2119 H   0  0  0  0  0  0  0  0  0  0  0  0  # atno 10167 bound_to 10162
  157.2542  130.7129  149.6420 H   0  0  0  0  0  0  0  0  0  0  0  0  # atno 10718 bound_to 10713
  153.9326  135.6770  153.4745 H   0  0  0  0  0  0  0  0  0  0  0  0  # atno 10763 bound_to 10752
  153.0972  135.4845  154.8797 H   0  0  0  0  0  0  0  0  0  0  0  0  # atno 10764 bound_to 10752
  154.7420  135.3163  154.8669 H   0  0  0  0  0  0  0  0  0  0  0  0  # atno 10765 bound_to 10752
  140.9470  133.7244  156.1161 H   0  0  0  0  0  0  0  0  0  0  0  0  # atno 11005 bound_to 11000
  146.1553  139.4649  143.0023 LP  0  0  0  0  0  0  0  0  0  0  0  0  # atno 17320 bound_to 7965
  145.6804  141.0192  143.1609 LP  0  0  0  0  0  0  0  0  0  0  0  0  # atno 17321 bound_to 7965
  139.9891  144.6374  150.7830 LP  0  0  0  0  0  0  0  0  0  0  0  0  # atno 17342 bound_to 10162
  140.7509  143.2963  151.3195 LP  0  0  0  0  0  0  0  0  0  0  0  0  # atno 17343 bound_to 10162
  155.9665  130.4418  150.5355 LP  0  0  0  0  0  0  0  0  0  0  0  0  # atno 17370 bound_to 10713
  157.3246  131.0688  151.1907 LP  0  0  0  0  0  0  0  0  0  0  0  0  # atno 17371 bound_to 10713
  140.7656  134.3890  157.5517 LP  0  0  0  0  0  0  0  0  0  0  0  0  # atno 17394 bound_to 11000
  139.8836  134.8989  156.2755 LP  0  0  0  0  0  0  0  0  0  0  0  0  # atno 17395 bound_to 11000

$$$$
