AV-unprocessed.smi:3115|AV-procd|sdf|11860|dock8
  -GOLD-   2272017243D 1   1.00000     0.00000
 Structure written by MMmdl.
 32 33  0  0  0  0  0  0  0  0  1 V2000
  152.1803  144.3962  160.5395 C   0  0  0  0  0  0  0  0  0  0  0  0
  152.5940  143.1631  159.7292 C   0  0  2  0  0  0  0  0  0  0  0  0
  151.5639  142.8155  158.6365 C   0  0  0  0  0  0  0  0  0  0  0  0
  151.9492  141.5845  157.9574 N   0  0  0  0  0  0  0  0  0  0  0  0
  151.1254  141.2632  156.8692 C   0  0  0  0  0  0  0  0  0  0  0  0
  151.3875  140.0857  156.1371 C   0  0  0  0  0  0  0  0  0  0  0  0
  150.5546  139.7657  155.0459 C   0  0  0  0  0  0  0  0  0  0  0  0
  150.8012  138.5170  154.2254 C   0  0  0  0  0  0  0  0  0  0  0  0
  149.7981  138.3296  153.1972 N   0  0  0  0  0  0  0  0  0  0  0  0
  149.4957  140.6381  154.7245 C   0  0  0  0  0  0  0  0  0  0  0  0
  149.3142  141.7897  155.5147 C   0  0  0  0  0  0  0  0  0  0  0  0
  150.1053  142.1011  156.5635 N   0  0  0  0  0  0  0  0  0  0  0  0
  152.1442  140.4771  158.8844 C   0  0  0  0  0  0  0  0  0  0  0  0
  153.1591  140.8748  159.9692 C   0  0  0  0  0  0  0  0  0  0  0  0
  152.7162  142.0598  160.6248 O   0  0  0  0  0  0  0  0  0  0  0  0
  152.0839  145.2729  159.8986 H   0  0  0  0  0  0  0  0  0  0  0  0
  152.9205  144.6248  161.3065 H   0  0  0  0  0  0  0  0  0  0  0  0
  151.2230  144.2379  161.0369 H   0  0  0  0  0  0  0  0  0  0  0  0
  153.5647  143.3583  159.2695 H   0  0  0  0  0  0  0  0  0  0  0  0
  150.5747  142.6967  159.0811 H   0  0  0  0  0  0  0  0  0  0  0  0
  151.4964  143.6276  157.9112 H   0  0  0  0  0  0  0  0  0  0  0  0
  152.2118  139.4413  156.4068 H   0  0  0  0  0  0  0  0  0  0  0  0
  151.7872  138.5609  153.7620 H   0  0  0  0  0  0  0  0  0  0  0  0
  150.7979  137.6485  154.8845 H   0  0  0  0  0  0  0  0  0  0  0  0
  150.0342  138.8827  152.3859 H   0  0  0  0  0  0  0  0  0  0  0  0
  149.7964  137.3639  152.9006 H   0  0  0  0  0  0  0  0  0  0  0  0
  148.8373  140.4316  153.8935 H   0  0  0  0  0  0  0  0  0  0  0  0
  148.5125  142.4800  155.2982 H   0  0  0  0  0  0  0  0  0  0  0  0
  151.1932  140.2112  159.3483 H   0  0  0  0  0  0  0  0  0  0  0  0
  152.4973  139.5984  158.3432 H   0  0  0  0  0  0  0  0  0  0  0  0
  153.2552  140.0762  160.7048 H   0  0  0  0  0  0  0  0  0  0  0  0
  154.1488  141.0328  159.5378 H   0  0  0  0  0  0  0  0  0  0  0  0
  1  2  1  0  0  0  0
  1 16  1  0  0  0  0
  1 17  1  0  0  0  0
  1 18  1  0  0  0  0
  2 15  1  0  0  0  0
  2  3  1  0  0  0  0
  2 19  1  0  0  0  0
  3  4  1  0  0  0  0
  3 20  1  0  0  0  0
  3 21  1  0  0  0  0
  4  5  1  0  0  0  0
  4 13  1  0  0  0  0
  5 12  1  0  0  0  0
  5  6  2  0  0  0  0
  6  7  1  0  0  0  0
  6 22  1  0  0  0  0
  7  8  1  0  0  0  0
  7 10  2  0  0  0  0
  8  9  1  0  0  0  0
  8 23  1  0  0  0  0
  8 24  1  0  0  0  0
  9 25  1  0  0  0  0
  9 26  1  0  0  0  0
 10 11  1  0  0  0  0
 10 27  1  0  0  0  0
 11 12  2  0  0  0  0
 11 28  1  0  0  0  0
 13 14  1  0  0  0  0
 13 29  1  0  0  0  0
 13 30  1  0  0  0  0
 14 15  1  0  0  0  0
 14 31  1  0  0  0  0
 14 32  1  0  0  0  0
M  END
> <s_m_source_file>
AV-unprocessed.smi

> <i_m_source_file_index>
3115

> <i_lp_mmshare_version>
43012

> <i_f3d_flags>
0

> <s_epik_input>
W0NIM11bQ0BASF0xW0NIMl1OKFtDSDJdW0NIMl1PMSljMltjSF1jKFtDSDJdW05IMl0pW2NIXVtjSF1uMg==

> <s_epik_cmdline>
J2VwaWtfcHl0aG9uJywgJy1waCcsICc3LjAnLCAnLXRuJywgJzgnLCAnLW1hJywgJzIwMCcsICctbWV0YWxfYmluZGluZycsICctaW1hZScsICc8aW5maWxlLm1hZT4nLCAnLW9tYWUnLCAnPG91dGZpbGUubWFlPic=

> <r_lp_tautomer_probability>
1

> <r_epik_Ionization_Penalty>
1.27341

> <r_epik_Ionization_Penalty_Charging>
0

> <r_epik_Ionization_Penalty_Neutral>
1.27341

> <r_epik_State_Penalty>
2.46834

> <r_epik_Charging_Adjusted_Penalty>
2.46834

> <i_epik_Tot_Q>
0

> <i_epik_Tot_abs_Q>
0

> <r_epik_Metal_State_Penalty>
2.44319

> <b_epik_Metal_Only>
0

> <s_lp_Force_Field>
OPLS_2005

> <r_lp_Energy>
17.2418

> <b_lp_Chiralities_Consistent>
1

> <s_lp_Variant>
AV-unprocessed.smi:3115-3

> <Gold.Version>
5.8.1

> <Gold.Id.Protein>
6NUR|6NUR_protein|mol2

> <Gold.PLP.Fitness>
39.2377

> <Gold.PLP.PLP>
-31.4188

> <Gold.PLP.part.hbond>
-2.4584

> <Gold.PLP.part.metal>
0.0000

> <Gold.PLP.part.buried>
-1.4629

> <Gold.PLP.part.nonpolar>
-27.1965

> <Gold.PLP.part.repulsive>
0.7845

> <Gold.PLP.ligand.clash>
0.0000

> <Gold.PLP.ligand.torsion>
0.1155

> <Gold.PLP.Chemscore.Hbond>
1.8640

> <Gold.PLP.Chemscore.CHOScore>
0.7861

> <Gold.PLP.Chemscore.Metal>
0.0000

> <Gold.Chemscore.Hbonds>
donor molecule, donor type, donor heavy atom, donor atom, acceptor molecule, acceptor atom, score
      L1  H     9    25       P1  7957  1.00
      L1  H     9    26       P1  7948  0.86
      L1  C    11    28       P1  8028  0.78

> <Gold.PLP.Chemscore.Internal.Correction>
0.0998

> <Gold.Rescore>
     Score         DG    S(hbond)    S(metal)    S(lipo)     H(rot)  DE(clash)    DE(int)     intcor
     17.27     -18.47       1.97        0.00      82.72       1.28       1.08       0.12       ----

> <Gold.Chemscore.Fitness>
17.2723

> <Gold.Chemscore.DG>
-18.4728

> <Gold.Chemscore.ZeroCoef>
-5.4800

> <Gold.Chemscore.Hbond>
1.9706

> <Gold.Chemscore.Metal>
0.0000

> <Gold.Chemscore.Lipo>
82.7184

> <Gold.Chemscore.Internal_Hbond>
0.0000

> <Gold.Chemscore.DEClash>
1.0825

> <Gold.Chemscore.DEInternal>
0.1180

> <Gold.Chemscore.Rot>
1.2762

> <Gold.Chemscore.Internal.Correction>
   9.000000E+99

> <Gold.Chemscore.Hbonds>
donor molecule, donor type, donor heavy atom, donor atom, acceptor molecule, acceptor atom, score
      L1  H     9    25       P1  7957  0.29
      L1  H     9    26       P1  7948  0.29

> <Gold.Chemscore.Hbond.Weighted>
-6.5818

> <Gold.Chemscore.Metal.Weighted>
-0.0000

> <Gold.Chemscore.Lipo.Weighted>
-9.6780

> <Gold.Chemscore.Internal_Hbond.Weighted>
0.0000

> <Gold.Chemscore.DEClash.Weighted>
1.0825

> <Gold.Chemscore.DEInternal.Weighted>
0.1180

> <Gold.Chemscore.Rot.Weighted>
3.2671

> <Gold.Chemscore.Internal.Correction.Weighted>
   9.000000E+99

> <Gold.Protein.RotatedTorsions>
[ 6907 6896 6895 6894 ] final   53.87 input  -60.11 | X-H torsion
[ 7974 7965 7964 7962 ] final   27.43 input  175.53 | X-H torsion
[ 8008 7997 7996 7995 ] final   56.12 input   59.86 | X-H torsion
[ 10167 10162 10161 10158 ] final   42.61 input  -65.29 | X-H torsion
[ 10718 10713 10712 10709 ] final   61.63 input   66.30 | X-H torsion
[ 10763 10752 10751 10750 ] final  -76.85 input  -60.55 | X-H torsion
[ 11005 11000 10999 10996 ] final   23.19 input  -57.11 | X-H torsion

> <Gold.Protein.ActiveResidues>
 VAL166  LYS551  ARG553  GLY616  TRP617  ASP618  TYR619  PRO620  LYS621  CYS622 
 ASP623  PHE694  ASN695  SER759  ASP760  ASP761  ALA762  ILE779  LEU786  VAL792 
 PHE793  MET794  SER795  GLU796  ALA797  LYS798  CYS799  TRP800  GLU811  SER814 

> <Gold.Protein.RotatedAtoms>
  152.3381  134.7171  160.0271 H   0  0  0  0  0  0  0  0  0  0  0  0  # atno 6907 bound_to 6896
  151.7565  133.3325  159.3414 H   0  0  0  0  0  0  0  0  0  0  0  0  # atno 6908 bound_to 6896
  150.7463  134.6077  159.6114 H   0  0  0  0  0  0  0  0  0  0  0  0  # atno 6909 bound_to 6896
  146.1785  139.7193  142.8917 H   0  0  0  0  0  0  0  0  0  0  0  0  # atno 7974 bound_to 7965
  155.5123  140.3477  155.4391 H   0  0  0  0  0  0  0  0  0  0  0  0  # atno 8008 bound_to 7997
  156.0841  140.1394  156.9703 H   0  0  0  0  0  0  0  0  0  0  0  0  # atno 8009 bound_to 7997
  154.4596  140.0940  156.6833 H   0  0  0  0  0  0  0  0  0  0  0  0  # atno 8010 bound_to 7997
  140.3527  144.2329  150.6144 H   0  0  0  0  0  0  0  0  0  0  0  0  # atno 10167 bound_to 10162
  157.5842  130.9005  149.9485 H   0  0  0  0  0  0  0  0  0  0  0  0  # atno 10718 bound_to 10713
  154.5052  135.5784  153.6562 H   0  0  0  0  0  0  0  0  0  0  0  0  # atno 10763 bound_to 10752
  152.9886  135.6145  154.2950 H   0  0  0  0  0  0  0  0  0  0  0  0  # atno 10764 bound_to 10752
  154.2861  135.2850  155.2655 H   0  0  0  0  0  0  0  0  0  0  0  0  # atno 10765 bound_to 10752
  140.3724  134.2009  155.7666 H   0  0  0  0  0  0  0  0  0  0  0  0  # atno 11005 bound_to 11000
  145.4144  141.0400  143.2999 LP  0  0  0  0  0  0  0  0  0  0  0  0  # atno 17320 bound_to 7965
  144.8275  139.5685  143.6959 LP  0  0  0  0  0  0  0  0  0  0  0  0  # atno 17321 bound_to 7965
  140.5203  143.2267  151.8399 LP  0  0  0  0  0  0  0  0  0  0  0  0  # atno 17342 bound_to 10162
  139.4824  144.4844  151.9265 LP  0  0  0  0  0  0  0  0  0  0  0  0  # atno 17343 bound_to 10162
  156.0890  130.3665  150.0432 LP  0  0  0  0  0  0  0  0  0  0  0  0  # atno 17370 bound_to 10713
  156.8566  130.9477  151.3621 LP  0  0  0  0  0  0  0  0  0  0  0  0  # atno 17371 bound_to 10713
  141.1950  133.8115  157.0732 LP  0  0  0  0  0  0  0  0  0  0  0  0  # atno 17394 bound_to 11000
  140.0542  134.9789  157.1190 LP  0  0  0  0  0  0  0  0  0  0  0  0  # atno 17395 bound_to 11000

$$$$
