AV-unprocessed.smi:1593|AV-procd|sdf|6409|dock2
  -GOLD-   22720 7 43D 1   1.00000     0.00000
 Structure written by MMmdl.
 36 37  0  0  0  0  0  0  0  0  1 V2000
  153.1447  141.8909  161.2406 C   0  0  0  0  0  0  0  0  0  0  0  0
  152.3774  142.4110  160.0737 C   0  0  0  0  0  0  0  0  0  0  0  0
  151.5791  141.8078  159.1433 C   0  0  0  0  0  0  0  0  0  0  0  0
  151.1721  142.8962  158.3177 C   0  0  0  0  0  0  0  0  0  0  0  0
  150.3250  142.8196  157.1821 N   0  0  0  0  0  0  0  0  0  0  0  0
  149.9975  141.7375  156.4561 C   0  0  0  0  0  0  0  0  0  0  0  0
  150.3771  140.5883  156.6801 O   0  0  0  0  0  0  0  0  0  0  0  0
  149.1913  142.0658  155.4359 N   0  0  0  0  0  0  0  0  0  0  0  0
  148.6792  141.1388  154.4315 C   0  0  0  0  0  0  0  0  0  0  0  0
  147.5716  141.7858  153.5772 C   0  0  0  0  0  0  0  0  0  0  0  0
  146.7212  142.7529  154.2714 N   0  0  0  0  0  0  0  0  0  0  0  0
  145.8610  142.0946  155.2479 C   0  0  0  0  0  0  0  0  0  0  0  0
  144.9699  143.1007  155.9969 C   0  0  0  0  0  0  0  0  0  0  0  0
  144.1955  143.8427  155.0599 O   0  0  0  0  0  0  0  0  0  0  0  0
  144.9990  144.5352  154.1098 C   0  0  0  0  0  0  0  0  0  0  0  0
  145.8888  143.5314  153.3567 C   0  0  0  0  0  0  0  0  0  0  0  0
  151.6779  144.0504  158.7122 N   0  0  0  0  0  0  0  0  0  0  0  0
  152.4527  143.7484  159.8383 O   0  0  0  0  0  0  0  0  0  0  0  0
  152.7736  140.9120  161.5448 H   0  0  0  0  0  0  0  0  0  0  0  0
  153.0584  142.5641  162.0938 H   0  0  0  0  0  0  0  0  0  0  0  0
  154.2013  141.7901  160.9926 H   0  0  0  0  0  0  0  0  0  0  0  0
  151.3384  140.7576  159.0790 H   0  0  0  0  0  0  0  0  0  0  0  0
  149.9280  143.6977  156.8820 H   0  0  0  0  0  0  0  0  0  0  0  0
  148.9294  143.0351  155.3315 H   0  0  0  0  0  0  0  0  0  0  0  0
  149.4818  140.7302  153.8165 H   0  0  0  0  0  0  0  0  0  0  0  0
  148.2580  140.2870  154.9654 H   0  0  0  0  0  0  0  0  0  0  0  0
  148.0256  142.2628  152.7071 H   0  0  0  0  0  0  0  0  0  0  0  0
  146.9480  140.9830  153.1810 H   0  0  0  0  0  0  0  0  0  0  0  0
  145.2311  141.3564  154.7489 H   0  0  0  0  0  0  0  0  0  0  0  0
  146.4702  141.5488  155.9693 H   0  0  0  0  0  0  0  0  0  0  0  0
  144.2997  142.5789  156.6800 H   0  0  0  0  0  0  0  0  0  0  0  0
  145.5759  143.7807  156.5976 H   0  0  0  0  0  0  0  0  0  0  0  0
  144.3505  145.0656  153.4123 H   0  0  0  0  0  0  0  0  0  0  0  0
  145.6084  145.2858  154.6156 H   0  0  0  0  0  0  0  0  0  0  0  0
  146.5086  144.0802  152.6495 H   0  0  0  0  0  0  0  0  0  0  0  0
  145.2599  142.8624  152.7674 H   0  0  0  0  0  0  0  0  0  0  0  0
  1  2  1  0  0  0  0
  1 19  1  0  0  0  0
  1 20  1  0  0  0  0
  1 21  1  0  0  0  0
  2 18  1  0  0  0  0
  2  3  2  0  0  0  0
  3  4  1  0  0  0  0
  3 22  1  0  0  0  0
  4  5  1  0  0  0  0
  4 17  2  0  0  0  0
  5  6  1  0  0  0  0
  5 23  1  0  0  0  0
  6  7  2  0  0  0  0
  6  8  1  0  0  0  0
  8  9  1  0  0  0  0
  8 24  1  0  0  0  0
  9 10  1  0  0  0  0
  9 25  1  0  0  0  0
  9 26  1  0  0  0  0
 10 11  1  0  0  0  0
 10 27  1  0  0  0  0
 10 28  1  0  0  0  0
 11 16  1  0  0  0  0
 11 12  1  0  0  0  0
 12 13  1  0  0  0  0
 12 29  1  0  0  0  0
 12 30  1  0  0  0  0
 13 14  1  0  0  0  0
 13 31  1  0  0  0  0
 13 32  1  0  0  0  0
 14 15  1  0  0  0  0
 15 16  1  0  0  0  0
 15 33  1  0  0  0  0
 15 34  1  0  0  0  0
 16 35  1  0  0  0  0
 16 36  1  0  0  0  0
 17 18  1  0  0  0  0
M  END
> <s_m_source_file>
AV-unprocessed.smi

> <i_m_source_file_index>
1593

> <i_lp_mmshare_version>
43012

> <i_f3d_flags>
0

> <s_epik_input>
W0NIM11jMVtjSF1jKG5vMSlbTkhdQyg9TylbTkhdW0NIMl1bQ0gyXU4yW0NIMl1bQ0gyXU9bQ0gyXVtDSDJdMg==

> <s_epik_cmdline>
J2VwaWtfcHl0aG9uJywgJy1waCcsICc3LjAnLCAnLXRuJywgJzgnLCAnLW1hJywgJzIwMCcsICctbWV0YWxfYmluZGluZycsICctaW1hZScsICc8aW5maWxlLm1hZT4nLCAnLW9tYWUnLCAnPG91dGZpbGUubWFlPic=

> <r_epik_Ionization_Penalty>
0.214073

> <r_epik_Ionization_Penalty_Charging>
0

> <r_epik_Ionization_Penalty_Neutral>
0.214073

> <r_epik_State_Penalty>
0.204211

> <r_epik_Charging_Adjusted_Penalty>
0.204211

> <i_epik_Tot_Q>
0

> <i_epik_Tot_abs_Q>
0

> <r_epik_Metal_State_Penalty>
0.217151

> <b_epik_Metal_Only>
0

> <s_lp_Force_Field>
OPLS_2005

> <r_lp_Energy>
24.5673

> <b_lp_Chiralities_Consistent>
1

> <s_lp_Variant>
AV-unprocessed.smi:1593-1

> <Gold.Version>
5.8.1

> <Gold.Id.Protein>
6NUR|6NUR_protein|mol2

> <Gold.PLP.Fitness>
39.7652

> <Gold.PLP.PLP>
-34.4446

> <Gold.PLP.part.hbond>
-2.0000

> <Gold.PLP.part.metal>
0.0000

> <Gold.PLP.part.buried>
-8.8909

> <Gold.PLP.part.nonpolar>
-24.8632

> <Gold.PLP.part.repulsive>
0.5551

> <Gold.PLP.ligand.clash>
0.0000

> <Gold.PLP.ligand.torsion>
0.3429

> <Gold.PLP.Chemscore.Hbond>
2.0000

> <Gold.PLP.Chemscore.CHOScore>
0.0000

> <Gold.PLP.Chemscore.Metal>
0.0000

> <Gold.Chemscore.Hbonds>
donor molecule, donor type, donor heavy atom, donor atom, acceptor molecule, acceptor atom, score
      L1  H     5    23       P1  8028  1.00
      L1  H     8    24       P1  8028  1.00

> <Gold.PLP.Chemscore.Internal.Correction>
0.0065

> <Gold.Rescore>
     Score         DG    S(hbond)    S(metal)    S(lipo)     H(rot)  DE(clash)    DE(int)     intcor
     14.79     -15.59       1.91        0.00      66.85       1.60       0.11       0.68       ----

> <Gold.Chemscore.Fitness>
14.7919

> <Gold.Chemscore.DG>
-15.5871

> <Gold.Chemscore.ZeroCoef>
-5.4800

> <Gold.Chemscore.Hbond>
1.9123

> <Gold.Chemscore.Metal>
0.0000

> <Gold.Chemscore.Lipo>
66.8466

> <Gold.Chemscore.Internal_Hbond>
0.0000

> <Gold.Chemscore.DEClash>
0.1129

> <Gold.Chemscore.DEInternal>
0.6823

> <Gold.Chemscore.Rot>
1.6019

> <Gold.Chemscore.Internal.Correction>
   9.000000E+99

> <Gold.Chemscore.Hbonds>
donor molecule, donor type, donor heavy atom, donor atom, acceptor molecule, acceptor atom, score
      L1  H     5    23       P1  8028  0.95
      L1  H     8    24       P1  8028  0.99

> <Gold.Chemscore.Hbond.Weighted>
-6.3870

> <Gold.Chemscore.Metal.Weighted>
-0.0000

> <Gold.Chemscore.Lipo.Weighted>
-7.8211

> <Gold.Chemscore.Internal_Hbond.Weighted>
0.0000

> <Gold.Chemscore.DEClash.Weighted>
0.1129

> <Gold.Chemscore.DEInternal.Weighted>
0.6823

> <Gold.Chemscore.Rot.Weighted>
4.1009

> <Gold.Chemscore.Internal.Correction.Weighted>
   9.000000E+99

> <Gold.Protein.RotatedTorsions>
[ 6907 6896 6895 6894 ] final   35.19 input  -60.11 | X-H torsion
[ 7974 7965 7964 7962 ] final -141.23 input  175.53 | X-H torsion
[ 8008 7997 7996 7995 ] final   99.77 input   59.86 | X-H torsion
[ 10167 10162 10161 10158 ] final   43.15 input  -65.29 | X-H torsion
[ 10718 10713 10712 10709 ] final  -34.92 input   66.30 | X-H torsion
[ 10763 10752 10751 10750 ] final  -49.05 input  -60.55 | X-H torsion
[ 11005 11000 10999 10996 ] final   38.48 input  -57.11 | X-H torsion

> <Gold.Protein.ActiveResidues>
 VAL166  LYS551  ARG553  GLY616  TRP617  ASP618  TYR619  PRO620  LYS621  CYS622 
 ASP623  PHE694  ASN695  SER759  ASP760  ASP761  ALA762  ILE779  LEU786  VAL792 
 PHE793  MET794  SER795  GLU796  ALA797  LYS798  CYS799  TRP800  GLU811  SER814 

> <Gold.Protein.RotatedAtoms>
  152.1127  134.9263  160.0565 H   0  0  0  0  0  0  0  0  0  0  0  0  # atno 6907 bound_to 6896
  152.0434  133.3982  159.4355 H   0  0  0  0  0  0  0  0  0  0  0  0  # atno 6908 bound_to 6896
  150.6844  134.3310  159.4870 H   0  0  0  0  0  0  0  0  0  0  0  0  # atno 6909 bound_to 6896
  144.8536  140.6105  143.5374 H   0  0  0  0  0  0  0  0  0  0  0  0  # atno 7974 bound_to 7965
  156.1138  140.3223  155.8110 H   0  0  0  0  0  0  0  0  0  0  0  0  # atno 8008 bound_to 7997
  155.4626  140.0540  157.3006 H   0  0  0  0  0  0  0  0  0  0  0  0  # atno 8009 bound_to 7997
  154.4778  140.2040  155.9850 H   0  0  0  0  0  0  0  0  0  0  0  0  # atno 8010 bound_to 7997
  140.3473  144.2395  150.6149 H   0  0  0  0  0  0  0  0  0  0  0  0  # atno 10167 bound_to 10162
  156.3448  130.4299  149.7755 H   0  0  0  0  0  0  0  0  0  0  0  0  # atno 10718 bound_to 10713
  154.0878  135.6582  153.4847 H   0  0  0  0  0  0  0  0  0  0  0  0  # atno 10763 bound_to 10752
  153.0333  135.5195  154.7411 H   0  0  0  0  0  0  0  0  0  0  0  0  # atno 10764 bound_to 10752
  154.6525  135.3003  154.9937 H   0  0  0  0  0  0  0  0  0  0  0  0  # atno 10765 bound_to 10752
  140.2122  134.3741  155.8043 H   0  0  0  0  0  0  0  0  0  0  0  0  # atno 11005 bound_to 11000
  145.4451  139.1530  143.3949 LP  0  0  0  0  0  0  0  0  0  0  0  0  # atno 17320 bound_to 7965
  146.2805  140.4574  142.8778 LP  0  0  0  0  0  0  0  0  0  0  0  0  # atno 17321 bound_to 7965
  140.5253  143.2256  151.8325 LP  0  0  0  0  0  0  0  0  0  0  0  0  # atno 17342 bound_to 10162
  139.4831  144.4787  151.9334 LP  0  0  0  0  0  0  0  0  0  0  0  0  # atno 17343 bound_to 10162
  156.4978  130.8115  151.3120 LP  0  0  0  0  0  0  0  0  0  0  0  0  # atno 17370 bound_to 10713
  157.7452  130.9954  150.2744 LP  0  0  0  0  0  0  0  0  0  0  0  0  # atno 17371 bound_to 10713
  141.2226  133.7149  156.8437 LP  0  0  0  0  0  0  0  0  0  0  0  0  # atno 17394 bound_to 11000
  140.1938  134.8946  157.3091 LP  0  0  0  0  0  0  0  0  0  0  0  0  # atno 17395 bound_to 11000

$$$$
