AV-unprocessed.smi:676|AV-procd|sdf|3309|dock2
  -GOLD-   22720 0273D 1   1.00000     0.00000
 Structure written by MMmdl.
 42 43  0  0  0  0  0  0  0  0  1 V2000
  145.1580  140.0199  155.6624 C   0  0  0  0  0  0  0  0  0  0  0  0
  146.5090  139.6138  155.4814 O   0  0  0  0  0  0  0  0  0  0  0  0
  147.3702  140.4978  154.7504 C   0  0  1  0  0  0  0  0  0  0  0  0
  147.1176  140.3706  153.2428 C   0  0  0  0  0  0  0  0  0  0  0  0
  147.3746  141.8946  155.4010 C   0  0  0  0  0  0  0  0  0  0  0  0
  148.4198  141.3558  156.3756 C   0  0  2  0  0  0  0  0  0  0  0  0
  149.4421  142.3423  156.7076 N   0  0  0  0  0  0  0  0  0  0  0  0
  150.6004  142.0559  157.3188 C   0  0  0  0  0  0  0  0  0  0  0  0
  150.9196  140.9143  157.6542 O   0  0  0  0  0  0  0  0  0  0  0  0
  151.5426  143.2433  157.5619 C   0  0  0  0  0  0  0  0  0  0  0  0
  151.9132  143.4155  158.9764 N   0  0  0  0  0  0  0  0  0  0  0  0
  152.4821  142.3043  159.6301 C   0  0  0  0  0  0  0  0  0  0  0  0
  152.8530  142.3523  160.9193 C   0  0  0  0  0  0  0  0  0  0  0  0
  152.6558  143.5873  161.6407 C   0  0  0  0  0  0  0  0  0  0  0  0
  152.1093  144.6550  161.0260 C   0  0  0  0  0  0  0  0  0  0  0  0
  151.7002  144.6062  159.6174 C   0  0  0  0  0  0  0  0  0  0  0  0
  151.1979  145.5759  159.0488 O   0  0  0  0  0  0  0  0  0  0  0  0
  148.8281  140.3260  155.2906 C   0  0  0  0  0  0  0  0  0  0  0  0
  149.2107  138.9319  155.7998 C   0  0  0  0  0  0  0  0  0  0  0  0
  149.9571  140.7437  154.3293 C   0  0  0  0  0  0  0  0  0  0  0  0
  144.6743  139.3409  156.3642 H   0  0  0  0  0  0  0  0  0  0  0  0
  144.5960  139.9713  154.7300 H   0  0  0  0  0  0  0  0  0  0  0  0
  145.0765  141.0274  156.0688 H   0  0  0  0  0  0  0  0  0  0  0  0
  147.8265  140.9597  152.6620 H   0  0  0  0  0  0  0  0  0  0  0  0
  146.1277  140.7294  152.9626 H   0  0  0  0  0  0  0  0  0  0  0  0
  147.2055  139.3352  152.9132 H   0  0  0  0  0  0  0  0  0  0  0  0
  147.7562  142.6706  154.7352 H   0  0  0  0  0  0  0  0  0  0  0  0
  146.4444  142.2088  155.8729 H   0  0  0  0  0  0  0  0  0  0  0  0
  147.9536  140.8920  157.2484 H   0  0  0  0  0  0  0  0  0  0  0  0
  149.2547  143.3026  156.4588 H   0  0  0  0  0  0  0  0  0  0  0  0
  152.4332  143.0993  156.9488 H   0  0  0  0  0  0  0  0  0  0  0  0
  151.0797  144.1561  157.1821 H   0  0  0  0  0  0  0  0  0  0  0  0
  152.5886  141.4171  159.0227 H   0  0  0  0  0  0  0  0  0  0  0  0
  153.2834  141.4891  161.4052 H   0  0  0  0  0  0  0  0  0  0  0  0
  152.9471  143.6551  162.6785 H   0  0  0  0  0  0  0  0  0  0  0  0
  151.9683  145.5702  161.5818 H   0  0  0  0  0  0  0  0  0  0  0  0
  150.2146  138.9216  156.2260 H   0  0  0  0  0  0  0  0  0  0  0  0
  149.1846  138.1939  154.9976 H   0  0  0  0  0  0  0  0  0  0  0  0
  148.5373  138.5839  156.5833 H   0  0  0  0  0  0  0  0  0  0  0  0
  150.9258  140.7636  154.8299 H   0  0  0  0  0  0  0  0  0  0  0  0
  149.7961  141.7372  153.9105 H   0  0  0  0  0  0  0  0  0  0  0  0
  150.0439  140.0519  153.4909 H   0  0  0  0  0  0  0  0  0  0  0  0
  1  2  1  0  0  0  0
  1 21  1  0  0  0  0
  1 22  1  0  0  0  0
  1 23  1  0  0  0  0
  2  3  1  0  0  0  0
  3 18  1  0  0  0  0
  3  4  1  0  0  0  0
  3  5  1  0  0  0  0
  4 24  1  0  0  0  0
  4 25  1  0  0  0  0
  4 26  1  0  0  0  0
  5  6  1  0  0  0  0
  5 27  1  0  0  0  0
  5 28  1  0  0  0  0
  6  7  1  0  0  0  0
  6 18  1  0  0  0  0
  6 29  1  0  0  0  0
  7  8  1  0  0  0  0
  7 30  1  0  0  0  0
  8  9  2  0  0  0  0
  8 10  1  0  0  0  0
 10 11  1  0  0  0  0
 10 31  1  0  0  0  0
 10 32  1  0  0  0  0
 11 16  1  0  0  0  0
 11 12  1  0  0  0  0
 12 13  2  0  0  0  0
 12 33  1  0  0  0  0
 13 14  1  0  0  0  0
 13 34  1  0  0  0  0
 14 15  2  0  0  0  0
 14 35  1  0  0  0  0
 15 16  1  0  0  0  0
 15 36  1  0  0  0  0
 16 17  2  0  0  0  0
 18 19  1  0  0  0  0
 18 20  1  0  0  0  0
 19 37  1  0  0  0  0
 19 38  1  0  0  0  0
 19 39  1  0  0  0  0
 20 40  1  0  0  0  0
 20 41  1  0  0  0  0
 20 42  1  0  0  0  0
M  END
> <s_m_source_file>
AV-unprocessed.smi

> <i_m_source_file_index>
676

> <i_lp_mmshare_version>
43012

> <i_f3d_flags>
0

> <s_epik_input>
W0NIM11PW0NAQF0xKFtDSDNdKVtDSDJdW0NASF0oQzEoW0NIM10pW0NIM10pW05IXUMoPU8pW0NIMl1uMltjSF1bY0hdW2NIXVtjSF1jMj1P

> <s_epik_cmdline>
J2VwaWtfcHl0aG9uJywgJy1waCcsICc3LjAnLCAnLXRuJywgJzgnLCAnLW1hJywgJzIwMCcsICctbWV0YWxfYmluZGluZycsICctaW1hZScsICc8aW5maWxlLm1hZT4nLCAnLW9tYWUnLCAnPG91dGZpbGUubWFlPic=

> <r_lp_tautomer_probability>
1

> <r_epik_Ionization_Penalty>
4.09771e-07

> <r_epik_Ionization_Penalty_Charging>
3.90712e-07

> <r_epik_Ionization_Penalty_Neutral>
1.90591e-08

> <r_epik_State_Penalty>
-0

> <r_epik_Charging_Adjusted_Penalty>
3.90712e-07

> <i_epik_Tot_Q>
0

> <i_epik_Tot_abs_Q>
0

> <r_epik_Metal_State_Penalty>
-0

> <b_epik_Metal_Only>
0

> <s_lp_Force_Field>
OPLS_2005

> <r_lp_Energy>
31.664

> <b_lp_Chiralities_Consistent>
1

> <s_lp_Variant>
AV-unprocessed.smi:676-3

> <Gold.Version>
5.8.1

> <Gold.Id.Protein>
6NUR|6NUR_protein|mol2

> <Gold.PLP.Fitness>
40.0512

> <Gold.PLP.PLP>
-37.5035

> <Gold.PLP.part.hbond>
-2.0000

> <Gold.PLP.part.metal>
0.0000

> <Gold.PLP.part.buried>
-1.2615

> <Gold.PLP.part.nonpolar>
-33.3321

> <Gold.PLP.part.repulsive>
0.2325

> <Gold.PLP.ligand.clash>
0.0000

> <Gold.PLP.ligand.torsion>
0.4137

> <Gold.PLP.Chemscore.Hbond>
1.0000

> <Gold.PLP.Chemscore.CHOScore>
0.0000

> <Gold.PLP.Chemscore.Metal>
0.0000

> <Gold.Chemscore.Hbonds>
donor molecule, donor type, donor heavy atom, donor atom, acceptor molecule, acceptor atom, score
      L1  H     7    30       P1  8028  1.00

> <Gold.PLP.Chemscore.Internal.Correction>
0.3751

> <Gold.Rescore>
     Score         DG    S(hbond)    S(metal)    S(lipo)     H(rot)  DE(clash)    DE(int)     intcor
     13.92     -15.83       1.00        0.00      95.40       1.62       1.36       0.55       ----

> <Gold.Chemscore.Fitness>
13.9152

> <Gold.Chemscore.DG>
-15.8253

> <Gold.Chemscore.ZeroCoef>
-5.4800

> <Gold.Chemscore.Hbond>
0.9953

> <Gold.Chemscore.Metal>
0.0000

> <Gold.Chemscore.Lipo>
95.3995

> <Gold.Chemscore.Internal_Hbond>
0.0000

> <Gold.Chemscore.DEClash>
1.3649

> <Gold.Chemscore.DEInternal>
0.5453

> <Gold.Chemscore.Rot>
1.6175

> <Gold.Chemscore.Internal.Correction>
   9.000000E+99

> <Gold.Chemscore.Hbonds>
donor molecule, donor type, donor heavy atom, donor atom, acceptor molecule, acceptor atom, score
      L1  H     7    30       P1  8028  1.00

> <Gold.Chemscore.Hbond.Weighted>
-3.3243

> <Gold.Chemscore.Metal.Weighted>
-0.0000

> <Gold.Chemscore.Lipo.Weighted>
-11.1617

> <Gold.Chemscore.Internal_Hbond.Weighted>
0.0000

> <Gold.Chemscore.DEClash.Weighted>
1.3649

> <Gold.Chemscore.DEInternal.Weighted>
0.5453

> <Gold.Chemscore.Rot.Weighted>
4.1408

> <Gold.Chemscore.Internal.Correction.Weighted>
   9.000000E+99

> <Gold.Protein.RotatedTorsions>
[ 6907 6896 6895 6894 ] final  -89.32 input  -60.11 | X-H torsion
[ 7974 7965 7964 7962 ] final  111.27 input  175.53 | X-H torsion
[ 8008 7997 7996 7995 ] final  123.30 input   59.86 | X-H torsion
[ 10167 10162 10161 10158 ] final -153.89 input  -65.29 | X-H torsion
[ 10718 10713 10712 10709 ] final  -69.48 input   66.30 | X-H torsion
[ 10763 10752 10751 10750 ] final   63.91 input  -60.55 | X-H torsion
[ 11005 11000 10999 10996 ] final -146.29 input  -57.11 | X-H torsion

> <Gold.Protein.ActiveResidues>
 VAL166  LYS551  ARG553  GLY616  TRP617  ASP618  TYR619  PRO620  LYS621  CYS622 
 ASP623  PHE694  ASN695  SER759  ASP760  ASP761  ALA762  ILE779  LEU786  VAL792 
 PHE793  MET794  SER795  GLU796  ALA797  LYS798  CYS799  TRP800  GLU811  SER814 

> <Gold.Protein.RotatedAtoms>
  150.6873  134.2605  159.4546 H   0  0  0  0  0  0  0  0  0  0  0  0  # atno 6907 bound_to 6896
  152.0535  134.9636  160.0584 H   0  0  0  0  0  0  0  0  0  0  0  0  # atno 6908 bound_to 6896
  152.1091  133.4256  159.4659 H   0  0  0  0  0  0  0  0  0  0  0  0  # atno 6909 bound_to 6896
  145.2443  139.2766  143.4101 H   0  0  0  0  0  0  0  0  0  0  0  0  # atno 7974 bound_to 7965
  156.2761  140.2766  156.1605 H   0  0  0  0  0  0  0  0  0  0  0  0  # atno 8008 bound_to 7997
  155.0758  140.0387  157.2641 H   0  0  0  0  0  0  0  0  0  0  0  0  # atno 8009 bound_to 7997
  154.7003  140.2647  155.6731 H   0  0  0  0  0  0  0  0  0  0  0  0  # atno 8010 bound_to 7997
  139.7059  143.9188  152.2448 H   0  0  0  0  0  0  0  0  0  0  0  0  # atno 10167 bound_to 10162
  156.0453  130.4313  150.2153 H   0  0  0  0  0  0  0  0  0  0  0  0  # atno 10718 bound_to 10713
  153.0035  135.5412  154.6427 H   0  0  0  0  0  0  0  0  0  0  0  0  # atno 10763 bound_to 10752
  154.5678  135.2839  155.0859 H   0  0  0  0  0  0  0  0  0  0  0  0  # atno 10764 bound_to 10752
  154.2036  135.6479  153.5147 H   0  0  0  0  0  0  0  0  0  0  0  0  # atno 10765 bound_to 10752
  140.7835  134.3051  157.5037 H   0  0  0  0  0  0  0  0  0  0  0  0  # atno 11005 bound_to 11000
  146.3320  140.2815  142.8610 LP  0  0  0  0  0  0  0  0  0  0  0  0  # atno 17320 bound_to 7965
  144.9560  140.8227  143.5542 LP  0  0  0  0  0  0  0  0  0  0  0  0  # atno 17321 bound_to 7965
  139.9043  144.6893  150.8631 LP  0  0  0  0  0  0  0  0  0  0  0  0  # atno 17342 bound_to 10162
  140.7721  143.3490  151.2052 LP  0  0  0  0  0  0  0  0  0  0  0  0  # atno 17343 bound_to 10162
  157.0244  130.9989  151.3330 LP  0  0  0  0  0  0  0  0  0  0  0  0  # atno 17370 bound_to 10713
  157.5322  130.8065  149.7930 LP  0  0  0  0  0  0  0  0  0  0  0  0  # atno 17371 bound_to 10713
  139.8739  134.9333  156.3576 LP  0  0  0  0  0  0  0  0  0  0  0  0  # atno 17394 bound_to 11000
  140.9459  133.7483  156.0207 LP  0  0  0  0  0  0  0  0  0  0  0  0  # atno 17395 bound_to 11000

$$$$
