AV-unprocessed.smi:1019|AV-procd|sdf|4452|dock5
  -GOLD-   22720 2423D 1   1.00000     0.00000
 Structure written by MMmdl.
 43 45  0  0  0  0  0  0  0  0  1 V2000
  146.9130  140.9846  155.7252 C   0  0  0  0  0  0  0  0  0  0  0  0
  147.9013  140.5059  154.7626 N   0  0  0  0  0  0  0  0  0  0  0  0
  147.3945  140.6112  153.3911 C   0  0  0  0  0  0  0  0  0  0  0  0
  146.8142  139.3159  152.8492 C   0  0  0  0  0  0  0  0  0  0  0  0
  146.8295  139.0599  151.4618 C   0  0  0  0  0  0  0  0  0  0  0  0
  146.2934  137.8590  150.9577 C   0  0  0  0  0  0  0  0  0  0  0  0
  145.7390  136.9105  151.8388 C   0  0  0  0  0  0  0  0  0  0  0  0
  145.7203  137.1638  153.2241 C   0  0  0  0  0  0  0  0  0  0  0  0
  146.2560  138.3648  153.7289 C   0  0  0  0  0  0  0  0  0  0  0  0
  149.1620  141.2295  154.9386 C   0  0  0  0  0  0  0  0  0  0  0  0
  149.7722  141.1603  156.3555 C   0  0  1  0  0  0  0  0  0  0  0  0
  150.0471  139.8096  156.6765 O   0  0  0  0  0  0  0  0  0  0  0  0
  151.0844  141.9628  156.4573 C   0  0  0  0  0  0  0  0  0  0  0  0
  151.6170  141.9907  157.8081 N   0  0  0  0  0  0  0  0  0  0  0  0
  152.1425  140.9605  158.4989 C   0  0  0  0  0  0  0  0  0  0  0  0
  152.5740  141.2110  159.7319 N   0  0  0  0  0  0  0  0  0  0  0  0
  152.3014  142.5626  159.8544 C   0  0  0  0  0  0  0  0  0  0  0  0
  152.5212  143.4495  160.9328 C   0  0  0  0  0  0  0  0  0  0  0  0
  152.1551  144.8076  160.8267 C   0  0  0  0  0  0  0  0  0  0  0  0
  151.5653  145.2993  159.6441 C   0  0  0  0  0  0  0  0  0  0  0  0
  151.3369  144.4350  158.5561 C   0  0  0  0  0  0  0  0  0  0  0  0
  151.7030  143.0809  158.6664 C   0  0  0  0  0  0  0  0  0  0  0  0
  147.2860  140.8876  156.7453 H   0  0  0  0  0  0  0  0  0  0  0  0
  145.9899  140.4077  155.6657 H   0  0  0  0  0  0  0  0  0  0  0  0
  146.6701  142.0337  155.5516 H   0  0  0  0  0  0  0  0  0  0  0  0
  146.6503  141.4063  153.3255 H   0  0  0  0  0  0  0  0  0  0  0  0
  148.1999  140.8890  152.7123 H   0  0  0  0  0  0  0  0  0  0  0  0
  147.2550  139.7843  150.7827 H   0  0  0  0  0  0  0  0  0  0  0  0
  146.3080  137.6655  149.8952 H   0  0  0  0  0  0  0  0  0  0  0  0
  145.3285  135.9894  151.4523 H   0  0  0  0  0  0  0  0  0  0  0  0
  145.2949  136.4366  153.9000 H   0  0  0  0  0  0  0  0  0  0  0  0
  146.2398  138.5517  154.7926 H   0  0  0  0  0  0  0  0  0  0  0  0
  149.8917  140.9143  154.1908 H   0  0  0  0  0  0  0  0  0  0  0  0
  148.9686  142.2810  154.7224 H   0  0  0  0  0  0  0  0  0  0  0  0
  149.0623  141.5557  157.0838 H   0  0  0  0  0  0  0  0  0  0  0  0
  149.2950  139.4490  157.1212 H   0  0  0  0  0  0  0  0  0  0  0  0
  151.8403  141.5462  155.7896 H   0  0  0  0  0  0  0  0  0  0  0  0
  150.9217  142.9936  156.1398 H   0  0  0  0  0  0  0  0  0  0  0  0
  152.2081  139.9697  158.0738 H   0  0  0  0  0  0  0  0  0  0  0  0
  152.9725  143.0844  161.8434 H   0  0  0  0  0  0  0  0  0  0  0  0
  152.3282  145.4758  161.6576 H   0  0  0  0  0  0  0  0  0  0  0  0
  151.2880  146.3408  159.5726 H   0  0  0  0  0  0  0  0  0  0  0  0
  150.8854  144.8074  157.6486 H   0  0  0  0  0  0  0  0  0  0  0  0
  1  2  1  0  0  0  0
  1 23  1  0  0  0  0
  1 24  1  0  0  0  0
  1 25  1  0  0  0  0
  2  3  1  0  0  0  0
  2 10  1  0  0  0  0
  3  4  1  0  0  0  0
  3 26  1  0  0  0  0
  3 27  1  0  0  0  0
  4  9  1  0  0  0  0
  4  5  2  0  0  0  0
  5  6  1  0  0  0  0
  5 28  1  0  0  0  0
  6  7  2  0  0  0  0
  6 29  1  0  0  0  0
  7  8  1  0  0  0  0
  7 30  1  0  0  0  0
  8  9  2  0  0  0  0
  8 31  1  0  0  0  0
  9 32  1  0  0  0  0
 10 11  1  0  0  0  0
 10 33  1  0  0  0  0
 10 34  1  0  0  0  0
 11 12  1  0  0  0  0
 11 13  1  0  0  0  0
 11 35  1  0  0  0  0
 12 36  1  0  0  0  0
 13 14  1  0  0  0  0
 13 37  1  0  0  0  0
 13 38  1  0  0  0  0
 14 22  1  0  0  0  0
 14 15  1  0  0  0  0
 15 16  2  0  0  0  0
 15 39  1  0  0  0  0
 16 17  1  0  0  0  0
 17 22  2  0  0  0  0
 17 18  1  0  0  0  0
 18 19  2  0  0  0  0
 18 40  1  0  0  0  0
 19 20  1  0  0  0  0
 19 41  1  0  0  0  0
 20 21  2  0  0  0  0
 20 42  1  0  0  0  0
 21 22  1  0  0  0  0
 21 43  1  0  0  0  0
M  END
> <s_m_source_file>
AV-unprocessed.smi

> <i_m_source_file_index>
1019

> <i_lp_mmshare_version>
43012

> <i_f3d_flags>
0

> <s_epik_input>
W2NIXTFbY0hdW2NIXVtjSF1bY0hdYzFbQ0gyXU4oW0NIM10pW0NIMl1bQ0BIXShbT0hdKVtDSDJdbihbY0hdbjIpYyhjMjMpW2NIXVtjSF1bY0hdW2NIXTM=

> <s_epik_cmdline>
J2VwaWtfcHl0aG9uJywgJy1waCcsICc3LjAnLCAnLXRuJywgJzgnLCAnLW1hJywgJzIwMCcsICctbWV0YWxfYmluZGluZycsICctaW1hZScsICc8aW5maWxlLm1hZT4nLCAnLW9tYWUnLCAnPG91dGZpbGUubWFlPic=

> <r_epik_Ionization_Penalty>
1.56741

> <r_epik_Ionization_Penalty_Charging>
0

> <r_epik_Ionization_Penalty_Neutral>
1.56741

> <r_epik_State_Penalty>
1.62466

> <r_epik_Charging_Adjusted_Penalty>
1.62466

> <i_epik_Tot_Q>
0

> <i_epik_Tot_abs_Q>
0

> <r_epik_Metal_State_Penalty>
1.58486

> <b_epik_Metal_Only>
0

> <s_lp_Force_Field>
OPLS_2005

> <r_lp_Energy>
22.9091

> <b_lp_Chiralities_Consistent>
1

> <s_lp_Variant>
AV-unprocessed.smi:1019-10

> <Gold.Version>
5.8.1

> <Gold.Id.Protein>
6NUR|6NUR_protein|mol2

> <Gold.PLP.Fitness>
44.4743

> <Gold.PLP.PLP>
-46.2837

> <Gold.PLP.part.hbond>
0.0000

> <Gold.PLP.part.metal>
0.0000

> <Gold.PLP.part.buried>
0.3195

> <Gold.PLP.part.nonpolar>
-46.1810

> <Gold.PLP.part.repulsive>
0.0901

> <Gold.PLP.ligand.clash>
0.0000

> <Gold.PLP.ligand.torsion>
1.0018

> <Gold.PLP.Chemscore.Hbond>
0.0000

> <Gold.PLP.Chemscore.CHOScore>
0.0000

> <Gold.PLP.Chemscore.Metal>
0.0000

> <Gold.PLP.Chemscore.Internal.Correction>
0.1942

> <Gold.Rescore>
     Score         DG    S(hbond)    S(metal)    S(lipo)     H(rot)  DE(clash)    DE(int)     intcor
     13.50     -14.87       0.00        0.00     129.85       2.27       0.40       0.97       ----

> <Gold.Chemscore.Fitness>
13.5035

> <Gold.Chemscore.DG>
-14.8696

> <Gold.Chemscore.ZeroCoef>
-5.4800

> <Gold.Chemscore.Hbond>
0.0000

> <Gold.Chemscore.Metal>
0.0000

> <Gold.Chemscore.Lipo>
129.8496

> <Gold.Chemscore.Internal_Hbond>
0.0000

> <Gold.Chemscore.DEClash>
0.3958

> <Gold.Chemscore.DEInternal>
0.9702

> <Gold.Chemscore.Rot>
2.2667

> <Gold.Chemscore.Internal.Correction>
   9.000000E+99

> <Gold.Chemscore.Hbond.Weighted>
-0.0000

> <Gold.Chemscore.Metal.Weighted>
-0.0000

> <Gold.Chemscore.Lipo.Weighted>
-15.1924

> <Gold.Chemscore.Internal_Hbond.Weighted>
0.0000

> <Gold.Chemscore.DEClash.Weighted>
0.3958

> <Gold.Chemscore.DEInternal.Weighted>
0.9702

> <Gold.Chemscore.Rot.Weighted>
5.8028

> <Gold.Chemscore.Internal.Correction.Weighted>
   9.000000E+99

> <Gold.Protein.RotatedTorsions>
[ 6907 6896 6895 6894 ] final   83.75 input  -60.11 | X-H torsion
[ 7974 7965 7964 7962 ] final  -53.39 input  175.53 | X-H torsion
[ 8008 7997 7996 7995 ] final -116.04 input   59.86 | X-H torsion
[ 10167 10162 10161 10158 ] final -172.95 input  -65.29 | X-H torsion
[ 10718 10713 10712 10709 ] final -160.75 input   66.30 | X-H torsion
[ 10763 10752 10751 10750 ] final -113.99 input  -60.55 | X-H torsion
[ 11005 11000 10999 10996 ] final    7.26 input  -57.11 | X-H torsion

> <Gold.Protein.ActiveResidues>
 VAL166  LYS551  ARG553  GLY616  TRP617  ASP618  TYR619  PRO620  LYS621  CYS622 
 ASP623  PHE694  ASN695  SER759  ASP760  ASP761  ALA762  ILE779  LEU786  VAL792 
 PHE793  MET794  SER795  GLU796  ALA797  LYS798  CYS799  TRP800  GLU811  SER814 

> <Gold.Protein.RotatedAtoms>
  152.5335  134.2847  159.9020 H   0  0  0  0  0  0  0  0  0  0  0  0  # atno 6907 bound_to 6896
  151.2800  133.4207  159.2634 H   0  0  0  0  0  0  0  0  0  0  0  0  # atno 6908 bound_to 6896
  151.0292  134.9542  159.8158 H   0  0  0  0  0  0  0  0  0  0  0  0  # atno 6909 bound_to 6896
  145.8974  140.8022  142.9760 H   0  0  0  0  0  0  0  0  0  0  0  0  # atno 7974 bound_to 7965
  155.0615  140.0393  157.2578 H   0  0  0  0  0  0  0  0  0  0  0  0  # atno 8008 bound_to 7997
  154.7056  140.2682  155.6654 H   0  0  0  0  0  0  0  0  0  0  0  0  # atno 8009 bound_to 7997
  156.2774  140.2732  156.1681 H   0  0  0  0  0  0  0  0  0  0  0  0  # atno 8010 bound_to 7997
  139.5715  144.1630  152.1391 H   0  0  0  0  0  0  0  0  0  0  0  0  # atno 10167 bound_to 10162
  156.5865  130.8752  151.2878 H   0  0  0  0  0  0  0  0  0  0  0  0  # atno 10718 bound_to 10713
  154.8421  135.4434  154.1436 H   0  0  0  0  0  0  0  0  0  0  0  0  # atno 10763 bound_to 10752
  153.2615  135.6936  153.7580 H   0  0  0  0  0  0  0  0  0  0  0  0  # atno 10764 bound_to 10752
  153.6854  135.3396  155.3164 H   0  0  0  0  0  0  0  0  0  0  0  0  # atno 10765 bound_to 10752
  140.5502  134.0290  155.7934 H   0  0  0  0  0  0  0  0  0  0  0  0  # atno 11005 bound_to 11000
  144.6733  140.1624  143.7421 LP  0  0  0  0  0  0  0  0  0  0  0  0  # atno 17320 bound_to 7965
  145.8833  139.2335  143.1592 LP  0  0  0  0  0  0  0  0  0  0  0  0  # atno 17321 bound_to 7965
  140.1164  144.5412  150.6891 LP  0  0  0  0  0  0  0  0  0  0  0  0  # atno 17342 bound_to 10162
  140.6999  143.2428  151.4893 LP  0  0  0  0  0  0  0  0  0  0  0  0  # atno 17343 bound_to 10162
  157.7314  130.9699  150.1878 LP  0  0  0  0  0  0  0  0  0  0  0  0  # atno 17370 bound_to 10713
  156.2586  130.3708  149.8155 LP  0  0  0  0  0  0  0  0  0  0  0  0  # atno 17371 bound_to 10713
  141.1176  133.9515  157.2793 LP  0  0  0  0  0  0  0  0  0  0  0  0  # atno 17394 bound_to 11000
  139.9459  135.0184  156.8849 LP  0  0  0  0  0  0  0  0  0  0  0  0  # atno 17395 bound_to 11000

$$$$
