#       Name:                AV-unprocessed.smi:861
#       Creating user name   scv26
#       Creation time:       Fri Mar 27 01:44:03 2020


#       File generated by GOLD software.
#

@<TRIPOS>MOLECULE
AV-unprocessed.smi:861
    48    49     1
SMALL
NO_CHARGES


@<TRIPOS>ATOM
      1 ****        -3.4892   2.5256   3.4028 C.3            1 S1                 0.0000
      2 ****        -2.0582   2.5239   2.8442 C.3            1 S1                 0.0000
      3 ****        -1.9744   3.4049   1.5862 C.3            1 S1                 0.0000
      4 ****        -1.5747   1.0819   2.5858 C.3            1 S1                 0.0000
      5 ****        -0.0676   0.9758   2.2829 C.3            1 S1                 0.0000
      6 ****         0.3966  -0.4350   2.2013 N.4            1 S1                 1.0000
      7 ****         1.8544  -0.5918   2.4251 C.3            1 S1                 0.0000
      8 ****         2.6538  -0.1971   1.1706 C.3            1 S1                 0.0000
      9 ****         2.2129  -0.9763   0.0659 O.3            1 S1                 0.0000
     10 ****         0.8411  -0.7549  -0.2484 C.3            1 S1                 0.0000
     11 ****         0.4933  -1.5960  -1.4842 C.3            1 S1                 0.0000
     12 ****         1.1506  -1.0915  -2.6819 N.pl3          1 S1                 0.0000
     13 ****         0.9746  -1.7320  -3.9157 C.ar           1 S1                 0.0000
     14 ****         1.6898  -1.2643  -5.0361 C.ar           1 S1                 0.0000
     15 ****         1.4906  -1.9266  -6.2599 C.ar           1 S1                 0.0000
     16 ****         0.5903  -3.0076  -6.2697 C.ar           1 S1                 0.0000
     17 ****        -0.0708  -3.4143  -5.1626 N.ar           1 S1                 0.0000
     18 ****         0.1194  -2.7823  -3.9990 N.ar           1 S1                 0.0000
     19 ****        -0.0167  -1.1593   0.9712 C.3            1 S1                 0.0000
     20 ****        -4.1935   2.0935   2.6913 H              1 S1                 0.0000
     21 ****        -3.8230   3.5393   3.6269 H              1 S1                 0.0000
     22 ****        -3.5532   1.9498   4.3264 H              1 S1                 0.0000
     23 ****        -1.4157   2.9669   3.6063 H              1 S1                 0.0000
     24 ****        -2.5699   2.9909   0.7719 H              1 S1                 0.0000
     25 ****        -0.9493   3.5085   1.2318 H              1 S1                 0.0000
     26 ****        -2.3451   4.4104   1.7877 H              1 S1                 0.0000
     27 ****        -1.7889   0.4762   3.4674 H              1 S1                 0.0000
     28 ****        -2.1618   0.6520   1.7745 H              1 S1                 0.0000
     29 ****         0.1878   1.5124   1.3704 H              1 S1                 0.0000
     30 ****         0.4704   1.4750   3.0898 H              1 S1                 0.0000
     31 ****         2.1787  -0.0139   3.2912 H              1 S1                 0.0000
     32 ****         2.0544  -1.6372   2.6641 H              1 S1                 0.0000
     33 ****         2.5501   0.8664   0.9502 H              1 S1                 0.0000
     34 ****         3.7156  -0.3849   1.3301 H              1 S1                 0.0000
     35 ****         0.6814   0.2982  -0.4851 H              1 S1                 0.0000
     36 ****         0.7704  -2.6384  -1.3209 H              1 S1                 0.0000
     37 ****        -0.5848  -1.5712  -1.6487 H              1 S1                 0.0000
     38 ****         1.8133  -0.3342  -2.5981 H              1 S1                 0.0000
     39 ****         2.3684  -0.4269  -4.9636 H              1 S1                 0.0000
     40 ****         2.0072  -1.6187  -7.1567 H              1 S1                 0.0000
     41 ****         0.3960  -3.5558  -7.1796 H              1 S1                 0.0000
     42 ****         0.1029  -2.2278   1.1562 H              1 S1                 0.0000
     43 ****        -1.0753  -1.0083   0.7643 H              1 S1                 0.0000
     44 ****        -0.0521  -0.9035   2.9758 H              1 S1                 0.0000
     45 ****         2.3390  -1.9437   0.2857 LP             1 S1                 0.0000
     46 ****         2.7665  -0.7412  -0.7331 LP             1 S1                 0.0000
     47 ****        -0.7023  -4.1880  -5.2137 LP             1 S1                 0.0000
     48 ****        -0.3729  -3.0865  -3.1835 LP             1 S1                 0.0000
@<TRIPOS>BOND
    1    1    2 1     
    2    1   20 1     
    3    1   21 1     
    4    1   22 1     
    5    2    3 1     
    6    2    4 1     
    7    2   23 1     
    8    3   24 1     
    9    3   25 1     
   10    3   26 1     
   11    4    5 1     
   12    4   27 1     
   13    4   28 1     
   14    5    6 1     
   15    5   29 1     
   16    5   30 1     
   17    6   19 1     
   18    6    7 1     
   19    6   44 1     
   20    7    8 1     
   21    7   31 1     
   22    7   32 1     
   23    8    9 1     
   24    8   33 1     
   25    8   34 1     
   26    9   10 1     
   27   10   11 1     
   28   10   19 1     
   29   10   35 1     
   30   11   12 1     
   31   11   36 1     
   32   11   37 1     
   33   12   13 1     
   34   12   38 1     
   35   13   18 ar    
   36   13   14 ar    
   37   14   15 ar    
   38   14   39 1     
   39   15   16 ar    
   40   15   40 1     
   41   16   17 ar    
   42   16   41 1     
   43   17   18 ar    
   44   19   42 1     
   45   19   43 1     
   46    9   45 1     
   47    9   46 1     
   48   17   47 1     
   49   18   48 1     
@<TRIPOS>SUBSTRUCTURE
      1 S1             1
@<TRIPOS>SET
LONE_PAIRS      STATIC     ATOMS    <user>   **** ""
4 45 46 47 48
DONOR_HYDROGENS      STATIC     ATOMS    <user>   **** ""
2 44 38
ATOM$BLUE        STATIC     ATOMS    COLORGROUP SYSTEM
4 45 46 47 48
ATOM$RED        STATIC     ATOMS    COLORGROUP SYSTEM
2 44 38
