AV-unprocessed.smi:2973|AV-procd|sdf|11338|dock2
  -GOLD-   2272016253D 1   1.00000     0.00000
 Structure written by MMmdl.
 49 51  0  0  0  0  0  0  0  0  1 V2000
  152.4234  139.9309  159.6828 C   0  0  0  0  0  0  0  0  0  0  0  0
  151.6972  141.2549  159.3615 C   0  0  1  0  0  0  0  0  0  0  0  0
  152.5777  142.4543  159.7753 C   0  0  0  0  0  0  0  0  0  0  0  0
  151.8737  143.7987  159.5336 C   0  0  0  0  0  0  0  0  0  0  0  0
  151.4320  143.9423  158.0706 C   0  0  0  0  0  0  0  0  0  0  0  0
  150.5381  142.7651  157.6500 C   0  0  0  0  0  0  0  0  0  0  0  0
  151.2308  141.4002  157.8792 C   0  0  1  0  0  0  0  0  0  0  0  0
  152.3213  141.2067  156.9376 N   0  0  0  0  0  0  0  0  0  0  0  0
  152.1126  140.1834  156.0998 C   0  0  0  0  0  0  0  0  0  0  0  0
  152.8817  139.8290  155.2081 O   0  0  0  0  0  0  0  0  0  0  0  0
  150.9245  139.6266  156.3992 N   0  0  0  0  0  0  0  0  0  0  0  0
  150.3404  138.4827  155.6823 C   0  0  0  0  0  0  0  0  0  0  0  0
  149.3330  137.6482  156.4925 C   0  0  0  0  0  0  0  0  0  0  0  0
  148.1636  137.5951  156.1136 O   0  0  0  0  0  0  0  0  0  0  0  0
  149.7681  137.0106  157.5929 N   0  0  0  0  0  0  0  0  0  0  0  0
  148.9402  136.2099  158.4865 C   0  0  0  0  0  0  0  0  0  0  0  0
  148.5906  136.9806  159.7707 C   0  0  0  0  0  0  0  0  0  0  0  0
  147.8653  136.1162  160.7844 C   0  0  0  0  0  0  0  0  0  0  0  0
  147.5333  134.7780  160.4836 C   0  0  0  0  0  0  0  0  0  0  0  0
  146.8590  134.0184  161.4595 C   0  0  0  0  0  0  0  0  0  0  0  0
  146.5459  134.6227  162.6924 C   0  0  0  0  0  0  0  0  0  0  0  0
  146.9253  135.9643  162.8966 C   0  0  0  0  0  0  0  0  0  0  0  0
  147.5722  136.7015  161.9679 N   0  0  0  0  0  0  0  0  0  0  0  0
  150.3287  140.2621  157.4177 C   0  0  0  0  0  0  0  0  0  0  0  0
  149.2343  140.0023  157.9184 O   0  0  0  0  0  0  0  0  0  0  0  0
  153.3413  139.8239  159.1043 H   0  0  0  0  0  0  0  0  0  0  0  0
  151.7970  139.0625  159.4787 H   0  0  0  0  0  0  0  0  0  0  0  0
  152.6967  139.8850  160.7372 H   0  0  0  0  0  0  0  0  0  0  0  0
  150.8048  141.2837  159.9894 H   0  0  0  0  0  0  0  0  0  0  0  0
  152.8433  142.3738  160.8301 H   0  0  0  0  0  0  0  0  0  0  0  0
  153.5178  142.4327  159.2225 H   0  0  0  0  0  0  0  0  0  0  0  0
  151.0048  143.8792  160.1877 H   0  0  0  0  0  0  0  0  0  0  0  0
  152.5397  144.6191  159.8022 H   0  0  0  0  0  0  0  0  0  0  0  0
  150.8953  144.8819  157.9361 H   0  0  0  0  0  0  0  0  0  0  0  0
  152.3087  143.9934  157.4239 H   0  0  0  0  0  0  0  0  0  0  0  0
  149.6103  142.8073  158.2231 H   0  0  0  0  0  0  0  0  0  0  0  0
  150.2518  142.8808  156.6030 H   0  0  0  0  0  0  0  0  0  0  0  0
  153.1409  141.7961  156.9233 H   0  0  0  0  0  0  0  0  0  0  0  0
  149.8407  138.8355  154.7786 H   0  0  0  0  0  0  0  0  0  0  0  0
  151.1328  137.8180  155.3342 H   0  0  0  0  0  0  0  0  0  0  0  0
  150.7440  137.1003  157.8359 H   0  0  0  0  0  0  0  0  0  0  0  0
  148.0330  135.8883  157.9721 H   0  0  0  0  0  0  0  0  0  0  0  0
  149.4957  135.3049  158.7344 H   0  0  0  0  0  0  0  0  0  0  0  0
  149.4990  137.3742  160.2289 H   0  0  0  0  0  0  0  0  0  0  0  0
  147.9692  137.8457  159.5349 H   0  0  0  0  0  0  0  0  0  0  0  0
  147.7886  134.3427  159.5284 H   0  0  0  0  0  0  0  0  0  0  0  0
  146.5865  132.9915  161.2656 H   0  0  0  0  0  0  0  0  0  0  0  0
  146.0283  134.0713  163.4633 H   0  0  0  0  0  0  0  0  0  0  0  0
  146.7020  136.4589  163.8302 H   0  0  0  0  0  0  0  0  0  0  0  0
  1  2  1  0  0  0  0
  1 26  1  0  0  0  0
  1 27  1  0  0  0  0
  1 28  1  0  0  0  0
  2  7  1  0  0  0  0
  2  3  1  0  0  0  0
  2 29  1  0  0  0  0
  3  4  1  0  0  0  0
  3 30  1  0  0  0  0
  3 31  1  0  0  0  0
  4  5  1  0  0  0  0
  4 32  1  0  0  0  0
  4 33  1  0  0  0  0
  5  6  1  0  0  0  0
  5 34  1  0  0  0  0
  5 35  1  0  0  0  0
  6  7  1  0  0  0  0
  6 36  1  0  0  0  0
  6 37  1  0  0  0  0
  7 24  1  0  0  0  0
  7  8  1  0  0  0  0
  8  9  1  0  0  0  0
  8 38  1  0  0  0  0
  9 10  2  0  0  0  0
  9 11  1  0  0  0  0
 11 12  1  0  0  0  0
 11 24  1  0  0  0  0
 12 13  1  0  0  0  0
 12 39  1  0  0  0  0
 12 40  1  0  0  0  0
 13 14  2  0  0  0  0
 13 15  1  0  0  0  0
 15 16  1  0  0  0  0
 15 41  1  0  0  0  0
 16 17  1  0  0  0  0
 16 42  1  0  0  0  0
 16 43  1  0  0  0  0
 17 18  1  0  0  0  0
 17 44  1  0  0  0  0
 17 45  1  0  0  0  0
 18 23  1  0  0  0  0
 18 19  2  0  0  0  0
 19 20  1  0  0  0  0
 19 46  1  0  0  0  0
 20 21  2  0  0  0  0
 20 47  1  0  0  0  0
 21 22  1  0  0  0  0
 21 48  1  0  0  0  0
 22 23  2  0  0  0  0
 22 49  1  0  0  0  0
 24 25  2  0  0  0  0
M  END
> <s_m_source_file>
AV-unprocessed.smi

> <i_m_source_file_index>
2973

> <i_lp_mmshare_version>
43012

> <i_f3d_flags>
0

> <s_epik_input>
W0NIMl0xW0NIMl1bQ0gyXVtDSDJdW0NAQEhdKFtDSDNdKVtDQF0xMltOSF1DKD1PKU4oQzI9TylbQ0gyXUMoPU8pW05IXVtDSDJdW0NIMl1jM1tjSF1bY0hdW2NIXVtjSF1uMw==

> <s_epik_cmdline>
J2VwaWtfcHl0aG9uJywgJy1waCcsICc3LjAnLCAnLXRuJywgJzgnLCAnLW1hJywgJzIwMCcsICctbWV0YWxfYmluZGluZycsICctaW1hZScsICc8aW5maWxlLm1hZT4nLCAnLW9tYWUnLCAnPG91dGZpbGUubWFlPic=

> <r_lp_tautomer_probability>
1

> <r_epik_Ionization_Penalty>
0.0245152

> <r_epik_Ionization_Penalty_Charging>
0

> <r_epik_Ionization_Penalty_Neutral>
0.0245152

> <r_epik_State_Penalty>
0.0198648

> <r_epik_Charging_Adjusted_Penalty>
0.0198648

> <i_epik_Tot_Q>
0

> <i_epik_Tot_abs_Q>
0

> <r_epik_Metal_State_Penalty>
0.0400162

> <b_epik_Metal_Only>
0

> <s_lp_Force_Field>
OPLS_2005

> <r_lp_Energy>
22.4148

> <b_lp_Chiralities_Consistent>
1

> <s_lp_Variant>
AV-unprocessed.smi:2973-2

> <Gold.Version>
5.8.1

> <Gold.Id.Protein>
6NUR|6NUR_protein|mol2

> <Gold.PLP.Fitness>
46.6755

> <Gold.PLP.PLP>
-40.3103

> <Gold.PLP.part.hbond>
-2.9665

> <Gold.PLP.part.metal>
0.0000

> <Gold.PLP.part.buried>
0.8214

> <Gold.PLP.part.nonpolar>
-39.7555

> <Gold.PLP.part.repulsive>
0.3732

> <Gold.PLP.ligand.clash>
0.0000

> <Gold.PLP.ligand.torsion>
0.5007

> <Gold.PLP.Chemscore.Hbond>
2.4380

> <Gold.PLP.Chemscore.CHOScore>
0.0000

> <Gold.PLP.Chemscore.Metal>
0.0000

> <Gold.Chemscore.Hbonds>
donor molecule, donor type, donor heavy atom, donor atom, acceptor molecule, acceptor atom, score
      P1  H  6931  6943       L1    23  0.73
      P1  H  7989  7998       L1    10  0.09
      P1  H  7997  8009       L1    10  1.00

> <Gold.PLP.Chemscore.Internal.Correction>
0.0528

> <Gold.Rescore>
     Score         DG    S(hbond)    S(metal)    S(lipo)     H(rot)  DE(clash)    DE(int)     intcor
     13.72     -17.15       0.96        0.00     113.02       1.86       1.46       1.96       ----

> <Gold.Chemscore.Fitness>
13.7249

> <Gold.Chemscore.DG>
-17.1457

> <Gold.Chemscore.ZeroCoef>
-5.4800

> <Gold.Chemscore.Hbond>
0.9557

> <Gold.Chemscore.Metal>
0.0000

> <Gold.Chemscore.Lipo>
113.0211

> <Gold.Chemscore.Internal_Hbond>
0.0000

> <Gold.Chemscore.DEClash>
1.4601

> <Gold.Chemscore.DEInternal>
1.9607

> <Gold.Chemscore.Rot>
1.8553

> <Gold.Chemscore.Internal.Correction>
   9.000000E+99

> <Gold.Chemscore.Hbonds>
donor molecule, donor type, donor heavy atom, donor atom, acceptor molecule, acceptor atom, score
      P1  H  6931  6943       L1    23  0.16
      P1  H  7989  7998       L1    10  0.01
      P1  H  7997  8009       L1    10  0.60

> <Gold.Chemscore.Hbond.Weighted>
-3.1920

> <Gold.Chemscore.Metal.Weighted>
-0.0000

> <Gold.Chemscore.Lipo.Weighted>
-13.2235

> <Gold.Chemscore.Internal_Hbond.Weighted>
0.0000

> <Gold.Chemscore.DEClash.Weighted>
1.4601

> <Gold.Chemscore.DEInternal.Weighted>
1.9607

> <Gold.Chemscore.Rot.Weighted>
4.7497

> <Gold.Chemscore.Internal.Correction.Weighted>
   9.000000E+99

> <Gold.Protein.RotatedTorsions>
[ 6907 6896 6895 6894 ] final  172.30 input  -60.11 | X-H torsion
[ 7974 7965 7964 7962 ] final   92.41 input  175.53 | X-H torsion
[ 8008 7997 7996 7995 ] final -124.72 input   59.86 | X-H torsion
[ 10167 10162 10161 10158 ] final   66.17 input  -65.29 | X-H torsion
[ 10718 10713 10712 10709 ] final   98.99 input   66.30 | X-H torsion
[ 10763 10752 10751 10750 ] final  -34.21 input  -60.55 | X-H torsion
[ 11005 11000 10999 10996 ] final   55.28 input  -57.11 | X-H torsion

> <Gold.Protein.ActiveResidues>
 VAL166  LYS551  ARG553  GLY616  TRP617  ASP618  TYR619  PRO620  LYS621  CYS622 
 ASP623  PHE694  ASN695  SER759  ASP760  ASP761  ALA762  ILE779  LEU786  VAL792 
 PHE793  MET794  SER795  GLU796  ALA797  LYS798  CYS799  TRP800  GLU811  SER814 

> <Gold.Protein.RotatedAtoms>
  151.7864  133.3355  159.3486 H   0  0  0  0  0  0  0  0  0  0  0  0  # atno 6907 bound_to 6896
  150.7407  134.5883  159.5983 H   0  0  0  0  0  0  0  0  0  0  0  0  # atno 6908 bound_to 6896
  152.3240  134.7345  160.0358 H   0  0  0  0  0  0  0  0  0  0  0  0  # atno 6909 bound_to 6896
  145.4926  139.2276  143.2821 H   0  0  0  0  0  0  0  0  0  0  0  0  # atno 7974 bound_to 7965
  155.2016  140.0416  157.2918 H   0  0  0  0  0  0  0  0  0  0  0  0  # atno 8008 bound_to 7997
  154.6071  140.2467  155.7688 H   0  0  0  0  0  0  0  0  0  0  0  0  # atno 8009 bound_to 7997
  156.2357  140.2922  156.0315 H   0  0  0  0  0  0  0  0  0  0  0  0  # atno 8010 bound_to 7997
  140.1033  144.4884  150.7024 H   0  0  0  0  0  0  0  0  0  0  0  0  # atno 10167 bound_to 10162
  157.6885  131.0656  150.4881 H   0  0  0  0  0  0  0  0  0  0  0  0  # atno 10718 bound_to 10713
  153.8429  135.6856  153.4801 H   0  0  0  0  0  0  0  0  0  0  0  0  # atno 10763 bound_to 10752
  153.1443  135.4644  154.9540 H   0  0  0  0  0  0  0  0  0  0  0  0  # atno 10764 bound_to 10752
  154.7837  135.3277  154.7881 H   0  0  0  0  0  0  0  0  0  0  0  0  # atno 10765 bound_to 10752
  140.0619  134.5590  155.9142 H   0  0  0  0  0  0  0  0  0  0  0  0  # atno 11005 bound_to 11000
  146.2275  140.5721  142.8990 LP  0  0  0  0  0  0  0  0  0  0  0  0  # atno 17320 bound_to 7965
  144.7825  140.5869  143.6596 LP  0  0  0  0  0  0  0  0  0  0  0  0  # atno 17321 bound_to 7965
  140.6966  143.2407  151.4984 LP  0  0  0  0  0  0  0  0  0  0  0  0  # atno 17342 bound_to 10162
  139.5659  144.2043  152.1764 LP  0  0  0  0  0  0  0  0  0  0  0  0  # atno 17343 bound_to 10162
  156.5209  130.4161  149.6251 LP  0  0  0  0  0  0  0  0  0  0  0  0  # atno 17370 bound_to 10713
  156.3155  130.7252  151.2154 LP  0  0  0  0  0  0  0  0  0  0  0  0  # atno 17371 bound_to 10713
  141.1977  133.6597  156.5753 LP  0  0  0  0  0  0  0  0  0  0  0  0  # atno 17394 bound_to 11000
  140.3757  134.7567  157.4628 LP  0  0  0  0  0  0  0  0  0  0  0  0  # atno 17395 bound_to 11000

$$$$
