AV-unprocessed.smi:722|AV-procd|sdf|3504|dock8
  -GOLD-   22720 0503D 1   1.00000     0.00000
 Structure written by MMmdl.
 38 39  0  0  0  0  0  0  0  0  1 V2000
  156.0869  137.9447  164.7578 C   0  0  0  0  0  0  0  0  0  0  0  0
  155.9812  138.8356  163.5626 C   0  0  0  0  0  0  0  0  0  0  0  0
  156.6040  140.0123  163.4632 N   0  0  0  0  0  0  0  0  0  0  0  0
  156.2469  140.5119  162.2301 N   0  0  0  0  0  0  0  0  0  0  0  0
  155.4418  139.5928  161.6928 C   0  0  0  0  0  0  0  0  0  0  0  0
  154.6939  139.7653  160.1088 S   0  0  0  0  0  0  0  0  0  0  0  0
  153.6835  141.2205  160.4926 C   0  0  0  0  0  0  0  0  0  0  0  0
  152.9904  141.7700  159.2392 C   0  0  0  0  0  0  0  0  0  0  0  0
  151.8518  142.7530  159.5614 C   0  0  0  0  0  0  0  0  0  0  0  0
  151.4562  143.6691  158.3976 C   0  0  0  0  0  0  0  0  0  0  0  0
  150.7608  144.8738  159.0438 C   0  0  0  0  0  0  0  0  0  0  0  0
  151.1819  144.8770  160.5211 C   0  0  0  0  0  0  0  0  0  0  0  0
  152.1984  143.7423  160.6760 C   0  0  0  0  0  0  0  0  0  0  0  0
  155.2392  138.5176  162.4818 N   0  0  0  0  0  0  0  0  0  0  0  0
  154.4226  137.3358  162.2350 C   0  0  0  0  0  0  0  0  0  0  0  0
  155.0019  136.4870  161.1004 C   0  0  0  0  0  0  0  0  0  0  0  0
  156.2780  136.1094  161.2118 N   0  0  0  0  0  0  0  0  0  0  0  0
  154.3095  136.1821  160.1317 O   0  0  0  0  0  0  0  0  0  0  0  0
  156.6684  138.4277  165.5436 H   0  0  0  0  0  0  0  0  0  0  0  0
  156.5800  137.0107  164.4873 H   0  0  0  0  0  0  0  0  0  0  0  0
  155.0956  137.7204  165.1518 H   0  0  0  0  0  0  0  0  0  0  0  0
  152.9418  140.9388  161.2399 H   0  0  0  0  0  0  0  0  0  0  0  0
  154.3183  141.9832  160.9444 H   0  0  0  0  0  0  0  0  0  0  0  0
  153.7317  142.2732  158.6174 H   0  0  0  0  0  0  0  0  0  0  0  0
  152.6031  140.9424  158.6433 H   0  0  0  0  0  0  0  0  0  0  0  0
  150.9709  142.1894  159.8737 H   0  0  0  0  0  0  0  0  0  0  0  0
  152.3497  144.0082  157.8713 H   0  0  0  0  0  0  0  0  0  0  0  0
  150.8180  143.1675  157.6695 H   0  0  0  0  0  0  0  0  0  0  0  0
  151.0400  145.8013  158.5425 H   0  0  0  0  0  0  0  0  0  0  0  0
  149.6772  144.7755  158.9667 H   0  0  0  0  0  0  0  0  0  0  0  0
  151.5982  145.8365  160.8290 H   0  0  0  0  0  0  0  0  0  0  0  0
  150.3116  144.6825  161.1490 H   0  0  0  0  0  0  0  0  0  0  0  0
  152.1656  143.2862  161.6659 H   0  0  0  0  0  0  0  0  0  0  0  0
  153.2055  144.1340  160.5257 H   0  0  0  0  0  0  0  0  0  0  0  0
  154.3472  136.7562  163.1560 H   0  0  0  0  0  0  0  0  0  0  0  0
  153.4083  137.6404  161.9770 H   0  0  0  0  0  0  0  0  0  0  0  0
  156.7032  135.5452  160.4900 H   0  0  0  0  0  0  0  0  0  0  0  0
  156.8135  136.3872  162.0216 H   0  0  0  0  0  0  0  0  0  0  0  0
  1  2  1  0  0  0  0
  1 19  1  0  0  0  0
  1 20  1  0  0  0  0
  1 21  1  0  0  0  0
  2 14  1  0  0  0  0
  2  3  2  0  0  0  0
  3  4  1  0  0  0  0
  4  5  2  0  0  0  0
  5  6  1  0  0  0  0
  5 14  1  0  0  0  0
  6  7  1  0  0  0  0
  7  8  1  0  0  0  0
  7 22  1  0  0  0  0
  7 23  1  0  0  0  0
  8  9  1  0  0  0  0
  8 24  1  0  0  0  0
  8 25  1  0  0  0  0
  9 13  1  0  0  0  0
  9 10  1  0  0  0  0
  9 26  1  0  0  0  0
 10 11  1  0  0  0  0
 10 27  1  0  0  0  0
 10 28  1  0  0  0  0
 11 12  1  0  0  0  0
 11 29  1  0  0  0  0
 11 30  1  0  0  0  0
 12 13  1  0  0  0  0
 12 31  1  0  0  0  0
 12 32  1  0  0  0  0
 13 33  1  0  0  0  0
 13 34  1  0  0  0  0
 14 15  1  0  0  0  0
 15 16  1  0  0  0  0
 15 35  1  0  0  0  0
 15 36  1  0  0  0  0
 16 17  1  0  0  0  0
 16 18  2  0  0  0  0
 17 37  1  0  0  0  0
 17 38  1  0  0  0  0
M  END
> <s_m_source_file>
AV-unprocessed.smi

> <i_m_source_file_index>
722

> <i_lp_mmshare_version>
43012

> <i_f3d_flags>
0

> <s_epik_input>
W0NIM11jMW5uYyhuMVtDSDJdQyg9TylbTkgyXSlTW0NIMl1bQ0gyXVtDSF0yW0NIMl1bQ0gyXVtDSDJdW0NIMl0y

> <s_epik_cmdline>
J2VwaWtfcHl0aG9uJywgJy1waCcsICc3LjAnLCAnLXRuJywgJzgnLCAnLW1hJywgJzIwMCcsICctbWV0YWxfYmluZGluZycsICctaW1hZScsICc8aW5maWxlLm1hZT4nLCAnLW9tYWUnLCAnPG91dGZpbGUubWFlPic=

> <r_lp_tautomer_probability>
1

> <r_epik_Ionization_Penalty>
8.38536e-06

> <r_epik_Ionization_Penalty_Charging>
0

> <r_epik_Ionization_Penalty_Neutral>
8.38536e-06

> <r_epik_State_Penalty>
-0

> <r_epik_Charging_Adjusted_Penalty>
0

> <i_epik_Tot_Q>
0

> <i_epik_Tot_abs_Q>
0

> <r_epik_Metal_State_Penalty>
-0

> <b_epik_Metal_Only>
0

> <s_lp_Force_Field>
OPLS_2005

> <r_lp_Energy>
19.4661

> <b_lp_Chiralities_Consistent>
1

> <s_lp_Variant>
AV-unprocessed.smi:722-1

> <Gold.Version>
5.8.1

> <Gold.Id.Protein>
6NUR|6NUR_protein|mol2

> <Gold.PLP.Fitness>
44.0817

> <Gold.PLP.PLP>
-41.7119

> <Gold.PLP.part.hbond>
-1.8264

> <Gold.PLP.part.metal>
0.0000

> <Gold.PLP.part.buried>
-4.4966

> <Gold.PLP.part.nonpolar>
-35.3575

> <Gold.PLP.part.repulsive>
0.0271

> <Gold.PLP.ligand.clash>
0.0000

> <Gold.PLP.ligand.torsion>
0.3282

> <Gold.PLP.Chemscore.Hbond>
1.0000

> <Gold.PLP.Chemscore.CHOScore>
0.0000

> <Gold.PLP.Chemscore.Metal>
0.0000

> <Gold.Chemscore.Hbonds>
donor molecule, donor type, donor heavy atom, donor atom, acceptor molecule, acceptor atom, score
      P1  H  6896  6908       L1    18  0.06

> <Gold.PLP.Chemscore.Internal.Correction>
0.0262

> <Gold.Rescore>
     Score         DG    S(hbond)    S(metal)    S(lipo)     H(rot)  DE(clash)    DE(int)     intcor
     13.61     -14.14       1.00        0.00     103.69       2.66       0.01       0.52       ----

> <Gold.Chemscore.Fitness>
13.6093

> <Gold.Chemscore.DG>
-14.1367

> <Gold.Chemscore.ZeroCoef>
-5.4800

> <Gold.Chemscore.Hbond>
0.9972

> <Gold.Chemscore.Metal>
0.0000

> <Gold.Chemscore.Lipo>
103.6861

> <Gold.Chemscore.Internal_Hbond>
0.0000

> <Gold.Chemscore.DEClash>
0.0116

> <Gold.Chemscore.DEInternal>
0.5158

> <Gold.Chemscore.Rot>
2.6583

> <Gold.Chemscore.Internal.Correction>
   9.000000E+99

> <Gold.Chemscore.Hbonds>
donor molecule, donor type, donor heavy atom, donor atom, acceptor molecule, acceptor atom, score
      P1  H  6896  6908       L1    18  0.11

> <Gold.Chemscore.Hbond.Weighted>
-3.3305

> <Gold.Chemscore.Metal.Weighted>
-0.0000

> <Gold.Chemscore.Lipo.Weighted>
-12.1313

> <Gold.Chemscore.Internal_Hbond.Weighted>
0.0000

> <Gold.Chemscore.DEClash.Weighted>
0.0116

> <Gold.Chemscore.DEInternal.Weighted>
0.5158

> <Gold.Chemscore.Rot.Weighted>
6.8052

> <Gold.Chemscore.Internal.Correction.Weighted>
   9.000000E+99

> <Gold.Protein.RotatedTorsions>
[ 6907 6896 6895 6894 ] final  -73.90 input  -60.11 | X-H torsion
[ 7974 7965 7964 7962 ] final -100.30 input  175.53 | X-H torsion
[ 8008 7997 7996 7995 ] final -145.28 input   59.86 | X-H torsion
[ 10167 10162 10161 10158 ] final  163.00 input  -65.29 | X-H torsion
[ 10718 10713 10712 10709 ] final  104.36 input   66.30 | X-H torsion
[ 10763 10752 10751 10750 ] final  -82.23 input  -60.55 | X-H torsion
[ 11005 11000 10999 10996 ] final   15.36 input  -57.11 | X-H torsion

> <Gold.Protein.ActiveResidues>
 VAL166  LYS551  ARG553  GLY616  TRP617  ASP618  TYR619  PRO620  LYS621  CYS622 
 ASP623  PHE694  ASN695  SER759  ASP760  ASP761  ALA762  ILE779  LEU786  VAL792 
 PHE793  MET794  SER795  GLU796  ALA797  LYS798  CYS799  TRP800  GLU811  SER814 

> <Gold.Protein.RotatedAtoms>
  150.7113  134.4948  159.5532 H   0  0  0  0  0  0  0  0  0  0  0  0  # atno 6907 bound_to 6896
  152.2558  134.8083  160.0448 H   0  0  0  0  0  0  0  0  0  0  0  0  # atno 6908 bound_to 6896
  151.8814  133.3461  159.3804 H   0  0  0  0  0  0  0  0  0  0  0  0  # atno 6909 bound_to 6896
  145.2964  140.9366  143.2848 H   0  0  0  0  0  0  0  0  0  0  0  0  # atno 7974 bound_to 7965
  155.5406  140.0608  157.2870 H   0  0  0  0  0  0  0  0  0  0  0  0  # atno 8008 bound_to 7997
  154.4453  140.1920  156.0631 H   0  0  0  0  0  0  0  0  0  0  0  0  # atno 8009 bound_to 7997
  156.0587  140.3275  155.7440 H   0  0  0  0  0  0  0  0  0  0  0  0  # atno 8010 bound_to 7997
  139.4868  144.4381  151.8986 H   0  0  0  0  0  0  0  0  0  0  0  0  # atno 10167 bound_to 10162
  157.6743  131.0802  150.5694 H   0  0  0  0  0  0  0  0  0  0  0  0  # atno 10718 bound_to 10713
  154.5733  135.5598  153.7115 H   0  0  0  0  0  0  0  0  0  0  0  0  # atno 10763 bound_to 10752
  153.0056  135.6302  154.2084 H   0  0  0  0  0  0  0  0  0  0  0  0  # atno 10764 bound_to 10752
  154.2024  135.2877  155.2966 H   0  0  0  0  0  0  0  0  0  0  0  0  # atno 10765 bound_to 10752
  140.4592  134.1145  155.7714 H   0  0  0  0  0  0  0  0  0  0  0  0  # atno 11005 bound_to 11000
  144.9130  139.4505  143.6578 LP  0  0  0  0  0  0  0  0  0  0  0  0  # atno 17320 bound_to 7965
  146.3167  139.7949  142.8978 LP  0  0  0  0  0  0  0  0  0  0  0  0  # atno 17321 bound_to 7965
  140.3832  144.2710  150.5906 LP  0  0  0  0  0  0  0  0  0  0  0  0  # atno 17342 bound_to 10162
  140.5214  143.2265  151.8382 LP  0  0  0  0  0  0  0  0  0  0  0  0  # atno 17343 bound_to 10162
  156.5996  130.4351  149.5903 LP  0  0  0  0  0  0  0  0  0  0  0  0  # atno 17370 bound_to 10713
  156.2517  130.6911  151.1651 LP  0  0  0  0  0  0  0  0  0  0  0  0  # atno 17371 bound_to 10713
  141.1629  133.8758  157.1797 LP  0  0  0  0  0  0  0  0  0  0  0  0  # atno 17394 bound_to 11000
  139.9956  135.0048  157.0075 LP  0  0  0  0  0  0  0  0  0  0  0  0  # atno 17395 bound_to 11000

$$$$
