AV-unprocessed.smi:1536|AV-procd|sdf|6186|dock2
  -GOLD-   22720 6343D 1   1.00000     0.00000
 Structure written by MMmdl.
 48 49  0  0  0  0  0  0  0  0  2 V2000
  152.3738  145.2269  158.7482 C   0  0  0  0  0  0  0  0  0  0  0  0
  151.6920  143.8904  158.4238 C   0  0  2  0  0  0  0  0  0  0  0  0
  151.8898  143.4932  156.9513 C   0  0  0  0  0  0  0  0  0  0  0  0
  151.1810  142.1666  156.6366 C   0  0  0  0  0  0  0  0  0  0  0  0
  149.7269  142.2553  156.9487 N   0  3  1  0  0  0  0  0  0  0  0  0
  148.8759  141.1199  156.4696 C   0  0  2  0  0  0  0  0  0  0  0  0
  149.2608  139.7465  157.0859 C   0  0  0  0  0  0  0  0  0  0  0  0
  148.1989  139.2242  157.9400 N   0  0  0  0  0  0  0  0  0  0  0  0
  148.2442  138.0765  158.6354 C   0  0  0  0  0  0  0  0  0  0  0  0
  149.2489  137.3729  158.7304 O   0  0  0  0  0  0  0  0  0  0  0  0
  146.9354  137.6308  159.2848 C   0  0  0  0  0  0  0  0  0  0  0  0
  147.2072  136.9527  160.5383 N   0  0  0  0  0  0  0  0  0  0  0  0
  147.0027  135.6885  160.9134 C   0  0  0  0  0  0  0  0  0  0  0  0
  147.3549  135.4905  162.1745 N   0  0  0  0  0  0  0  0  0  0  0  0
  147.8057  136.7368  162.5755 N   0  0  0  0  0  0  0  0  0  0  0  0
  147.7201  137.6088  161.6093 N   0  0  0  0  0  0  0  0  0  0  0  0
  148.7414  141.1334  154.9183 C   0  0  0  0  0  0  0  0  0  0  0  0
  147.6040  142.0183  154.3805 C   0  0  0  0  0  0  0  0  0  0  0  0
  148.6469  139.7111  154.3395 C   0  0  0  0  0  0  0  0  0  0  0  0
  149.5016  142.5972  158.3781 C   0  0  0  0  0  0  0  0  0  0  0  0
  150.1877  143.9252  158.7428 C   0  0  0  0  0  0  0  0  0  0  0  0
  151.9570  146.0406  158.1538 H   0  0  0  0  0  0  0  0  0  0  0  0
  153.4441  145.1810  158.5451 H   0  0  0  0  0  0  0  0  0  0  0  0
  152.2500  145.4859  159.8001 H   0  0  0  0  0  0  0  0  0  0  0  0
  152.1533  143.1234  159.0481 H   0  0  0  0  0  0  0  0  0  0  0  0
  151.5047  144.2772  156.2973 H   0  0  0  0  0  0  0  0  0  0  0  0
  152.9537  143.4010  156.7297 H   0  0  0  0  0  0  0  0  0  0  0  0
  151.3360  141.9216  155.5872 H   0  0  0  0  0  0  0  0  0  0  0  0
  151.6405  141.3668  157.2192 H   0  0  0  0  0  0  0  0  0  0  0  0
  147.8625  141.3089  156.8276 H   0  0  0  0  0  0  0  0  0  0  0  0
  149.5176  139.0202  156.3145 H   0  0  0  0  0  0  0  0  0  0  0  0
  150.1504  139.8584  157.7065 H   0  0  0  0  0  0  0  0  0  0  0  0
  147.3257  139.7321  157.9360 H   0  0  0  0  0  0  0  0  0  0  0  0
  146.2985  138.4942  159.4813 H   0  0  0  0  0  0  0  0  0  0  0  0
  146.3856  136.9637  158.6191 H   0  0  0  0  0  0  0  0  0  0  0  0
  146.5876  134.9246  160.2728 H   0  0  0  0  0  0  0  0  0  0  0  0
  149.6660  141.5438  154.5125 H   0  0  0  0  0  0  0  0  0  0  0  0
  146.6244  141.6092  154.6271 H   0  0  0  0  0  0  0  0  0  0  0  0
  147.6561  142.0931  153.2939 H   0  0  0  0  0  0  0  0  0  0  0  0
  147.6580  143.0325  154.7750 H   0  0  0  0  0  0  0  0  0  0  0  0
  147.7304  139.2087  154.6497 H   0  0  0  0  0  0  0  0  0  0  0  0
  149.4894  139.0974  154.6601 H   0  0  0  0  0  0  0  0  0  0  0  0
  148.6573  139.7319  153.2494 H   0  0  0  0  0  0  0  0  0  0  0  0
  148.4333  142.6947  158.5754 H   0  0  0  0  0  0  0  0  0  0  0  0
  149.8711  141.7889  159.0109 H   0  0  0  0  0  0  0  0  0  0  0  0
  150.0349  144.1377  159.8015 H   0  0  0  0  0  0  0  0  0  0  0  0
  149.7129  144.7398  158.1938 H   0  0  0  0  0  0  0  0  0  0  0  0
  149.3869  143.0576  156.4376 H   0  0  0  0  0  0  0  0  0  0  0  0
  1  2  1  0  0  0  0
  1 22  1  0  0  0  0
  1 23  1  0  0  0  0
  1 24  1  0  0  0  0
  2 21  1  0  0  0  0
  2  3  1  0  0  0  0
  2 25  1  0  0  0  0
  3  4  1  0  0  0  0
  3 26  1  0  0  0  0
  3 27  1  0  0  0  0
  4  5  1  0  0  0  0
  4 28  1  0  0  0  0
  4 29  1  0  0  0  0
  5  6  1  0  0  0  0
  5 20  1  0  0  0  0
  5 48  1  0  0  0  0
  6  7  1  0  0  0  0
  6 17  1  0  0  0  0
  6 30  1  0  0  0  0
  7  8  1  0  0  0  0
  7 31  1  0  0  0  0
  7 32  1  0  0  0  0
  8  9  1  0  0  0  0
  8 33  1  0  0  0  0
  9 10  2  0  0  0  0
  9 11  1  0  0  0  0
 11 12  1  0  0  0  0
 11 34  1  0  0  0  0
 11 35  1  0  0  0  0
 12 16  1  0  0  0  0
 12 13  1  0  0  0  0
 13 14  2  0  0  0  0
 13 36  1  0  0  0  0
 14 15  1  0  0  0  0
 15 16  2  0  0  0  0
 17 18  1  0  0  0  0
 17 19  1  0  0  0  0
 17 37  1  0  0  0  0
 18 38  1  0  0  0  0
 18 39  1  0  0  0  0
 18 40  1  0  0  0  0
 19 41  1  0  0  0  0
 19 42  1  0  0  0  0
 19 43  1  0  0  0  0
 20 21  1  0  0  0  0
 20 44  1  0  0  0  0
 20 45  1  0  0  0  0
 21 46  1  0  0  0  0
 21 47  1  0  0  0  0
M  CHG  1   5   1
M  END
> <s_m_source_file>
AV-unprocessed.smi

> <i_m_source_file_index>
1536

> <i_lp_mmshare_version>
43012

> <i_f3d_flags>
0

> <s_epik_input>
W0NIM11bQ0hdMVtDSDJdW0NIMl1OKFtDSDJdW0NIMl0xKVtDQEBIXShbQ0hdKFtDSDNdKVtDSDNdKVtDSDJdW05IXUMoPU8pW0NIMl1uMltjSF1ubm4y

> <s_epik_cmdline>
J2VwaWtfcHl0aG9uJywgJy1waCcsICc3LjAnLCAnLXRuJywgJzgnLCAnLW1hJywgJzIwMCcsICctbWV0YWxfYmluZGluZycsICctaW1hZScsICc8aW5maWxlLm1hZT4nLCAnLW9tYWUnLCAnPG91dGZpbGUubWFlPic=

> <r_lp_tautomer_probability>
1

> <r_epik_Ionization_Penalty>
0.00109671

> <r_epik_Ionization_Penalty_Charging>
0.00109273

> <r_epik_Ionization_Penalty_Neutral>
3.97951e-06

> <r_epik_State_Penalty>
0.000716588

> <r_epik_Charging_Adjusted_Penalty>
0.00180932

> <i_epik_Tot_Q>
1

> <i_epik_Tot_abs_Q>
1

> <r_epik_Metal_State_Penalty>
-0

> <b_epik_Metal_Only>
0

> <s_lp_Force_Field>
OPLS_2005

> <r_lp_Energy>
28.917

> <b_lp_Chiralities_Consistent>
1

> <s_lp_Variant>
AV-unprocessed.smi:1536-1

> <Gold.Version>
5.8.1

> <Gold.Id.Protein>
6NUR|6NUR_protein|mol2

> <Gold.PLP.Fitness>
40.3486

> <Gold.PLP.PLP>
-32.6801

> <Gold.PLP.part.hbond>
-3.0000

> <Gold.PLP.part.metal>
0.0000

> <Gold.PLP.part.buried>
-6.2543

> <Gold.PLP.part.nonpolar>
-25.4144

> <Gold.PLP.part.repulsive>
0.1394

> <Gold.PLP.ligand.clash>
0.0000

> <Gold.PLP.ligand.torsion>
2.2244

> <Gold.PLP.Chemscore.Hbond>
3.7904

> <Gold.PLP.Chemscore.CHOScore>
0.0000

> <Gold.PLP.Chemscore.Metal>
0.0000

> <Gold.Chemscore.Hbonds>
donor molecule, donor type, donor heavy atom, donor atom, acceptor molecule, acceptor atom, score
      L1  H     5    48       P1  8028  2.00
      P1  H  6931  6943       L1    16  0.52
      P1  H  6934  6947       L1    16  0.28

> <Gold.PLP.Chemscore.Internal.Correction>
0.7461

> <Gold.Rescore>
     Score         DG    S(hbond)    S(metal)    S(lipo)     H(rot)  DE(clash)    DE(int)     intcor
     11.15     -13.48       1.84        0.00      76.49       2.77       0.19       2.14       ----

> <Gold.Chemscore.Fitness>
11.1484

> <Gold.Chemscore.DG>
-13.4808

> <Gold.Chemscore.ZeroCoef>
-5.4800

> <Gold.Chemscore.Hbond>
1.8398

> <Gold.Chemscore.Metal>
0.0000

> <Gold.Chemscore.Lipo>
76.4908

> <Gold.Chemscore.Internal_Hbond>
0.0000

> <Gold.Chemscore.DEClash>
0.1895

> <Gold.Chemscore.DEInternal>
2.1429

> <Gold.Chemscore.Rot>
2.7709

> <Gold.Chemscore.Internal.Correction>
   9.000000E+99

> <Gold.Chemscore.Hbonds>
donor molecule, donor type, donor heavy atom, donor atom, acceptor molecule, acceptor atom, score
      L1  H     5    48       P1  8028  1.00
      P1  H  6931  6943       L1    16  0.06
      P1  H  6934  6947       L1    16  0.01

> <Gold.Chemscore.Hbond.Weighted>
-6.1449

> <Gold.Chemscore.Metal.Weighted>
-0.0000

> <Gold.Chemscore.Lipo.Weighted>
-8.9494

> <Gold.Chemscore.Internal_Hbond.Weighted>
0.0000

> <Gold.Chemscore.DEClash.Weighted>
0.1895

> <Gold.Chemscore.DEInternal.Weighted>
2.1429

> <Gold.Chemscore.Rot.Weighted>
7.0935

> <Gold.Chemscore.Internal.Correction.Weighted>
   9.000000E+99

> <Gold.Protein.RotatedTorsions>
[ 6907 6896 6895 6894 ] final  -73.86 input  -60.11 | X-H torsion
[ 7974 7965 7964 7962 ] final   -5.39 input  175.53 | X-H torsion
[ 8008 7997 7996 7995 ] final   54.90 input   59.86 | X-H torsion
[ 10167 10162 10161 10158 ] final   69.60 input  -65.29 | X-H torsion
[ 10718 10713 10712 10709 ] final  -31.48 input   66.30 | X-H torsion
[ 10763 10752 10751 10750 ] final -103.20 input  -60.55 | X-H torsion
[ 11005 11000 10999 10996 ] final   25.15 input  -57.11 | X-H torsion

> <Gold.Protein.ActiveResidues>
 VAL166  LYS551  ARG553  GLY616  TRP617  ASP618  TYR619  PRO620  LYS621  CYS622 
 ASP623  PHE694  ASN695  SER759  ASP760  ASP761  ALA762  ILE779  LEU786  VAL792 
 PHE793  MET794  SER795  GLU796  ALA797  LYS798  CYS799  TRP800  GLU811  SER814 

> <Gold.Protein.RotatedAtoms>
  150.7114  134.4955  159.5535 H   0  0  0  0  0  0  0  0  0  0  0  0  # atno 6907 bound_to 6896
  152.2563  134.8078  160.0447 H   0  0  0  0  0  0  0  0  0  0  0  0  # atno 6908 bound_to 6896
  151.8807  133.3459  159.3802 H   0  0  0  0  0  0  0  0  0  0  0  0  # atno 6909 bound_to 6896
  146.2354  140.2013  142.8334 H   0  0  0  0  0  0  0  0  0  0  0  0  # atno 7974 bound_to 7965
  155.4924  140.3472  155.4357 H   0  0  0  0  0  0  0  0  0  0  0  0  # atno 8008 bound_to 7997
  156.0968  140.1425  156.9548 H   0  0  0  0  0  0  0  0  0  0  0  0  # atno 8009 bound_to 7997
  154.4669  140.0914  156.7020 H   0  0  0  0  0  0  0  0  0  0  0  0  # atno 8010 bound_to 7997
  140.0661  144.5192  150.7260 H   0  0  0  0  0  0  0  0  0  0  0  0  # atno 10167 bound_to 10162
  156.3867  130.4365  149.7426 H   0  0  0  0  0  0  0  0  0  0  0  0  # atno 10718 bound_to 10713
  154.7790  135.4832  153.9805 H   0  0  0  0  0  0  0  0  0  0  0  0  # atno 10763 bound_to 10752
  153.1468  135.6783  153.8950 H   0  0  0  0  0  0  0  0  0  0  0  0  # atno 10764 bound_to 10752
  153.8607  135.3155  155.3416 H   0  0  0  0  0  0  0  0  0  0  0  0  # atno 10765 bound_to 10752
  140.3509  134.2230  155.7680 H   0  0  0  0  0  0  0  0  0  0  0  0  # atno 11005 bound_to 11000
  144.9779  140.8432  143.5415 LP  0  0  0  0  0  0  0  0  0  0  0  0  # atno 17320 bound_to 7965
  145.2003  139.2255  143.5196 LP  0  0  0  0  0  0  0  0  0  0  0  0  # atno 17321 bound_to 7965
  140.7148  143.2535  151.4467 LP  0  0  0  0  0  0  0  0  0  0  0  0  # atno 17342 bound_to 10162
  139.5864  144.1594  152.2034 LP  0  0  0  0  0  0  0  0  0  0  0  0  # atno 17343 bound_to 10162
  156.4495  130.7900  151.2921 LP  0  0  0  0  0  0  0  0  0  0  0  0  # atno 17370 bound_to 10713
  157.7496  131.0100  150.3288 LP  0  0  0  0  0  0  0  0  0  0  0  0  # atno 17371 bound_to 10713
  141.2012  133.7968  157.0451 LP  0  0  0  0  0  0  0  0  0  0  0  0  # atno 17394 bound_to 11000
  140.0704  134.9705  157.1457 LP  0  0  0  0  0  0  0  0  0  0  0  0  # atno 17395 bound_to 11000

$$$$
