AV-unprocessed.smi:287|AV-procd|sdf|2187|dock3
  -GOLD-   2262021573D 1   1.00000     0.00000
 Structure written by MMmdl.
 55 58  0  0  0  0  0  0  0  0  1 V2000
  154.2507  139.2988  159.8863 C   0  0  0  0  0  0  0  0  0  0  0  0
  153.3911  140.4437  159.4724 C   0  0  0  0  0  0  0  0  0  0  0  0
  152.3370  140.5719  158.6158 C   0  0  0  0  0  0  0  0  0  0  0  0
  151.9322  141.9403  158.6394 C   0  0  0  0  0  0  0  0  0  0  0  0
  150.7859  142.5515  157.8451 C   0  0  1  0  0  0  0  0  0  0  0  0
  149.8588  143.3314  158.7917 C   0  0  0  0  0  0  0  0  0  0  0  0
  151.2253  143.4933  156.8850 O   0  0  0  0  0  0  0  0  0  0  0  0
  149.9752  141.4916  157.0652 C   0  0  0  0  0  0  0  0  0  0  0  0
  150.7179  140.9144  155.9520 N   0  0  0  0  0  0  0  0  0  0  0  0
  150.6485  139.5949  155.6781 C   0  0  0  0  0  0  0  0  0  0  0  0
  150.9323  139.2494  154.3994 N   0  0  0  0  0  0  0  0  0  0  0  0
  150.8961  137.9676  154.0247 C   0  0  0  0  0  0  0  0  0  0  0  0
  150.6054  136.8919  154.7585 N   0  0  0  0  0  0  0  0  0  0  0  0
  150.3187  137.2324  156.0480 C   0  0  0  0  0  0  0  0  0  0  0  0
  150.3139  138.5494  156.5895 C   0  0  0  0  0  0  0  0  0  0  0  0
  149.9694  138.4862  157.9358 N   0  0  0  0  0  0  0  0  0  0  0  0
  149.7881  137.2145  158.1679 C   0  0  0  0  0  0  0  0  0  0  0  0
  149.9702  136.3890  157.0796 N   0  0  0  0  0  0  0  0  0  0  0  0
  149.8510  134.8971  156.9816 C   0  0  1  0  0  0  0  0  0  0  0  0
  149.0493  134.5898  155.8810 O   0  0  0  0  0  0  0  0  0  0  0  0
  149.8711  134.2115  154.7826 C   0  0  2  0  0  0  0  0  0  0  0  0
  149.0668  133.4499  153.7155 C   0  0  0  0  0  0  0  0  0  0  0  0
  147.9047  134.1777  153.3797 O   0  0  0  0  0  0  0  0  0  0  0  0
  150.9835  133.4136  155.4732 C   0  0  2  0  0  0  0  0  0  0  0  0
  150.5526  132.0967  155.7663 O   0  0  0  0  0  0  0  0  0  0  0  0
  151.2175  134.2008  156.7581 C   0  0  1  0  0  0  0  0  0  0  0  0
  152.3023  135.0956  156.5780 O   0  0  0  0  0  0  0  0  0  0  0  0
  152.7808  142.5409  159.5381 C   0  0  0  0  0  0  0  0  0  0  0  0
  152.9196  143.9319  160.0628 C   0  0  0  0  0  0  0  0  0  0  0  0
  153.6714  141.6421  160.0429 O   0  0  0  0  0  0  0  0  0  0  0  0
  149.3527  134.6013  157.9057 H   0  0  0  0  0  0  0  0  0  0  0  0
  150.3195  135.1045  154.3428 H   0  0  0  0  0  0  0  0  0  0  0  0
  151.8783  133.3440  154.8527 H   0  0  0  0  0  0  0  0  0  0  0  0
  151.4416  133.5516  157.6057 H   0  0  0  0  0  0  0  0  0  0  0  0
  154.0334  138.4128  159.2895 H   0  0  0  0  0  0  0  0  0  0  0  0
  154.0838  139.0500  160.9344 H   0  0  0  0  0  0  0  0  0  0  0  0
  155.3059  139.5412  159.7588 H   0  0  0  0  0  0  0  0  0  0  0  0
  151.9052  139.7728  158.0312 H   0  0  0  0  0  0  0  0  0  0  0  0
  149.4355  142.6784  159.5557 H   0  0  0  0  0  0  0  0  0  0  0  0
  149.0263  143.7859  158.2529 H   0  0  0  0  0  0  0  0  0  0  0  0
  150.3966  144.1301  159.3044 H   0  0  0  0  0  0  0  0  0  0  0  0
  150.4717  143.9568  156.5531 H   0  0  0  0  0  0  0  0  0  0  0  0
  149.7301  140.6787  157.7497 H   0  0  0  0  0  0  0  0  0  0  0  0
  149.0299  141.9071  156.7130 H   0  0  0  0  0  0  0  0  0  0  0  0
  151.2854  141.5616  155.4236 H   0  0  0  0  0  0  0  0  0  0  0  0
  151.1339  137.7769  152.9885 H   0  0  0  0  0  0  0  0  0  0  0  0
  149.5171  136.8502  159.1481 H   0  0  0  0  0  0  0  0  0  0  0  0
  149.6591  133.3415  152.8064 H   0  0  0  0  0  0  0  0  0  0  0  0
  148.8011  132.4480  154.0540 H   0  0  0  0  0  0  0  0  0  0  0  0
  148.1629  134.9569  152.9114 H   0  0  0  0  0  0  0  0  0  0  0  0
  150.7024  131.5567  155.0054 H   0  0  0  0  0  0  0  0  0  0  0  0
  152.7683  135.1666  157.3974 H   0  0  0  0  0  0  0  0  0  0  0  0
  151.9595  144.3107  160.4134 H   0  0  0  0  0  0  0  0  0  0  0  0
  153.2859  144.6022  159.2851 H   0  0  0  0  0  0  0  0  0  0  0  0
  153.6192  143.9712  160.8981 H   0  0  0  0  0  0  0  0  0  0  0  0
  1  2  1  0  0  0  0
  1 35  1  0  0  0  0
  1 36  1  0  0  0  0
  1 37  1  0  0  0  0
  2 30  1  0  0  0  0
  2  3  2  0  0  0  0
  3  4  1  0  0  0  0
  3 38  1  0  0  0  0
  4  5  1  0  0  0  0
  4 28  2  0  0  0  0
  5  6  1  0  0  0  0
  5  7  1  0  0  0  0
  5  8  1  0  0  0  0
  6 39  1  0  0  0  0
  6 40  1  0  0  0  0
  6 41  1  0  0  0  0
  7 42  1  0  0  0  0
  8  9  1  0  0  0  0
  8 43  1  0  0  0  0
  8 44  1  0  0  0  0
  9 10  1  0  0  0  0
  9 45  1  0  0  0  0
 10 15  1  0  0  0  0
 10 11  2  0  0  0  0
 11 12  1  0  0  0  0
 12 13  2  0  0  0  0
 12 46  1  0  0  0  0
 13 14  1  0  0  0  0
 14 18  1  0  0  0  0
 14 15  2  0  0  0  0
 15 16  1  0  0  0  0
 16 17  2  0  0  0  0
 17 18  1  0  0  0  0
 17 47  1  0  0  0  0
 18 19  1  0  0  0  0
 19 31  1  0  0  0  0
 19 26  1  0  0  0  0
 19 20  1  0  0  0  0
 20 21  1  0  0  0  0
 21 32  1  0  0  0  0
 21 22  1  0  0  0  0
 21 24  1  0  0  0  0
 22 23  1  0  0  0  0
 22 48  1  0  0  0  0
 22 49  1  0  0  0  0
 23 50  1  0  0  0  0
 24 33  1  0  0  0  0
 24 25  1  0  0  0  0
 24 26  1  0  0  0  0
 25 51  1  0  0  0  0
 26 34  1  0  0  0  0
 26 27  1  0  0  0  0
 27 52  1  0  0  0  0
 28 29  1  0  0  0  0
 28 30  1  0  0  0  0
 29 53  1  0  0  0  0
 29 54  1  0  0  0  0
 29 55  1  0  0  0  0
M  END
> <s_m_source_file>
AV-unprocessed.smi

> <i_m_source_file_index>
287

> <i_lp_mmshare_version>
43012

> <i_f3d_flags>
0

> <s_epik_input>
W0NIM11jMVtjSF1jKGMobzEpW0NIM10pW0NAQF0oW0NIM10pKFtPSF0pW0NIMl1bTkhdYyhuW2NIXW4yKWMoYzIzKW5bY0hdbjNbQ0BASF00T1tDQEhdKFtDSDJdW09IXSlbQ0BASF0oW09IXSlbQ0BIXTRbT0hd

> <s_epik_cmdline>
J2VwaWtfcHl0aG9uJywgJy1waCcsICc3LjAnLCAnLXRuJywgJzgnLCAnLW1hJywgJzIwMCcsICctbWV0YWxfYmluZGluZycsICctaW1hZScsICc8aW5maWxlLm1hZT4nLCAnLW9tYWUnLCAnPG91dGZpbGUubWFlPic=

> <r_lp_tautomer_probability>
1

> <r_epik_Ionization_Penalty>
0.000992612

> <r_epik_Ionization_Penalty_Charging>
0

> <r_epik_Ionization_Penalty_Neutral>
0.000992612

> <r_epik_State_Penalty>
-0

> <r_epik_Charging_Adjusted_Penalty>
0

> <i_epik_Tot_Q>
0

> <i_epik_Tot_abs_Q>
0

> <r_epik_Metal_State_Penalty>
-0

> <b_epik_Metal_Only>
0

> <s_epik_Chemistry_Notes>
This compound contains an acetal/aminal-like group ( X-CH(R)-Y where X, Y are N, S, or O) that may be acid/base labile, releasing an aldehyde.

> <s_lp_Force_Field>
OPLS_2005

> <r_lp_Energy>
42.7121

> <b_lp_Chiralities_Consistent>
1

> <s_lp_Variant>
AV-unprocessed.smi:287-11

> <Gold.Version>
5.8.1

> <Gold.Id.Protein>
6NUR|6NUR_protein|mol2

> <Gold.PLP.Fitness>
52.7634

> <Gold.PLP.PLP>
-40.2270

> <Gold.PLP.part.hbond>
-4.0000

> <Gold.PLP.part.metal>
0.0000

> <Gold.PLP.part.buried>
-6.6505

> <Gold.PLP.part.nonpolar>
-28.9738

> <Gold.PLP.part.repulsive>
0.4505

> <Gold.PLP.ligand.clash>
1.2141

> <Gold.PLP.ligand.torsion>
0.7099

> <Gold.PLP.Chemscore.Hbond>
4.0000

> <Gold.PLP.Chemscore.CHOScore>
1.0000

> <Gold.PLP.Chemscore.Metal>
0.0000

> <Gold.Chemscore.Hbonds>
donor molecule, donor type, donor heavy atom, donor atom, acceptor molecule, acceptor atom, score
      L1  H     7    42       P1  8028  1.00
      L1  H    23    50       P1  7948  1.00
      P1  H  7989  7998       L1    11  1.00
      P1  H 10752 10765       L1    27  1.00
      L1  C    12    46       P1  7949  1.00

> <Gold.PLP.Chemscore.Internal.Correction>
0.1703

> <Gold.Rescore>
     Score         DG    S(hbond)    S(metal)    S(lipo)     H(rot)  DE(clash)    DE(int)     intcor
     10.85     -15.22       3.63        0.00      94.81       5.27       0.16       4.21       ----

> <Gold.Chemscore.Fitness>
10.8513

> <Gold.Chemscore.DG>
-15.2227

> <Gold.Chemscore.ZeroCoef>
-5.4800

> <Gold.Chemscore.Hbond>
3.6329

> <Gold.Chemscore.Metal>
0.0000

> <Gold.Chemscore.Lipo>
94.8109

> <Gold.Chemscore.Internal_Hbond>
0.0000

> <Gold.Chemscore.DEClash>
0.1644

> <Gold.Chemscore.DEInternal>
4.2070

> <Gold.Chemscore.Rot>
5.2672

> <Gold.Chemscore.Internal.Correction>
   9.000000E+99

> <Gold.Chemscore.Hbonds>
donor molecule, donor type, donor heavy atom, donor atom, acceptor molecule, acceptor atom, score
      L1  H     7    42       P1  8028  0.99
      L1  H    23    50       P1  7948  0.88
      P1  H  7989  7998       L1    11  0.64
      P1  H 10752 10765       L1    27  0.86

> <Gold.Chemscore.Hbond.Weighted>
-12.1337

> <Gold.Chemscore.Metal.Weighted>
-0.0000

> <Gold.Chemscore.Lipo.Weighted>
-11.0929

> <Gold.Chemscore.Internal_Hbond.Weighted>
0.0000

> <Gold.Chemscore.DEClash.Weighted>
0.1644

> <Gold.Chemscore.DEInternal.Weighted>
4.2070

> <Gold.Chemscore.Rot.Weighted>
13.4839

> <Gold.Chemscore.Internal.Correction.Weighted>
   9.000000E+99

> <Gold.Protein.RotatedTorsions>
[ 6907 6896 6895 6894 ] final   78.67 input  -60.11 | X-H torsion
[ 7974 7965 7964 7962 ] final   72.48 input  175.53 | X-H torsion
[ 8008 7997 7996 7995 ] final -164.37 input   59.86 | X-H torsion
[ 10167 10162 10161 10158 ] final   50.27 input  -65.29 | X-H torsion
[ 10718 10713 10712 10709 ] final -134.55 input   66.30 | X-H torsion
[ 10763 10752 10751 10750 ] final -140.18 input  -60.55 | X-H torsion
[ 11005 11000 10999 10996 ] final  -94.77 input  -57.11 | X-H torsion

> <Gold.Protein.ActiveResidues>
 VAL166  LYS551  ARG553  GLY616  TRP617  ASP618  TYR619  PRO620  LYS621  CYS622 
 ASP623  PHE694  ASN695  SER759  ASP760  ASP761  ALA762  ILE779  LEU786  VAL792 
 PHE793  MET794  SER795  GLU796  ALA797  LYS798  CYS799  TRP800  GLU811  SER814 

> <Gold.Protein.RotatedAtoms>
  152.5168  134.3629  159.9290 H   0  0  0  0  0  0  0  0  0  0  0  0  # atno 6907 bound_to 6896
  151.3582  133.3893  159.2694 H   0  0  0  0  0  0  0  0  0  0  0  0  # atno 6908 bound_to 6896
  150.9673  134.9071  159.7825 H   0  0  0  0  0  0  0  0  0  0  0  0  # atno 6909 bound_to 6896
  145.7529  139.2767  143.1421 H   0  0  0  0  0  0  0  0  0  0  0  0  # atno 7974 bound_to 7965
  155.8347  140.0939  157.1771 H   0  0  0  0  0  0  0  0  0  0  0  0  # atno 8008 bound_to 7997
  154.3980  140.1412  156.3717 H   0  0  0  0  0  0  0  0  0  0  0  0  # atno 8009 bound_to 7997
  155.8128  140.3449  155.5470 H   0  0  0  0  0  0  0  0  0  0  0  0  # atno 8010 bound_to 7997
  140.2742  144.3231  150.6282 H   0  0  0  0  0  0  0  0  0  0  0  0  # atno 10167 bound_to 10162
  156.2567  130.7185  151.1104 H   0  0  0  0  0  0  0  0  0  0  0  0  # atno 10718 bound_to 10713
  154.8586  135.3561  154.5666 H   0  0  0  0  0  0  0  0  0  0  0  0  # atno 10763 bound_to 10752
  153.6280  135.7003  153.5291 H   0  0  0  0  0  0  0  0  0  0  0  0  # atno 10764 bound_to 10752
  153.3073  135.4189  155.1265 H   0  0  0  0  0  0  0  0  0  0  0  0  # atno 10765 bound_to 10752
  141.1461  133.7979  157.0344 H   0  0  0  0  0  0  0  0  0  0  0  0  # atno 11005 bound_to 11000
  146.0339  140.8231  142.9862 LP  0  0  0  0  0  0  0  0  0  0  0  0  # atno 17320 bound_to 7965
  144.6846  140.2810  143.7292 LP  0  0  0  0  0  0  0  0  0  0  0  0  # atno 17321 bound_to 7965
  140.5865  143.2170  151.7332 LP  0  0  0  0  0  0  0  0  0  0  0  0  # atno 17342 bound_to 10162
  139.4980  144.4003  152.0188 LP  0  0  0  0  0  0  0  0  0  0  0  0  # atno 17343 bound_to 10162
  157.7235  131.0666  150.6034 LP  0  0  0  0  0  0  0  0  0  0  0  0  # atno 17370 bound_to 10713
  156.6118  130.4382  149.5856 LP  0  0  0  0  0  0  0  0  0  0  0  0  # atno 17371 bound_to 10713
  140.0733  134.9690  157.1503 LP  0  0  0  0  0  0  0  0  0  0  0  0  # atno 17394 bound_to 11000
  140.3680  134.2422  155.7180 LP  0  0  0  0  0  0  0  0  0  0  0  0  # atno 17395 bound_to 11000

$$$$
