AV-unprocessed.smi:66|AV-procd|sdf|617|dock3
  -GOLD-   2262016513D 1   1.00000     0.00000
 Structure written by MMmdl.
 28 30  0  0  0  0  0  0  0  0  2 V2000
  153.2640  139.0053  156.4113 O   0  0  0  0  0  0  0  0  0  0  0  0
  152.1685  139.3085  155.8904 C   0  0  0  0  0  0  0  0  0  0  0  0
  151.9054  139.2404  154.6687 O   0  5  0  0  0  0  0  0  0  0  0  0
  151.0627  139.7969  156.8406 C   0  0  2  0  0  0  0  0  0  0  0  0
  149.7352  140.0679  156.1097 C   0  0  0  0  0  0  0  0  0  0  0  0
  149.7899  141.5585  155.7797 C   0  0  1  0  0  0  0  0  0  0  0  0
  148.5087  142.1226  155.5931 O   0  0  0  0  0  0  0  0  0  0  0  0
  150.5159  142.1479  156.9888 C   0  0  0  0  0  0  0  0  0  0  0  0
  151.4010  141.0869  157.4511 N   0  0  0  0  0  0  0  0  0  0  0  0
  152.1581  141.1967  158.5776 C   0  0  0  0  0  0  0  0  0  0  0  0
  152.9305  140.1391  158.9453 N   0  0  0  0  0  0  0  0  0  0  0  0
  153.6950  140.1942  160.0390 C   0  0  0  0  0  0  0  0  0  0  0  0
  153.8394  141.1973  160.9059 N   0  0  0  0  0  0  0  0  0  0  0  0
  153.0710  142.2624  160.5475 C   0  0  0  0  0  0  0  0  0  0  0  0
  152.9587  143.4752  161.1931 N   0  0  0  0  0  0  0  0  0  0  0  0
  152.0716  144.2163  160.4545 C   0  0  0  0  0  0  0  0  0  0  0  0
  151.6011  143.6076  159.4001 N   0  0  0  0  0  0  0  0  0  0  0  0
  152.2092  142.3533  159.4150 C   0  0  0  0  0  0  0  0  0  0  0  0
  153.4578  143.7116  162.0384 H   0  0  0  0  0  0  0  0  0  0  0  0
  150.8956  139.0380  157.6064 H   0  0  0  0  0  0  0  0  0  0  0  0
  149.5889  139.4479  155.2240 H   0  0  0  0  0  0  0  0  0  0  0  0
  148.9067  139.8651  156.7901 H   0  0  0  0  0  0  0  0  0  0  0  0
  150.3850  141.7136  154.8786 H   0  0  0  0  0  0  0  0  0  0  0  0
  148.6074  143.0561  155.4843 H   0  0  0  0  0  0  0  0  0  0  0  0
  151.0671  143.0457  156.7084 H   0  0  0  0  0  0  0  0  0  0  0  0
  149.8145  142.3997  157.7860 H   0  0  0  0  0  0  0  0  0  0  0  0
  154.2726  139.3058  160.2484 H   0  0  0  0  0  0  0  0  0  0  0  0
  151.7854  145.2227  160.7222 H   0  0  0  0  0  0  0  0  0  0  0  0
  1  2  2  0  0  0  0
  2  3  1  0  0  0  0
  2  4  1  0  0  0  0
  4  5  1  0  0  0  0
  4 20  1  0  0  0  0
  4  9  1  0  0  0  0
  5  6  1  0  0  0  0
  5 21  1  0  0  0  0
  5 22  1  0  0  0  0
  6  7  1  0  0  0  0
  6  8  1  0  0  0  0
  6 23  1  0  0  0  0
  7 24  1  0  0  0  0
  8 25  1  0  0  0  0
  8 26  1  0  0  0  0
  8  9  1  0  0  0  0
  9 10  1  0  0  0  0
 10 11  1  0  0  0  0
 10 18  2  0  0  0  0
 11 12  2  0  0  0  0
 12 27  1  0  0  0  0
 12 13  1  0  0  0  0
 13 14  2  0  0  0  0
 14 15  1  0  0  0  0
 14 18  1  0  0  0  0
 15 16  1  0  0  0  0
 15 19  1  0  0  0  0
 16 17  2  0  0  0  0
 16 28  1  0  0  0  0
 17 18  1  0  0  0  0
M  CHG  1   3  -1
M  END
> <s_m_source_file>
AV-unprocessed.smi

> <i_m_source_file_index>
66

> <i_lp_mmshare_version>
43012

> <i_f3d_flags>
0

> <s_epik_input>
Tz1DKFtPSF0pW0NAQEhdMVtDSDJdW0NAQEhdKFtPSF0pW0NIMl1OMWMobltjSF1uMiljKGMyMylbbkhdW2NIXW4z

> <s_epik_cmdline>
J2VwaWtfcHl0aG9uJywgJy1waCcsICc3LjAnLCAnLXRuJywgJzgnLCAnLW1hJywgJzIwMCcsICctbWV0YWxfYmluZGluZycsICctaW1hZScsICc8aW5maWxlLm1hZT4nLCAnLW9tYWUnLCAnPG91dGZpbGUubWFlPic=

> <r_lp_tautomer_probability>
0.955585

> <r_epik_Ionization_Penalty>
0.00455415

> <r_epik_Ionization_Penalty_Charging>
0.000248217

> <r_epik_Ionization_Penalty_Neutral>
0.00430593

> <r_epik_State_Penalty>
0.0207074

> <r_epik_Charging_Adjusted_Penalty>
0.0209557

> <i_epik_Tot_Q>
-1

> <i_epik_Tot_abs_Q>
1

> <r_epik_Metal_State_Penalty>
0.337372

> <b_epik_Metal_Only>
0

> <s_lp_Force_Field>
OPLS_2005

> <r_lp_Energy>
24.8214

> <b_lp_Chiralities_Consistent>
1

> <s_lp_Variant>
AV-unprocessed.smi:66-1

> <Gold.Version>
5.8.1

> <Gold.Id.Protein>
6NUR|6NUR_protein|mol2

> <Gold.PLP.Fitness>
43.3188

> <Gold.PLP.PLP>
-31.6383

> <Gold.PLP.part.hbond>
-2.7682

> <Gold.PLP.part.metal>
0.0000

> <Gold.PLP.part.buried>
-5.6310

> <Gold.PLP.part.nonpolar>
-24.0451

> <Gold.PLP.part.repulsive>
0.1265

> <Gold.PLP.ligand.clash>
0.0000

> <Gold.PLP.ligand.torsion>
0.1279

> <Gold.PLP.Chemscore.Hbond>
3.9440

> <Gold.PLP.Chemscore.CHOScore>
0.0000

> <Gold.PLP.Chemscore.Metal>
0.0000

> <Gold.Chemscore.Hbonds>
donor molecule, donor type, donor heavy atom, donor atom, acceptor molecule, acceptor atom, score
      L1  H     7    24       P1  8028  1.00
      P1  H  7989  7998       L1     3  0.96
      P1  H  7997  8008       L1     1  2.00

> <Gold.PLP.Chemscore.Internal.Correction>
0.1041

> <Gold.Rescore>
     Score         DG    S(hbond)    S(metal)    S(lipo)     H(rot)  DE(clash)    DE(int)     intcor
     12.05     -14.46       2.95        0.00      31.66       1.78       0.01       2.41       ----

> <Gold.Chemscore.Fitness>
12.0513

> <Gold.Chemscore.DG>
-14.4645

> <Gold.Chemscore.ZeroCoef>
-5.4800

> <Gold.Chemscore.Hbond>
2.9486

> <Gold.Chemscore.Metal>
0.0000

> <Gold.Chemscore.Lipo>
31.6572

> <Gold.Chemscore.Internal_Hbond>
0.0000

> <Gold.Chemscore.DEClash>
0.0077

> <Gold.Chemscore.DEInternal>
2.4055

> <Gold.Chemscore.Rot>
1.7842

> <Gold.Chemscore.Internal.Correction>
   9.000000E+99

> <Gold.Chemscore.Hbonds>
donor molecule, donor type, donor heavy atom, donor atom, acceptor molecule, acceptor atom, score
      L1  H     7    24       P1  8028  1.00
      P1  H  7989  7998       L1     3  0.87
      P1  H  7997  8008       L1     1  0.79

> <Gold.Chemscore.Hbond.Weighted>
-9.8483

> <Gold.Chemscore.Metal.Weighted>
-0.0000

> <Gold.Chemscore.Lipo.Weighted>
-3.7039

> <Gold.Chemscore.Internal_Hbond.Weighted>
0.0000

> <Gold.Chemscore.DEClash.Weighted>
0.0077

> <Gold.Chemscore.DEInternal.Weighted>
2.4055

> <Gold.Chemscore.Rot.Weighted>
4.5676

> <Gold.Chemscore.Internal.Correction.Weighted>
   9.000000E+99

> <Gold.Protein.RotatedTorsions>
[ 6907 6896 6895 6894 ] final  -12.51 input  -60.11 | X-H torsion
[ 7974 7965 7964 7962 ] final -166.75 input  175.53 | X-H torsion
[ 8008 7997 7996 7995 ] final  -36.63 input   59.86 | X-H torsion
[ 10167 10162 10161 10158 ] final -128.50 input  -65.29 | X-H torsion
[ 10718 10713 10712 10709 ] final  125.45 input   66.30 | X-H torsion
[ 10763 10752 10751 10750 ] final  167.31 input  -60.55 | X-H torsion
[ 11005 11000 10999 10996 ] final -165.82 input  -57.11 | X-H torsion

> <Gold.Protein.ActiveResidues>
 VAL166  LYS551  ARG553  GLY616  TRP617  ASP618  TYR619  PRO620  LYS621  CYS622 
 ASP623  PHE694  ASN695  SER759  ASP760  ASP761  ALA762  ILE779  LEU786  VAL792 
 PHE793  MET794  SER795  GLU796  ALA797  LYS798  CYS799  TRP800  GLU811  SER814 

> <Gold.Protein.RotatedAtoms>
  151.3693  135.0919  159.9460 H   0  0  0  0  0  0  0  0  0  0  0  0  # atno 6907 bound_to 6896
  152.5140  133.9180  159.7531 H   0  0  0  0  0  0  0  0  0  0  0  0  # atno 6908 bound_to 6896
  150.9591  133.6410  159.2787 H   0  0  0  0  0  0  0  0  0  0  0  0  # atno 6909 bound_to 6896
  144.7238  140.2620  143.6263 H   0  0  0  0  0  0  0  0  0  0  0  0  # atno 7974 bound_to 7965
  154.4069  140.1625  156.2405 H   0  0  0  0  0  0  0  0  0  0  0  0  # atno 8008 bound_to 7997
  155.9205  140.3421  155.6147 H   0  0  0  0  0  0  0  0  0  0  0  0  # atno 8009 bound_to 7997
  155.7227  140.0770  157.2314 H   0  0  0  0  0  0  0  0  0  0  0  0  # atno 8010 bound_to 7997
  139.9496  143.6070  152.2479 H   0  0  0  0  0  0  0  0  0  0  0  0  # atno 10167 bound_to 10162
  157.5502  131.1094  150.8714 H   0  0  0  0  0  0  0  0  0  0  0  0  # atno 10718 bound_to 10713
  154.3520  135.2753  155.2367 H   0  0  0  0  0  0  0  0  0  0  0  0  # atno 10763 bound_to 10752
  154.4592  135.5911  153.6247 H   0  0  0  0  0  0  0  0  0  0  0  0  # atno 10764 bound_to 10752
  152.9849  135.6061  154.3731 H   0  0  0  0  0  0  0  0  0  0  0  0  # atno 10765 bound_to 10752
  140.5715  134.5233  157.5162 H   0  0  0  0  0  0  0  0  0  0  0  0  # atno 11005 bound_to 11000
  145.8126  139.2009  143.1984 LP  0  0  0  0  0  0  0  0  0  0  0  0  # atno 17320 bound_to 7965
  146.0583  140.7998  142.9747 LP  0  0  0  0  0  0  0  0  0  0  0  0  # atno 17321 bound_to 7965
  139.6639  144.7662  151.1911 LP  0  0  0  0  0  0  0  0  0  0  0  0  # atno 17342 bound_to 10162
  140.7587  143.5968  150.8740 LP  0  0  0  0  0  0  0  0  0  0  0  0  # atno 17343 bound_to 10162
  156.9241  130.5326  149.5279 LP  0  0  0  0  0  0  0  0  0  0  0  0  # atno 17370 bound_to 10713
  156.0570  130.5630  150.9113 LP  0  0  0  0  0  0  0  0  0  0  0  0  # atno 17371 bound_to 10713
  139.9360  134.7875  156.0803 LP  0  0  0  0  0  0  0  0  0  0  0  0  # atno 17394 bound_to 11000
  141.1053  133.6662  156.2850 LP  0  0  0  0  0  0  0  0  0  0  0  0  # atno 17395 bound_to 11000

$$$$
