#       Name:                AV-unprocessed.smi:1211
#       Creating user name   scv26
#       Creation time:       Fri Mar 27 04:13:00 2020


#       File generated by GOLD software.
#

@<TRIPOS>MOLECULE
AV-unprocessed.smi:1211
    53    55     1
SMALL
NO_CHARGES


@<TRIPOS>ATOM
      1 ****        -4.3387   0.1027  -1.3007 C.3            1 S1                 0.0000
      2 ****        -4.1741   1.5557  -0.8856 C.ar           1 S1                 0.0000
      3 ****        -5.3216   2.3579  -0.7099 C.ar           1 S1                 0.0000
      4 ****        -5.1675   3.7014  -0.3278 C.ar           1 S1                 0.0000
      5 ****        -3.8635   4.1885  -0.1354 C.ar           1 S1                 0.0000
      6 ****        -2.7614   3.4289  -0.3004 N.ar           1 S1                 0.0000
      7 ****        -2.8925   2.1302  -0.6704 C.ar           1 S1                 0.0000
      8 ****        -1.7750   1.2697  -0.8616 N.am           1 S1                 0.0000
      9 ****        -0.4662   1.5638  -0.7683 C.2            1 S1                 0.0000
     10 ****        -0.0017   2.6708  -0.4943 O.2            1 S1                 0.0000
     11 ****         0.2887   0.4834  -1.0134 N.am           1 S1                 0.0000
     12 ****         1.7506   0.4395  -0.9972 C.3            1 S1                 0.0000
     13 ****         2.3238  -0.2791   0.2698 C.3            1 S1                 0.0000
     14 ****         1.6851  -1.6210   0.4406 N.3            1 S1                 0.0000
     15 ****         2.0008  -2.3334   1.6874 C.3            1 S1                 0.0000
     16 ****         1.2394  -3.6644   1.8123 C.3            1 S1                 0.0000
     17 ****         1.5157  -4.4861   0.6865 O.3            1 S1                 0.0000
     18 ****         1.1478  -3.8612  -0.5354 C.3            1 S1                 0.0000
     19 ****         1.9108  -2.5348  -0.6877 C.3            1 S1                 0.0000
     20 ****         2.1195   0.6625   1.4923 C.3            1 S1                 0.0000
     21 ****         3.0614   1.8648   1.3673 C.3            1 S1                 0.0000
     22 ****         4.5634   1.2863   0.5428 S.3            1 S1                 0.0000
     23 ****         3.8669  -0.3385   0.1332 C.3            1 S1                 0.0000
     24 ****        -5.3898  -0.1568  -1.4295 H              1 S1                 0.0000
     25 ****        -3.9194  -0.5604  -0.5432 H              1 S1                 0.0000
     26 ****        -3.8292  -0.0842  -2.2463 H              1 S1                 0.0000
     27 ****        -6.3102   1.9516  -0.8656 H              1 S1                 0.0000
     28 ****        -6.0258   4.3413  -0.1862 H              1 S1                 0.0000
     29 ****        -3.6998   5.2146   0.1587 H              1 S1                 0.0000
     30 ****        -2.0017   0.3166  -1.1034 H              1 S1                 0.0000
     31 ****        -0.1824  -0.3854  -1.2184 H              1 S1                 0.0000
     32 ****         2.0714  -0.0631  -1.9084 H              1 S1                 0.0000
     33 ****         2.1569   1.4440  -1.1123 H              1 S1                 0.0000
     34 ****         3.0692  -2.5350   1.7556 H              1 S1                 0.0000
     35 ****         1.7284  -1.7408   2.5574 H              1 S1                 0.0000
     36 ****         1.5428  -4.1896   2.7180 H              1 S1                 0.0000
     37 ****         0.1654  -3.4886   1.8896 H              1 S1                 0.0000
     38 ****         1.3848  -4.5308  -1.3622 H              1 S1                 0.0000
     39 ****         0.0700  -3.6924  -0.5582 H              1 S1                 0.0000
     40 ****         1.5918  -2.0868  -1.6260 H              1 S1                 0.0000
     41 ****         2.9756  -2.7483  -0.7865 H              1 S1                 0.0000
     42 ****         1.0830   0.9727   1.6231 H              1 S1                 0.0000
     43 ****         2.4095   0.1729   2.4191 H              1 S1                 0.0000
     44 ****         2.6090   2.6526   0.7651 H              1 S1                 0.0000
     45 ****         3.2975   2.2971   2.3398 H              1 S1                 0.0000
     46 ****         4.3039  -1.0430   0.8387 H              1 S1                 0.0000
     47 ****         4.1888  -0.6472  -0.8618 H              1 S1                 0.0000
     48 ****        -1.8535   3.8204  -0.1510 LP             1 S1                 0.0000
     49 ****        -0.6150   3.4412  -0.3199 LP             1 S1                 0.0000
     50 ****         0.9888   2.7995  -0.4463 LP             1 S1                 0.0000
     51 ****         0.7189  -1.3666   0.4819 LP             1 S1                 0.0000
     52 ****         1.0046  -5.3407   0.7781 LP             1 S1                 0.0000
     53 ****         2.4956  -4.6843   0.6649 LP             1 S1                 0.0000
@<TRIPOS>BOND
    1    1    2 1     
    2    1   24 1     
    3    1   25 1     
    4    1   26 1     
    5    2    7 ar    
    6    2    3 ar    
    7    3    4 ar    
    8    3   27 1     
    9    4    5 ar    
   10    4   28 1     
   11    5    6 ar    
   12    5   29 1     
   13    6    7 ar    
   14    7    8 1     
   15    8    9 am    
   16    8   30 1     
   17    9   10 2     
   18    9   11 am    
   19   11   12 1     
   20   11   31 1     
   21   12   13 1     
   22   12   32 1     
   23   12   33 1     
   24   13   23 1     
   25   13   14 1     
   26   13   20 1     
   27   14   19 1     
   28   14   15 1     
   29   15   16 1     
   30   15   34 1     
   31   15   35 1     
   32   16   17 1     
   33   16   36 1     
   34   16   37 1     
   35   17   18 1     
   36   18   19 1     
   37   18   38 1     
   38   18   39 1     
   39   19   40 1     
   40   19   41 1     
   41   20   21 1     
   42   20   42 1     
   43   20   43 1     
   44   21   22 1     
   45   21   44 1     
   46   21   45 1     
   47   22   23 1     
   48   23   46 1     
   49   23   47 1     
   50    6   48 1     
   51   10   49 1     
   52   10   50 1     
   53   14   51 1     
   54   17   52 1     
   55   17   53 1     
@<TRIPOS>SUBSTRUCTURE
      1 S1             1
@<TRIPOS>SET
LONE_PAIRS      STATIC     ATOMS    <user>   **** ""
6 48 49 50 51 52 53
DONOR_HYDROGENS      STATIC     ATOMS    <user>   **** ""
2 30 31
ATOM$BLUE        STATIC     ATOMS    COLORGROUP SYSTEM
6 48 49 50 51 52 53
ATOM$RED        STATIC     ATOMS    COLORGROUP SYSTEM
2 30 31
