AV-unprocessed.smi:119|AV-procd|sdf|1135|dock2
  -GOLD-   2262018263D 1   1.00000     0.00000
 Structure written by MMmdl.
 51 54  0  0  0  0  0  0  0  0  1 V2000
  144.2605  134.2341  162.8870 C   0  0  0  0  0  0  0  0  0  0  0  0
  145.2252  135.4304  162.9195 C   0  0  2  0  0  0  0  0  0  0  0  0
  144.9388  136.4881  161.8346 C   0  0  0  0  0  0  0  0  0  0  0  0
  145.0954  136.0203  160.3733 C   0  0  0  0  0  0  0  0  0  0  0  0
  146.4920  135.7551  160.0041 N   0  0  0  0  0  0  0  0  0  0  0  0
  147.3357  136.7040  159.5200 C   0  0  0  0  0  0  0  0  0  0  0  0
  146.9651  137.8634  159.3169 O   0  0  0  0  0  0  0  0  0  0  0  0
  148.8030  136.3282  159.2142 C   0  0  0  0  0  0  0  0  0  0  0  0
  149.5382  137.3734  158.4672 N   0  0  0  0  0  0  0  0  0  0  0  0
  150.8366  137.7303  158.9051 C   0  0  0  0  0  0  0  0  0  0  0  0
  151.3482  137.1952  159.8900 O   0  0  0  0  0  0  0  0  0  0  0  0
  151.5079  138.7528  158.1120 C   0  0  0  0  0  0  0  0  0  0  0  0
  152.7377  139.1652  158.4635 F   0  0  0  0  0  0  0  0  0  0  0  0
  150.9137  139.2983  157.0304 C   0  0  0  0  0  0  0  0  0  0  0  0
  149.6465  138.9348  156.6054 N   0  0  0  0  0  0  0  0  0  0  0  0
  148.9935  139.4990  155.3590 C   0  0  1  0  0  0  0  0  0  0  0  0
  147.6348  140.1757  155.5603 C   0  0  0  0  0  0  0  0  0  0  0  0
  147.5877  141.0270  154.3127 C   0  0  0  0  0  0  0  0  0  0  0  0
  149.0370  141.5042  154.2171 C   0  0  0  0  0  0  0  0  0  0  0  0
  149.8271  140.4882  154.8336 O   0  0  0  0  0  0  0  0  0  0  0  0
  148.9330  137.9496  157.3249 C   0  0  0  0  0  0  0  0  0  0  0  0
  147.8086  137.5975  156.9606 O   0  0  0  0  0  0  0  0  0  0  0  0
  146.9536  134.4237  160.1880 C   0  0  0  0  0  0  0  0  0  0  0  0
  147.1707  133.6052  159.0568 C   0  0  0  0  0  0  0  0  0  0  0  0
  147.6288  132.2835  159.2140 C   0  0  0  0  0  0  0  0  0  0  0  0
  147.8731  131.7720  160.5023 C   0  0  0  0  0  0  0  0  0  0  0  0
  147.6586  132.5822  161.6336 C   0  0  0  0  0  0  0  0  0  0  0  0
  147.1949  133.9043  161.4827 C   0  0  0  0  0  0  0  0  0  0  0  0
  146.9594  134.8884  162.9324 S   0  0  0  0  0  0  0  0  0  0  0  0
  143.2232  134.5658  162.9367 H   0  0  0  0  0  0  0  0  0  0  0  0
  144.4347  133.5725  163.7359 H   0  0  0  0  0  0  0  0  0  0  0  0
  144.3763  133.6388  161.9816 H   0  0  0  0  0  0  0  0  0  0  0  0
  145.0766  135.9261  163.8793 H   0  0  0  0  0  0  0  0  0  0  0  0
  143.9166  136.8434  161.9686 H   0  0  0  0  0  0  0  0  0  0  0  0
  145.5709  137.3574  162.0155 H   0  0  0  0  0  0  0  0  0  0  0  0
  144.5051  135.1187  160.2072 H   0  0  0  0  0  0  0  0  0  0  0  0
  144.6453  136.7536  159.7050 H   0  0  0  0  0  0  0  0  0  0  0  0
  149.3071  136.1051  160.1551 H   0  0  0  0  0  0  0  0  0  0  0  0
  148.8363  135.3887  158.6632 H   0  0  0  0  0  0  0  0  0  0  0  0
  151.4740  140.0554  156.5080 H   0  0  0  0  0  0  0  0  0  0  0  0
  148.9195  138.6603  154.6631 H   0  0  0  0  0  0  0  0  0  0  0  0
  146.8265  139.4489  155.6437 H   0  0  0  0  0  0  0  0  0  0  0  0
  147.6420  140.8393  156.4241 H   0  0  0  0  0  0  0  0  0  0  0  0
  147.3320  140.4135  153.4473 H   0  0  0  0  0  0  0  0  0  0  0  0
  146.8716  141.8468  154.3761 H   0  0  0  0  0  0  0  0  0  0  0  0
  149.3468  141.6765  153.1861 H   0  0  0  0  0  0  0  0  0  0  0  0
  149.1732  142.4327  154.7725 H   0  0  0  0  0  0  0  0  0  0  0  0
  146.9871  133.9912  158.0645 H   0  0  0  0  0  0  0  0  0  0  0  0
  147.7945  131.6632  158.3455 H   0  0  0  0  0  0  0  0  0  0  0  0
  148.2271  130.7589  160.6226 H   0  0  0  0  0  0  0  0  0  0  0  0
  147.8507  132.1852  162.6195 H   0  0  0  0  0  0  0  0  0  0  0  0
  1  2  1  0  0  0  0
  1 30  1  0  0  0  0
  1 31  1  0  0  0  0
  1 32  1  0  0  0  0
  2 29  1  0  0  0  0
  2  3  1  0  0  0  0
  2 33  1  0  0  0  0
  3  4  1  0  0  0  0
  3 34  1  0  0  0  0
  3 35  1  0  0  0  0
  4  5  1  0  0  0  0
  4 36  1  0  0  0  0
  4 37  1  0  0  0  0
  5  6  1  0  0  0  0
  5 23  1  0  0  0  0
  6  7  2  0  0  0  0
  6  8  1  0  0  0  0
  8  9  1  0  0  0  0
  8 38  1  0  0  0  0
  8 39  1  0  0  0  0
  9 21  1  0  0  0  0
  9 10  1  0  0  0  0
 10 11  2  0  0  0  0
 10 12  1  0  0  0  0
 12 13  1  0  0  0  0
 12 14  2  0  0  0  0
 14 15  1  0  0  0  0
 14 40  1  0  0  0  0
 15 16  1  0  0  0  0
 15 21  1  0  0  0  0
 16 20  1  0  0  0  0
 16 17  1  0  0  0  0
 16 41  1  0  0  0  0
 17 18  1  0  0  0  0
 17 42  1  0  0  0  0
 17 43  1  0  0  0  0
 18 19  1  0  0  0  0
 18 44  1  0  0  0  0
 18 45  1  0  0  0  0
 19 20  1  0  0  0  0
 19 46  1  0  0  0  0
 19 47  1  0  0  0  0
 21 22  2  0  0  0  0
 23 28  2  0  0  0  0
 23 24  1  0  0  0  0
 24 25  2  0  0  0  0
 24 48  1  0  0  0  0
 25 26  1  0  0  0  0
 25 49  1  0  0  0  0
 26 27  2  0  0  0  0
 26 50  1  0  0  0  0
 27 28  1  0  0  0  0
 27 51  1  0  0  0  0
 28 29  1  0  0  0  0
M  END
> <s_m_source_file>
AV-unprocessed.smi

> <i_m_source_file_index>
119

> <i_lp_mmshare_version>
43012

> <i_f3d_flags>
0

> <s_epik_input>
W2NIXTFbY0hdW2NIXVtjSF1jKGMxMilTW0NASF0oW0NIM10pW0NIMl1bQ0gyXU4yQyg9TylbQ0gyXW4zYyg9TyljKEYpW2NIXW4oYzM9TylbQ0BASF00W0NIMl1bQ0gyXVtDSDJdTzQ=

> <s_epik_cmdline>
J2VwaWtfcHl0aG9uJywgJy1waCcsICc3LjAnLCAnLXRuJywgJzgnLCAnLW1hJywgJzIwMCcsICctbWV0YWxfYmluZGluZycsICctaW1hZScsICc8aW5maWxlLm1hZT4nLCAnLW9tYWUnLCAnPG91dGZpbGUubWFlPic=

> <r_lp_tautomer_probability>
1

> <r_epik_Ionization_Penalty>
1.68882e-06

> <r_epik_Ionization_Penalty_Charging>
3.67303e-09

> <r_epik_Ionization_Penalty_Neutral>
1.68515e-06

> <r_epik_State_Penalty>
-0

> <r_epik_Charging_Adjusted_Penalty>
3.67303e-09

> <i_epik_Tot_Q>
0

> <i_epik_Tot_abs_Q>
0

> <r_epik_Metal_State_Penalty>
-0

> <b_epik_Metal_Only>
0

> <s_epik_Chemistry_Notes>
This compound contains an acetal/aminal-like group ( X-CH(R)-Y where X, Y are N, S, or O) that may be acid/base labile, releasing an aldehyde.

> <s_lp_Force_Field>
OPLS_2005

> <r_lp_Energy>
51.5083

> <b_lp_Chiralities_Consistent>
1

> <s_lp_Variant>
AV-unprocessed.smi:119-3

> <Gold.Version>
5.8.1

> <Gold.Id.Protein>
6NUR|6NUR_protein|mol2

> <Gold.PLP.Fitness>
44.1959

> <Gold.PLP.PLP>
-38.5313

> <Gold.PLP.part.hbond>
-2.9388

> <Gold.PLP.part.metal>
0.0000

> <Gold.PLP.part.buried>
-3.7584

> <Gold.PLP.part.nonpolar>
-31.5283

> <Gold.PLP.part.repulsive>
0.0965

> <Gold.PLP.ligand.clash>
0.0000

> <Gold.PLP.ligand.torsion>
0.2746

> <Gold.PLP.Chemscore.Hbond>
2.0647

> <Gold.PLP.Chemscore.CHOScore>
0.0000

> <Gold.PLP.Chemscore.Metal>
0.0000

> <Gold.Chemscore.Hbonds>
donor molecule, donor type, donor heavy atom, donor atom, acceptor molecule, acceptor atom, score
      P1  H  6896  6908       L1    11  0.99
      P1  H  6934  6947       L1     7  0.69
      P1  H  7989  7998       L1    20  0.23

> <Gold.PLP.Chemscore.Internal.Correction>
0.0195

> <Gold.Rescore>
     Score         DG    S(hbond)    S(metal)    S(lipo)     H(rot)  DE(clash)    DE(int)     intcor
     11.80     -17.86       1.75        0.00      89.42       1.53       0.01       6.05       ----

> <Gold.Chemscore.Fitness>
11.8027

> <Gold.Chemscore.DG>
-17.8650

> <Gold.Chemscore.ZeroCoef>
-5.4800

> <Gold.Chemscore.Hbond>
1.7459

> <Gold.Chemscore.Metal>
0.0000

> <Gold.Chemscore.Lipo>
89.4167

> <Gold.Chemscore.Internal_Hbond>
0.0000

> <Gold.Chemscore.DEClash>
0.0110

> <Gold.Chemscore.DEInternal>
6.0513

> <Gold.Chemscore.Rot>
1.5266

> <Gold.Chemscore.Internal.Correction>
   9.000000E+99

> <Gold.Chemscore.Hbonds>
donor molecule, donor type, donor heavy atom, donor atom, acceptor molecule, acceptor atom, score
      P1  H  6896  6908       L1    11  0.91
      P1  H  6934  6947       L1     7  0.61
      P1  H  7989  7998       L1    20  0.02

> <Gold.Chemscore.Hbond.Weighted>
-5.8313

> <Gold.Chemscore.Metal.Weighted>
-0.0000

> <Gold.Chemscore.Lipo.Weighted>
-10.4618

> <Gold.Chemscore.Internal_Hbond.Weighted>
0.0000

> <Gold.Chemscore.DEClash.Weighted>
0.0110

> <Gold.Chemscore.DEInternal.Weighted>
6.0513

> <Gold.Chemscore.Rot.Weighted>
3.9081

> <Gold.Chemscore.Internal.Correction.Weighted>
   9.000000E+99

> <Gold.Protein.RotatedTorsions>
[ 6907 6896 6895 6894 ] final -119.93 input  -60.11 | X-H torsion
[ 7974 7965 7964 7962 ] final   29.92 input  175.53 | X-H torsion
[ 8008 7997 7996 7995 ] final -179.06 input   59.86 | X-H torsion
[ 10167 10162 10161 10158 ] final  -49.56 input  -65.29 | X-H torsion
[ 10718 10713 10712 10709 ] final   82.14 input   66.30 | X-H torsion
[ 10763 10752 10751 10750 ] final   35.80 input  -60.55 | X-H torsion
[ 11005 11000 10999 10996 ] final  -68.41 input  -57.11 | X-H torsion

> <Gold.Protein.ActiveResidues>
 VAL166  LYS551  ARG553  GLY616  TRP617  ASP618  TYR619  PRO620  LYS621  CYS622 
 ASP623  PHE694  ASN695  SER759  ASP760  ASP761  ALA762  ILE779  LEU786  VAL792 
 PHE793  MET794  SER795  GLU796  ALA797  LYS798  CYS799  TRP800  GLU811  SER814 

> <Gold.Protein.RotatedAtoms>
  150.8348  133.8031  159.3083 H   0  0  0  0  0  0  0  0  0  0  0  0  # atno 6907 bound_to 6896
  151.5750  135.1059  160.0013 H   0  0  0  0  0  0  0  0  0  0  0  0  # atno 6908 bound_to 6896
  152.4422  133.7428  159.6706 H   0  0  0  0  0  0  0  0  0  0  0  0  # atno 6909 bound_to 6896
  146.1643  139.6858  142.9012 H   0  0  0  0  0  0  0  0  0  0  0  0  # atno 7974 bound_to 7965
  156.0261  140.1271  157.0307 H   0  0  0  0  0  0  0  0  0  0  0  0  # atno 8008 bound_to 7997
  154.4331  140.1059  156.6103 H   0  0  0  0  0  0  0  0  0  0  0  0  # atno 8009 bound_to 7997
  155.5875  140.3469  155.4559 H   0  0  0  0  0  0  0  0  0  0  0  0  # atno 8010 bound_to 7997
  140.6679  143.2693  151.4232 H   0  0  0  0  0  0  0  0  0  0  0  0  # atno 10167 bound_to 10162
  157.6850  131.0034  150.2330 H   0  0  0  0  0  0  0  0  0  0  0  0  # atno 10718 bound_to 10713
  153.0103  135.6323  154.1885 H   0  0  0  0  0  0  0  0  0  0  0  0  # atno 10763 bound_to 10752
  154.1627  135.2822  155.3105 H   0  0  0  0  0  0  0  0  0  0  0  0  # atno 10764 bound_to 10752
  154.5969  135.5600  153.7395 H   0  0  0  0  0  0  0  0  0  0  0  0  # atno 10765 bound_to 10752
  141.1531  133.6740  156.6441 H   0  0  0  0  0  0  0  0  0  0  0  0  # atno 11005 bound_to 11000
  145.4508  141.0428  143.2805 LP  0  0  0  0  0  0  0  0  0  0  0  0  # atno 17320 bound_to 7965
  144.8070  139.6032  143.7046 LP  0  0  0  0  0  0  0  0  0  0  0  0  # atno 17321 bound_to 7965
  139.5935  144.1447  152.2117 LP  0  0  0  0  0  0  0  0  0  0  0  0  # atno 17342 bound_to 10162
  140.0809  144.5701  150.7123 LP  0  0  0  0  0  0  0  0  0  0  0  0  # atno 17343 bound_to 10162
  156.2959  130.3752  149.7797 LP  0  0  0  0  0  0  0  0  0  0  0  0  # atno 17370 bound_to 10713
  156.5442  130.8313  151.3279 LP  0  0  0  0  0  0  0  0  0  0  0  0  # atno 17371 bound_to 10713
  140.3370  134.7881  157.4369 LP  0  0  0  0  0  0  0  0  0  0  0  0  # atno 17394 bound_to 11000
  140.0969  134.5525  155.8390 LP  0  0  0  0  0  0  0  0  0  0  0  0  # atno 17395 bound_to 11000

$$$$
