AV-unprocessed.smi:99|AV-procd|sdf|873|dock2
  -GOLD-   2262017333D 1   1.00000     0.00000
 Structure written by MMmdl.
 53 56  0  0  0  0  0  0  0  0  1 V2000
  148.2977  134.0486  158.8499 O   0  0  0  0  0  0  0  0  0  0  0  0
  147.2487  134.6318  159.1311 C   0  0  0  0  0  0  0  0  0  0  0  0
  146.2933  134.9252  158.2295 O   0  0  0  0  0  0  0  0  0  0  0  0
  146.5554  134.7921  156.8419 C   0  0  0  0  0  0  0  0  0  0  0  0
  147.8985  135.4615  156.5183 C   0  0  2  0  0  0  0  0  0  0  0  0
  147.7359  136.8631  156.3424 O   0  0  0  0  0  0  0  0  0  0  0  0
  148.7887  137.3722  155.5767 C   0  0  1  0  0  0  0  0  0  0  0  0
  149.7449  138.1516  156.4619 N   0  0  0  0  0  0  0  0  0  0  0  0
  149.7493  138.0362  157.8471 C   0  0  0  0  0  0  0  0  0  0  0  0
  150.6042  138.7215  158.6428 C   0  0  0  0  0  0  0  0  0  0  0  0
  151.5827  139.6372  158.0657 C   0  0  0  0  0  0  0  0  0  0  0  0
  152.3981  140.2983  158.7050 O   0  0  0  0  0  0  0  0  0  0  0  0
  151.5406  139.7270  156.6719 N   0  0  0  0  0  0  0  0  0  0  0  0
  150.6649  139.0261  155.8417 C   0  0  0  0  0  0  0  0  0  0  0  0
  150.7186  139.1765  154.6216 O   0  0  0  0  0  0  0  0  0  0  0  0
  149.4603  136.1776  154.8524 C   0  0  1  0  0  0  0  0  0  0  0  0
  150.7877  135.8980  155.2611 O   0  0  0  0  0  0  0  0  0  0  0  0
  148.5639  135.0024  155.2191 C   0  0  2  0  0  0  0  0  0  0  0  0
  147.5861  134.7783  154.2087 O   0  0  0  0  0  0  0  0  0  0  0  0
  147.4832  133.5804  153.5967 C   0  0  0  0  0  0  0  0  0  0  0  0
  148.1286  132.5846  153.9296 O   0  0  0  0  0  0  0  0  0  0  0  0
  146.5053  133.5906  152.4719 C   0  0  0  0  0  0  0  0  0  0  0  0
  145.8022  134.7812  152.1753 C   0  0  0  0  0  0  0  0  0  0  0  0
  144.8727  134.8206  151.1178 C   0  0  0  0  0  0  0  0  0  0  0  0
  144.6366  133.6701  150.3430 C   0  0  0  0  0  0  0  0  0  0  0  0
  145.3320  132.4801  150.6263 C   0  0  0  0  0  0  0  0  0  0  0  0
  146.2612  132.4384  151.6840 C   0  0  0  0  0  0  0  0  0  0  0  0
  146.9013  135.0857  160.5080 C   0  0  0  0  0  0  0  0  0  0  0  0
  146.8996  136.4691  160.8024 C   0  0  0  0  0  0  0  0  0  0  0  0
  146.5734  136.9269  162.0938 C   0  0  0  0  0  0  0  0  0  0  0  0
  146.2420  136.0069  163.1056 C   0  0  0  0  0  0  0  0  0  0  0  0
  146.2372  134.6283  162.8246 C   0  0  0  0  0  0  0  0  0  0  0  0
  146.5651  134.1682  161.5342 C   0  0  0  0  0  0  0  0  0  0  0  0
  152.2006  140.3490  156.2284 H   0  0  0  0  0  0  0  0  0  0  0  0
  146.5887  133.7374  156.5640 H   0  0  0  0  0  0  0  0  0  0  0  0
  145.7514  135.2544  156.2682 H   0  0  0  0  0  0  0  0  0  0  0  0
  148.5944  135.2896  157.3399 H   0  0  0  0  0  0  0  0  0  0  0  0
  148.3607  138.1051  154.8900 H   0  0  0  0  0  0  0  0  0  0  0  0
  149.0484  137.3808  158.3392 H   0  0  0  0  0  0  0  0  0  0  0  0
  150.5632  138.5925  159.7148 H   0  0  0  0  0  0  0  0  0  0  0  0
  149.4697  136.3658  153.7781 H   0  0  0  0  0  0  0  0  0  0  0  0
  150.8469  136.0253  156.1957 H   0  0  0  0  0  0  0  0  0  0  0  0
  149.1327  134.0881  155.3972 H   0  0  0  0  0  0  0  0  0  0  0  0
  145.9669  135.6773  152.7562 H   0  0  0  0  0  0  0  0  0  0  0  0
  144.3401  135.7352  150.9018 H   0  0  0  0  0  0  0  0  0  0  0  0
  143.9238  133.7007  149.5323 H   0  0  0  0  0  0  0  0  0  0  0  0
  145.1529  131.5967  150.0316 H   0  0  0  0  0  0  0  0  0  0  0  0
  146.7790  131.5091  151.8728 H   0  0  0  0  0  0  0  0  0  0  0  0
  147.1510  137.1941  160.0418 H   0  0  0  0  0  0  0  0  0  0  0  0
  146.5772  137.9857  162.3074 H   0  0  0  0  0  0  0  0  0  0  0  0
  145.9906  136.3587  164.0954 H   0  0  0  0  0  0  0  0  0  0  0  0
  145.9803  133.9215  163.5998 H   0  0  0  0  0  0  0  0  0  0  0  0
  146.5482  133.1036  161.3510 H   0  0  0  0  0  0  0  0  0  0  0  0
  1  2  2  0  0  0  0
  2  3  1  0  0  0  0
  2 28  1  0  0  0  0
  3  4  1  0  0  0  0
  4  5  1  0  0  0  0
  4 35  1  0  0  0  0
  4 36  1  0  0  0  0
  5 18  1  0  0  0  0
  5  6  1  0  0  0  0
  5 37  1  0  0  0  0
  6  7  1  0  0  0  0
  7  8  1  0  0  0  0
  7 16  1  0  0  0  0
  7 38  1  0  0  0  0
  8 14  1  0  0  0  0
  8  9  1  0  0  0  0
  9 10  2  0  0  0  0
  9 39  1  0  0  0  0
 10 11  1  0  0  0  0
 10 40  1  0  0  0  0
 11 12  2  0  0  0  0
 11 13  1  0  0  0  0
 13 34  1  0  0  0  0
 13 14  1  0  0  0  0
 14 15  2  0  0  0  0
 16 17  1  0  0  0  0
 16 18  1  0  0  0  0
 16 41  1  0  0  0  0
 17 42  1  0  0  0  0
 18 19  1  0  0  0  0
 18 43  1  0  0  0  0
 19 20  1  0  0  0  0
 20 21  2  0  0  0  0
 20 22  1  0  0  0  0
 22 27  1  0  0  0  0
 22 23  2  0  0  0  0
 23 24  1  0  0  0  0
 23 44  1  0  0  0  0
 24 25  2  0  0  0  0
 24 45  1  0  0  0  0
 25 26  1  0  0  0  0
 25 46  1  0  0  0  0
 26 27  2  0  0  0  0
 26 47  1  0  0  0  0
 27 48  1  0  0  0  0
 28 33  1  0  0  0  0
 28 29  2  0  0  0  0
 29 30  1  0  0  0  0
 29 49  1  0  0  0  0
 30 31  2  0  0  0  0
 30 50  1  0  0  0  0
 31 32  1  0  0  0  0
 31 51  1  0  0  0  0
 32 33  2  0  0  0  0
 32 52  1  0  0  0  0
 33 53  1  0  0  0  0
M  END
> <s_m_source_file>
AV-unprocessed.smi

> <i_m_source_file_index>
99

> <i_lp_mmshare_version>
43012

> <i_f3d_flags>
0

> <s_epik_input>
W2NIXTFbY0hdW2NIXVtjSF1bY0hdYzFDKD1PKU9bQ0gyXVtDQEBIXTJPW0NAQEhdKG4zW2NIXVtjSF1jKD1PKVtuSF1jMz1PKVtDQEBIXShbT0hdKVtDQEhdMk9DKD1PKWM0W2NIXVtjSF1bY0hdW2NIXVtjSF00

> <s_epik_cmdline>
J2VwaWtfcHl0aG9uJywgJy1waCcsICc3LjAnLCAnLXRuJywgJzgnLCAnLW1hJywgJzIwMCcsICctbWV0YWxfYmluZGluZycsICctaW1hZScsICc8aW5maWxlLm1hZT4nLCAnLW9tYWUnLCAnPG91dGZpbGUubWFlPic=

> <r_lp_tautomer_probability>
1

> <r_epik_Ionization_Penalty>
0.00454555

> <r_epik_Ionization_Penalty_Charging>
0.0045191

> <r_epik_Ionization_Penalty_Neutral>
2.64449e-05

> <r_epik_State_Penalty>
-0

> <r_epik_Charging_Adjusted_Penalty>
0.0045191

> <i_epik_Tot_Q>
0

> <i_epik_Tot_abs_Q>
0

> <r_epik_Metal_State_Penalty>
1.27877

> <b_epik_Metal_Only>
0

> <s_epik_Chemistry_Notes>
This compound has an ester and may undergo hydrolysis at high or low pH. This compound contains an acetal/aminal-like group ( X-CH(R)-Y where X, Y are N, S, or O) that may be acid/base labile, releasing an aldehyde.

> <s_lp_Force_Field>
OPLS_2005

> <r_lp_Energy>
38.1357

> <b_lp_Chiralities_Consistent>
1

> <s_lp_Variant>
AV-unprocessed.smi:99-9

> <Gold.Version>
5.8.1

> <Gold.Id.Protein>
6NUR|6NUR_protein|mol2

> <Gold.PLP.Fitness>
51.0332

> <Gold.PLP.PLP>
-44.4487

> <Gold.PLP.part.hbond>
-4.0000

> <Gold.PLP.part.metal>
0.0000

> <Gold.PLP.part.buried>
-3.1890

> <Gold.PLP.part.nonpolar>
-38.5683

> <Gold.PLP.part.repulsive>
2.4797

> <Gold.PLP.ligand.clash>
0.0000

> <Gold.PLP.ligand.torsion>
2.9194

> <Gold.PLP.Chemscore.Hbond>
3.9600

> <Gold.PLP.Chemscore.CHOScore>
0.0000

> <Gold.PLP.Chemscore.Metal>
0.0000

> <Gold.Chemscore.Hbonds>
donor molecule, donor type, donor heavy atom, donor atom, acceptor molecule, acceptor atom, score
      P1  H  6896  6909       L1     1  0.08
      P1  H  7989  7998       L1    15  0.52
      P1  H 10752 10765       L1    17  0.13

> <Gold.PLP.Chemscore.Internal.Correction>
0.5434

> <Gold.Rescore>
     Score         DG    S(hbond)    S(metal)    S(lipo)     H(rot)  DE(clash)    DE(int)     intcor
     12.13     -17.65       2.54        0.00     101.29       3.19       1.56       3.97       ----

> <Gold.Chemscore.Fitness>
12.1266

> <Gold.Chemscore.DG>
-17.6493

> <Gold.Chemscore.ZeroCoef>
-5.4800

> <Gold.Chemscore.Hbond>
2.5406

> <Gold.Chemscore.Metal>
0.0000

> <Gold.Chemscore.Lipo>
101.2886

> <Gold.Chemscore.Internal_Hbond>
0.0000

> <Gold.Chemscore.DEClash>
1.5571

> <Gold.Chemscore.DEInternal>
3.9656

> <Gold.Chemscore.Rot>
3.1903

> <Gold.Chemscore.Internal.Correction>
   9.000000E+99

> <Gold.Chemscore.Hbonds>
donor molecule, donor type, donor heavy atom, donor atom, acceptor molecule, acceptor atom, score
      P1  H  6896  6909       L1     1  0.11
      P1  H  7989  7998       L1    15  0.52
      P1  H 10752 10765       L1    17  0.12

> <Gold.Chemscore.Hbond.Weighted>
-8.4856

> <Gold.Chemscore.Metal.Weighted>
-0.0000

> <Gold.Chemscore.Lipo.Weighted>
-11.8508

> <Gold.Chemscore.Internal_Hbond.Weighted>
0.0000

> <Gold.Chemscore.DEClash.Weighted>
1.5571

> <Gold.Chemscore.DEInternal.Weighted>
3.9656

> <Gold.Chemscore.Rot.Weighted>
8.1671

> <Gold.Chemscore.Internal.Correction.Weighted>
   9.000000E+99

> <Gold.Protein.RotatedTorsions>
[ 6907 6896 6895 6894 ] final   27.11 input  -60.11 | X-H torsion
[ 7974 7965 7964 7962 ] final  -78.79 input  175.53 | X-H torsion
[ 8008 7997 7996 7995 ] final  -86.69 input   59.86 | X-H torsion
[ 10167 10162 10161 10158 ] final  177.01 input  -65.29 | X-H torsion
[ 10718 10713 10712 10709 ] final  151.75 input   66.30 | X-H torsion
[ 10763 10752 10751 10750 ] final  160.63 input  -60.55 | X-H torsion
[ 11005 11000 10999 10996 ] final  -92.26 input  -57.11 | X-H torsion

> <Gold.Protein.ActiveResidues>
 VAL166  LYS551  ARG553  GLY616  TRP617  ASP618  TYR619  PRO620  LYS621  CYS622 
 ASP623  PHE694  ASN695  SER759  ASP760  ASP761  ALA762  ILE779  LEU786  VAL792 
 PHE793  MET794  SER795  GLU796  ALA797  LYS798  CYS799  TRP800  GLU811  SER814 

> <Gold.Protein.RotatedAtoms>
  151.9975  134.9946  160.0563 H   0  0  0  0  0  0  0  0  0  0  0  0  # atno 6907 bound_to 6896
  152.1551  133.4541  159.4841 H   0  0  0  0  0  0  0  0  0  0  0  0  # atno 6908 bound_to 6896
  150.6880  134.2059  159.4383 H   0  0  0  0  0  0  0  0  0  0  0  0  # atno 6909 bound_to 6896
  145.5818  140.9447  143.1339 H   0  0  0  0  0  0  0  0  0  0  0  0  # atno 7974 bound_to 7965
  154.6548  140.0575  156.9996 H   0  0  0  0  0  0  0  0  0  0  0  0  # atno 8008 bound_to 7997
  155.1317  140.3257  155.4454 H   0  0  0  0  0  0  0  0  0  0  0  0  # atno 8009 bound_to 7997
  156.2592  140.1979  156.6436 H   0  0  0  0  0  0  0  0  0  0  0  0  # atno 8010 bound_to 7997
  139.5236  144.2848  152.0515 H   0  0  0  0  0  0  0  0  0  0  0  0  # atno 10167 bound_to 10162
  157.2667  131.0809  151.1628 H   0  0  0  0  0  0  0  0  0  0  0  0  # atno 10718 bound_to 10713
  154.2504  135.2771  155.2818 H   0  0  0  0  0  0  0  0  0  0  0  0  # atno 10763 bound_to 10752
  154.5469  135.5686  153.6891 H   0  0  0  0  0  0  0  0  0  0  0  0  # atno 10764 bound_to 10752
  152.9981  135.6265  154.2651 H   0  0  0  0  0  0  0  0  0  0  0  0  # atno 10765 bound_to 10752
  141.1526  133.7809  156.9995 H   0  0  0  0  0  0  0  0  0  0  0  0  # atno 11005 bound_to 11000
  144.7390  139.7502  143.7318 LP  0  0  0  0  0  0  0  0  0  0  0  0  # atno 17320 bound_to 7965
  146.1710  139.4861  142.9927 LP  0  0  0  0  0  0  0  0  0  0  0  0  # atno 17321 bound_to 7965
  140.2302  144.4377  150.6303 LP  0  0  0  0  0  0  0  0  0  0  0  0  # atno 17342 bound_to 10162
  140.6360  143.2195  151.6393 LP  0  0  0  0  0  0  0  0  0  0  0  0  # atno 17343 bound_to 10162
  157.3116  130.6892  149.6219 LP  0  0  0  0  0  0  0  0  0  0  0  0  # atno 17370 bound_to 10713
  155.9663  130.4362  150.5123 LP  0  0  0  0  0  0  0  0  0  0  0  0  # atno 17371 bound_to 10713
  140.0949  134.9570  157.1834 LP  0  0  0  0  0  0  0  0  0  0  0  0  # atno 17394 bound_to 11000
  140.3395  134.2719  155.7214 LP  0  0  0  0  0  0  0  0  0  0  0  0  # atno 17395 bound_to 11000

$$$$
