#       Name:                AV-unprocessed.smi:1873
#       Creating user name   scv26
#       Creation time:       Fri Mar 27 09:32:40 2020


#       File generated by GOLD software.
#

@<TRIPOS>MOLECULE
AV-unprocessed.smi:1873
    41    43     1
SMALL
NO_CHARGES


@<TRIPOS>ATOM
      1 ****        -0.6655  -1.4971  -1.6028 O.3            1 S1                 0.0000
      2 ****        -0.1922  -0.5852  -0.6296 C.3            1 S1                 0.0000
      3 ****        -0.7936   0.8102  -0.8858 C.3            1 S1                 0.0000
      4 ****        -2.2445   0.8055  -0.8407 N.pl3          1 S1                 0.0000
      5 ****        -3.0927   0.8364  -1.8866 C.2            1 S1                 0.0000
      6 ****        -4.3949   0.8239  -1.6152 N.2            1 S1                 0.0000
      7 ****        -4.3916   0.7800  -0.2315 C.ar           1 S1                 0.0000
      8 ****        -5.4641   0.7460   0.6885 C.ar           1 S1                 0.0000
      9 ****        -5.2141   0.7024   2.0761 C.ar           1 S1                 0.0000
     10 ****        -3.8913   0.6927   2.5648 C.ar           1 S1                 0.0000
     11 ****        -2.8064   0.7263   1.6677 C.ar           1 S1                 0.0000
     12 ****        -3.0605   0.7692   0.2841 C.ar           1 S1                 0.0000
     13 ****         1.3266  -0.5301  -0.5777 C.ar           1 S1                 0.0000
     14 ****         2.0891  -0.4907  -1.7647 C.ar           1 S1                 0.0000
     15 ****         3.4943  -0.4273  -1.7035 C.ar           1 S1                 0.0000
     16 ****         4.1591  -0.4068  -0.4610 C.ar           1 S1                 0.0000
     17 ****         5.5334  -0.3275  -0.4690 O.3            1 S1                 0.0000
     18 ****         6.2392  -0.8561   0.5660 C.3            1 S1                 0.0000
     19 ****         7.4529  -1.2693   0.1282 F              1 S1                 0.0000
     20 ****         6.4474   0.0799   1.5245 F              1 S1                 0.0000
     21 ****         3.3918  -0.4323   0.7284 C.ar           1 S1                 0.0000
     22 ****         1.9864  -0.4958   0.6683 C.ar           1 S1                 0.0000
     23 ****        -0.3740  -2.3645  -1.3672 H              1 S1                 0.0000
     24 ****        -0.5490  -0.9493   0.3347 H              1 S1                 0.0000
     25 ****        -0.4362   1.5173  -0.1360 H              1 S1                 0.0000
     26 ****        -0.4734   1.1943  -1.8556 H              1 S1                 0.0000
     27 ****        -2.7336   0.8667  -2.9051 H              1 S1                 0.0000
     28 ****        -6.4812   0.7527   0.3255 H              1 S1                 0.0000
     29 ****        -6.0421   0.6762   2.7692 H              1 S1                 0.0000
     30 ****        -3.7101   0.6591   3.6291 H              1 S1                 0.0000
     31 ****        -1.7918   0.7183   2.0373 H              1 S1                 0.0000
     32 ****         1.5991  -0.5042  -2.7273 H              1 S1                 0.0000
     33 ****         4.0670  -0.3949  -2.6187 H              1 S1                 0.0000
     34 ****         5.7324  -1.7171   1.0024 H              1 S1                 0.0000
     35 ****         3.8684  -0.3952   1.6965 H              1 S1                 0.0000
     36 ****         1.4163  -0.5121   1.5858 H              1 S1                 0.0000
     37 ****        -0.3013  -1.2512  -2.5010 LP             1 S1                 0.0000
     38 ****        -1.6648  -1.4728  -1.6302 LP             1 S1                 0.0000
     39 ****        -5.1716   0.8415  -2.2448 LP             1 S1                 0.0000
     40 ****         5.7687   0.6432  -0.5162 LP             1 S1                 0.0000
     41 ****         5.8467  -0.7873  -1.2999 LP             1 S1                 0.0000
@<TRIPOS>BOND
    1    1    2 1     
    2    1   23 1     
    3    2    3 1     
    4    2   13 1     
    5    2   24 1     
    6    3    4 1     
    7    3   25 1     
    8    3   26 1     
    9    4   12 1     
   10    4    5 1     
   11    5    6 2     
   12    5   27 1     
   13    6    7 1     
   14    7   12 ar    
   15    7    8 ar    
   16    8    9 ar    
   17    8   28 1     
   18    9   10 ar    
   19    9   29 1     
   20   10   11 ar    
   21   10   30 1     
   22   11   12 ar    
   23   11   31 1     
   24   13   22 ar    
   25   13   14 ar    
   26   14   15 ar    
   27   14   32 1     
   28   15   16 ar    
   29   15   33 1     
   30   16   17 1     
   31   16   21 ar    
   32   17   18 1     
   33   18   19 1     
   34   18   20 1     
   35   18   34 1     
   36   21   22 ar    
   37   21   35 1     
   38   22   36 1     
   39    1   37 1     
   40    1   38 1     
   41    6   39 1     
   42   17   40 1     
   43   17   41 1     
@<TRIPOS>SUBSTRUCTURE
      1 S1             1
@<TRIPOS>SET
LONE_PAIRS      STATIC     ATOMS    <user>   **** ""
5 37 38 39 40 41
DONOR_HYDROGENS      STATIC     ATOMS    <user>   **** ""
1 23
ATOM$BLUE        STATIC     ATOMS    COLORGROUP SYSTEM
5 37 38 39 40 41
ATOM$RED        STATIC     ATOMS    COLORGROUP SYSTEM
1 23
