AV-unprocessed.smi:2780|AV-procd|sdf|10714|dock8
  -GOLD-   2272015153D 1   1.00000     0.00000
 Structure written by MMmdl.
 47 49  0  0  0  0  0  0  0  0  2 V2000
  146.7246  131.1570  152.7661 C   0  0  0  0  0  0  0  0  0  0  0  0
  145.7678  131.9937  151.9327 C   0  0  0  0  0  0  0  0  0  0  0  0
  144.8480  131.3847  151.1601 C   0  0  0  0  0  0  0  0  0  0  0  0
  143.8950  132.1088  150.2375 C   0  0  0  0  0  0  0  0  0  0  0  0
  144.4108  133.5105  149.9047 C   0  0  0  0  0  0  0  0  0  0  0  0
  144.8172  134.2771  151.1740 C   0  0  2  0  0  0  0  0  0  0  0  0
  145.2426  135.7084  150.7918 C   0  0  0  0  0  0  0  0  0  0  0  0
  145.9126  133.5284  151.9950 C   0  0  1  0  0  0  0  0  0  0  0  0
  145.9520  134.0689  153.4492 C   0  0  0  0  0  0  0  0  0  0  0  0
  147.1568  134.8770  153.7296 N   0  3  0  0  0  0  0  0  0  0  0  0
  146.9954  135.8362  154.8386 C   0  0  0  0  0  0  0  0  0  0  0  0
  148.1938  136.7915  154.9158 C   0  0  0  0  0  0  0  0  0  0  0  0
  149.4008  136.1031  155.3352 N   0  0  0  0  0  0  0  0  0  0  0  0
  149.5955  134.7842  155.4896 C   0  0  0  0  0  0  0  0  0  0  0  0
  150.8224  134.4362  155.8739 N   0  0  0  0  0  0  0  0  0  0  0  0
  151.5060  135.6313  155.9770 N   0  0  0  0  0  0  0  0  0  0  0  0
  150.6195  136.5823  155.6603 C   0  0  0  0  0  0  0  0  0  0  0  0
  150.9526  138.0394  155.6070 C   0  0  0  0  0  0  0  0  0  0  0  0
  150.6318  138.8744  154.3867 C   0  0  0  0  0  0  0  0  0  0  0  0
  152.0654  138.5546  154.7211 C   0  0  0  0  0  0  0  0  0  0  0  0
  147.7553  131.4652  152.5901 H   0  0  0  0  0  0  0  0  0  0  0  0
  146.6495  130.0989  152.5122 H   0  0  0  0  0  0  0  0  0  0  0  0
  146.5008  131.2511  153.8286 H   0  0  0  0  0  0  0  0  0  0  0  0
  144.7671  130.3072  151.1649 H   0  0  0  0  0  0  0  0  0  0  0  0
  143.7776  131.5320  149.3196 H   0  0  0  0  0  0  0  0  0  0  0  0
  142.9153  132.1571  150.7139 H   0  0  0  0  0  0  0  0  0  0  0  0
  145.2687  133.4325  149.2350 H   0  0  0  0  0  0  0  0  0  0  0  0
  143.6419  134.0570  149.3570 H   0  0  0  0  0  0  0  0  0  0  0  0
  143.9230  134.3526  151.7949 H   0  0  0  0  0  0  0  0  0  0  0  0
  146.1426  135.7016  150.1762 H   0  0  0  0  0  0  0  0  0  0  0  0
  145.4421  136.3317  151.6619 H   0  0  0  0  0  0  0  0  0  0  0  0
  144.4598  136.2074  150.2198 H   0  0  0  0  0  0  0  0  0  0  0  0
  146.8720  133.7470  151.5233 H   0  0  0  0  0  0  0  0  0  0  0  0
  145.0914  134.7026  153.6573 H   0  0  0  0  0  0  0  0  0  0  0  0
  145.8951  133.2365  154.1523 H   0  0  0  0  0  0  0  0  0  0  0  0
  147.9127  134.2477  153.9600 H   0  0  0  0  0  0  0  0  0  0  0  0
  146.0723  136.3984  154.6956 H   0  0  0  0  0  0  0  0  0  0  0  0
  146.8950  135.2850  155.7747 H   0  0  0  0  0  0  0  0  0  0  0  0
  148.3812  137.2431  153.9406 H   0  0  0  0  0  0  0  0  0  0  0  0
  147.9900  137.6106  155.6062 H   0  0  0  0  0  0  0  0  0  0  0  0
  148.8177  134.0558  155.3120 H   0  0  0  0  0  0  0  0  0  0  0  0
  150.8231  138.4989  156.5850 H   0  0  0  0  0  0  0  0  0  0  0  0
  150.1950  138.3718  153.5258 H   0  0  0  0  0  0  0  0  0  0  0  0
  150.2917  139.8944  154.5527 H   0  0  0  0  0  0  0  0  0  0  0  0
  152.6838  139.3608  155.1099 H   0  0  0  0  0  0  0  0  0  0  0  0
  152.5758  137.8451  154.0733 H   0  0  0  0  0  0  0  0  0  0  0  0
  147.4043  135.3859  152.8931 H   0  0  0  0  0  0  0  0  0  0  0  0
  1  2  1  0  0  0  0
  1 21  1  0  0  0  0
  1 22  1  0  0  0  0
  1 23  1  0  0  0  0
  2  8  1  0  0  0  0
  2  3  2  0  0  0  0
  3  4  1  0  0  0  0
  3 24  1  0  0  0  0
  4  5  1  0  0  0  0
  4 25  1  0  0  0  0
  4 26  1  0  0  0  0
  5  6  1  0  0  0  0
  5 27  1  0  0  0  0
  5 28  1  0  0  0  0
  6  7  1  0  0  0  0
  6  8  1  0  0  0  0
  6 29  1  0  0  0  0
  7 30  1  0  0  0  0
  7 31  1  0  0  0  0
  7 32  1  0  0  0  0
  8  9  1  0  0  0  0
  8 33  1  0  0  0  0
  9 10  1  0  0  0  0
  9 34  1  0  0  0  0
  9 35  1  0  0  0  0
 10 11  1  0  0  0  0
 10 36  1  0  0  0  0
 10 47  1  0  0  0  0
 11 12  1  0  0  0  0
 11 37  1  0  0  0  0
 11 38  1  0  0  0  0
 12 13  1  0  0  0  0
 12 39  1  0  0  0  0
 12 40  1  0  0  0  0
 13 17  1  0  0  0  0
 13 14  1  0  0  0  0
 14 15  2  0  0  0  0
 14 41  1  0  0  0  0
 15 16  1  0  0  0  0
 16 17  2  0  0  0  0
 17 18  1  0  0  0  0
 18 20  1  0  0  0  0
 18 19  1  0  0  0  0
 18 42  1  0  0  0  0
 19 20  1  0  0  0  0
 19 43  1  0  0  0  0
 19 44  1  0  0  0  0
 20 45  1  0  0  0  0
 20 46  1  0  0  0  0
M  CHG  1  10   1
M  END
> <s_m_source_file>
AV-unprocessed.smi

> <i_m_source_file_index>
2780

> <i_lp_mmshare_version>
43012

> <i_f3d_flags>
0

> <s_epik_input>
W0NIM11DMT1bQ0hdW0NIMl1bQ0gyXVtDQEBIXShbQ0gzXSlbQ0BIXTFbQ0gyXVtOSF1bQ0gyXVtDSDJdbjJbY0hdbm5jMltDSF0zW0NIMl1bQ0gyXTM=

> <s_epik_cmdline>
J2VwaWtfcHl0aG9uJywgJy1waCcsICc3LjAnLCAnLXRuJywgJzgnLCAnLW1hJywgJzIwMCcsICctbWV0YWxfYmluZGluZycsICctaW1hZScsICc8aW5maWxlLm1hZT4nLCAnLW9tYWUnLCAnPG91dGZpbGUubWFlPic=

> <r_lp_tautomer_probability>
1

> <r_epik_Ionization_Penalty>
0.00176214

> <r_epik_Ionization_Penalty_Charging>
0.00175191

> <r_epik_Ionization_Penalty_Neutral>
1.02377e-05

> <r_epik_State_Penalty>
-0

> <r_epik_Charging_Adjusted_Penalty>
0.00175191

> <i_epik_Tot_Q>
1

> <i_epik_Tot_abs_Q>
1

> <r_epik_Metal_State_Penalty>
-0

> <b_epik_Metal_Only>
0

> <s_lp_Force_Field>
OPLS_2005

> <r_lp_Energy>
22.2191

> <b_lp_Chiralities_Consistent>
1

> <s_lp_Variant>
AV-unprocessed.smi:2780-2

> <Gold.Version>
5.8.1

> <Gold.Id.Protein>
6NUR|6NUR_protein|mol2

> <Gold.PLP.Fitness>
42.4500

> <Gold.PLP.PLP>
-35.7008

> <Gold.PLP.part.hbond>
-2.0000

> <Gold.PLP.part.metal>
0.0000

> <Gold.PLP.part.buried>
-5.1701

> <Gold.PLP.part.nonpolar>
-28.6615

> <Gold.PLP.part.repulsive>
0.0534

> <Gold.PLP.ligand.clash>
0.0000

> <Gold.PLP.ligand.torsion>
1.0323

> <Gold.PLP.Chemscore.Hbond>
2.8560

> <Gold.PLP.Chemscore.CHOScore>
0.0000

> <Gold.PLP.Chemscore.Metal>
0.0000

> <Gold.Chemscore.Hbonds>
donor molecule, donor type, donor heavy atom, donor atom, acceptor molecule, acceptor atom, score
      L1  H    10    47       P1  7948  1.79
      P1  H 10752 10763       L1    16  1.00

> <Gold.PLP.Chemscore.Internal.Correction>
0.2459

> <Gold.Rescore>
     Score         DG    S(hbond)    S(metal)    S(lipo)     H(rot)  DE(clash)    DE(int)     intcor
     15.56     -16.70       1.79        0.00      88.26       1.98       0.16       0.98       ----

> <Gold.Chemscore.Fitness>
15.5610

> <Gold.Chemscore.DG>
-16.7010

> <Gold.Chemscore.ZeroCoef>
-5.4800

> <Gold.Chemscore.Hbond>
1.7853

> <Gold.Chemscore.Metal>
0.0000

> <Gold.Chemscore.Lipo>
88.2629

> <Gold.Chemscore.Internal_Hbond>
0.0000

> <Gold.Chemscore.DEClash>
0.1611

> <Gold.Chemscore.DEInternal>
0.9790

> <Gold.Chemscore.Rot>
1.9799

> <Gold.Chemscore.Internal.Correction>
   9.000000E+99

> <Gold.Chemscore.Hbonds>
donor molecule, donor type, donor heavy atom, donor atom, acceptor molecule, acceptor atom, score
      L1  H    10    47       P1  7948  0.81
      P1  H 10752 10763       L1    16  0.64

> <Gold.Chemscore.Hbond.Weighted>
-5.9628

> <Gold.Chemscore.Metal.Weighted>
-0.0000

> <Gold.Chemscore.Lipo.Weighted>
-10.3268

> <Gold.Chemscore.Internal_Hbond.Weighted>
0.0000

> <Gold.Chemscore.DEClash.Weighted>
0.1611

> <Gold.Chemscore.DEInternal.Weighted>
0.9790

> <Gold.Chemscore.Rot.Weighted>
5.0685

> <Gold.Chemscore.Internal.Correction.Weighted>
   9.000000E+99

> <Gold.Protein.RotatedTorsions>
[ 6907 6896 6895 6894 ] final  141.03 input  -60.11 | X-H torsion
[ 7974 7965 7964 7962 ] final  -32.36 input  175.53 | X-H torsion
[ 8008 7997 7996 7995 ] final  115.17 input   59.86 | X-H torsion
[ 10167 10162 10161 10158 ] final -121.46 input  -65.29 | X-H torsion
[ 10718 10713 10712 10709 ] final   93.10 input   66.30 | X-H torsion
[ 10763 10752 10751 10750 ] final   95.03 input  -60.55 | X-H torsion
[ 11005 11000 10999 10996 ] final  108.40 input  -57.11 | X-H torsion

> <Gold.Protein.ActiveResidues>
 VAL166  LYS551  ARG553  GLY616  TRP617  ASP618  TYR619  PRO620  LYS621  CYS622 
 ASP623  PHE694  ASN695  SER759  ASP760  ASP761  ALA762  ILE779  LEU786  VAL792 
 PHE793  MET794  SER795  GLU796  ALA797  LYS798  CYS799  TRP800  GLU811  SER814 

> <Gold.Protein.RotatedAtoms>
  152.2359  133.5095  159.5241 H   0  0  0  0  0  0  0  0  0  0  0  0  # atno 6907 bound_to 6896
  150.7050  134.1154  159.4024 H   0  0  0  0  0  0  0  0  0  0  0  0  # atno 6908 bound_to 6896
  151.9075  135.0352  160.0562 H   0  0  0  0  0  0  0  0  0  0  0  0  # atno 6909 bound_to 6896
  146.0996  140.5782  142.8827 H   0  0  0  0  0  0  0  0  0  0  0  0  # atno 7974 bound_to 7965
  156.2365  140.2944  156.0327 H   0  0  0  0  0  0  0  0  0  0  0  0  # atno 8008 bound_to 7997
  155.2076  140.0411  157.2945 H   0  0  0  0  0  0  0  0  0  0  0  0  # atno 8009 bound_to 7997
  154.6089  140.2446  155.7702 H   0  0  0  0  0  0  0  0  0  0  0  0  # atno 8010 bound_to 7997
  140.0248  143.5307  152.2204 H   0  0  0  0  0  0  0  0  0  0  0  0  # atno 10167 bound_to 10162
  157.6956  131.0466  150.3983 H   0  0  0  0  0  0  0  0  0  0  0  0  # atno 10718 bound_to 10713
  153.2484  135.4268  155.0772 H   0  0  0  0  0  0  0  0  0  0  0  0  # atno 10763 bound_to 10752
  154.8371  135.3420  154.6548 H   0  0  0  0  0  0  0  0  0  0  0  0  # atno 10764 bound_to 10752
  153.6970  135.7030  153.5130 H   0  0  0  0  0  0  0  0  0  0  0  0  # atno 10765 bound_to 10752
  139.8843  134.9429  156.5966 H   0  0  0  0  0  0  0  0  0  0  0  0  # atno 11005 bound_to 11000
  144.7422  140.4973  143.6861 LP  0  0  0  0  0  0  0  0  0  0  0  0  # atno 17320 bound_to 7965
  145.5880  139.1493  143.3198 LP  0  0  0  0  0  0  0  0  0  0  0  0  # atno 17321 bound_to 7965
  139.6115  144.7610  151.2941 LP  0  0  0  0  0  0  0  0  0  0  0  0  # atno 17342 bound_to 10162
  140.7327  143.6816  150.7996 LP  0  0  0  0  0  0  0  0  0  0  0  0  # atno 17343 bound_to 10162
  156.4379  130.3985  149.6717 LP  0  0  0  0  0  0  0  0  0  0  0  0  # atno 17370 bound_to 10713
  156.3911  130.7627  151.2628 LP  0  0  0  0  0  0  0  0  0  0  0  0  # atno 17371 bound_to 10713
  140.7915  133.8578  155.8650 LP  0  0  0  0  0  0  0  0  0  0  0  0  # atno 17394 bound_to 11000
  140.9673  134.1577  157.4605 LP  0  0  0  0  0  0  0  0  0  0  0  0  # atno 17395 bound_to 11000

$$$$
