AV-unprocessed.smi:2492|AV-procd|sdf|9815|dock3
  -GOLD-   2272013443D 1   1.00000     0.00000
 Structure written by MMmdl.
 32 33  0  0  0  0  0  0  0  0  2 V2000
  151.7627  144.1973  157.9898 C   0  0  0  0  0  0  0  0  0  0  0  0
  152.1302  144.4500  159.7464 S   0  0  0  0  0  0  0  0  0  0  0  0
  152.3714  142.7281  160.2706 C   0  0  2  0  0  0  0  0  0  0  0  0
  153.2893  142.6066  161.4838 C   0  0  0  0  0  0  0  0  0  0  0  0
  153.7510  141.1481  161.4624 C   0  0  0  0  0  0  0  0  0  0  0  0
  153.7472  140.7203  159.9818 C   0  0  1  0  0  0  0  0  0  0  0  0
  153.0407  139.4524  159.8105 N   0  0  0  0  0  0  0  0  0  0  0  0
  152.8260  138.8215  158.6467 C   0  0  0  0  0  0  0  0  0  0  0  0
  153.2367  139.3162  157.5944 O   0  0  0  0  0  0  0  0  0  0  0  0
  152.1471  137.6589  158.7749 N   0  5  0  0  0  0  0  0  0  0  0  0
  151.8659  136.9227  157.6873 C   0  0  0  0  0  0  0  0  0  0  0  0
  151.1315  135.8095  157.6627 N   0  0  0  0  0  0  0  0  0  0  0  0
  151.1545  135.4888  156.3414 C   0  0  0  0  0  0  0  0  0  0  0  0
  150.4615  134.2926  155.7851 C   0  0  0  0  0  0  0  0  0  0  0  0
  151.8309  136.3156  155.5582 N   0  0  0  0  0  0  0  0  0  0  0  0
  152.3077  137.2830  156.4541 O   0  0  0  0  0  0  0  0  0  0  0  0
  153.0577  141.8634  159.2103 C   0  0  0  0  0  0  0  0  0  0  0  0
  151.5556  145.1532  157.5090 H   0  0  0  0  0  0  0  0  0  0  0  0
  150.8902  143.5546  157.8718 H   0  0  0  0  0  0  0  0  0  0  0  0
  152.6088  143.7336  157.4825 H   0  0  0  0  0  0  0  0  0  0  0  0
  151.4016  142.2939  160.5189 H   0  0  0  0  0  0  0  0  0  0  0  0
  154.1531  143.2629  161.3665 H   0  0  0  0  0  0  0  0  0  0  0  0
  152.7915  142.8742  162.4162 H   0  0  0  0  0  0  0  0  0  0  0  0
  154.7315  141.0256  161.9235 H   0  0  0  0  0  0  0  0  0  0  0  0
  153.0477  140.5452  162.0395 H   0  0  0  0  0  0  0  0  0  0  0  0
  154.7756  140.6121  159.6322 H   0  0  0  0  0  0  0  0  0  0  0  0
  152.6876  139.0110  160.6468 H   0  0  0  0  0  0  0  0  0  0  0  0
  149.5453  134.5926  155.2763 H   0  0  0  0  0  0  0  0  0  0  0  0
  150.2026  133.5937  156.5810 H   0  0  0  0  0  0  0  0  0  0  0  0
  151.1043  133.7771  155.0711 H   0  0  0  0  0  0  0  0  0  0  0  0
  152.3568  141.5121  158.4518 H   0  0  0  0  0  0  0  0  0  0  0  0
  153.8186  142.4497  158.6935 H   0  0  0  0  0  0  0  0  0  0  0  0
  1  2  1  0  0  0  0
  1 18  1  0  0  0  0
  1 19  1  0  0  0  0
  1 20  1  0  0  0  0
  2  3  1  0  0  0  0
  3 17  1  0  0  0  0
  3  4  1  0  0  0  0
  3 21  1  0  0  0  0
  4  5  1  0  0  0  0
  4 22  1  0  0  0  0
  4 23  1  0  0  0  0
  5  6  1  0  0  0  0
  5 24  1  0  0  0  0
  5 25  1  0  0  0  0
  6  7  1  0  0  0  0
  6 17  1  0  0  0  0
  6 26  1  0  0  0  0
  7  8  1  0  0  0  0
  7 27  1  0  0  0  0
  8  9  2  0  0  0  0
  8 10  1  0  0  0  0
 10 11  1  0  0  0  0
 11 16  1  0  0  0  0
 11 12  2  0  0  0  0
 12 13  1  0  0  0  0
 13 14  1  0  0  0  0
 13 15  2  0  0  0  0
 14 28  1  0  0  0  0
 14 29  1  0  0  0  0
 14 30  1  0  0  0  0
 15 16  1  0  0  0  0
 17 31  1  0  0  0  0
 17 32  1  0  0  0  0
M  CHG  1  10  -1
M  END
> <s_m_source_file>
AV-unprocessed.smi

> <i_m_source_file_index>
2492

> <i_lp_mmshare_version>
43012

> <i_f3d_flags>
0

> <s_epik_input>
W0NIM11TW0NAQEhdMVtDSDJdW0NIMl1bQ0BIXShbQ0gyXTEpW05IXUMoPU8pW05IXWMybmMoW0NIM10pbm8y

> <s_epik_cmdline>
J2VwaWtfcHl0aG9uJywgJy1waCcsICc3LjAnLCAnLXRuJywgJzgnLCAnLW1hJywgJzIwMCcsICctbWV0YWxfYmluZGluZycsICctaW1hZScsICc8aW5maWxlLm1hZT4nLCAnLW9tYWUnLCAnPG91dGZpbGUubWFlPic=

> <r_lp_tautomer_probability>
1

> <r_epik_Ionization_Penalty>
6.26454

> <r_epik_Ionization_Penalty_Charging>
6.26445

> <r_epik_Ionization_Penalty_Neutral>
9.05726e-05

> <r_epik_State_Penalty>
6.26444

> <r_epik_Charging_Adjusted_Penalty>
12.5289

> <i_epik_Tot_Q>
-1

> <i_epik_Tot_abs_Q>
1

> <r_epik_Metal_State_Penalty>
2.20125

> <b_epik_Metal_Only>
1

> <s_lp_Force_Field>
OPLS_2005

> <r_lp_Energy>
10.5247

> <b_lp_Chiralities_Consistent>
1

> <s_lp_Variant>
AV-unprocessed.smi:2492-5

> <Gold.Version>
5.8.1

> <Gold.Id.Protein>
6NUR|6NUR_protein|mol2

> <Gold.PLP.Fitness>
40.3169

> <Gold.PLP.PLP>
-34.3544

> <Gold.PLP.part.hbond>
-3.0367

> <Gold.PLP.part.metal>
0.0000

> <Gold.PLP.part.buried>
-4.9390

> <Gold.PLP.part.nonpolar>
-26.9021

> <Gold.PLP.part.repulsive>
0.1560

> <Gold.PLP.ligand.clash>
0.0000

> <Gold.PLP.ligand.torsion>
0.2826

> <Gold.PLP.Chemscore.Hbond>
2.1734

> <Gold.PLP.Chemscore.CHOScore>
0.0000

> <Gold.PLP.Chemscore.Metal>
0.0000

> <Gold.Chemscore.Hbonds>
donor molecule, donor type, donor heavy atom, donor atom, acceptor molecule, acceptor atom, score
      P1  H  6896  6908       L1    12  0.17
      P1  H  7997  8010       L1     9  1.00
      P1  H 10752 10763       L1    15  1.00

> <Gold.PLP.Chemscore.Internal.Correction>
0.0075

> <Gold.Rescore>
     Score         DG    S(hbond)    S(metal)    S(lipo)     H(rot)  DE(clash)    DE(int)     intcor
     17.88     -20.95       2.53        0.00      87.73       1.27       0.14       2.93       ----

> <Gold.Chemscore.Fitness>
17.8811

> <Gold.Chemscore.DG>
-20.9511

> <Gold.Chemscore.ZeroCoef>
-5.4800

> <Gold.Chemscore.Hbond>
2.5333

> <Gold.Chemscore.Metal>
0.0000

> <Gold.Chemscore.Lipo>
87.7278

> <Gold.Chemscore.Internal_Hbond>
0.0000

> <Gold.Chemscore.DEClash>
0.1444

> <Gold.Chemscore.DEInternal>
2.9256

> <Gold.Chemscore.Rot>
1.2712

> <Gold.Chemscore.Internal.Correction>
   9.000000E+99

> <Gold.Chemscore.Hbonds>
donor molecule, donor type, donor heavy atom, donor atom, acceptor molecule, acceptor atom, score
      P1  H  6896  6908       L1    12  0.15
      P1  H  7997  8010       L1     9  0.99
      P1  H 10752 10763       L1    15  0.39

> <Gold.Chemscore.Hbond.Weighted>
-8.4611

> <Gold.Chemscore.Metal.Weighted>
-0.0000

> <Gold.Chemscore.Lipo.Weighted>
-10.2642

> <Gold.Chemscore.Internal_Hbond.Weighted>
0.0000

> <Gold.Chemscore.DEClash.Weighted>
0.1444

> <Gold.Chemscore.DEInternal.Weighted>
2.9256

> <Gold.Chemscore.Rot.Weighted>
3.2542

> <Gold.Chemscore.Internal.Correction.Weighted>
   9.000000E+99

> <Gold.Protein.RotatedTorsions>
[ 6907 6896 6895 6894 ] final -169.63 input  -60.11 | X-H torsion
[ 7974 7965 7964 7962 ] final  158.74 input  175.53 | X-H torsion
[ 8008 7997 7996 7995 ] final   41.80 input   59.86 | X-H torsion
[ 10167 10162 10161 10158 ] final -123.03 input  -65.29 | X-H torsion
[ 10718 10713 10712 10709 ] final -117.81 input   66.30 | X-H torsion
[ 10763 10752 10751 10750 ] final   85.59 input  -60.55 | X-H torsion
[ 11005 11000 10999 10996 ] final  149.53 input  -57.11 | X-H torsion

> <Gold.Protein.ActiveResidues>
 VAL166  LYS551  ARG553  GLY616  TRP617  ASP618  TYR619  PRO620  LYS621  CYS622 
 ASP623  PHE694  ASN695  SER759  ASP760  ASP761  ALA762  ILE779  LEU786  VAL792 
 PHE793  MET794  SER795  GLU796  ALA797  LYS798  CYS799  TRP800  GLU811  SER814 

> <Gold.Protein.RotatedAtoms>
  151.4947  133.3517  159.2858 H   0  0  0  0  0  0  0  0  0  0  0  0  # atno 6907 bound_to 6896
  150.8812  134.8205  159.7237 H   0  0  0  0  0  0  0  0  0  0  0  0  # atno 6908 bound_to 6896
  152.4764  134.4845  159.9727 H   0  0  0  0  0  0  0  0  0  0  0  0  # atno 6909 bound_to 6896
  144.7829  139.7520  143.6252 H   0  0  0  0  0  0  0  0  0  0  0  0  # atno 7974 bound_to 7965
  155.2757  140.3369  155.4262 H   0  0  0  0  0  0  0  0  0  0  0  0  # atno 8008 bound_to 7997
  156.2113  140.1771  156.7731 H   0  0  0  0  0  0  0  0  0  0  0  0  # atno 8009 bound_to 7997
  154.5690  140.0673  156.8919 H   0  0  0  0  0  0  0  0  0  0  0  0  # atno 8010 bound_to 7997
  140.0078  143.5473  152.2276 H   0  0  0  0  0  0  0  0  0  0  0  0  # atno 10167 bound_to 10162
  156.1061  130.6211  150.9211 H   0  0  0  0  0  0  0  0  0  0  0  0  # atno 10718 bound_to 10713
  153.1489  135.4611  154.9608 H   0  0  0  0  0  0  0  0  0  0  0  0  # atno 10763 bound_to 10752
  154.7809  135.3188  154.7994 H   0  0  0  0  0  0  0  0  0  0  0  0  # atno 10764 bound_to 10752
  153.8503  135.6922  153.4847 H   0  0  0  0  0  0  0  0  0  0  0  0  # atno 10765 bound_to 10752
  140.1053  134.8958  157.1856 H   0  0  0  0  0  0  0  0  0  0  0  0  # atno 11005 bound_to 11000
  146.2046  139.5362  142.9721 LP  0  0  0  0  0  0  0  0  0  0  0  0  # atno 17320 bound_to 7965
  145.6002  141.0356  143.2022 LP  0  0  0  0  0  0  0  0  0  0  0  0  # atno 17321 bound_to 7965
  139.6226  144.7632  151.2708 LP  0  0  0  0  0  0  0  0  0  0  0  0  # atno 17342 bound_to 10162
  140.7393  143.6621  150.8155 LP  0  0  0  0  0  0  0  0  0  0  0  0  # atno 17343 bound_to 10162
  157.6237  131.0927  150.8574 LP  0  0  0  0  0  0  0  0  0  0  0  0  # atno 17370 bound_to 10713
  156.8693  130.5140  149.5298 LP  0  0  0  0  0  0  0  0  0  0  0  0  # atno 17371 bound_to 10713
  140.3164  134.2965  155.7255 LP  0  0  0  0  0  0  0  0  0  0  0  0  # atno 17394 bound_to 11000
  141.2116  133.7683  156.9850 LP  0  0  0  0  0  0  0  0  0  0  0  0  # atno 17395 bound_to 11000

$$$$
