#       Name:                AV-unprocessed.smi:1631
#       Creating user name   scv26
#       Creation time:       Fri Mar 27 07:20:25 2020


#       File generated by GOLD software.
#

@<TRIPOS>MOLECULE
AV-unprocessed.smi:1631
    44    45     1
SMALL
NO_CHARGES


@<TRIPOS>ATOM
      1 ****        -3.5233   2.6810  -0.9783 C.3            1 S1                 0.0000
      2 ****        -2.9056   1.3098  -0.8849 C.2            1 S1                 0.0000
      3 ****        -1.6136   1.2871  -0.8666 N.2            1 S1                 0.0000
      4 ****        -0.9117   0.1021  -0.7773 N.am           1 S1                 0.0000
      5 ****         0.5470   0.2755  -0.7579 C.3            1 S1                 0.0000
      6 ****         1.1222   0.2634   0.6773 C.3            1 S1                 0.0000
      7 ****         0.7683   1.4778   1.3109 O.3            1 S1                 0.0000
      8 ****         2.6400   0.0800   0.6624 C.ar           1 S1                 0.0000
      9 ****         3.4269   1.1123   0.1002 C.ar           1 S1                 0.0000
     10 ****         4.8276   1.0083   0.0458 C.ar           1 S1                 0.0000
     11 ****         5.4616  -0.1357   0.5564 C.ar           1 S1                 0.0000
     12 ****         4.6933  -1.1699   1.1203 C.ar           1 S1                 0.0000
     13 ****         3.2820  -1.0804   1.1832 C.ar           1 S1                 0.0000
     14 ****         2.4953  -2.2305   1.8133 C.3            1 S1                 0.0000
     15 ****         3.2944  -3.2244   2.2035 F              1 S1                 0.0000
     16 ****         1.8347  -1.7998   2.8884 F              1 S1                 0.0000
     17 ****         1.6306  -2.7336   0.9334 F              1 S1                 0.0000
     18 ****        -1.4829  -1.1335  -0.7076 C.2            1 S1                 0.0000
     19 ****        -0.8189  -2.1678  -0.6325 O.2            1 S1                 0.0000
     20 ****        -2.9468  -1.1053  -0.7287 C.2            1 S1                 0.0000
     21 ****        -3.5827  -2.3811  -0.6523 C.1            1 S1                 0.0000
     22 ****        -4.1165  -3.4065  -0.5892 N.1            1 S1                 0.0000
     23 ****        -3.6495   0.0526  -0.8142 C.2            1 S1                 0.0000
     24 ****        -5.1705   0.1203  -0.8388 C.3            1 S1                 0.0000
     25 ****        -4.6109   2.6574  -1.0104 H              1 S1                 0.0000
     26 ****        -3.1838   3.1952  -1.8781 H              1 S1                 0.0000
     27 ****        -3.2373   3.2897  -0.1199 H              1 S1                 0.0000
     28 ****         1.0034  -0.5290  -1.3381 H              1 S1                 0.0000
     29 ****         0.8321   1.1918  -1.2788 H              1 S1                 0.0000
     30 ****         0.6438  -0.5288   1.2464 H              1 S1                 0.0000
     31 ****        -0.1739   1.5508   1.3108 H              1 S1                 0.0000
     32 ****         2.9530   1.9982  -0.2966 H              1 S1                 0.0000
     33 ****         5.4143   1.8051  -0.3872 H              1 S1                 0.0000
     34 ****         6.5375  -0.2206   0.5168 H              1 S1                 0.0000
     35 ****         5.2089  -2.0365   1.5061 H              1 S1                 0.0000
     36 ****        -5.6305  -0.8660  -0.7881 H              1 S1                 0.0000
     37 ****        -5.5179   0.5932  -1.7581 H              1 S1                 0.0000
     38 ****        -5.5407   0.6965   0.0099 H              1 S1                 0.0000
     39 ****        -1.1100   2.1495  -0.9185 LP             1 S1                 0.0000
     40 ****         1.1667   2.2476   0.8121 LP             1 S1                 0.0000
     41 ****         1.1070   1.4791   2.2517 LP             1 S1                 0.0000
     42 ****         0.1799  -2.1210  -0.6208 LP             1 S1                 0.0000
     43 ****        -1.2785  -3.0545  -0.5832 LP             1 S1                 0.0000
     44 ****        -4.5776  -4.2922  -0.5347 LP             1 S1                 0.0000
@<TRIPOS>BOND
    1    1    2 1     
    2    1   25 1     
    3    1   26 1     
    4    1   27 1     
    5    2   23 1     
    6    2    3 2     
    7    3    4 1     
    8    4    5 1     
    9    4   18 am    
   10    5    6 1     
   11    5   28 1     
   12    5   29 1     
   13    6    7 1     
   14    6    8 1     
   15    6   30 1     
   16    7   31 1     
   17    8   13 ar    
   18    8    9 ar    
   19    9   10 ar    
   20    9   32 1     
   21   10   11 ar    
   22   10   33 1     
   23   11   12 ar    
   24   11   34 1     
   25   12   13 ar    
   26   12   35 1     
   27   13   14 1     
   28   14   15 1     
   29   14   16 1     
   30   14   17 1     
   31   18   19 2     
   32   18   20 1     
   33   20   21 1     
   34   20   23 2     
   35   21   22 3     
   36   23   24 1     
   37   24   36 1     
   38   24   37 1     
   39   24   38 1     
   40    3   39 1     
   41    7   40 1     
   42    7   41 1     
   43   19   42 1     
   44   19   43 1     
   45   22   44 1     
@<TRIPOS>SUBSTRUCTURE
      1 S1             1
@<TRIPOS>SET
LONE_PAIRS      STATIC     ATOMS    <user>   **** ""
6 39 40 41 42 43 44
DONOR_HYDROGENS      STATIC     ATOMS    <user>   **** ""
1 31
ATOM$BLUE        STATIC     ATOMS    COLORGROUP SYSTEM
6 39 40 41 42 43 44
ATOM$RED        STATIC     ATOMS    COLORGROUP SYSTEM
1 31
