AV-unprocessed.smi:2878|AV-procd|sdf|11047|dock10
  -GOLD-   2272015513D 1   1.00000     0.00000
 Structure written by MMmdl.
 42 43  0  0  0  0  0  0  0  0  1 V2000
  145.7989  132.7491  150.1369 C   0  0  0  0  0  0  0  0  0  0  0  0
  146.6202  133.1227  151.7097 S   0  0  0  0  0  0  0  0  0  0  0  0
  145.4398  134.2993  152.4450 C   0  0  2  0  0  0  0  0  0  0  0  0
  145.1777  135.4771  151.4864 C   0  0  0  0  0  0  0  0  0  0  0  0
  144.1526  136.4609  152.0725 C   0  0  0  0  0  0  0  0  0  0  0  0
  144.5938  136.9694  153.4530 C   0  0  0  0  0  0  0  0  0  0  0  0
  144.8631  135.8012  154.4173 C   0  0  0  0  0  0  0  0  0  0  0  0
  145.8836  134.7933  153.8444 C   0  0  2  0  0  0  0  0  0  0  0  0
  147.2244  135.3777  153.7938 N   0  0  0  0  0  0  0  0  0  0  0  0
  147.9059  135.8457  154.8482 C   0  0  0  0  0  0  0  0  0  0  0  0
  147.4725  135.8582  156.0004 O   0  0  0  0  0  0  0  0  0  0  0  0
  149.1173  136.2981  154.4966 N   0  0  0  0  0  0  0  0  0  0  0  0
  150.0894  136.8782  155.4165 C   0  0  0  0  0  0  0  0  0  0  0  0
  150.8389  138.0611  154.7826 C   0  0  0  0  0  0  0  0  0  0  0  0
  149.9377  139.2151  154.4949 C   0  0  0  0  0  0  0  0  0  0  0  0
  148.6198  139.1799  154.3129 N   0  0  0  0  0  0  0  0  0  0  0  0
  148.3437  140.5034  154.1522 C   0  0  0  0  0  0  0  0  0  0  0  0
  146.9676  141.0201  153.9050 C   0  0  0  0  0  0  0  0  0  0  0  0
  149.3803  141.3276  154.2393 N   0  0  0  0  0  0  0  0  0  0  0  0
  150.4595  140.4654  154.4817 O   0  0  0  0  0  0  0  0  0  0  0  0
  146.4254  132.0894  149.5369 H   0  0  0  0  0  0  0  0  0  0  0  0
  145.6225  133.6642  149.5715 H   0  0  0  0  0  0  0  0  0  0  0  0
  144.8444  132.2511  150.3052 H   0  0  0  0  0  0  0  0  0  0  0  0
  144.4987  133.7592  152.5589 H   0  0  0  0  0  0  0  0  0  0  0  0
  146.1098  136.0032  151.2763 H   0  0  0  0  0  0  0  0  0  0  0  0
  144.8151  135.1026  150.5285 H   0  0  0  0  0  0  0  0  0  0  0  0
  144.0141  137.3026  151.3934 H   0  0  0  0  0  0  0  0  0  0  0  0
  143.1826  135.9695  152.1580 H   0  0  0  0  0  0  0  0  0  0  0  0
  145.4928  137.5783  153.3495 H   0  0  0  0  0  0  0  0  0  0  0  0
  143.8269  137.6232  153.8691 H   0  0  0  0  0  0  0  0  0  0  0  0
  145.2019  136.1836  155.3807 H   0  0  0  0  0  0  0  0  0  0  0  0
  143.9244  135.2821  154.6151 H   0  0  0  0  0  0  0  0  0  0  0  0
  145.9127  133.9337  154.5151 H   0  0  0  0  0  0  0  0  0  0  0  0
  147.6693  135.4087  152.8882 H   0  0  0  0  0  0  0  0  0  0  0  0
  149.3842  136.2426  153.5246 H   0  0  0  0  0  0  0  0  0  0  0  0
  149.5553  137.2126  156.3063 H   0  0  0  0  0  0  0  0  0  0  0  0
  150.7934  136.1120  155.7460 H   0  0  0  0  0  0  0  0  0  0  0  0
  151.6369  138.4050  155.4419 H   0  0  0  0  0  0  0  0  0  0  0  0
  151.3147  137.7498  153.8520 H   0  0  0  0  0  0  0  0  0  0  0  0
  146.9778  141.7668  153.1104 H   0  0  0  0  0  0  0  0  0  0  0  0
  146.5709  141.4808  154.8100 H   0  0  0  0  0  0  0  0  0  0  0  0
  146.3001  140.2108  153.6072 H   0  0  0  0  0  0  0  0  0  0  0  0
  1  2  1  0  0  0  0
  1 21  1  0  0  0  0
  1 22  1  0  0  0  0
  1 23  1  0  0  0  0
  2  3  1  0  0  0  0
  3  8  1  0  0  0  0
  3  4  1  0  0  0  0
  3 24  1  0  0  0  0
  4  5  1  0  0  0  0
  4 25  1  0  0  0  0
  4 26  1  0  0  0  0
  5  6  1  0  0  0  0
  5 27  1  0  0  0  0
  5 28  1  0  0  0  0
  6  7  1  0  0  0  0
  6 29  1  0  0  0  0
  6 30  1  0  0  0  0
  7  8  1  0  0  0  0
  7 31  1  0  0  0  0
  7 32  1  0  0  0  0
  8  9  1  0  0  0  0
  8 33  1  0  0  0  0
  9 10  1  0  0  0  0
  9 34  1  0  0  0  0
 10 11  2  0  0  0  0
 10 12  1  0  0  0  0
 12 13  1  0  0  0  0
 12 35  1  0  0  0  0
 13 14  1  0  0  0  0
 13 36  1  0  0  0  0
 13 37  1  0  0  0  0
 14 15  1  0  0  0  0
 14 38  1  0  0  0  0
 14 39  1  0  0  0  0
 15 20  1  0  0  0  0
 15 16  2  0  0  0  0
 16 17  1  0  0  0  0
 17 18  1  0  0  0  0
 17 19  2  0  0  0  0
 18 40  1  0  0  0  0
 18 41  1  0  0  0  0
 18 42  1  0  0  0  0
 19 20  1  0  0  0  0
M  END
> <s_m_source_file>
AV-unprocessed.smi

> <i_m_source_file_index>
2878

> <i_lp_mmshare_version>
43012

> <i_f3d_flags>
0

> <s_epik_input>
W0NIM11TW0NAQEhdMVtDSDJdW0NIMl1bQ0gyXVtDSDJdW0NASF0xW05IXUMoPU8pW05IXVtDSDJdW0NIMl1jMm5jKFtDSDNdKW5vMg==

> <s_epik_cmdline>
J2VwaWtfcHl0aG9uJywgJy1waCcsICc3LjAnLCAnLXRuJywgJzgnLCAnLW1hJywgJzIwMCcsICctbWV0YWxfYmluZGluZycsICctaW1hZScsICc8aW5maWxlLm1hZT4nLCAnLW9tYWUnLCAnPG91dGZpbGUubWFlPic=

> <r_lp_tautomer_probability>
1

> <r_epik_Ionization_Penalty>
4.9299e-05

> <r_epik_Ionization_Penalty_Charging>
0

> <r_epik_Ionization_Penalty_Neutral>
4.9299e-05

> <r_epik_State_Penalty>
-0

> <r_epik_Charging_Adjusted_Penalty>
0

> <i_epik_Tot_Q>
0

> <i_epik_Tot_abs_Q>
0

> <r_epik_Metal_State_Penalty>
-0

> <b_epik_Metal_Only>
0

> <s_lp_Force_Field>
OPLS_2005

> <r_lp_Energy>
0.628987

> <b_lp_Chiralities_Consistent>
1

> <s_lp_Variant>
AV-unprocessed.smi:2878-3

> <Gold.Version>
5.8.1

> <Gold.Id.Protein>
6NUR|6NUR_protein|mol2

> <Gold.PLP.Fitness>
38.0298

> <Gold.PLP.PLP>
-28.7163

> <Gold.PLP.part.hbond>
-4.6838

> <Gold.PLP.part.metal>
0.0000

> <Gold.PLP.part.buried>
-3.5878

> <Gold.PLP.part.nonpolar>
-21.0368

> <Gold.PLP.part.repulsive>
0.4908

> <Gold.PLP.ligand.clash>
0.0000

> <Gold.PLP.ligand.torsion>
0.5226

> <Gold.PLP.Chemscore.Hbond>
3.4377

> <Gold.PLP.Chemscore.CHOScore>
0.0000

> <Gold.PLP.Chemscore.Metal>
0.0000

> <Gold.Chemscore.Hbonds>
donor molecule, donor type, donor heavy atom, donor atom, acceptor molecule, acceptor atom, score
      L1  H     9    34       P1  7948  0.93
      L1  H    12    35       P1  7948  1.00
      P1  H  7989  7998       L1    20  1.00
      P1  H  8011  8017       L1    19  0.35

> <Gold.PLP.Chemscore.Internal.Correction>
0.0455

> <Gold.Rescore>
     Score         DG    S(hbond)    S(metal)    S(lipo)     H(rot)  DE(clash)    DE(int)     intcor
     13.29     -15.10       2.68        0.00      51.39       2.09       0.04       1.77       ----

> <Gold.Chemscore.Fitness>
13.2913

> <Gold.Chemscore.DG>
-15.1043

> <Gold.Chemscore.ZeroCoef>
-5.4800

> <Gold.Chemscore.Hbond>
2.6850

> <Gold.Chemscore.Metal>
0.0000

> <Gold.Chemscore.Lipo>
51.3901

> <Gold.Chemscore.Internal_Hbond>
0.0000

> <Gold.Chemscore.DEClash>
0.0447

> <Gold.Chemscore.DEInternal>
1.7683

> <Gold.Chemscore.Rot>
2.0923

> <Gold.Chemscore.Internal.Correction>
   9.000000E+99

> <Gold.Chemscore.Hbonds>
donor molecule, donor type, donor heavy atom, donor atom, acceptor molecule, acceptor atom, score
      L1  H     9    34       P1  7948  0.91
      L1  H    12    35       P1  7948  0.72
      P1  H  7989  7998       L1    20  0.55
      P1  H  8011  8017       L1    19  0.19

> <Gold.Chemscore.Hbond.Weighted>
-8.9679

> <Gold.Chemscore.Metal.Weighted>
-0.0000

> <Gold.Chemscore.Lipo.Weighted>
-6.0126

> <Gold.Chemscore.Internal_Hbond.Weighted>
0.0000

> <Gold.Chemscore.DEClash.Weighted>
0.0447

> <Gold.Chemscore.DEInternal.Weighted>
1.7683

> <Gold.Chemscore.Rot.Weighted>
5.3562

> <Gold.Chemscore.Internal.Correction.Weighted>
   9.000000E+99

> <Gold.Protein.RotatedTorsions>
[ 6907 6896 6895 6894 ] final  173.74 input  -60.11 | X-H torsion
[ 7974 7965 7964 7962 ] final -118.38 input  175.53 | X-H torsion
[ 8008 7997 7996 7995 ] final -161.86 input   59.86 | X-H torsion
[ 10167 10162 10161 10158 ] final   62.56 input  -65.29 | X-H torsion
[ 10718 10713 10712 10709 ] final   92.41 input   66.30 | X-H torsion
[ 10763 10752 10751 10750 ] final  155.95 input  -60.55 | X-H torsion
[ 11005 11000 10999 10996 ] final   65.09 input  -57.11 | X-H torsion

> <Gold.Protein.ActiveResidues>
 VAL166  LYS551  ARG553  GLY616  TRP617  ASP618  TYR619  PRO620  LYS621  CYS622 
 ASP623  PHE694  ASN695  SER759  ASP760  ASP761  ALA762  ILE779  LEU786  VAL792 
 PHE793  MET794  SER795  GLU796  ALA797  LYS798  CYS799  TRP800  GLU811  SER814 

> <Gold.Protein.RotatedAtoms>
  151.7635  133.3335  159.3424 H   0  0  0  0  0  0  0  0  0  0  0  0  # atno 6907 bound_to 6896
  150.7489  134.6084  159.6082 H   0  0  0  0  0  0  0  0  0  0  0  0  # atno 6908 bound_to 6896
  152.3389  134.7162  160.0320 H   0  0  0  0  0  0  0  0  0  0  0  0  # atno 6909 bound_to 6896
  145.0744  140.8382  143.4076 H   0  0  0  0  0  0  0  0  0  0  0  0  # atno 7974 bound_to 7965
  155.7983  140.0888  157.1971 H   0  0  0  0  0  0  0  0  0  0  0  0  # atno 8008 bound_to 7997
  154.3983  140.1477  156.3303 H   0  0  0  0  0  0  0  0  0  0  0  0  # atno 8009 bound_to 7997
  155.8488  140.3435  155.5682 H   0  0  0  0  0  0  0  0  0  0  0  0  # atno 8010 bound_to 7997
  140.1425  144.4540  150.6803 H   0  0  0  0  0  0  0  0  0  0  0  0  # atno 10167 bound_to 10162
  157.6958  131.0442  150.3877 H   0  0  0  0  0  0  0  0  0  0  0  0  # atno 10718 bound_to 10713
  154.1766  135.2801  155.3065 H   0  0  0  0  0  0  0  0  0  0  0  0  # atno 10763 bound_to 10752
  154.6035  135.5522  153.7402 H   0  0  0  0  0  0  0  0  0  0  0  0  # atno 10764 bound_to 10752
  153.0150  135.6397  154.1905 H   0  0  0  0  0  0  0  0  0  0  0  0  # atno 10765 bound_to 10752
  139.9917  134.6581  156.0080 H   0  0  0  0  0  0  0  0  0  0  0  0  # atno 11005 bound_to 11000
  145.1253  139.2667  143.5567 LP  0  0  0  0  0  0  0  0  0  0  0  0  # atno 17320 bound_to 7965
  146.3529  140.0889  142.8613 LP  0  0  0  0  0  0  0  0  0  0  0  0  # atno 17321 bound_to 7965
  140.6751  143.2302  151.5526 LP  0  0  0  0  0  0  0  0  0  0  0  0  # atno 17342 bound_to 10162
  139.5465  144.2508  152.1451 LP  0  0  0  0  0  0  0  0  0  0  0  0  # atno 17343 bound_to 10162
  156.4284  130.3967  149.6777 LP  0  0  0  0  0  0  0  0  0  0  0  0  # atno 17370 bound_to 10713
  156.4003  130.7671  151.2679 LP  0  0  0  0  0  0  0  0  0  0  0  0  # atno 17371 bound_to 10713
  141.1571  133.6542  156.4197 LP  0  0  0  0  0  0  0  0  0  0  0  0  # atno 17394 bound_to 11000
  140.4896  134.6588  157.5205 LP  0  0  0  0  0  0  0  0  0  0  0  0  # atno 17395 bound_to 11000

$$$$
