AV-unprocessed.smi:535|AV-procd|sdf|2861|dock8
  -GOLD-   2262023353D 1   1.00000     0.00000
 Structure written by MMmdl.
 45 47  0  0  0  0  0  0  0  0  2 V2000
  147.6964  141.6486  154.2053 C   0  0  0  0  0  0  0  0  0  0  0  0
  149.0433  141.9683  154.5062 O   0  0  0  0  0  0  0  0  0  0  0  0
  149.3703  141.7160  155.8623 C   0  0  0  0  0  0  0  0  0  0  0  0
  150.8612  142.0258  156.0780 C   0  0  0  0  0  0  0  0  0  0  0  0
  151.5355  140.9997  156.8694 N   0  0  0  0  0  0  0  0  0  0  0  0
  152.2009  141.1257  158.0553 C   0  0  0  0  0  0  0  0  0  0  0  0
  152.3692  142.3438  158.7303 N   0  0  0  0  0  0  0  0  0  0  0  0
  152.1478  143.6954  158.2096 C   0  0  0  0  0  0  0  0  0  0  0  0
  151.2762  144.5426  159.1537 C   0  0  0  0  0  0  0  0  0  0  0  0
  151.9191  144.6312  160.5426 C   0  0  0  0  0  0  0  0  0  0  0  0
  152.2438  143.2215  161.0627 C   0  0  2  0  0  0  0  0  0  0  0  0
  152.9647  143.2723  162.4166 C   0  0  0  0  0  0  0  0  0  0  0  0
  153.0700  142.4511  160.0127 C   0  0  0  0  0  0  0  0  0  0  0  0
  152.6585  139.9716  158.5483 N   0  0  0  0  0  0  0  0  0  0  0  0
  152.2710  139.0393  157.6013 C   0  0  0  0  0  0  0  0  0  0  0  0
  151.5840  139.6286  156.5878 C   0  0  0  0  0  0  0  0  0  0  0  0
  151.0086  138.8815  155.4457 C   0  0  0  0  0  0  0  0  0  0  0  0
  150.3702  139.4554  154.5659 O   0  0  0  0  0  0  0  0  0  0  0  0
  151.2747  137.5389  155.5173 N   0  5  0  0  0  0  0  0  0  0  0  0
  151.9738  136.9040  156.5208 C   0  0  0  0  0  0  0  0  0  0  0  0
  152.1680  135.6877  156.5089 O   0  0  0  0  0  0  0  0  0  0  0  0
  152.4728  137.6325  157.5681 N   0  0  0  0  0  0  0  0  0  0  0  0
  153.2159  136.9837  158.6522 C   0  0  0  0  0  0  0  0  0  0  0  0
  147.4978  141.8524  153.1532 H   0  0  0  0  0  0  0  0  0  0  0  0
  147.0068  142.2486  154.8005 H   0  0  0  0  0  0  0  0  0  0  0  0
  147.4906  140.5933  154.3883 H   0  0  0  0  0  0  0  0  0  0  0  0
  148.7514  142.3329  156.5137 H   0  0  0  0  0  0  0  0  0  0  0  0
  149.1478  140.6779  156.1093 H   0  0  0  0  0  0  0  0  0  0  0  0
  151.3710  142.1467  155.1259 H   0  0  0  0  0  0  0  0  0  0  0  0
  150.9781  142.9876  156.5764 H   0  0  0  0  0  0  0  0  0  0  0  0
  153.1168  144.1784  158.0762 H   0  0  0  0  0  0  0  0  0  0  0  0
  151.7045  143.6637  157.2193 H   0  0  0  0  0  0  0  0  0  0  0  0
  151.1422  145.5427  158.7409 H   0  0  0  0  0  0  0  0  0  0  0  0
  150.2808  144.1068  159.2392 H   0  0  0  0  0  0  0  0  0  0  0  0
  152.8332  145.2234  160.4823 H   0  0  0  0  0  0  0  0  0  0  0  0
  151.2534  145.1509  161.2326 H   0  0  0  0  0  0  0  0  0  0  0  0
  151.3033  142.6878  161.2093 H   0  0  0  0  0  0  0  0  0  0  0  0
  153.9215  143.7891  162.3370 H   0  0  0  0  0  0  0  0  0  0  0  0
  153.1590  142.2683  162.7950 H   0  0  0  0  0  0  0  0  0  0  0  0
  152.3640  143.7946  163.1615 H   0  0  0  0  0  0  0  0  0  0  0  0
  153.2882  141.4540  160.3963 H   0  0  0  0  0  0  0  0  0  0  0  0
  154.0345  142.9359  159.8554 H   0  0  0  0  0  0  0  0  0  0  0  0
  154.0930  136.4682  158.2592 H   0  0  0  0  0  0  0  0  0  0  0  0
  152.5880  136.2506  159.1602 H   0  0  0  0  0  0  0  0  0  0  0  0
  153.5660  137.6899  159.4047 H   0  0  0  0  0  0  0  0  0  0  0  0
  1  2  1  0  0  0  0
  1 24  1  0  0  0  0
  1 25  1  0  0  0  0
  1 26  1  0  0  0  0
  2  3  1  0  0  0  0
  3  4  1  0  0  0  0
  3 27  1  0  0  0  0
  3 28  1  0  0  0  0
  4  5  1  0  0  0  0
  4 29  1  0  0  0  0
  4 30  1  0  0  0  0
  5 16  1  0  0  0  0
  5  6  1  0  0  0  0
  6  7  1  0  0  0  0
  6 14  2  0  0  0  0
  7 13  1  0  0  0  0
  7  8  1  0  0  0  0
  8  9  1  0  0  0  0
  8 31  1  0  0  0  0
  8 32  1  0  0  0  0
  9 10  1  0  0  0  0
  9 33  1  0  0  0  0
  9 34  1  0  0  0  0
 10 11  1  0  0  0  0
 10 35  1  0  0  0  0
 10 36  1  0  0  0  0
 11 12  1  0  0  0  0
 11 13  1  0  0  0  0
 11 37  1  0  0  0  0
 12 38  1  0  0  0  0
 12 39  1  0  0  0  0
 12 40  1  0  0  0  0
 13 41  1  0  0  0  0
 13 42  1  0  0  0  0
 14 15  1  0  0  0  0
 15 22  1  0  0  0  0
 15 16  2  0  0  0  0
 16 17  1  0  0  0  0
 17 18  2  0  0  0  0
 17 19  1  0  0  0  0
 19 20  1  0  0  0  0
 20 21  2  0  0  0  0
 20 22  1  0  0  0  0
 22 23  1  0  0  0  0
 23 43  1  0  0  0  0
 23 44  1  0  0  0  0
 23 45  1  0  0  0  0
M  CHG  1  19  -1
M  END
> <s_m_source_file>
AV-unprocessed.smi

> <i_m_source_file_index>
535

> <i_lp_mmshare_version>
43012

> <i_f3d_flags>
0

> <s_epik_input>
W0NIM11uMWMoPU8pW25IXWMoPU8pYyhjMTIpbihbQ0gyXVtDSDJdT1tDSDNdKWMobjIpTjNbQ0gyXVtDSDJdW0NIMl1bQ0BASF0oW0NIM10pW0NIMl0z

> <s_epik_cmdline>
J2VwaWtfcHl0aG9uJywgJy1waCcsICc3LjAnLCAnLXRuJywgJzgnLCAnLW1hJywgJzIwMCcsICctbWV0YWxfYmluZGluZycsICctaW1hZScsICc8aW5maWxlLm1hZT4nLCAnLW9tYWUnLCAnPG91dGZpbGUubWFlPic=

> <r_lp_tautomer_probability>
1

> <r_epik_Ionization_Penalty>
5.11375

> <r_epik_Ionization_Penalty_Charging>
0.0788329

> <r_epik_Ionization_Penalty_Neutral>
5.03492

> <r_epik_State_Penalty>
5.02848

> <r_epik_Charging_Adjusted_Penalty>
5.10731

> <i_epik_Tot_Q>
-1

> <i_epik_Tot_abs_Q>
1

> <r_epik_Metal_State_Penalty>
1.14014

> <b_epik_Metal_Only>
1

> <s_lp_Force_Field>
OPLS_2005

> <r_lp_Energy>
42.0611

> <b_lp_Chiralities_Consistent>
1

> <s_lp_Variant>
AV-unprocessed.smi:535-4

> <Gold.Version>
5.8.1

> <Gold.Id.Protein>
6NUR|6NUR_protein|mol2

> <Gold.PLP.Fitness>
51.5943

> <Gold.PLP.PLP>
-45.7555

> <Gold.PLP.part.hbond>
-3.4815

> <Gold.PLP.part.metal>
0.0000

> <Gold.PLP.part.buried>
-5.0935

> <Gold.PLP.part.nonpolar>
-36.0644

> <Gold.PLP.part.repulsive>
1.0707

> <Gold.PLP.ligand.clash>
0.0716

> <Gold.PLP.ligand.torsion>
0.3658

> <Gold.PLP.Chemscore.Hbond>
2.1788

> <Gold.PLP.Chemscore.CHOScore>
0.0000

> <Gold.PLP.Chemscore.Metal>
0.0000

> <Gold.Chemscore.Hbonds>
donor molecule, donor type, donor heavy atom, donor atom, acceptor molecule, acceptor atom, score
      P1  H  7989  7998       L1    18  0.65
      P1  H  8011  8017       L1     2  0.09
      P1  H 10752 10765       L1    21  1.00

> <Gold.PLP.Chemscore.Internal.Correction>
0.1056

> <Gold.Rescore>
     Score         DG    S(hbond)    S(metal)    S(lipo)     H(rot)  DE(clash)    DE(int)     intcor
     15.11     -19.33       1.69        0.00     101.50       1.44       0.16       4.07       ----

> <Gold.Chemscore.Fitness>
15.1066

> <Gold.Chemscore.DG>
-19.3325

> <Gold.Chemscore.ZeroCoef>
-5.4800

> <Gold.Chemscore.Hbond>
1.6935

> <Gold.Chemscore.Metal>
0.0000

> <Gold.Chemscore.Lipo>
101.5010

> <Gold.Chemscore.Internal_Hbond>
0.0000

> <Gold.Chemscore.DEClash>
0.1593

> <Gold.Chemscore.DEInternal>
4.0666

> <Gold.Chemscore.Rot>
1.4372

> <Gold.Chemscore.Internal.Correction>
   9.000000E+99

> <Gold.Chemscore.Hbonds>
donor molecule, donor type, donor heavy atom, donor atom, acceptor molecule, acceptor atom, score
      P1  H  7989  7998       L1    18  0.51
      P1  H  8011  8017       L1     2  0.02
      P1  H 10752 10765       L1    21  0.50

> <Gold.Chemscore.Hbond.Weighted>
-5.6562

> <Gold.Chemscore.Metal.Weighted>
-0.0000

> <Gold.Chemscore.Lipo.Weighted>
-11.8756

> <Gold.Chemscore.Internal_Hbond.Weighted>
0.0000

> <Gold.Chemscore.DEClash.Weighted>
0.1593

> <Gold.Chemscore.DEInternal.Weighted>
4.0666

> <Gold.Chemscore.Rot.Weighted>
3.6793

> <Gold.Chemscore.Internal.Correction.Weighted>
   9.000000E+99

> <Gold.Protein.RotatedTorsions>
[ 6907 6896 6895 6894 ] final  -53.30 input  -60.11 | X-H torsion
[ 7974 7965 7964 7962 ] final  103.90 input  175.53 | X-H torsion
[ 8008 7997 7996 7995 ] final  145.62 input   59.86 | X-H torsion
[ 10167 10162 10161 10158 ] final    7.19 input  -65.29 | X-H torsion
[ 10718 10713 10712 10709 ] final  -32.69 input   66.30 | X-H torsion
[ 10763 10752 10751 10750 ] final -139.59 input  -60.55 | X-H torsion
[ 11005 11000 10999 10996 ] final -169.03 input  -57.11 | X-H torsion

> <Gold.Protein.ActiveResidues>
 VAL166  LYS551  ARG553  GLY616  TRP617  ASP618  TYR619  PRO620  LYS621  CYS622 
 ASP623  PHE694  ASN695  SER759  ASP760  ASP761  ALA762  ILE779  LEU786  VAL792 
 PHE793  MET794  SER795  GLU796  ALA797  LYS798  CYS799  TRP800  GLU811  SER814 

> <Gold.Protein.RotatedAtoms>
  150.8439  134.7741  159.6954 H   0  0  0  0  0  0  0  0  0  0  0  0  # atno 6907 bound_to 6896
  152.4520  134.5369  159.9837 H   0  0  0  0  0  0  0  0  0  0  0  0  # atno 6908 bound_to 6896
  151.5504  133.3380  159.2987 H   0  0  0  0  0  0  0  0  0  0  0  0  # atno 6909 bound_to 6896
  145.3398  139.2465  143.3615 H   0  0  0  0  0  0  0  0  0  0  0  0  # atno 7974 bound_to 7965
  156.2878  140.2204  156.5245 H   0  0  0  0  0  0  0  0  0  0  0  0  # atno 8008 bound_to 7997
  154.7500  140.0481  157.0907 H   0  0  0  0  0  0  0  0  0  0  0  0  # atno 8009 bound_to 7997
  155.0121  140.3114  155.4829 H   0  0  0  0  0  0  0  0  0  0  0  0  # atno 8010 bound_to 7997
  140.6385  143.7829  150.7394 H   0  0  0  0  0  0  0  0  0  0  0  0  # atno 10167 bound_to 10162
  156.3718  130.4341  149.7539 H   0  0  0  0  0  0  0  0  0  0  0  0  # atno 10718 bound_to 10713
  154.8604  135.3578  154.5571 H   0  0  0  0  0  0  0  0  0  0  0  0  # atno 10763 bound_to 10752
  153.6187  135.7007  153.5323 H   0  0  0  0  0  0  0  0  0  0  0  0  # atno 10764 bound_to 10752
  153.3147  135.4168  155.1326 H   0  0  0  0  0  0  0  0  0  0  0  0  # atno 10765 bound_to 10752
  140.5353  134.5575  157.5086 H   0  0  0  0  0  0  0  0  0  0  0  0  # atno 11005 bound_to 11000
  146.3012  140.3993  142.8703 LP  0  0  0  0  0  0  0  0  0  0  0  0  # atno 17320 bound_to 7965
  144.8799  140.7386  143.5993 LP  0  0  0  0  0  0  0  0  0  0  0  0  # atno 17321 bound_to 7965
  140.1455  143.4403  152.2166 LP  0  0  0  0  0  0  0  0  0  0  0  0  # atno 17342 bound_to 10162
  139.5595  144.7396  151.4196 LP  0  0  0  0  0  0  0  0  0  0  0  0  # atno 17343 bound_to 10162
  156.4664  130.7976  151.2995 LP  0  0  0  0  0  0  0  0  0  0  0  0  # atno 17370 bound_to 10713
  157.7484  131.0050  150.3095 LP  0  0  0  0  0  0  0  0  0  0  0  0  # atno 17371 bound_to 10713
  139.9532  134.7580  156.0400 LP  0  0  0  0  0  0  0  0  0  0  0  0  # atno 17394 bound_to 11000
  141.1258  133.6600  156.3333 LP  0  0  0  0  0  0  0  0  0  0  0  0  # atno 17395 bound_to 11000

$$$$
