AV-unprocessed.smi:2039|AV-procd|sdf|8285|dock2
  -GOLD-   2272010553D 1   1.00000     0.00000
 Structure written by MMmdl.
 32 33  0  0  0  0  0  0  0  0  2 V2000
  148.3508  125.2434  150.4252 C   0  0  0  0  0  0  0  0  0  0  0  0
  148.5683  126.3511  151.3980 C   0  0  0  0  0  0  0  0  0  0  0  0
  149.3999  126.2462  152.4374 N   0  0  0  0  0  0  0  0  0  0  0  0
  149.4361  127.4069  153.1967 N   0  0  0  0  0  0  0  0  0  0  0  0
  148.6410  128.3741  152.7173 C   0  0  0  0  0  0  0  0  0  0  0  0
  148.5301  129.5752  153.3088 N   0  5  0  0  0  0  0  0  0  0  0  0
  147.3615  130.2540  153.2472 C   0  0  0  0  0  0  0  0  0  0  0  0
  146.4665  130.2445  154.0957 O   0  0  0  0  0  0  0  0  0  0  0  0
  147.2222  130.9893  152.1343 N   0  0  0  0  0  0  0  0  0  0  0  0
  146.0753  131.8273  151.7934 C   0  0  2  0  0  0  0  0  0  0  0  0
  144.9969  131.0034  151.0614 C   0  0  0  0  0  0  0  0  0  0  0  0
  143.8056  131.8813  150.6399 C   0  0  0  0  0  0  0  0  0  0  0  0
  144.2421  133.0981  149.8017 C   0  0  2  0  0  0  0  0  0  0  0  0
  144.6762  132.6781  148.5232 O   0  0  0  0  0  0  0  0  0  0  0  0
  145.3567  133.8988  150.5011 C   0  0  0  0  0  0  0  0  0  0  0  0
  146.5392  133.0083  150.9220 C   0  0  0  0  0  0  0  0  0  0  0  0
  147.7540  127.9009  151.2683 S   0  0  0  0  0  0  0  0  0  0  0  0
  149.1749  125.2075  149.7126 H   0  0  0  0  0  0  0  0  0  0  0  0
  147.4204  125.3970  149.8782 H   0  0  0  0  0  0  0  0  0  0  0  0
  148.2941  124.2877  150.9469 H   0  0  0  0  0  0  0  0  0  0  0  0
  147.9799  130.9641  151.4680 H   0  0  0  0  0  0  0  0  0  0  0  0
  145.6479  132.2343  152.7119 H   0  0  0  0  0  0  0  0  0  0  0  0
  145.4302  130.5282  150.1801 H   0  0  0  0  0  0  0  0  0  0  0  0
  144.6422  130.1950  151.7015 H   0  0  0  0  0  0  0  0  0  0  0  0
  143.0757  131.2847  150.0916 H   0  0  0  0  0  0  0  0  0  0  0  0
  143.2956  132.2339  151.5373 H   0  0  0  0  0  0  0  0  0  0  0  0
  143.3815  133.7492  149.6452 H   0  0  0  0  0  0  0  0  0  0  0  0
  145.2638  133.3315  148.1757 H   0  0  0  0  0  0  0  0  0  0  0  0
  145.7054  134.7055  149.8554 H   0  0  0  0  0  0  0  0  0  0  0  0
  144.9442  134.3784  151.3896 H   0  0  0  0  0  0  0  0  0  0  0  0
  147.2710  133.6070  151.4656 H   0  0  0  0  0  0  0  0  0  0  0  0
  147.0488  132.6346  150.0326 H   0  0  0  0  0  0  0  0  0  0  0  0
  1  2  1  0  0  0  0
  1 18  1  0  0  0  0
  1 19  1  0  0  0  0
  1 20  1  0  0  0  0
  2 17  1  0  0  0  0
  2  3  2  0  0  0  0
  3  4  1  0  0  0  0
  4  5  2  0  0  0  0
  5  6  1  0  0  0  0
  5 17  1  0  0  0  0
  6  7  1  0  0  0  0
  7  8  2  0  0  0  0
  7  9  1  0  0  0  0
  9 10  1  0  0  0  0
  9 21  1  0  0  0  0
 10 16  1  0  0  0  0
 10 11  1  0  0  0  0
 10 22  1  0  0  0  0
 11 12  1  0  0  0  0
 11 23  1  0  0  0  0
 11 24  1  0  0  0  0
 12 13  1  0  0  0  0
 12 25  1  0  0  0  0
 12 26  1  0  0  0  0
 13 14  1  0  0  0  0
 13 15  1  0  0  0  0
 13 27  1  0  0  0  0
 14 28  1  0  0  0  0
 15 16  1  0  0  0  0
 15 29  1  0  0  0  0
 15 30  1  0  0  0  0
 16 31  1  0  0  0  0
 16 32  1  0  0  0  0
M  CHG  1   6  -1
M  END
> <s_m_source_file>
AV-unprocessed.smi

> <i_m_source_file_index>
2039

> <i_lp_mmshare_version>
43012

> <i_f3d_flags>
0

> <s_epik_input>
W0NIM11jMW5uYyhzMSlbTkhdQyg9TylbTkhdW0NAQEhdMltDSDJdW0NIMl1bQ0BASF0oW09IXSlbQ0gyXVtDSDJdMg==

> <s_epik_cmdline>
J2VwaWtfcHl0aG9uJywgJy1waCcsICc3LjAnLCAnLXRuJywgJzgnLCAnLW1hJywgJzIwMCcsICctbWV0YWxfYmluZGluZycsICctaW1hZScsICc8aW5maWxlLm1hZT4nLCAnLW9tYWUnLCAnPG91dGZpbGUubWFlPic=

> <r_lp_tautomer_probability>
1

> <r_epik_Ionization_Penalty>
4.54927

> <r_epik_Ionization_Penalty_Charging>
4.39069

> <r_epik_Ionization_Penalty_Neutral>
0.158583

> <r_epik_State_Penalty>
4.39033

> <r_epik_Charging_Adjusted_Penalty>
8.78102

> <i_epik_Tot_Q>
-1

> <i_epik_Tot_abs_Q>
1

> <r_epik_Metal_State_Penalty>
0.767247

> <b_epik_Metal_Only>
1

> <s_lp_Force_Field>
OPLS_2005

> <r_lp_Energy>
8.24255

> <b_lp_Chiralities_Consistent>
1

> <s_lp_Variant>
AV-unprocessed.smi:2039-4

> <Gold.Version>
5.8.1

> <Gold.Id.Protein>
6NUR|6NUR_protein|mol2

> <Gold.PLP.Fitness>
37.0751

> <Gold.PLP.PLP>
-33.7017

> <Gold.PLP.part.hbond>
-3.0000

> <Gold.PLP.part.metal>
0.0000

> <Gold.PLP.part.buried>
-5.1037

> <Gold.PLP.part.nonpolar>
-26.6867

> <Gold.PLP.part.repulsive>
1.1894

> <Gold.PLP.ligand.clash>
0.0000

> <Gold.PLP.ligand.torsion>
1.3166

> <Gold.PLP.Chemscore.Hbond>
2.0000

> <Gold.PLP.Chemscore.CHOScore>
0.0000

> <Gold.PLP.Chemscore.Metal>
0.0000

> <Gold.Chemscore.Hbonds>
donor molecule, donor type, donor heavy atom, donor atom, acceptor molecule, acceptor atom, score
      L1  H     9    21       P1 10747  1.00
      L1  H    14    28       P1  7921  1.00

> <Gold.PLP.Chemscore.Internal.Correction>
0.0065

> <Gold.Rescore>
     Score         DG    S(hbond)    S(metal)    S(lipo)     H(rot)  DE(clash)    DE(int)     intcor
     15.47     -16.83       1.98        0.00      73.13       1.49       0.12       1.25       ----

> <Gold.Chemscore.Fitness>
15.4651

> <Gold.Chemscore.DG>
-16.8317

> <Gold.Chemscore.ZeroCoef>
-5.4800

> <Gold.Chemscore.Hbond>
1.9769

> <Gold.Chemscore.Metal>
0.0000

> <Gold.Chemscore.Lipo>
73.1319

> <Gold.Chemscore.Internal_Hbond>
0.0000

> <Gold.Chemscore.DEClash>
0.1168

> <Gold.Chemscore.DEInternal>
1.2498

> <Gold.Chemscore.Rot>
1.4873

> <Gold.Chemscore.Internal.Correction>
   9.000000E+99

> <Gold.Chemscore.Hbonds>
donor molecule, donor type, donor heavy atom, donor atom, acceptor molecule, acceptor atom, score
      L1  H     9    21       P1 10747  0.95
      L1  H    14    28       P1  7921  0.26

> <Gold.Chemscore.Hbond.Weighted>
-6.6027

> <Gold.Chemscore.Metal.Weighted>
-0.0000

> <Gold.Chemscore.Lipo.Weighted>
-8.5564

> <Gold.Chemscore.Internal_Hbond.Weighted>
0.0000

> <Gold.Chemscore.DEClash.Weighted>
0.1168

> <Gold.Chemscore.DEInternal.Weighted>
1.2498

> <Gold.Chemscore.Rot.Weighted>
3.8075

> <Gold.Chemscore.Internal.Correction.Weighted>
   9.000000E+99

> <Gold.Protein.RotatedTorsions>
[ 6907 6896 6895 6894 ] final   31.24 input  -60.11 | X-H torsion
[ 7974 7965 7964 7962 ] final  -80.70 input  175.53 | X-H torsion
[ 8008 7997 7996 7995 ] final   80.05 input   59.86 | X-H torsion
[ 10167 10162 10161 10158 ] final  -59.61 input  -65.29 | X-H torsion
[ 10718 10713 10712 10709 ] final -169.49 input   66.30 | X-H torsion
[ 10763 10752 10751 10750 ] final  -59.05 input  -60.55 | X-H torsion
[ 11005 11000 10999 10996 ] final   -8.99 input  -57.11 | X-H torsion

> <Gold.Protein.ActiveResidues>
 VAL166  LYS551  ARG553  GLY616  TRP617  ASP618  TYR619  PRO620  LYS621  CYS622 
 ASP623  PHE694  ASN695  SER759  ASP760  ASP761  ALA762  ILE779  LEU786  VAL792 
 PHE793  MET794  SER795  GLU796  ALA797  LYS798  CYS799  TRP800  GLU811  SER814 

> <Gold.Protein.RotatedAtoms>
  152.0575  134.9615  160.0574 H   0  0  0  0  0  0  0  0  0  0  0  0  # atno 6907 bound_to 6896
  152.0991  133.4235  159.4587 H   0  0  0  0  0  0  0  0  0  0  0  0  # atno 6908 bound_to 6896
  150.6839  134.2700  159.4628 H   0  0  0  0  0  0  0  0  0  0  0  0  # atno 6909 bound_to 6896
  145.5564  140.9489  143.1471 H   0  0  0  0  0  0  0  0  0  0  0  0  # atno 7974 bound_to 7965
  155.8781  140.3445  155.5868 H   0  0  0  0  0  0  0  0  0  0  0  0  # atno 8008 bound_to 7997
  155.7751  140.0850  157.2107 H   0  0  0  0  0  0  0  0  0  0  0  0  # atno 8009 bound_to 7997
  154.4022  140.1511  156.2974 H   0  0  0  0  0  0  0  0  0  0  0  0  # atno 8010 bound_to 7997
  140.6124  143.2391  151.5678 H   0  0  0  0  0  0  0  0  0  0  0  0  # atno 10167 bound_to 10162
  156.7124  130.9238  151.3090 H   0  0  0  0  0  0  0  0  0  0  0  0  # atno 10718 bound_to 10713
  154.2477  135.6332  153.5229 H   0  0  0  0  0  0  0  0  0  0  0  0  # atno 10763 bound_to 10752
  152.9918  135.5557  154.5841 H   0  0  0  0  0  0  0  0  0  0  0  0  # atno 10764 bound_to 10752
  154.5361  135.2891  155.1111 H   0  0  0  0  0  0  0  0  0  0  0  0  # atno 10765 bound_to 10752
  140.7293  133.8762  155.8881 H   0  0  0  0  0  0  0  0  0  0  0  0  # atno 11005 bound_to 11000
  144.7504  139.7209  143.7275 LP  0  0  0  0  0  0  0  0  0  0  0  0  # atno 17320 bound_to 7965
  146.1881  139.5107  142.9823 LP  0  0  0  0  0  0  0  0  0  0  0  0  # atno 17321 bound_to 7965
  139.5371  144.2749  152.1275 LP  0  0  0  0  0  0  0  0  0  0  0  0  # atno 17342 bound_to 10162
  140.1951  144.4713  150.6459 LP  0  0  0  0  0  0  0  0  0  0  0  0  # atno 17343 bound_to 10162
  157.6931  130.9254  150.0568 LP  0  0  0  0  0  0  0  0  0  0  0  0  # atno 17370 bound_to 10713
  156.1652  130.3645  149.9243 LP  0  0  0  0  0  0  0  0  0  0  0  0  # atno 17371 bound_to 10713
  140.9935  134.1247  157.4386 LP  0  0  0  0  0  0  0  0  0  0  0  0  # atno 17394 bound_to 11000
  139.8830  135.0047  156.6268 LP  0  0  0  0  0  0  0  0  0  0  0  0  # atno 17395 bound_to 11000

$$$$
