AV-unprocessed.smi:2403|AV-procd|sdf|9509|dock4
  -GOLD-   2272013133D 1   1.00000     0.00000
 Structure written by MMmdl.
 47 49  0  0  0  0  0  0  0  0  1 V2000
  154.4350  128.6851  154.4003 C   0  0  0  0  0  0  0  0  0  0  0  0
  153.7636  129.7703  155.2233 C   0  0  0  0  0  0  0  0  0  0  0  0
  154.5333  130.5661  156.0969 C   0  0  0  0  0  0  0  0  0  0  0  0
  153.8849  131.5638  156.8499 C   0  0  0  0  0  0  0  0  0  0  0  0
  152.5578  131.7949  156.7844 N   0  0  0  0  0  0  0  0  0  0  0  0
  151.8231  131.0334  155.9463 C   0  0  0  0  0  0  0  0  0  0  0  0
  152.3719  130.0123  155.1312 C   0  0  0  0  0  0  0  0  0  0  0  0
  151.5803  129.2016  154.2714 N   0  0  0  0  0  0  0  0  0  0  0  0
  150.2569  128.9798  154.3350 C   0  0  0  0  0  0  0  0  0  0  0  0
  149.4976  129.4651  155.1735 O   0  0  0  0  0  0  0  0  0  0  0  0
  149.8506  128.1823  153.3312 N   0  0  0  0  0  0  0  0  0  0  0  0
  148.4783  127.7360  153.0244 C   0  0  0  0  0  0  0  0  0  0  0  0
  147.8791  126.8084  154.1210 C   0  0  0  0  0  0  0  0  0  0  0  0
  147.4377  125.7000  153.8140 O   0  0  0  0  0  0  0  0  0  0  0  0
  147.8445  127.2599  155.3854 N   0  0  0  0  0  0  0  0  0  0  0  0
  147.3276  126.5193  156.5252 C   0  0  0  0  0  0  0  0  0  0  0  0
  145.8844  126.0901  156.3668 C   0  0  0  0  0  0  0  0  0  0  0  0
  145.0147  126.6983  155.2922 C   0  0  0  0  0  0  0  0  0  0  0  0
  144.7520  127.0158  156.7450 C   0  0  0  0  0  0  0  0  0  0  0  0
  147.5816  128.9917  152.8952 C   0  0  0  0  0  0  0  0  0  0  0  0
  146.5870  128.6997  151.7734 C   0  0  0  0  0  0  0  0  0  0  0  0
  147.3964  127.8871  150.7720 C   0  0  0  0  0  0  0  0  0  0  0  0
  148.3974  127.0810  151.6094 C   0  0  0  0  0  0  0  0  0  0  0  0
  155.5129  128.6725  154.5644 H   0  0  0  0  0  0  0  0  0  0  0  0
  154.2593  128.8492  153.3368 H   0  0  0  0  0  0  0  0  0  0  0  0
  154.0405  127.7052  154.6694 H   0  0  0  0  0  0  0  0  0  0  0  0
  155.5992  130.4189  156.1921 H   0  0  0  0  0  0  0  0  0  0  0  0
  154.4471  132.1893  157.5274 H   0  0  0  0  0  0  0  0  0  0  0  0
  150.7644  131.2428  155.9555 H   0  0  0  0  0  0  0  0  0  0  0  0
  152.0600  128.8202  153.4692 H   0  0  0  0  0  0  0  0  0  0  0  0
  150.5638  127.8504  152.6988 H   0  0  0  0  0  0  0  0  0  0  0  0
  148.2222  128.1780  155.5694 H   0  0  0  0  0  0  0  0  0  0  0  0
  147.9521  125.6411  156.6968 H   0  0  0  0  0  0  0  0  0  0  0  0
  147.4012  127.1414  157.4187 H   0  0  0  0  0  0  0  0  0  0  0  0
  145.7215  125.0302  156.5541 H   0  0  0  0  0  0  0  0  0  0  0  0
  145.4452  127.4852  154.6762 H   0  0  0  0  0  0  0  0  0  0  0  0
  144.3096  126.0423  154.7859 H   0  0  0  0  0  0  0  0  0  0  0  0
  143.8739  126.5701  157.2078 H   0  0  0  0  0  0  0  0  0  0  0  0
  145.0071  128.0143  157.0944 H   0  0  0  0  0  0  0  0  0  0  0  0
  147.0724  129.2588  153.8228 H   0  0  0  0  0  0  0  0  0  0  0  0
  148.1798  129.8592  152.6107 H   0  0  0  0  0  0  0  0  0  0  0  0
  145.7588  128.1010  152.1543 H   0  0  0  0  0  0  0  0  0  0  0  0
  146.1683  129.6067  151.3365 H   0  0  0  0  0  0  0  0  0  0  0  0
  146.7673  127.2523  150.1472 H   0  0  0  0  0  0  0  0  0  0  0  0
  147.9391  128.5643  150.1111 H   0  0  0  0  0  0  0  0  0  0  0  0
  149.3582  127.0636  151.0942 H   0  0  0  0  0  0  0  0  0  0  0  0
  148.0759  126.0398  151.6626 H   0  0  0  0  0  0  0  0  0  0  0  0
  1  2  1  0  0  0  0
  1 24  1  0  0  0  0
  1 25  1  0  0  0  0
  1 26  1  0  0  0  0
  2  7  1  0  0  0  0
  2  3  2  0  0  0  0
  3  4  1  0  0  0  0
  3 27  1  0  0  0  0
  4  5  2  0  0  0  0
  4 28  1  0  0  0  0
  5  6  1  0  0  0  0
  6  7  2  0  0  0  0
  6 29  1  0  0  0  0
  7  8  1  0  0  0  0
  8  9  1  0  0  0  0
  8 30  1  0  0  0  0
  9 10  2  0  0  0  0
  9 11  1  0  0  0  0
 11 12  1  0  0  0  0
 11 31  1  0  0  0  0
 12 23  1  0  0  0  0
 12 13  1  0  0  0  0
 12 20  1  0  0  0  0
 13 14  2  0  0  0  0
 13 15  1  0  0  0  0
 15 16  1  0  0  0  0
 15 32  1  0  0  0  0
 16 17  1  0  0  0  0
 16 33  1  0  0  0  0
 16 34  1  0  0  0  0
 17 19  1  0  0  0  0
 17 18  1  0  0  0  0
 17 35  1  0  0  0  0
 18 19  1  0  0  0  0
 18 36  1  0  0  0  0
 18 37  1  0  0  0  0
 19 38  1  0  0  0  0
 19 39  1  0  0  0  0
 20 21  1  0  0  0  0
 20 40  1  0  0  0  0
 20 41  1  0  0  0  0
 21 22  1  0  0  0  0
 21 42  1  0  0  0  0
 21 43  1  0  0  0  0
 22 23  1  0  0  0  0
 22 44  1  0  0  0  0
 22 45  1  0  0  0  0
 23 46  1  0  0  0  0
 23 47  1  0  0  0  0
M  END
> <s_m_source_file>
AV-unprocessed.smi

> <i_m_source_file_index>
2403

> <i_lp_mmshare_version>
43012

> <i_f3d_flags>
0

> <s_epik_input>
W0NIM11jMVtjSF1bY0hdbltjSF1jMVtOSF1DKD1PKVtOSF1DMihbQ0gyXVtDSDJdW0NIMl1bQ0gyXTIpQyg9TylbTkhdW0NIMl1bQ0hdM1tDSDJdW0NIMl0z

> <s_epik_cmdline>
J2VwaWtfcHl0aG9uJywgJy1waCcsICc3LjAnLCAnLXRuJywgJzgnLCAnLW1hJywgJzIwMCcsICctbWV0YWxfYmluZGluZycsICctaW1hZScsICc8aW5maWxlLm1hZT4nLCAnLW9tYWUnLCAnPG91dGZpbGUubWFlPic=

> <r_epik_Ionization_Penalty>
0.0192934

> <r_epik_Ionization_Penalty_Charging>
0

> <r_epik_Ionization_Penalty_Neutral>
0.0192934

> <r_epik_State_Penalty>
0.0153733

> <r_epik_Charging_Adjusted_Penalty>
0.0153733

> <i_epik_Tot_Q>
0

> <i_epik_Tot_abs_Q>
0

> <r_epik_Metal_State_Penalty>
0.014888

> <b_epik_Metal_Only>
0

> <s_lp_Force_Field>
OPLS_2005

> <r_lp_Energy>
32.7874

> <b_lp_Chiralities_Consistent>
1

> <s_lp_Variant>
AV-unprocessed.smi:2403-1

> <Gold.Version>
5.8.1

> <Gold.Id.Protein>
6NUR|6NUR_protein|mol2

> <Gold.PLP.Fitness>
41.0060

> <Gold.PLP.PLP>
-35.8290

> <Gold.PLP.part.hbond>
-3.0000

> <Gold.PLP.part.metal>
0.0000

> <Gold.PLP.part.buried>
-6.4069

> <Gold.PLP.part.nonpolar>
-26.8380

> <Gold.PLP.part.repulsive>
0.1558

> <Gold.PLP.ligand.clash>
0.0000

> <Gold.PLP.ligand.torsion>
0.7214

> <Gold.PLP.Chemscore.Hbond>
1.9913

> <Gold.PLP.Chemscore.CHOScore>
0.0000

> <Gold.PLP.Chemscore.Metal>
0.0000

> <Gold.Chemscore.Hbonds>
donor molecule, donor type, donor heavy atom, donor atom, acceptor molecule, acceptor atom, score
      L1  H     8    30       P1 10737  0.99
      L1  H    11    31       P1 10737  1.00

> <Gold.PLP.Chemscore.Internal.Correction>
0.6461

> <Gold.Rescore>
     Score         DG    S(hbond)    S(metal)    S(lipo)     H(rot)  DE(clash)    DE(int)     intcor
     14.38     -16.40       1.71        0.00      79.37       1.59       0.08       1.94       ----

> <Gold.Chemscore.Fitness>
14.3828

> <Gold.Chemscore.DG>
-16.4001

> <Gold.Chemscore.ZeroCoef>
-5.4800

> <Gold.Chemscore.Hbond>
1.7111

> <Gold.Chemscore.Metal>
0.0000

> <Gold.Chemscore.Lipo>
79.3660

> <Gold.Chemscore.Internal_Hbond>
0.0000

> <Gold.Chemscore.DEClash>
0.0765

> <Gold.Chemscore.DEInternal>
1.9408

> <Gold.Chemscore.Rot>
1.5941

> <Gold.Chemscore.Internal.Correction>
   9.000000E+99

> <Gold.Chemscore.Hbonds>
donor molecule, donor type, donor heavy atom, donor atom, acceptor molecule, acceptor atom, score
      L1  H     8    30       P1 10737  0.35
      L1  H    11    31       P1 10737  1.00

> <Gold.Chemscore.Hbond.Weighted>
-5.7152

> <Gold.Chemscore.Metal.Weighted>
-0.0000

> <Gold.Chemscore.Lipo.Weighted>
-9.2858

> <Gold.Chemscore.Internal_Hbond.Weighted>
0.0000

> <Gold.Chemscore.DEClash.Weighted>
0.0765

> <Gold.Chemscore.DEInternal.Weighted>
1.9408

> <Gold.Chemscore.Rot.Weighted>
4.0809

> <Gold.Chemscore.Internal.Correction.Weighted>
   9.000000E+99

> <Gold.Protein.RotatedTorsions>
[ 6907 6896 6895 6894 ] final  -58.74 input  -60.11 | X-H torsion
[ 7974 7965 7964 7962 ] final  -81.79 input  175.53 | X-H torsion
[ 8008 7997 7996 7995 ] final   45.62 input   59.86 | X-H torsion
[ 10167 10162 10161 10158 ] final   15.31 input  -65.29 | X-H torsion
[ 10718 10713 10712 10709 ] final  -37.81 input   66.30 | X-H torsion
[ 10763 10752 10751 10750 ] final -162.60 input  -60.55 | X-H torsion
[ 11005 11000 10999 10996 ] final  -54.91 input  -57.11 | X-H torsion

> <Gold.Protein.ActiveResidues>
 VAL166  LYS551  ARG553  GLY616  TRP617  ASP618  TYR619  PRO620  LYS621  CYS622 
 ASP623  PHE694  ASN695  SER759  ASP760  ASP761  ALA762  ILE779  LEU786  VAL792 
 PHE793  MET794  SER795  GLU796  ALA797  LYS798  CYS799  TRP800  GLU811  SER814 

> <Gold.Protein.RotatedAtoms>
  150.7983  134.7059  159.6576 H   0  0  0  0  0  0  0  0  0  0  0  0  # atno 6907 bound_to 6896
  152.4098  134.6141  160.0043 H   0  0  0  0  0  0  0  0  0  0  0  0  # atno 6908 bound_to 6896
  151.6387  133.3290  159.3161 H   0  0  0  0  0  0  0  0  0  0  0  0  # atno 6909 bound_to 6896
  145.5420  140.9508  143.1546 H   0  0  0  0  0  0  0  0  0  0  0  0  # atno 7974 bound_to 7965
  155.3389  140.3407  155.4239 H   0  0  0  0  0  0  0  0  0  0  0  0  # atno 8008 bound_to 7997
  156.1823  140.1668  156.8286 H   0  0  0  0  0  0  0  0  0  0  0  0  # atno 8009 bound_to 7997
  154.5348  140.0737  156.8391 H   0  0  0  0  0  0  0  0  0  0  0  0  # atno 8010 bound_to 7997
  140.5876  143.8859  150.6844 H   0  0  0  0  0  0  0  0  0  0  0  0  # atno 10167 bound_to 10162
  156.3109  130.4252  149.8051 H   0  0  0  0  0  0  0  0  0  0  0  0  # atno 10718 bound_to 10713
  154.7199  135.3023  154.9064 H   0  0  0  0  0  0  0  0  0  0  0  0  # atno 10763 bound_to 10752
  153.9939  135.6715  153.4759 H   0  0  0  0  0  0  0  0  0  0  0  0  # atno 10764 bound_to 10752
  153.0825  135.5001  154.8448 H   0  0  0  0  0  0  0  0  0  0  0  0  # atno 10765 bound_to 10752
  141.1048  133.6614  156.4390 H   0  0  0  0  0  0  0  0  0  0  0  0  # atno 11005 bound_to 11000
  144.7572  139.7045  143.7249 LP  0  0  0  0  0  0  0  0  0  0  0  0  # atno 17320 bound_to 7965
  146.1975  139.5249  142.9765 LP  0  0  0  0  0  0  0  0  0  0  0  0  # atno 17321 bound_to 7965
  140.2374  143.3689  152.1515 LP  0  0  0  0  0  0  0  0  0  0  0  0  # atno 17342 bound_to 10162
  139.5207  144.7036  151.5420 LP  0  0  0  0  0  0  0  0  0  0  0  0  # atno 17343 bound_to 10162
  156.5394  130.8293  151.3264 LP  0  0  0  0  0  0  0  0  0  0  0  0  # atno 17370 bound_to 10713
  157.7391  130.9825  150.2291 LP  0  0  0  0  0  0  0  0  0  0  0  0  # atno 17371 bound_to 10713
  140.4929  134.6558  157.5218 LP  0  0  0  0  0  0  0  0  0  0  0  0  # atno 17394 bound_to 11000
  139.9914  134.6979  155.9683 LP  0  0  0  0  0  0  0  0  0  0  0  0  # atno 17395 bound_to 11000

$$$$
