AV-unprocessed.smi:1592|AV-procd|sdf|6402|dock4
  -GOLD-   22720 7 33D 1   1.00000     0.00000
 Structure written by MMmdl.
 27 28  0  0  0  0  0  0  0  0  1 V2000
  153.0025  140.3916  159.2018 O   0  0  0  0  0  0  0  0  0  0  0  0
  152.3964  141.4212  158.9022 C   0  0  0  0  0  0  0  0  0  0  0  0
  151.6280  141.5659  157.8068 N   0  0  0  0  0  0  0  0  0  0  0  0
  151.3317  140.6083  156.7974 C   0  0  0  0  0  0  0  0  0  0  0  0
  152.2324  139.6941  156.3569 N   0  0  0  0  0  0  0  0  0  0  0  0
  151.8726  138.8192  155.3949 C   0  0  0  0  0  0  0  0  0  0  0  0
  150.5928  138.7998  154.8127 C   0  0  0  0  0  0  0  0  0  0  0  0
  149.6482  139.7402  155.2590 C   0  0  0  0  0  0  0  0  0  0  0  0
  150.0184  140.6571  156.2635 C   0  0  0  0  0  0  0  0  0  0  0  0
  149.1039  141.5748  156.7016 O   0  0  0  0  0  0  0  0  0  0  0  0
  152.5086  142.6600  159.7985 C   0  0  1  0  0  0  0  0  0  0  0  0
  153.0445  143.9121  159.0785 C   0  0  0  0  0  0  0  0  0  0  0  0
  151.8452  144.8382  159.0245 C   0  0  0  0  0  0  0  0  0  0  0  0
  151.0649  144.4131  160.2597 C   0  0  0  0  0  0  0  0  0  0  0  0
  151.1993  143.0011  160.2498 O   0  0  0  0  0  0  0  0  0  0  0  0
  151.2011  142.4717  157.6768 H   0  0  0  0  0  0  0  0  0  0  0  0
  152.6279  138.1143  155.0808 H   0  0  0  0  0  0  0  0  0  0  0  0
  150.3436  138.0829  154.0444 H   0  0  0  0  0  0  0  0  0  0  0  0
  148.6546  139.7573  154.8357 H   0  0  0  0  0  0  0  0  0  0  0  0
  149.1516  142.3966  156.2372 H   0  0  0  0  0  0  0  0  0  0  0  0
  153.1354  142.4430  160.6651 H   0  0  0  0  0  0  0  0  0  0  0  0
  153.8383  144.3645  159.6743 H   0  0  0  0  0  0  0  0  0  0  0  0
  153.4550  143.7177  158.0865 H   0  0  0  0  0  0  0  0  0  0  0  0
  152.1172  145.8938  159.0316 H   0  0  0  0  0  0  0  0  0  0  0  0
  151.2590  144.6399  158.1263 H   0  0  0  0  0  0  0  0  0  0  0  0
  151.5161  144.8182  161.1667 H   0  0  0  0  0  0  0  0  0  0  0  0
  150.0189  144.7181  160.2255 H   0  0  0  0  0  0  0  0  0  0  0  0
  1  2  2  0  0  0  0
  2  3  1  0  0  0  0
  2 11  1  0  0  0  0
  3  4  1  0  0  0  0
  3 16  1  0  0  0  0
  4  9  1  0  0  0  0
  4  5  2  0  0  0  0
  5  6  1  0  0  0  0
  6  7  2  0  0  0  0
  6 17  1  0  0  0  0
  7  8  1  0  0  0  0
  7 18  1  0  0  0  0
  8  9  2  0  0  0  0
  8 19  1  0  0  0  0
  9 10  1  0  0  0  0
 10 20  1  0  0  0  0
 11 15  1  0  0  0  0
 11 12  1  0  0  0  0
 11 21  1  0  0  0  0
 12 13  1  0  0  0  0
 12 22  1  0  0  0  0
 12 23  1  0  0  0  0
 13 14  1  0  0  0  0
 13 24  1  0  0  0  0
 13 25  1  0  0  0  0
 14 15  1  0  0  0  0
 14 26  1  0  0  0  0
 14 27  1  0  0  0  0
M  END
> <s_m_source_file>
AV-unprocessed.smi

> <i_m_source_file_index>
1592

> <i_lp_mmshare_version>
43012

> <i_f3d_flags>
0

> <s_epik_input>
TzFbQ0gyXVtDSDJdW0NIMl1bQ0BIXTFDKD1PKVtOSF1jMm5bY0hdW2NIXVtjSF1jMltPSF0=

> <s_epik_cmdline>
J2VwaWtfcHl0aG9uJywgJy1waCcsICc3LjAnLCAnLXRuJywgJzgnLCAnLW1hJywgJzIwMCcsICctbWV0YWxfYmluZGluZycsICctaW1hZScsICc8aW5maWxlLm1hZT4nLCAnLW9tYWUnLCAnPG91dGZpbGUubWFlPic=

> <r_lp_tautomer_probability>
0.43658

> <r_epik_Ionization_Penalty>
0.0209102

> <r_epik_Ionization_Penalty_Charging>
0

> <r_epik_Ionization_Penalty_Neutral>
0.0209102

> <r_epik_State_Penalty>
0.412899

> <r_epik_Charging_Adjusted_Penalty>
0.412899

> <i_epik_Tot_Q>
0

> <i_epik_Tot_abs_Q>
0

> <r_epik_Metal_State_Penalty>
0.372161

> <b_epik_Metal_Only>
0

> <s_lp_Force_Field>
OPLS_2005

> <r_lp_Energy>
20.3979

> <b_lp_Chiralities_Consistent>
1

> <s_lp_Variant>
AV-unprocessed.smi:1592-2

> <Gold.Version>
5.8.1

> <Gold.Id.Protein>
6NUR|6NUR_protein|mol2

> <Gold.PLP.Fitness>
39.2851

> <Gold.PLP.PLP>
-34.1576

> <Gold.PLP.part.hbond>
-2.9280

> <Gold.PLP.part.metal>
0.0000

> <Gold.PLP.part.buried>
-3.2578

> <Gold.PLP.part.nonpolar>
-28.0173

> <Gold.PLP.part.repulsive>
0.1077

> <Gold.PLP.ligand.clash>
0.0000

> <Gold.PLP.ligand.torsion>
0.2693

> <Gold.PLP.Chemscore.Hbond>
1.8863

> <Gold.PLP.Chemscore.CHOScore>
0.0000

> <Gold.PLP.Chemscore.Metal>
0.0000

> <Gold.Chemscore.Hbonds>
donor molecule, donor type, donor heavy atom, donor atom, acceptor molecule, acceptor atom, score
      L1  H    10    20       P1  8028  0.06
      P1  H  7997  8008       L1     5  0.70

> <Gold.PLP.Chemscore.Internal.Correction>
0.0074

> <Gold.Rescore>
     Score         DG    S(hbond)    S(metal)    S(lipo)     H(rot)  DE(clash)    DE(int)     intcor
     15.30     -16.72       1.71        0.00      79.52       1.47       0.12       1.30       ----

> <Gold.Chemscore.Fitness>
15.3020

> <Gold.Chemscore.DG>
-16.7218

> <Gold.Chemscore.ZeroCoef>
-5.4800

> <Gold.Chemscore.Hbond>
1.7103

> <Gold.Chemscore.Metal>
0.0000

> <Gold.Chemscore.Lipo>
79.5156

> <Gold.Chemscore.Internal_Hbond>
0.0000

> <Gold.Chemscore.DEClash>
0.1242

> <Gold.Chemscore.DEInternal>
1.2955

> <Gold.Chemscore.Rot>
1.4742

> <Gold.Chemscore.Internal.Correction>
   9.000000E+99

> <Gold.Chemscore.Hbonds>
donor molecule, donor type, donor heavy atom, donor atom, acceptor molecule, acceptor atom, score
      L1  H    10    20       P1  8028  0.10
      P1  H  7997  8008       L1     5  0.56

> <Gold.Chemscore.Hbond.Weighted>
-5.7123

> <Gold.Chemscore.Metal.Weighted>
-0.0000

> <Gold.Chemscore.Lipo.Weighted>
-9.3033

> <Gold.Chemscore.Internal_Hbond.Weighted>
0.0000

> <Gold.Chemscore.DEClash.Weighted>
0.1242

> <Gold.Chemscore.DEInternal.Weighted>
1.2955

> <Gold.Chemscore.Rot.Weighted>
3.7739

> <Gold.Chemscore.Internal.Correction.Weighted>
   9.000000E+99

> <Gold.Protein.RotatedTorsions>
[ 6907 6896 6895 6894 ] final   83.88 input  -60.11 | X-H torsion
[ 7974 7965 7964 7962 ] final   80.59 input  175.53 | X-H torsion
[ 8008 7997 7996 7995 ] final  -39.10 input   59.86 | X-H torsion
[ 10167 10162 10161 10158 ] final -108.69 input  -65.29 | X-H torsion
[ 10718 10713 10712 10709 ] final  -79.06 input   66.30 | X-H torsion
[ 10763 10752 10751 10750 ] final  174.01 input  -60.55 | X-H torsion
[ 11005 11000 10999 10996 ] final    1.63 input  -57.11 | X-H torsion

> <Gold.Protein.ActiveResidues>
 VAL166  LYS551  ARG553  GLY616  TRP617  ASP618  TYR619  PRO620  LYS621  CYS622 
 ASP623  PHE694  ASN695  SER759  ASP760  ASP761  ALA762  ILE779  LEU786  VAL792 
 PHE793  MET794  SER795  GLU796  ALA797  LYS798  CYS799  TRP800  GLU811  SER814 

> <Gold.Protein.RotatedAtoms>
  152.5338  134.2827  159.9013 H   0  0  0  0  0  0  0  0  0  0  0  0  # atno 6907 bound_to 6896
  151.2781  133.4216  159.2633 H   0  0  0  0  0  0  0  0  0  0  0  0  # atno 6908 bound_to 6896
  151.0308  134.9553  159.8166 H   0  0  0  0  0  0  0  0  0  0  0  0  # atno 6909 bound_to 6896
  145.6492  139.2443  143.1987 H   0  0  0  0  0  0  0  0  0  0  0  0  # atno 7974 bound_to 7965
  154.4027  140.1560  156.2808 H   0  0  0  0  0  0  0  0  0  0  0  0  # atno 8008 bound_to 7997
  155.8871  140.3440  155.5907 H   0  0  0  0  0  0  0  0  0  0  0  0  # atno 8009 bound_to 7997
  155.7600  140.0816  157.2150 H   0  0  0  0  0  0  0  0  0  0  0  0  # atno 8010 bound_to 7997
  140.1634  143.4102  152.1409 H   0  0  0  0  0  0  0  0  0  0  0  0  # atno 10167 bound_to 10162
  156.0102  130.4535  150.3591 H   0  0  0  0  0  0  0  0  0  0  0  0  # atno 10718 bound_to 10713
  154.4480  135.2764  155.1801 H   0  0  0  0  0  0  0  0  0  0  0  0  # atno 10763 bound_to 10752
  154.3640  135.6123  153.5709 H   0  0  0  0  0  0  0  0  0  0  0  0  # atno 10764 bound_to 10752
  152.9845  135.5841  154.4819 H   0  0  0  0  0  0  0  0  0  0  0  0  # atno 10765 bound_to 10752
  140.6133  133.9728  155.8188 H   0  0  0  0  0  0  0  0  0  0  0  0  # atno 11005 bound_to 11000
  146.1218  140.7299  142.9454 LP  0  0  0  0  0  0  0  0  0  0  0  0  # atno 17320 bound_to 7965
  144.7129  140.4104  143.7067 LP  0  0  0  0  0  0  0  0  0  0  0  0  # atno 17321 bound_to 7965
  139.5371  144.7220  151.4858 LP  0  0  0  0  0  0  0  0  0  0  0  0  # atno 17342 bound_to 10162
  140.6629  143.8461  150.6908 LP  0  0  0  0  0  0  0  0  0  0  0  0  # atno 17343 bound_to 10162
  157.1680  131.0361  151.2809 LP  0  0  0  0  0  0  0  0  0  0  0  0  # atno 17370 bound_to 10713
  157.4254  130.7460  149.6946 LP  0  0  0  0  0  0  0  0  0  0  0  0  # atno 17371 bound_to 10713
  141.0793  134.0087  157.3410 LP  0  0  0  0  0  0  0  0  0  0  0  0  # atno 17394 bound_to 11000
  139.9183  135.0199  156.7967 LP  0  0  0  0  0  0  0  0  0  0  0  0  # atno 17395 bound_to 11000

$$$$
