AV-unprocessed.smi:2171|AV-procd|sdf|8829|dock1
  -GOLD-   2272012 23D 1   1.00000     0.00000
 Structure written by MMmdl.
 39 41  0  0  0  0  0  0  0  0  2 V2000
  149.3827  141.2123  154.3344 O   0  0  0  0  0  0  0  0  0  0  0  0
  149.5918  140.0742  154.7527 C   0  0  0  0  0  0  0  0  0  0  0  0
  150.8532  139.7768  155.5670 C   0  0  0  0  0  0  0  0  0  0  0  0
  150.8980  140.5713  156.7840 N   0  0  0  0  0  0  0  0  0  0  0  0
  150.6582  141.9217  156.9351 C   0  0  0  0  0  0  0  0  0  0  0  0
  150.8348  142.2211  158.2555 C   0  0  0  0  0  0  0  0  0  0  0  0
  151.1810  140.9718  158.8427 C   0  0  0  0  0  0  0  0  0  0  0  0
  151.2178  139.9867  157.9602 N   0  0  0  0  0  0  0  0  0  0  0  0
  148.7479  139.0482  154.5562 N   0  0  0  0  0  0  0  0  0  0  0  0
  147.4369  139.1421  153.9191 C   0  0  1  0  0  0  0  0  0  0  0  0
  147.5135  139.6124  152.4538 C   0  0  0  0  0  0  0  0  0  0  0  0
  146.5043  138.7319  151.7097 C   0  0  0  0  0  0  0  0  0  0  0  0
  146.5772  137.4610  152.4396 N   0  3  2  0  0  0  0  0  0  0  0  0
  145.5597  136.4272  152.1623 C   0  0  0  0  0  0  0  0  0  0  0  0
  145.9623  135.1351  152.9054 C   0  0  0  0  0  0  0  0  0  0  0  0
  146.2288  135.3824  154.4076 C   0  0  0  0  0  0  0  0  0  0  0  0
  147.2000  136.5613  154.6320 C   0  0  0  0  0  0  0  0  0  0  0  0
  146.6772  137.7941  153.8710 C   0  0  1  0  0  0  0  0  0  0  0  0
  150.8794  138.7186  155.8293 H   0  0  0  0  0  0  0  0  0  0  0  0
  151.7452  139.9857  154.9740 H   0  0  0  0  0  0  0  0  0  0  0  0
  150.3877  142.5505  156.0994 H   0  0  0  0  0  0  0  0  0  0  0  0
  150.7299  143.1853  158.7306 H   0  0  0  0  0  0  0  0  0  0  0  0
  151.4055  140.7529  159.8764 H   0  0  0  0  0  0  0  0  0  0  0  0
  149.0108  138.1472  154.9287 H   0  0  0  0  0  0  0  0  0  0  0  0
  146.8257  139.8609  154.4688 H   0  0  0  0  0  0  0  0  0  0  0  0
  147.2997  140.6758  152.3421 H   0  0  0  0  0  0  0  0  0  0  0  0
  148.5114  139.4339  152.0496 H   0  0  0  0  0  0  0  0  0  0  0  0
  145.4983  139.1469  151.7906 H   0  0  0  0  0  0  0  0  0  0  0  0
  146.7474  138.6113  150.6537 H   0  0  0  0  0  0  0  0  0  0  0  0
  144.5754  136.7715  152.4833 H   0  0  0  0  0  0  0  0  0  0  0  0
  145.5049  136.2422  151.0889 H   0  0  0  0  0  0  0  0  0  0  0  0
  145.1887  134.3765  152.7829 H   0  0  0  0  0  0  0  0  0  0  0  0
  146.8650  134.7272  152.4482 H   0  0  0  0  0  0  0  0  0  0  0  0
  145.2834  135.5960  154.9080 H   0  0  0  0  0  0  0  0  0  0  0  0
  146.6236  134.4785  154.8725 H   0  0  0  0  0  0  0  0  0  0  0  0
  147.2796  136.7725  155.6986 H   0  0  0  0  0  0  0  0  0  0  0  0
  148.1994  136.2935  154.2854 H   0  0  0  0  0  0  0  0  0  0  0  0
  145.6665  138.0022  154.2293 H   0  0  0  0  0  0  0  0  0  0  0  0
  147.4680  137.0583  152.1860 H   0  0  0  0  0  0  0  0  0  0  0  0
  1  2  2  0  0  0  0
  2  3  1  0  0  0  0
  2  9  1  0  0  0  0
  3  4  1  0  0  0  0
  3 19  1  0  0  0  0
  3 20  1  0  0  0  0
  4  8  1  0  0  0  0
  4  5  1  0  0  0  0
  5  6  2  0  0  0  0
  5 21  1  0  0  0  0
  6  7  1  0  0  0  0
  6 22  1  0  0  0  0
  7  8  2  0  0  0  0
  7 23  1  0  0  0  0
  9 10  1  0  0  0  0
  9 24  1  0  0  0  0
 10 18  1  0  0  0  0
 10 11  1  0  0  0  0
 10 25  1  0  0  0  0
 11 12  1  0  0  0  0
 11 26  1  0  0  0  0
 11 27  1  0  0  0  0
 12 13  1  0  0  0  0
 12 28  1  0  0  0  0
 12 29  1  0  0  0  0
 13 18  1  0  0  0  0
 13 14  1  0  0  0  0
 13 39  1  0  0  0  0
 14 15  1  0  0  0  0
 14 30  1  0  0  0  0
 14 31  1  0  0  0  0
 15 16  1  0  0  0  0
 15 32  1  0  0  0  0
 15 33  1  0  0  0  0
 16 17  1  0  0  0  0
 16 34  1  0  0  0  0
 16 35  1  0  0  0  0
 17 18  1  0  0  0  0
 17 36  1  0  0  0  0
 17 37  1  0  0  0  0
 18 38  1  0  0  0  0
M  CHG  1  13   1
M  END
> <s_m_source_file>
AV-unprocessed.smi

> <i_m_source_file_index>
2171

> <i_lp_mmshare_version>
43012

> <i_f3d_flags>
0

> <s_epik_input>
bjFbY0hdW2NIXVtjSF1uMVtDSDJdQyg9TylbTkhdW0NASF0oW0NIMl1bQ0gyXTIpW0NAQEhdKE4yMylbQ0gyXVtDSDJdW0NIMl1bQ0gyXTM=

> <s_epik_cmdline>
J2VwaWtfcHl0aG9uJywgJy1waCcsICc3LjAnLCAnLXRuJywgJzgnLCAnLW1hJywgJzIwMCcsICctbWV0YWxfYmluZGluZycsICctaW1hZScsICc8aW5maWxlLm1hZT4nLCAnLW9tYWUnLCAnPG91dGZpbGUubWFlPic=

> <r_lp_tautomer_probability>
1

> <r_epik_Ionization_Penalty>
0.00204179

> <r_epik_Ionization_Penalty_Charging>
0.00203239

> <r_epik_Ionization_Penalty_Neutral>
9.40205e-06

> <r_epik_State_Penalty>
0.00138983

> <r_epik_Charging_Adjusted_Penalty>
0.00342221

> <i_epik_Tot_Q>
1

> <i_epik_Tot_abs_Q>
1

> <r_epik_Metal_State_Penalty>
-0

> <b_epik_Metal_Only>
0

> <s_lp_Force_Field>
OPLS_2005

> <r_lp_Energy>
40.8782

> <b_lp_Chiralities_Consistent>
1

> <s_lp_Variant>
AV-unprocessed.smi:2171-4

> <Gold.Version>
5.8.1

> <Gold.Id.Protein>
6NUR|6NUR_protein|mol2

> <Gold.PLP.Fitness>
37.4540

> <Gold.PLP.PLP>
-26.7625

> <Gold.PLP.part.hbond>
-3.0000

> <Gold.PLP.part.metal>
0.0000

> <Gold.PLP.part.buried>
3.9219

> <Gold.PLP.part.nonpolar>
-27.9640

> <Gold.PLP.part.repulsive>
0.2807

> <Gold.PLP.ligand.clash>
0.0000

> <Gold.PLP.ligand.torsion>
0.1652

> <Gold.PLP.Chemscore.Hbond>
2.7296

> <Gold.PLP.Chemscore.CHOScore>
0.9407

> <Gold.PLP.Chemscore.Metal>
0.0000

> <Gold.Chemscore.Hbonds>
donor molecule, donor type, donor heavy atom, donor atom, acceptor molecule, acceptor atom, score
      L1  H    13    39       P1  7948  2.00
      P1  H  8011  8017       L1     1  0.11
      L1  C     5    21       P1  8028  0.64

> <Gold.PLP.Chemscore.Internal.Correction>
0.0110

> <Gold.Rescore>
     Score         DG    S(hbond)    S(metal)    S(lipo)     H(rot)  DE(clash)    DE(int)     intcor
     13.07     -15.33       1.75        0.00      65.79       1.44       2.10       0.16       ----

> <Gold.Chemscore.Fitness>
13.0745

> <Gold.Chemscore.DG>
-15.3277

> <Gold.Chemscore.ZeroCoef>
-5.4800

> <Gold.Chemscore.Hbond>
1.7482

> <Gold.Chemscore.Metal>
0.0000

> <Gold.Chemscore.Lipo>
65.7926

> <Gold.Chemscore.Internal_Hbond>
0.0000

> <Gold.Chemscore.DEClash>
2.0962

> <Gold.Chemscore.DEInternal>
0.1569

> <Gold.Chemscore.Rot>
1.4410

> <Gold.Chemscore.Internal.Correction>
   9.000000E+99

> <Gold.Chemscore.Hbonds>
donor molecule, donor type, donor heavy atom, donor atom, acceptor molecule, acceptor atom, score
      L1  H    13    39       P1  7948  1.00
      P1  H  8011  8017       L1     1  0.13

> <Gold.Chemscore.Hbond.Weighted>
-5.8389

> <Gold.Chemscore.Metal.Weighted>
-0.0000

> <Gold.Chemscore.Lipo.Weighted>
-7.6977

> <Gold.Chemscore.Internal_Hbond.Weighted>
0.0000

> <Gold.Chemscore.DEClash.Weighted>
2.0962

> <Gold.Chemscore.DEInternal.Weighted>
0.1569

> <Gold.Chemscore.Rot.Weighted>
3.6889

> <Gold.Chemscore.Internal.Correction.Weighted>
   9.000000E+99

> <Gold.Protein.RotatedTorsions>
[ 6907 6896 6895 6894 ] final  170.89 input  -60.11 | X-H torsion
[ 7974 7965 7964 7962 ] final  111.21 input  175.53 | X-H torsion
[ 8008 7997 7996 7995 ] final   42.96 input   59.86 | X-H torsion
[ 10167 10162 10161 10158 ] final  146.85 input  -65.29 | X-H torsion
[ 10718 10713 10712 10709 ] final -127.47 input   66.30 | X-H torsion
[ 10763 10752 10751 10750 ] final  114.69 input  -60.55 | X-H torsion
[ 11005 11000 10999 10996 ] final   64.98 input  -57.11 | X-H torsion

> <Gold.Protein.ActiveResidues>
 VAL166  LYS551  ARG553  GLY616  TRP617  ASP618  TYR619  PRO620  LYS621  CYS622 
 ASP623  PHE694  ASN695  SER759  ASP760  ASP761  ALA762  ILE779  LEU786  VAL792 
 PHE793  MET794  SER795  GLU796  ALA797  LYS798  CYS799  TRP800  GLU811  SER814 

> <Gold.Protein.RotatedAtoms>
  151.8089  133.3379  159.3548 H   0  0  0  0  0  0  0  0  0  0  0  0  # atno 6907 bound_to 6896
  150.7333  134.5683  159.5886 H   0  0  0  0  0  0  0  0  0  0  0  0  # atno 6908 bound_to 6896
  152.3089  134.7522  160.0392 H   0  0  0  0  0  0  0  0  0  0  0  0  # atno 6909 bound_to 6896
  145.2452  139.2762  143.4097 H   0  0  0  0  0  0  0  0  0  0  0  0  # atno 7974 bound_to 7965
  155.2949  140.3381  155.4250 H   0  0  0  0  0  0  0  0  0  0  0  0  # atno 8008 bound_to 7997
  156.2029  140.1739  156.7902 H   0  0  0  0  0  0  0  0  0  0  0  0  # atno 8009 bound_to 7997
  154.5582  140.0692  156.8761 H   0  0  0  0  0  0  0  0  0  0  0  0  # atno 8010 bound_to 7997
  139.4900  144.5799  151.6893 H   0  0  0  0  0  0  0  0  0  0  0  0  # atno 10167 bound_to 10162
  156.1860  130.6764  151.0365 H   0  0  0  0  0  0  0  0  0  0  0  0  # atno 10718 bound_to 10713
  153.5111  135.3617  155.2587 H   0  0  0  0  0  0  0  0  0  0  0  0  # atno 10763 bound_to 10752
  154.8742  135.4023  154.3368 H   0  0  0  0  0  0  0  0  0  0  0  0  # atno 10764 bound_to 10752
  153.4021  135.7075  153.6485 H   0  0  0  0  0  0  0  0  0  0  0  0  # atno 10765 bound_to 10752
  139.9924  134.6571  156.0068 H   0  0  0  0  0  0  0  0  0  0  0  0  # atno 11005 bound_to 11000
  146.3318  140.2826  142.8611 LP  0  0  0  0  0  0  0  0  0  0  0  0  # atno 17320 bound_to 7965
  144.9553  140.8220  143.5547 LP  0  0  0  0  0  0  0  0  0  0  0  0  # atno 17321 bound_to 7965
  140.5402  144.0591  150.6085 LP  0  0  0  0  0  0  0  0  0  0  0  0  # atno 17342 bound_to 10162
  140.3610  143.2908  152.0383 LP  0  0  0  0  0  0  0  0  0  0  0  0  # atno 17343 bound_to 10162
  157.6899  131.0813  150.7137 LP  0  0  0  0  0  0  0  0  0  0  0  0  # atno 17370 bound_to 10713
  156.7194  130.4676  149.5526 LP  0  0  0  0  0  0  0  0  0  0  0  0  # atno 17371 bound_to 10713
  141.1577  133.6541  156.4214 LP  0  0  0  0  0  0  0  0  0  0  0  0  # atno 17394 bound_to 11000
  140.4883  134.6599  157.5200 LP  0  0  0  0  0  0  0  0  0  0  0  0  # atno 17395 bound_to 11000

$$$$
