AV-unprocessed.smi:447|AV-procd|sdf|2601|dock1
  -GOLD-   2262022593D 1   1.00000     0.00000
 Structure written by MMmdl.
 46 48  0  0  0  0  0  0  0  0  2 V2000
  150.3718  135.4395  156.2132 C   0  0  0  0  0  0  0  0  0  0  0  0
  150.9040  136.6367  155.4328 C   0  0  0  0  0  0  0  0  0  0  0  0
  151.2511  136.5017  154.2604 O   0  0  0  0  0  0  0  0  0  0  0  0
  150.9618  137.8034  156.0936 N   0  0  0  0  0  0  0  0  0  0  0  0
  151.4657  139.0606  155.5443 C   0  0  2  0  0  0  0  0  0  0  0  0
  152.7774  138.8011  154.7917 C   0  0  0  0  0  0  0  0  0  0  0  0
  151.6643  140.1185  156.5926 C   0  0  0  0  0  0  0  0  0  0  0  0
  152.4098  139.9979  157.7295 N   0  3  0  0  0  0  0  0  0  0  0  0
  152.3644  141.1875  158.4563 C   0  0  0  0  0  0  0  0  0  0  0  0
  152.9496  141.5387  159.6690 C   0  0  0  0  0  0  0  0  0  0  0  0
  152.7009  142.8459  160.1367 C   0  0  0  0  0  0  0  0  0  0  0  0
  151.8996  143.7473  159.4061 C   0  0  0  0  0  0  0  0  0  0  0  0
  151.3131  143.3801  158.1768 C   0  0  0  0  0  0  0  0  0  0  0  0
  151.5629  142.0851  157.7229 C   0  0  0  0  0  0  0  0  0  0  0  0
  151.1587  141.3868  156.5801 N   0  0  0  0  0  0  0  0  0  0  0  0
  150.2999  142.0664  155.5972 C   0  0  0  0  0  0  0  0  0  0  0  0
  149.2286  141.1362  154.9937 C   0  0  2  0  0  0  0  0  0  0  0  0
  149.5132  140.9041  153.6283 O   0  0  0  0  0  0  0  0  0  0  0  0
  147.8300  141.6938  155.2036 C   0  0  0  0  0  0  0  0  0  0  0  0
  147.0348  142.0389  154.0896 C   0  0  0  0  0  0  0  0  0  0  0  0
  145.7367  142.5526  154.2757 C   0  0  0  0  0  0  0  0  0  0  0  0
  145.2248  142.7210  155.5765 C   0  0  0  0  0  0  0  0  0  0  0  0
  146.0111  142.3730  156.6916 C   0  0  0  0  0  0  0  0  0  0  0  0
  147.3096  141.8598  156.5063 C   0  0  0  0  0  0  0  0  0  0  0  0
  149.6575  135.7522  156.9758 H   0  0  0  0  0  0  0  0  0  0  0  0
  151.1921  134.9153  156.7037 H   0  0  0  0  0  0  0  0  0  0  0  0
  149.8690  134.7399  155.5448 H   0  0  0  0  0  0  0  0  0  0  0  0
  150.6581  137.8168  157.0565 H   0  0  0  0  0  0  0  0  0  0  0  0
  150.7305  139.4233  154.8245 H   0  0  0  0  0  0  0  0  0  0  0  0
  153.1479  139.7132  154.3226 H   0  0  0  0  0  0  0  0  0  0  0  0
  152.6380  138.0608  154.0031 H   0  0  0  0  0  0  0  0  0  0  0  0
  153.5547  138.4326  155.4623 H   0  0  0  0  0  0  0  0  0  0  0  0
  153.5636  140.8501  160.2308 H   0  0  0  0  0  0  0  0  0  0  0  0
  153.1326  143.1631  161.0750 H   0  0  0  0  0  0  0  0  0  0  0  0
  151.7308  144.7407  159.7961 H   0  0  0  0  0  0  0  0  0  0  0  0
  150.7001  144.0772  157.6248 H   0  0  0  0  0  0  0  0  0  0  0  0
  149.8379  142.9268  156.0826 H   0  0  0  0  0  0  0  0  0  0  0  0
  150.9410  142.4707  154.8133 H   0  0  0  0  0  0  0  0  0  0  0  0
  149.2839  140.1658  155.4884 H   0  0  0  0  0  0  0  0  0  0  0  0
  148.9257  140.2367  153.3080 H   0  0  0  0  0  0  0  0  0  0  0  0
  147.4173  141.9112  153.0875 H   0  0  0  0  0  0  0  0  0  0  0  0
  145.1332  142.8177  153.4201 H   0  0  0  0  0  0  0  0  0  0  0  0
  144.2295  143.1155  155.7191 H   0  0  0  0  0  0  0  0  0  0  0  0
  145.6183  142.4997  157.6898 H   0  0  0  0  0  0  0  0  0  0  0  0
  147.9044  141.5932  157.3679 H   0  0  0  0  0  0  0  0  0  0  0  0
  152.9042  139.1547  157.9903 H   0  0  0  0  0  0  0  0  0  0  0  0
  1  2  1  0  0  0  0
  1 25  1  0  0  0  0
  1 26  1  0  0  0  0
  1 27  1  0  0  0  0
  2  3  2  0  0  0  0
  2  4  1  0  0  0  0
  4  5  1  0  0  0  0
  4 28  1  0  0  0  0
  5  6  1  0  0  0  0
  5  7  1  0  0  0  0
  5 29  1  0  0  0  0
  6 30  1  0  0  0  0
  6 31  1  0  0  0  0
  6 32  1  0  0  0  0
  7 15  1  0  0  0  0
  7  8  2  0  0  0  0
  8  9  1  0  0  0  0
  8 46  1  0  0  0  0
  9 14  2  0  0  0  0
  9 10  1  0  0  0  0
 10 11  2  0  0  0  0
 10 33  1  0  0  0  0
 11 12  1  0  0  0  0
 11 34  1  0  0  0  0
 12 13  2  0  0  0  0
 12 35  1  0  0  0  0
 13 14  1  0  0  0  0
 13 36  1  0  0  0  0
 14 15  1  0  0  0  0
 15 16  1  0  0  0  0
 16 17  1  0  0  0  0
 16 37  1  0  0  0  0
 16 38  1  0  0  0  0
 17 18  1  0  0  0  0
 17 19  1  0  0  0  0
 17 39  1  0  0  0  0
 18 40  1  0  0  0  0
 19 24  1  0  0  0  0
 19 20  2  0  0  0  0
 20 21  1  0  0  0  0
 20 41  1  0  0  0  0
 21 22  2  0  0  0  0
 21 42  1  0  0  0  0
 22 23  1  0  0  0  0
 22 43  1  0  0  0  0
 23 24  2  0  0  0  0
 23 44  1  0  0  0  0
 24 45  1  0  0  0  0
M  CHG  1   8   1
M  END
> <s_m_source_file>
AV-unprocessed.smi

> <i_m_source_file_index>
447

> <i_lp_mmshare_version>
43012

> <i_f3d_flags>
0

> <s_epik_input>
W0NIM11DKD1PKVtOSF1bQ0BIXShbQ0gzXSljKG4xKW4oYyhjMTIpW2NIXVtjSF1bY0hdW2NIXTIpW0NIMl1bQ0BIXShbT0hdKWMzW2NIXVtjSF1bY0hdW2NIXVtjSF0z

> <s_epik_cmdline>
J2VwaWtfcHl0aG9uJywgJy1waCcsICc3LjAnLCAnLXRuJywgJzgnLCAnLW1hJywgJzIwMCcsICctbWV0YWxfYmluZGluZycsICctaW1hZScsICc8aW5maWxlLm1hZT4nLCAnLW9tYWUnLCAnPG91dGZpbGUubWFlPic=

> <r_epik_Ionization_Penalty>
0.950381

> <r_epik_Ionization_Penalty_Charging>
0.950379

> <r_epik_Ionization_Penalty_Neutral>
1.42115e-06

> <r_epik_State_Penalty>
0.994584

> <r_epik_Charging_Adjusted_Penalty>
1.94496

> <i_epik_Tot_Q>
1

> <i_epik_Tot_abs_Q>
1

> <r_epik_Metal_State_Penalty>
1.10485

> <b_epik_Metal_Only>
0

> <s_lp_Force_Field>
OPLS_2005

> <r_lp_Energy>
11.6076

> <b_lp_Chiralities_Consistent>
1

> <s_lp_Variant>
AV-unprocessed.smi:447-5

> <Gold.Version>
5.8.1

> <Gold.Id.Protein>
6NUR|6NUR_protein|mol2

> <Gold.PLP.Fitness>
54.3271

> <Gold.PLP.PLP>
-49.7218

> <Gold.PLP.part.hbond>
-4.0000

> <Gold.PLP.part.metal>
0.0000

> <Gold.PLP.part.buried>
-4.7715

> <Gold.PLP.part.nonpolar>
-41.3153

> <Gold.PLP.part.repulsive>
1.3647

> <Gold.PLP.ligand.clash>
0.0000

> <Gold.PLP.ligand.torsion>
1.3628

> <Gold.PLP.Chemscore.Hbond>
2.4026

> <Gold.PLP.Chemscore.CHOScore>
0.0000

> <Gold.PLP.Chemscore.Metal>
0.0000

> <Gold.Chemscore.Hbonds>
donor molecule, donor type, donor heavy atom, donor atom, acceptor molecule, acceptor atom, score
      L1  H    18    40       P1  7957  0.01
      P1  H  7989  7998       L1    18  0.30
      P1  H  8011  8017       L1    18  1.00
      P1  H 10752 10763       L1     3  1.00

> <Gold.PLP.Chemscore.Internal.Correction>
0.1233

> <Gold.Rescore>
     Score         DG    S(hbond)    S(metal)    S(lipo)     H(rot)  DE(clash)    DE(int)     intcor
     16.10     -19.41       1.76        0.00     121.62       2.41       0.74       2.58       ----

> <Gold.Chemscore.Fitness>
16.0958

> <Gold.Chemscore.DG>
-19.4146

> <Gold.Chemscore.ZeroCoef>
-5.4800

> <Gold.Chemscore.Hbond>
1.7599

> <Gold.Chemscore.Metal>
0.0000

> <Gold.Chemscore.Lipo>
121.6180

> <Gold.Chemscore.Internal_Hbond>
0.0000

> <Gold.Chemscore.DEClash>
0.7389

> <Gold.Chemscore.DEInternal>
2.5798

> <Gold.Chemscore.Rot>
2.4112

> <Gold.Chemscore.Internal.Correction>
   9.000000E+99

> <Gold.Chemscore.Hbonds>
donor molecule, donor type, donor heavy atom, donor atom, acceptor molecule, acceptor atom, score
      L1  H    18    40       P1  7957  0.03
      P1  H  7989  7998       L1    18  0.16
      P1  H  8011  8017       L1    18  0.81
      P1  H 10752 10763       L1     3  0.60

> <Gold.Chemscore.Hbond.Weighted>
-5.8779

> <Gold.Chemscore.Metal.Weighted>
-0.0000

> <Gold.Chemscore.Lipo.Weighted>
-14.2293

> <Gold.Chemscore.Internal_Hbond.Weighted>
0.0000

> <Gold.Chemscore.DEClash.Weighted>
0.7389

> <Gold.Chemscore.DEInternal.Weighted>
2.5798

> <Gold.Chemscore.Rot.Weighted>
6.1727

> <Gold.Chemscore.Internal.Correction.Weighted>
   9.000000E+99

> <Gold.Protein.RotatedTorsions>
[ 6907 6896 6895 6894 ] final  -89.50 input  -60.11 | X-H torsion
[ 7974 7965 7964 7962 ] final   -0.31 input  175.53 | X-H torsion
[ 8008 7997 7996 7995 ] final  161.26 input   59.86 | X-H torsion
[ 10167 10162 10161 10158 ] final  147.72 input  -65.29 | X-H torsion
[ 10718 10713 10712 10709 ] final  -80.82 input   66.30 | X-H torsion
[ 10763 10752 10751 10750 ] final   41.65 input  -60.55 | X-H torsion
[ 11005 11000 10999 10996 ] final -152.25 input  -57.11 | X-H torsion

> <Gold.Protein.ActiveResidues>
 VAL166  LYS551  ARG553  GLY616  TRP617  ASP618  TYR619  PRO620  LYS621  CYS622 
 ASP623  PHE694  ASN695  SER759  ASP760  ASP761  ALA762  ILE779  LEU786  VAL792 
 PHE793  MET794  SER795  GLU796  ALA797  LYS798  CYS799  TRP800  GLU811  SER814 

> <Gold.Protein.RotatedAtoms>
  150.6874  134.2577  159.4536 H   0  0  0  0  0  0  0  0  0  0  0  0  # atno 6907 bound_to 6896
  152.0510  134.9651  160.0584 H   0  0  0  0  0  0  0  0  0  0  0  0  # atno 6908 bound_to 6896
  152.1115  133.4269  159.4670 H   0  0  0  0  0  0  0  0  0  0  0  0  # atno 6909 bound_to 6896
  146.2428  140.1250  142.8339 H   0  0  0  0  0  0  0  0  0  0  0  0  # atno 7974 bound_to 7965
  156.2115  140.1782  156.7683 H   0  0  0  0  0  0  0  0  0  0  0  0  # atno 8008 bound_to 7997
  154.5730  140.0679  156.9022 H   0  0  0  0  0  0  0  0  0  0  0  0  # atno 8009 bound_to 7997
  155.2639  140.3337  155.4273 H   0  0  0  0  0  0  0  0  0  0  0  0  # atno 8010 bound_to 7997
  139.4885  144.5734  151.7012 H   0  0  0  0  0  0  0  0  0  0  0  0  # atno 10167 bound_to 10162
  156.0062  130.4585  150.3859 H   0  0  0  0  0  0  0  0  0  0  0  0  # atno 10718 bound_to 10713
  152.9902  135.6155  154.2822 H   0  0  0  0  0  0  0  0  0  0  0  0  # atno 10763 bound_to 10752
  154.2551  135.2784  155.2802 H   0  0  0  0  0  0  0  0  0  0  0  0  # atno 10764 bound_to 10752
  154.5254  135.5803  153.6772 H   0  0  0  0  0  0  0  0  0  0  0  0  # atno 10765 bound_to 10752
  140.7209  134.3728  157.5183 H   0  0  0  0  0  0  0  0  0  0  0  0  # atno 11005 bound_to 11000
  145.0374  140.8918  143.5073 LP  0  0  0  0  0  0  0  0  0  0  0  0  # atno 17320 bound_to 7965
  145.1325  139.2623  143.5532 LP  0  0  0  0  0  0  0  0  0  0  0  0  # atno 17321 bound_to 7965
  140.5325  144.0707  150.6059 LP  0  0  0  0  0  0  0  0  0  0  0  0  # atno 17342 bound_to 10162
  140.3702  143.2859  152.0286 LP  0  0  0  0  0  0  0  0  0  0  0  0  # atno 17343 bound_to 10162
  157.1936  131.0421  151.2687 LP  0  0  0  0  0  0  0  0  0  0  0  0  # atno 17370 bound_to 10713
  157.4039  130.7348  149.6787 LP  0  0  0  0  0  0  0  0  0  0  0  0  # atno 17371 bound_to 10713
  139.8848  134.8954  156.2680 LP  0  0  0  0  0  0  0  0  0  0  0  0  # atno 17394 bound_to 11000
  141.0004  133.7155  156.0951 LP  0  0  0  0  0  0  0  0  0  0  0  0  # atno 17395 bound_to 11000

$$$$
