#       Name:                AV-unprocessed.smi:2351
#       Creating user name   scv26
#       Creation time:       Fri Mar 27 13:00:03 2020


#       File generated by GOLD software.
#

@<TRIPOS>MOLECULE
AV-unprocessed.smi:2351
    52    54     1
SMALL
NO_CHARGES


@<TRIPOS>ATOM
      1 ****        -2.2449   2.7684  -0.0780 O.2            1 S1                 0.0000
      2 ****        -2.6937   1.7029  -0.5014 C.2            1 S1                 0.0000
      3 ****        -3.9983   1.4251  -0.6578 N.am           1 S1                 0.0000
      4 ****        -5.0919   2.2763  -0.3542 C.ar           1 S1                 0.0000
      5 ****        -6.1664   2.3337  -1.2655 C.ar           1 S1                 0.0000
      6 ****        -7.2675   3.1593  -0.9622 C.ar           1 S1                 0.0000
      7 ****        -7.3569   3.8916   0.1682 N.ar           1 S1                 0.0000
      8 ****        -6.3382   3.8146   1.0512 C.ar           1 S1                 0.0000
      9 ****        -5.1918   3.0197   0.8478 C.ar           1 S1                 0.0000
     10 ****        -4.2365   2.9595   1.8067 F              1 S1                 0.0000
     11 ****        -1.9229   0.6747  -0.8848 N.am           1 S1                 0.0000
     12 ****        -0.4636   0.6605  -0.8411 C.3            1 S1                 0.0000
     13 ****         0.0791  -0.3961  -1.8159 C.3            1 S1                 0.0000
     14 ****         1.6113  -0.4968  -1.7301 C.3            1 S1                 0.0000
     15 ****         2.0546  -0.7947  -0.3435 N.4            1 S1                 1.0000
     16 ****         3.5181  -1.0351  -0.2595 C.3            1 S1                 0.0000
     17 ****         3.9086  -1.8960   0.9582 C.3            1 S1                 0.0000
     18 ****         5.3990  -2.1443   1.0749 C.3            1 S1                 0.0000
     19 ****         5.4467  -3.3532   2.0047 C.3            1 S1                 0.0000
     20 ****         4.2577  -4.0922   1.7397 O.3            1 S1                 0.0000
     21 ****         3.3833  -3.3320   0.9119 C.3            1 S1                 0.0000
     22 ****         1.5733   0.2365   0.6140 C.3            1 S1                 0.0000
     23 ****         0.0408   0.3533   0.5809 C.3            1 S1                 0.0000
     24 ****        -4.2265   0.5661  -1.1362 H              1 S1                 0.0000
     25 ****        -6.1472   1.7667  -2.1849 H              1 S1                 0.0000
     26 ****        -8.1004   3.2315  -1.6460 H              1 S1                 0.0000
     27 ****        -6.4464   4.3943   1.9560 H              1 S1                 0.0000
     28 ****        -2.3782  -0.1588  -1.2276 H              1 S1                 0.0000
     29 ****        -0.0877   1.6379  -1.1505 H              1 S1                 0.0000
     30 ****        -0.3603  -1.3696  -1.5923 H              1 S1                 0.0000
     31 ****        -0.2168  -0.1507  -2.8366 H              1 S1                 0.0000
     32 ****         1.9531  -1.2834  -2.4038 H              1 S1                 0.0000
     33 ****         2.0706   0.4332  -2.0692 H              1 S1                 0.0000
     34 ****         3.8574  -1.5449  -1.1626 H              1 S1                 0.0000
     35 ****         4.0433  -0.0790  -0.2368 H              1 S1                 0.0000
     36 ****         3.5772  -1.4270   1.8849 H              1 S1                 0.0000
     37 ****         5.8214  -2.4058   0.1034 H              1 S1                 0.0000
     38 ****         5.9483  -1.2873   1.4660 H              1 S1                 0.0000
     39 ****         6.3382  -3.9618   1.8515 H              1 S1                 0.0000
     40 ****         5.4301  -3.0329   3.0472 H              1 S1                 0.0000
     41 ****         2.3499  -3.4094   1.2511 H              1 S1                 0.0000
     42 ****         3.4364  -3.7331  -0.1013 H              1 S1                 0.0000
     43 ****         1.8835  -0.0104   1.6284 H              1 S1                 0.0000
     44 ****         2.0261   1.1994   0.3726 H              1 S1                 0.0000
     45 ****        -0.2795   1.1333   1.2728 H              1 S1                 0.0000
     46 ****        -0.4015  -0.5775   0.9395 H              1 S1                 0.0000
     47 ****         1.6084  -1.6644  -0.0890 H              1 S1                 0.0000
     48 ****        -2.8685   3.5066   0.1791 LP             1 S1                 0.0000
     49 ****        -1.2568   2.8955   0.0087 LP             1 S1                 0.0000
     50 ****        -8.1515   4.4721   0.3459 LP             1 S1                 0.0000
     51 ****         3.7981  -4.3002   2.6031 LP             1 S1                 0.0000
     52 ****         4.4951  -4.9451   1.2747 LP             1 S1                 0.0000
@<TRIPOS>BOND
    1    1    2 2     
    2    2    3 am    
    3    2   11 am    
    4    3    4 1     
    5    3   24 1     
    6    4    9 ar    
    7    4    5 ar    
    8    5    6 ar    
    9    5   25 1     
   10    6    7 ar    
   11    6   26 1     
   12    7    8 ar    
   13    8    9 ar    
   14    8   27 1     
   15    9   10 1     
   16   11   12 1     
   17   11   28 1     
   18   12   23 1     
   19   12   13 1     
   20   12   29 1     
   21   13   14 1     
   22   13   30 1     
   23   13   31 1     
   24   14   15 1     
   25   14   32 1     
   26   14   33 1     
   27   15   16 1     
   28   15   22 1     
   29   15   47 1     
   30   16   17 1     
   31   16   34 1     
   32   16   35 1     
   33   17   21 1     
   34   17   18 1     
   35   17   36 1     
   36   18   19 1     
   37   18   37 1     
   38   18   38 1     
   39   19   20 1     
   40   19   39 1     
   41   19   40 1     
   42   20   21 1     
   43   21   41 1     
   44   21   42 1     
   45   22   23 1     
   46   22   43 1     
   47   22   44 1     
   48   23   45 1     
   49   23   46 1     
   50    1   48 1     
   51    1   49 1     
   52    7   50 1     
   53   20   51 1     
   54   20   52 1     
@<TRIPOS>SUBSTRUCTURE
      1 S1             1
@<TRIPOS>SET
LONE_PAIRS      STATIC     ATOMS    <user>   **** ""
5 48 49 50 51 52
DONOR_HYDROGENS      STATIC     ATOMS    <user>   **** ""
3 24 28 47
ATOM$BLUE        STATIC     ATOMS    COLORGROUP SYSTEM
5 48 49 50 51 52
ATOM$RED        STATIC     ATOMS    COLORGROUP SYSTEM
3 24 28 47
