AV-unprocessed.smi:1389|AV-procd|sdf|5647|dock8
  -GOLD-   22720 5263D 1   1.00000     0.00000
 Structure written by MMmdl.
 51 53  0  0  0  0  0  0  0  0  1 V2000
  152.9693  138.4509  154.3814 C   0  0  0  0  0  0  0  0  0  0  0  0
  151.4250  138.4781  154.3191 C   0  0  1  0  0  0  0  0  0  0  0  0
  150.8804  137.3295  155.2078 C   0  0  0  0  0  0  0  0  0  0  0  0
  149.6833  136.7175  154.6352 N   0  0  0  0  0  0  0  0  0  0  0  0
  148.5422  136.4681  155.2924 C   0  0  0  0  0  0  0  0  0  0  0  0
  148.3825  136.6834  156.4940 O   0  0  0  0  0  0  0  0  0  0  0  0
  147.6023  135.9880  154.4622 N   0  0  0  0  0  0  0  0  0  0  0  0
  146.2575  135.6385  154.7713 C   0  0  0  0  0  0  0  0  0  0  0  0
  145.6846  135.8978  156.0399 C   0  0  0  0  0  0  0  0  0  0  0  0
  144.3541  135.5140  156.2835 C   0  0  0  0  0  0  0  0  0  0  0  0
  143.6450  134.8751  155.2515 C   0  0  0  0  0  0  0  0  0  0  0  0
  144.1818  134.6058  154.0442 N   0  0  0  0  0  0  0  0  0  0  0  0
  145.4626  134.9755  153.7977 C   0  0  0  0  0  0  0  0  0  0  0  0
  146.0061  134.6545  152.5364 N   0  0  0  0  0  0  0  0  0  0  0  0
  146.2783  133.2312  152.3585 C   0  0  0  0  0  0  0  0  0  0  0  0
  146.0154  132.9249  150.8835 C   0  0  0  0  0  0  0  0  0  0  0  0
  144.9577  133.9547  150.5055 C   0  0  0  0  0  0  0  0  0  0  0  0
  145.3730  135.1754  151.3253 C   0  0  0  0  0  0  0  0  0  0  0  0
  150.8457  139.8042  154.6282 N   0  0  0  0  0  0  0  0  0  0  0  0
  149.3845  139.8207  154.5114 C   0  0  0  0  0  0  0  0  0  0  0  0
  148.7804  141.1952  154.8470 C   0  0  0  0  0  0  0  0  0  0  0  0
  149.1721  141.5829  156.1574 O   0  0  0  0  0  0  0  0  0  0  0  0
  150.5851  141.6457  156.2992 C   0  0  0  0  0  0  0  0  0  0  0  0
  151.2005  140.2746  155.9707 C   0  0  0  0  0  0  0  0  0  0  0  0
  153.3514  137.4347  154.2802 H   0  0  0  0  0  0  0  0  0  0  0  0
  153.3392  138.8477  155.3275 H   0  0  0  0  0  0  0  0  0  0  0  0
  153.4213  139.0280  153.5753 H   0  0  0  0  0  0  0  0  0  0  0  0
  151.1538  138.2260  153.2928 H   0  0  0  0  0  0  0  0  0  0  0  0
  151.6288  136.5517  155.3526 H   0  0  0  0  0  0  0  0  0  0  0  0
  150.6844  137.7036  156.2141 H   0  0  0  0  0  0  0  0  0  0  0  0
  149.7137  136.5127  153.6473 H   0  0  0  0  0  0  0  0  0  0  0  0
  147.8402  135.9707  153.4813 H   0  0  0  0  0  0  0  0  0  0  0  0
  146.2472  136.3705  156.8306 H   0  0  0  0  0  0  0  0  0  0  0  0
  143.8907  135.7010  157.2409 H   0  0  0  0  0  0  0  0  0  0  0  0
  142.6218  134.5640  155.4017 H   0  0  0  0  0  0  0  0  0  0  0  0
  147.3038  132.9881  152.6367 H   0  0  0  0  0  0  0  0  0  0  0  0
  145.6104  132.6402  152.9879 H   0  0  0  0  0  0  0  0  0  0  0  0
  146.9221  133.0967  150.3016 H   0  0  0  0  0  0  0  0  0  0  0  0
  145.6934  131.8972  150.7142 H   0  0  0  0  0  0  0  0  0  0  0  0
  144.9181  134.1556  149.4346 H   0  0  0  0  0  0  0  0  0  0  0  0
  143.9729  133.6103  150.8247 H   0  0  0  0  0  0  0  0  0  0  0  0
  144.5325  135.8457  151.5045 H   0  0  0  0  0  0  0  0  0  0  0  0
  146.1235  135.7492  150.7813 H   0  0  0  0  0  0  0  0  0  0  0  0
  149.0792  139.5688  153.4968 H   0  0  0  0  0  0  0  0  0  0  0  0
  148.9517  139.0649  155.1688 H   0  0  0  0  0  0  0  0  0  0  0  0
  149.1041  141.9464  154.1248 H   0  0  0  0  0  0  0  0  0  0  0  0
  147.6922  141.1527  154.7989 H   0  0  0  0  0  0  0  0  0  0  0  0
  150.9912  142.4180  155.6441 H   0  0  0  0  0  0  0  0  0  0  0  0
  150.8272  141.9343  157.3221 H   0  0  0  0  0  0  0  0  0  0  0  0
  150.8769  139.5457  156.7155 H   0  0  0  0  0  0  0  0  0  0  0  0
  152.2802  140.3706  156.0711 H   0  0  0  0  0  0  0  0  0  0  0  0
  1  2  1  0  0  0  0
  1 25  1  0  0  0  0
  1 26  1  0  0  0  0
  1 27  1  0  0  0  0
  2  3  1  0  0  0  0
  2 19  1  0  0  0  0
  2 28  1  0  0  0  0
  3  4  1  0  0  0  0
  3 29  1  0  0  0  0
  3 30  1  0  0  0  0
  4  5  1  0  0  0  0
  4 31  1  0  0  0  0
  5  6  2  0  0  0  0
  5  7  1  0  0  0  0
  7  8  1  0  0  0  0
  7 32  1  0  0  0  0
  8 13  1  0  0  0  0
  8  9  2  0  0  0  0
  9 10  1  0  0  0  0
  9 33  1  0  0  0  0
 10 11  2  0  0  0  0
 10 34  1  0  0  0  0
 11 12  1  0  0  0  0
 11 35  1  0  0  0  0
 12 13  2  0  0  0  0
 13 14  1  0  0  0  0
 14 18  1  0  0  0  0
 14 15  1  0  0  0  0
 15 16  1  0  0  0  0
 15 36  1  0  0  0  0
 15 37  1  0  0  0  0
 16 17  1  0  0  0  0
 16 38  1  0  0  0  0
 16 39  1  0  0  0  0
 17 18  1  0  0  0  0
 17 40  1  0  0  0  0
 17 41  1  0  0  0  0
 18 42  1  0  0  0  0
 18 43  1  0  0  0  0
 19 24  1  0  0  0  0
 19 20  1  0  0  0  0
 20 21  1  0  0  0  0
 20 44  1  0  0  0  0
 20 45  1  0  0  0  0
 21 22  1  0  0  0  0
 21 46  1  0  0  0  0
 21 47  1  0  0  0  0
 22 23  1  0  0  0  0
 23 24  1  0  0  0  0
 23 48  1  0  0  0  0
 23 49  1  0  0  0  0
 24 50  1  0  0  0  0
 24 51  1  0  0  0  0
M  END
> <s_m_source_file>
AV-unprocessed.smi

> <i_m_source_file_index>
1389

> <i_lp_mmshare_version>
43012

> <i_f3d_flags>
0

> <s_epik_input>
W0NIMl0xW0NIMl1PW0NIMl1bQ0gyXU4xW0NASF0oW0NIM10pW0NIMl1bTkhdQyg9TylbTkhdYzJbY0hdW2NIXVtjSF1uYzJOM1tDSDJdW0NIMl1bQ0gyXVtDSDJdMw==

> <s_epik_cmdline>
J2VwaWtfcHl0aG9uJywgJy1waCcsICc3LjAnLCAnLXRuJywgJzgnLCAnLW1hJywgJzIwMCcsICctbWV0YWxfYmluZGluZycsICctaW1hZScsICc8aW5maWxlLm1hZT4nLCAnLW9tYWUnLCAnPG91dGZpbGUubWFlPic=

> <r_lp_tautomer_probability>
1

> <r_epik_Ionization_Penalty>
0.365229

> <r_epik_Ionization_Penalty_Charging>
0

> <r_epik_Ionization_Penalty_Neutral>
0.365229

> <r_epik_State_Penalty>
0.350519

> <r_epik_Charging_Adjusted_Penalty>
0.350519

> <i_epik_Tot_Q>
0

> <i_epik_Tot_abs_Q>
0

> <r_epik_Metal_State_Penalty>
0.33386

> <b_epik_Metal_Only>
0

> <s_lp_Force_Field>
OPLS_2005

> <r_lp_Energy>
61.7302

> <b_lp_Chiralities_Consistent>
1

> <s_lp_Variant>
AV-unprocessed.smi:1389-2

> <Gold.Version>
5.8.1

> <Gold.Id.Protein>
6NUR|6NUR_protein|mol2

> <Gold.PLP.Fitness>
44.4286

> <Gold.PLP.PLP>
-33.8522

> <Gold.PLP.part.hbond>
-3.0000

> <Gold.PLP.part.metal>
0.0000

> <Gold.PLP.part.buried>
-6.5830

> <Gold.PLP.part.nonpolar>
-25.3259

> <Gold.PLP.part.repulsive>
0.9329

> <Gold.PLP.ligand.clash>
0.0000

> <Gold.PLP.ligand.torsion>
0.6490

> <Gold.PLP.Chemscore.Hbond>
3.0000

> <Gold.PLP.Chemscore.CHOScore>
0.9018

> <Gold.PLP.Chemscore.Metal>
0.0000

> <Gold.Chemscore.Hbonds>
donor molecule, donor type, donor heavy atom, donor atom, acceptor molecule, acceptor atom, score
      L1  H     4    31       P1  7948  1.00
      L1  H     7    32       P1  7948  1.00
      P1  H  7989  7998       L1    19  1.00
      L1  C    11    35       P1 10957  0.09
      L1  C    11    35       P1 11000  0.77

> <Gold.PLP.Chemscore.Internal.Correction>
0.1690

> <Gold.Rescore>
     Score         DG    S(hbond)    S(metal)    S(lipo)     H(rot)  DE(clash)    DE(int)     intcor
     15.14     -17.17       1.89        0.00      80.40       1.57       0.07       1.96       ----

> <Gold.Chemscore.Fitness>
15.1397

> <Gold.Chemscore.DG>
-17.1666

> <Gold.Chemscore.ZeroCoef>
-5.4800

> <Gold.Chemscore.Hbond>
1.8874

> <Gold.Chemscore.Metal>
0.0000

> <Gold.Chemscore.Lipo>
80.3972

> <Gold.Chemscore.Internal_Hbond>
0.0000

> <Gold.Chemscore.DEClash>
0.0701

> <Gold.Chemscore.DEInternal>
1.9568

> <Gold.Chemscore.Rot>
1.5718

> <Gold.Chemscore.Internal.Correction>
   9.000000E+99

> <Gold.Chemscore.Hbonds>
donor molecule, donor type, donor heavy atom, donor atom, acceptor molecule, acceptor atom, score
      L1  H     4    31       P1  7948  0.49
      L1  H     7    32       P1  7948  0.97
      P1  H  7989  7998       L1    19  0.20

> <Gold.Chemscore.Hbond.Weighted>
-6.3040

> <Gold.Chemscore.Metal.Weighted>
-0.0000

> <Gold.Chemscore.Lipo.Weighted>
-9.4065

> <Gold.Chemscore.Internal_Hbond.Weighted>
0.0000

> <Gold.Chemscore.DEClash.Weighted>
0.0701

> <Gold.Chemscore.DEInternal.Weighted>
1.9568

> <Gold.Chemscore.Rot.Weighted>
4.0239

> <Gold.Chemscore.Internal.Correction.Weighted>
   9.000000E+99

> <Gold.Protein.RotatedTorsions>
[ 6907 6896 6895 6894 ] final  133.32 input  -60.11 | X-H torsion
[ 7974 7965 7964 7962 ] final    3.55 input  175.53 | X-H torsion
[ 8008 7997 7996 7995 ] final   56.88 input   59.86 | X-H torsion
[ 10167 10162 10161 10158 ] final  133.19 input  -65.29 | X-H torsion
[ 10718 10713 10712 10709 ] final  -75.11 input   66.30 | X-H torsion
[ 10763 10752 10751 10750 ] final  -40.05 input  -60.55 | X-H torsion
[ 11005 11000 10999 10996 ] final  142.36 input  -57.11 | X-H torsion

> <Gold.Protein.ActiveResidues>
 VAL166  LYS551  ARG553  GLY616  TRP617  ASP618  TYR619  PRO620  LYS621  CYS622 
 ASP623  PHE694  ASN695  SER759  ASP760  ASP761  ALA762  ILE779  LEU786  VAL792 
 PHE793  MET794  SER795  GLU796  ALA797  LYS798  CYS799  TRP800  GLU811  SER814 

> <Gold.Protein.RotatedAtoms>
  152.3232  133.5877  159.5758 H   0  0  0  0  0  0  0  0  0  0  0  0  # atno 6907 bound_to 6896
  150.7383  133.9979  159.3637 H   0  0  0  0  0  0  0  0  0  0  0  0  # atno 6908 bound_to 6896
  151.7862  135.0749  160.0432 H   0  0  0  0  0  0  0  0  0  0  0  0  # atno 6909 bound_to 6896
  146.2445  140.0668  142.8365 H   0  0  0  0  0  0  0  0  0  0  0  0  # atno 7974 bound_to 7965
  155.5246  140.3480  155.4414 H   0  0  0  0  0  0  0  0  0  0  0  0  # atno 8008 bound_to 7997
  156.0761  140.1375  156.9797 H   0  0  0  0  0  0  0  0  0  0  0  0  # atno 8009 bound_to 7997
  154.4554  140.0956  156.6716 H   0  0  0  0  0  0  0  0  0  0  0  0  # atno 8010 bound_to 7997
  139.5307  144.6627  151.4960 H   0  0  0  0  0  0  0  0  0  0  0  0  # atno 10167 bound_to 10162
  156.0219  130.4433  150.2994 H   0  0  0  0  0  0  0  0  0  0  0  0  # atno 10718 bound_to 10713
  153.9395  135.6763  153.4744 H   0  0  0  0  0  0  0  0  0  0  0  0  # atno 10763 bound_to 10752
  153.0938  135.4861  154.8738 H   0  0  0  0  0  0  0  0  0  0  0  0  # atno 10764 bound_to 10752
  154.7384  135.3155  154.8728 H   0  0  0  0  0  0  0  0  0  0  0  0  # atno 10765 bound_to 10752
  140.0471  134.9275  157.0950 H   0  0  0  0  0  0  0  0  0  0  0  0  # atno 11005 bound_to 11000
  145.0851  140.9247  143.4802 LP  0  0  0  0  0  0  0  0  0  0  0  0  # atno 17320 bound_to 7965
  145.0829  139.2946  143.5774 LP  0  0  0  0  0  0  0  0  0  0  0  0  # atno 17321 bound_to 7965
  140.6483  143.8748  150.6760 LP  0  0  0  0  0  0  0  0  0  0  0  0  # atno 17342 bound_to 10162
  140.2105  143.3887  152.1722 LP  0  0  0  0  0  0  0  0  0  0  0  0  # atno 17343 bound_to 10162
  157.1096  131.0218  151.3053 LP  0  0  0  0  0  0  0  0  0  0  0  0  # atno 17370 bound_to 10713
  157.4715  130.7711  149.7328 LP  0  0  0  0  0  0  0  0  0  0  0  0  # atno 17371 bound_to 10713
  140.3976  134.2117  155.7164 LP  0  0  0  0  0  0  0  0  0  0  0  0  # atno 17394 bound_to 11000
  141.1912  133.8199  157.0887 LP  0  0  0  0  0  0  0  0  0  0  0  0  # atno 17395 bound_to 11000

$$$$
