AV-unprocessed.smi:290|AV-procd|sdf|2232|dock3
  -GOLD-   2262022 93D 1   1.00000     0.00000
 Structure written by MMmdl.
 59 62  0  0  0  0  0  0  0  0  2 V2000
  152.4304  142.0786  159.1409 C   0  0  0  0  0  0  0  0  0  0  0  0
  152.5023  140.8541  158.2121 C   0  0  1  0  0  0  0  0  0  0  0  0
  152.7897  139.7286  159.0445 O   0  0  0  0  0  0  0  0  0  0  0  0
  151.8274  138.7015  158.8490 C   0  0  0  0  0  0  0  0  0  0  0  0
  150.5913  139.4417  158.3618 C   0  0  0  0  0  0  0  0  0  0  0  0
  151.1947  140.5088  157.4561 C   0  0  1  0  0  0  0  0  0  0  0  0
  150.2983  141.6038  157.3758 O   0  0  0  0  0  0  0  0  0  0  0  0
  151.4967  140.0206  156.0141 C   0  0  0  0  0  0  0  0  0  0  0  0
  150.3340  139.5193  155.2970 N   0  0  0  0  0  0  0  0  0  0  0  0
  150.0449  138.2050  155.0051 C   0  0  0  0  0  0  0  0  0  0  0  0
  148.9313  138.0111  154.3516 N   0  0  0  0  0  0  0  0  0  0  0  0
  148.4099  139.2890  154.1882 C   0  0  0  0  0  0  0  0  0  0  0  0
  147.2369  139.8142  153.5762 C   0  0  0  0  0  0  0  0  0  0  0  0
  146.2907  139.0706  152.9625 N   0  0  0  0  0  0  0  0  0  0  0  0
  146.2387  139.2132  151.5149 C   0  0  0  0  0  0  0  0  0  0  0  0
  146.3056  137.8014  150.9441 C   0  0  0  0  0  0  0  0  0  0  0  0
  145.7705  136.9063  152.0705 C   0  0  1  0  0  0  0  0  0  0  0  0
  146.2473  135.4992  151.9009 N   0  3  1  0  0  0  0  0  0  0  0  0
  146.0623  134.6222  153.0819 C   0  0  0  0  0  0  0  0  0  0  0  0
  145.7207  134.8604  150.6638 C   0  0  0  0  0  0  0  0  0  0  0  0
  144.2910  134.3285  150.8567 C   0  0  0  0  0  0  0  0  0  0  0  0
  143.8530  133.6792  149.6818 O   0  0  0  0  0  0  0  0  0  0  0  0
  146.2838  137.6542  153.3260 C   0  0  2  0  0  0  0  0  0  0  0  0
  145.4323  137.4632  154.5982 C   0  0  0  0  0  0  0  0  0  0  0  0
  147.0439  141.1548  153.6128 N   0  0  0  0  0  0  0  0  0  0  0  0
  147.9428  141.9418  154.2125 C   0  0  0  0  0  0  0  0  0  0  0  0
  149.0793  141.5975  154.8227 N   0  0  0  0  0  0  0  0  0  0  0  0
  149.2751  140.2480  154.7843 C   0  0  0  0  0  0  0  0  0  0  0  0
  144.6789  136.9289  152.0655 H   0  0  0  0  0  0  0  0  0  0  0  0
  147.3074  137.3376  153.5317 H   0  0  0  0  0  0  0  0  0  0  0  0
  152.2557  142.9953  158.5774 H   0  0  0  0  0  0  0  0  0  0  0  0
  153.3654  142.2053  159.6869 H   0  0  0  0  0  0  0  0  0  0  0  0
  151.6303  141.9752  159.8747 H   0  0  0  0  0  0  0  0  0  0  0  0
  153.3266  140.9965  157.5120 H   0  0  0  0  0  0  0  0  0  0  0  0
  152.1890  138.0055  158.0910 H   0  0  0  0  0  0  0  0  0  0  0  0
  151.6482  138.1416  159.7669 H   0  0  0  0  0  0  0  0  0  0  0  0
  149.8621  138.7919  157.8800 H   0  0  0  0  0  0  0  0  0  0  0  0
  150.0975  139.9048  159.2177 H   0  0  0  0  0  0  0  0  0  0  0  0
  150.6806  142.2628  156.8171 H   0  0  0  0  0  0  0  0  0  0  0  0
  151.9297  140.8331  155.4290 H   0  0  0  0  0  0  0  0  0  0  0  0
  152.2504  139.2324  156.0290 H   0  0  0  0  0  0  0  0  0  0  0  0
  150.6926  137.3892  155.2925 H   0  0  0  0  0  0  0  0  0  0  0  0
  145.2862  139.6779  151.2582 H   0  0  0  0  0  0  0  0  0  0  0  0
  147.0300  139.8467  151.1107 H   0  0  0  0  0  0  0  0  0  0  0  0
  145.7471  137.7152  150.0121 H   0  0  0  0  0  0  0  0  0  0  0  0
  147.3466  137.5519  150.7321 H   0  0  0  0  0  0  0  0  0  0  0  0
  145.0116  134.5689  153.3690 H   0  0  0  0  0  0  0  0  0  0  0  0
  146.6482  134.9730  153.9308 H   0  0  0  0  0  0  0  0  0  0  0  0
  146.3998  133.6069  152.8761 H   0  0  0  0  0  0  0  0  0  0  0  0
  145.7458  135.5822  149.8460 H   0  0  0  0  0  0  0  0  0  0  0  0
  146.3531  134.0349  150.3379 H   0  0  0  0  0  0  0  0  0  0  0  0
  144.2218  133.6423  151.7003 H   0  0  0  0  0  0  0  0  0  0  0  0
  143.6102  135.1547  151.0633 H   0  0  0  0  0  0  0  0  0  0  0  0
  143.0251  134.0526  149.4187 H   0  0  0  0  0  0  0  0  0  0  0  0
  145.4027  136.4332  154.9441 H   0  0  0  0  0  0  0  0  0  0  0  0
  144.4027  137.7821  154.4324 H   0  0  0  0  0  0  0  0  0  0  0  0
  145.8277  138.0565  155.4231 H   0  0  0  0  0  0  0  0  0  0  0  0
  147.7196  142.9985  154.2024 H   0  0  0  0  0  0  0  0  0  0  0  0
  147.2462  135.5734  151.7672 H   0  0  0  0  0  0  0  0  0  0  0  0
  1  2  1  0  0  0  0
  1 31  1  0  0  0  0
  1 32  1  0  0  0  0
  1 33  1  0  0  0  0
  2  6  1  0  0  0  0
  2  3  1  0  0  0  0
  2 34  1  0  0  0  0
  3  4  1  0  0  0  0
  4  5  1  0  0  0  0
  4 35  1  0  0  0  0
  4 36  1  0  0  0  0
  5  6  1  0  0  0  0
  5 37  1  0  0  0  0
  5 38  1  0  0  0  0
  6  7  1  0  0  0  0
  6  8  1  0  0  0  0
  7 39  1  0  0  0  0
  8  9  1  0  0  0  0
  8 40  1  0  0  0  0
  8 41  1  0  0  0  0
  9 28  1  0  0  0  0
  9 10  1  0  0  0  0
 10 11  2  0  0  0  0
 10 42  1  0  0  0  0
 11 12  1  0  0  0  0
 12 28  2  0  0  0  0
 12 13  1  0  0  0  0
 13 14  1  0  0  0  0
 13 25  2  0  0  0  0
 14 23  1  0  0  0  0
 14 15  1  0  0  0  0
 15 16  1  0  0  0  0
 15 43  1  0  0  0  0
 15 44  1  0  0  0  0
 16 17  1  0  0  0  0
 16 45  1  0  0  0  0
 16 46  1  0  0  0  0
 17 29  1  0  0  0  0
 17 18  1  0  0  0  0
 17 23  1  0  0  0  0
 18 19  1  0  0  0  0
 18 20  1  0  0  0  0
 18 59  1  0  0  0  0
 19 47  1  0  0  0  0
 19 48  1  0  0  0  0
 19 49  1  0  0  0  0
 20 21  1  0  0  0  0
 20 50  1  0  0  0  0
 20 51  1  0  0  0  0
 21 22  1  0  0  0  0
 21 52  1  0  0  0  0
 21 53  1  0  0  0  0
 22 54  1  0  0  0  0
 23 30  1  0  0  0  0
 23 24  1  0  0  0  0
 24 55  1  0  0  0  0
 24 56  1  0  0  0  0
 24 57  1  0  0  0  0
 25 26  1  0  0  0  0
 26 27  2  0  0  0  0
 26 58  1  0  0  0  0
 27 28  1  0  0  0  0
M  CHG  1  18   1
M  END
> <s_m_source_file>
AV-unprocessed.smi

> <i_m_source_file_index>
290

> <i_lp_mmshare_version>
43012

> <i_f3d_flags>
0

> <s_epik_input>
W0NIMl0xW0NIMl1PW0NAQEhdKFtDSDNdKVtDQEBdMShbT0hdKVtDSDJdbihbY0hdbjIpYyhjMjMpbltjSF1uYzNONFtDSDJdW0NIMl1bQ0BIXShbQ0BIXTRbQ0gzXSlOKFtDSDNdKVtDSDJdW0NIMl1bT0hd

> <s_epik_cmdline>
J2VwaWtfcHl0aG9uJywgJy1waCcsICc3LjAnLCAnLXRuJywgJzgnLCAnLW1hJywgJzIwMCcsICctbWV0YWxfYmluZGluZycsICctaW1hZScsICc8aW5maWxlLm1hZT4nLCAnLW9tYWUnLCAnPG91dGZpbGUubWFlPic=

> <r_lp_tautomer_probability>
1

> <r_epik_Ionization_Penalty>
0.0036983

> <r_epik_Ionization_Penalty_Charging>
0.0032725

> <r_epik_Ionization_Penalty_Neutral>
0.000425798

> <r_epik_State_Penalty>
-0

> <r_epik_Charging_Adjusted_Penalty>
0.0032725

> <i_epik_Tot_Q>
1

> <i_epik_Tot_abs_Q>
1

> <r_epik_Metal_State_Penalty>
-0

> <b_epik_Metal_Only>
0

> <s_lp_Force_Field>
OPLS_2005

> <r_lp_Energy>
64.3392

> <b_lp_Chiralities_Consistent>
1

> <s_lp_Variant>
AV-unprocessed.smi:290-18

> <Gold.Version>
5.8.1

> <Gold.Id.Protein>
6NUR|6NUR_protein|mol2

> <Gold.PLP.Fitness>
47.1245

> <Gold.PLP.PLP>
-36.3705

> <Gold.PLP.part.hbond>
-2.3327

> <Gold.PLP.part.metal>
0.0000

> <Gold.PLP.part.buried>
3.8528

> <Gold.PLP.part.nonpolar>
-38.3664

> <Gold.PLP.part.repulsive>
0.9751

> <Gold.PLP.ligand.clash>
0.0000

> <Gold.PLP.ligand.torsion>
0.7387

> <Gold.PLP.Chemscore.Hbond>
3.0000

> <Gold.PLP.Chemscore.CHOScore>
0.9801

> <Gold.PLP.Chemscore.Metal>
0.0000

> <Gold.Chemscore.Hbonds>
donor molecule, donor type, donor heavy atom, donor atom, acceptor molecule, acceptor atom, score
      L1  H    18    59       P1  7948  2.00
      L1  H    22    54       P1 10186  0.94
      L1  C    26    58       P1  8028  0.91

> <Gold.PLP.Chemscore.Internal.Correction>
0.2912

> <Gold.Rescore>
     Score         DG    S(hbond)    S(metal)    S(lipo)     H(rot)  DE(clash)    DE(int)     intcor
      8.54     -12.91       1.99        0.00      86.95       3.67       1.97       2.40       ----

> <Gold.Chemscore.Fitness>
8.5407

> <Gold.Chemscore.DG>
-12.9098

> <Gold.Chemscore.ZeroCoef>
-5.4800

> <Gold.Chemscore.Hbond>
1.9884

> <Gold.Chemscore.Metal>
0.0000

> <Gold.Chemscore.Lipo>
86.9497

> <Gold.Chemscore.Internal_Hbond>
0.0000

> <Gold.Chemscore.DEClash>
1.9719

> <Gold.Chemscore.DEInternal>
2.3972

> <Gold.Chemscore.Rot>
3.6658

> <Gold.Chemscore.Internal.Correction>
   9.000000E+99

> <Gold.Chemscore.Hbonds>
donor molecule, donor type, donor heavy atom, donor atom, acceptor molecule, acceptor atom, score
      L1  H    18    59       P1  7948  1.00
      L1  H    22    54       P1 10186  0.89

> <Gold.Chemscore.Hbond.Weighted>
-6.6411

> <Gold.Chemscore.Metal.Weighted>
-0.0000

> <Gold.Chemscore.Lipo.Weighted>
-10.1731

> <Gold.Chemscore.Internal_Hbond.Weighted>
0.0000

> <Gold.Chemscore.DEClash.Weighted>
1.9719

> <Gold.Chemscore.DEInternal.Weighted>
2.3972

> <Gold.Chemscore.Rot.Weighted>
9.3844

> <Gold.Chemscore.Internal.Correction.Weighted>
   9.000000E+99

> <Gold.Protein.RotatedTorsions>
[ 6907 6896 6895 6894 ] final  171.68 input  -60.11 | X-H torsion
[ 7974 7965 7964 7962 ] final    5.40 input  175.53 | X-H torsion
[ 8008 7997 7996 7995 ] final  -51.50 input   59.86 | X-H torsion
[ 10167 10162 10161 10158 ] final -168.02 input  -65.29 | X-H torsion
[ 10718 10713 10712 10709 ] final -163.32 input   66.30 | X-H torsion
[ 10763 10752 10751 10750 ] final  -11.69 input  -60.55 | X-H torsion
[ 11005 11000 10999 10996 ] final  -43.34 input  -57.11 | X-H torsion

> <Gold.Protein.ActiveResidues>
 VAL166  LYS551  ARG553  GLY616  TRP617  ASP618  TYR619  PRO620  LYS621  CYS622 
 ASP623  PHE694  ASN695  SER759  ASP760  ASP761  ALA762  ILE779  LEU786  VAL792 
 PHE793  MET794  SER795  GLU796  ALA797  LYS798  CYS799  TRP800  GLU811  SER814 

> <Gold.Protein.RotatedAtoms>
  151.7964  133.3365  159.3513 H   0  0  0  0  0  0  0  0  0  0  0  0  # atno 6907 bound_to 6896
  150.7374  134.5795  159.5940 H   0  0  0  0  0  0  0  0  0  0  0  0  # atno 6908 bound_to 6896
  152.3174  134.7424  160.0373 H   0  0  0  0  0  0  0  0  0  0  0  0  # atno 6909 bound_to 6896
  146.2440  140.0389  142.8383 H   0  0  0  0  0  0  0  0  0  0  0  0  # atno 7974 bound_to 7965
  154.4084  140.1246  156.4839 H   0  0  0  0  0  0  0  0  0  0  0  0  # atno 8008 bound_to 7997
  155.7057  140.3494  155.4932 H   0  0  0  0  0  0  0  0  0  0  0  0  # atno 8009 bound_to 7997
  155.9345  140.1076  157.1095 H   0  0  0  0  0  0  0  0  0  0  0  0  # atno 8010 bound_to 7997
  139.6012  144.1007  152.1744 H   0  0  0  0  0  0  0  0  0  0  0  0  # atno 10167 bound_to 10162
  156.6230  130.8898  151.2961 H   0  0  0  0  0  0  0  0  0  0  0  0  # atno 10718 bound_to 10713
  153.4875  135.7017  153.5903 H   0  0  0  0  0  0  0  0  0  0  0  0  # atno 10763 bound_to 10752
  153.4090  135.3853  155.2038 H   0  0  0  0  0  0  0  0  0  0  0  0  # atno 10764 bound_to 10752
  154.8718  135.3900  154.4331 H   0  0  0  0  0  0  0  0  0  0  0  0  # atno 10765 bound_to 10752
  141.0377  133.6793  156.2719 H   0  0  0  0  0  0  0  0  0  0  0  0  # atno 11005 bound_to 11000
  145.1087  140.9391  143.4669 LP  0  0  0  0  0  0  0  0  0  0  0  0  # atno 17320 bound_to 7965
  145.0598  139.3114  143.5886 LP  0  0  0  0  0  0  0  0  0  0  0  0  # atno 17321 bound_to 7965
  140.0604  144.5861  150.7267 LP  0  0  0  0  0  0  0  0  0  0  0  0  # atno 17342 bound_to 10162
  140.7251  143.2628  151.4148 LP  0  0  0  0  0  0  0  0  0  0  0  0  # atno 17343 bound_to 10162
  157.7222  130.9574  150.1486 LP  0  0  0  0  0  0  0  0  0  0  0  0  # atno 17370 bound_to 10713
  156.2296  130.3681  149.8460 LP  0  0  0  0  0  0  0  0  0  0  0  0  # atno 17371 bound_to 10713
  140.6292  134.5282  157.5557 LP  0  0  0  0  0  0  0  0  0  0  0  0  # atno 17394 bound_to 11000
  139.9253  134.8069  156.1088 LP  0  0  0  0  0  0  0  0  0  0  0  0  # atno 17395 bound_to 11000

$$$$
