AV-unprocessed.smi:1554|AV-procd|sdf|6244|dock4
  -GOLD-   22720 6423D 1   1.00000     0.00000
 Structure written by MMmdl.
 48 50  0  0  0  0  0  0  0  0  2 V2000
  153.1502  142.5566  161.3957 C   0  0  0  0  0  0  0  0  0  0  0  0
  152.4839  142.3878  160.0418 C   0  0  0  0  0  0  0  0  0  0  0  0
  152.8134  141.2657  159.2484 C   0  0  0  0  0  0  0  0  0  0  0  0
  152.2166  141.0728  157.9833 C   0  0  0  0  0  0  0  0  0  0  0  0
  152.3910  140.0646  157.0508 N   0  0  0  0  0  0  0  0  0  0  0  0
  151.5610  140.4460  156.0844 C   0  0  0  0  0  0  0  0  0  0  0  0
  150.8696  141.5854  156.2792 N   0  0  0  0  0  0  0  0  0  0  0  0
  149.9134  142.1937  155.3709 C   0  0  0  0  0  0  0  0  0  0  0  0
  149.0875  141.1496  154.5947 C   0  0  2  0  0  0  0  0  0  0  0  0
  149.8420  140.6776  153.4946 O   0  0  0  0  0  0  0  0  0  0  0  0
  147.7683  141.7480  154.0666 C   0  0  0  0  0  0  0  0  0  0  0  0
  147.0392  142.5322  155.0960 N   0  3  1  0  0  0  0  0  0  0  0  0
  145.7390  143.0725  154.6282 C   0  0  0  0  0  0  0  0  0  0  0  0
  145.0786  143.9085  155.7365 C   0  0  0  0  0  0  0  0  0  0  0  0
  144.9202  143.1127  156.9043 O   0  0  0  0  0  0  0  0  0  0  0  0
  146.1663  142.6586  157.4209 C   0  0  1  0  0  0  0  0  0  0  0  0
  145.8945  141.8923  158.7203 C   0  0  0  0  0  0  0  0  0  0  0  0
  146.8610  141.7808  156.3615 C   0  0  0  0  0  0  0  0  0  0  0  0
  151.2719  142.0398  157.5308 C   0  0  0  0  0  0  0  0  0  0  0  0
  150.9363  143.1607  158.3105 C   0  0  0  0  0  0  0  0  0  0  0  0
  151.5440  143.3396  159.5708 C   0  0  0  0  0  0  0  0  0  0  0  0
  151.1775  144.5555  160.4032 C   0  0  0  0  0  0  0  0  0  0  0  0
  153.7983  141.7114  161.6287 H   0  0  0  0  0  0  0  0  0  0  0  0
  152.4017  142.6294  162.1851 H   0  0  0  0  0  0  0  0  0  0  0  0
  153.7592  143.4607  161.4102 H   0  0  0  0  0  0  0  0  0  0  0  0
  153.5309  140.5418  159.6060 H   0  0  0  0  0  0  0  0  0  0  0  0
  151.4498  139.8637  155.1812 H   0  0  0  0  0  0  0  0  0  0  0  0
  149.2529  142.8371  155.9537 H   0  0  0  0  0  0  0  0  0  0  0  0
  150.4532  142.8463  154.6832 H   0  0  0  0  0  0  0  0  0  0  0  0
  148.8858  140.3081  155.2570 H   0  0  0  0  0  0  0  0  0  0  0  0
  149.2927  140.1094  152.9749 H   0  0  0  0  0  0  0  0  0  0  0  0
  147.9549  142.3802  153.1970 H   0  0  0  0  0  0  0  0  0  0  0  0
  147.1355  140.9302  153.7181 H   0  0  0  0  0  0  0  0  0  0  0  0
  145.8768  143.6953  153.7451 H   0  0  0  0  0  0  0  0  0  0  0  0
  145.0814  142.2506  154.3406 H   0  0  0  0  0  0  0  0  0  0  0  0
  145.6721  144.7958  155.9625 H   0  0  0  0  0  0  0  0  0  0  0  0
  144.0981  144.2563  155.4107 H   0  0  0  0  0  0  0  0  0  0  0  0
  146.7941  143.5209  157.6519 H   0  0  0  0  0  0  0  0  0  0  0  0
  146.8218  141.5283  159.1637 H   0  0  0  0  0  0  0  0  0  0  0  0
  145.2474  141.0325  158.5445 H   0  0  0  0  0  0  0  0  0  0  0  0
  145.4048  142.5323  159.4547 H   0  0  0  0  0  0  0  0  0  0  0  0
  146.2749  140.8799  156.1709 H   0  0  0  0  0  0  0  0  0  0  0  0
  147.8332  141.4576  156.7362 H   0  0  0  0  0  0  0  0  0  0  0  0
  150.2190  143.8782  157.9405 H   0  0  0  0  0  0  0  0  0  0  0  0
  150.4788  145.2037  159.8737 H   0  0  0  0  0  0  0  0  0  0  0  0
  152.0662  145.1425  160.6365 H   0  0  0  0  0  0  0  0  0  0  0  0
  150.7083  144.2498  161.3385 H   0  0  0  0  0  0  0  0  0  0  0  0
  147.6282  143.3230  155.3175 H   0  0  0  0  0  0  0  0  0  0  0  0
  1  2  1  0  0  0  0
  1 23  1  0  0  0  0
  1 24  1  0  0  0  0
  1 25  1  0  0  0  0
  2 21  1  0  0  0  0
  2  3  2  0  0  0  0
  3  4  1  0  0  0  0
  3 26  1  0  0  0  0
  4 19  2  0  0  0  0
  4  5  1  0  0  0  0
  5  6  2  0  0  0  0
  6  7  1  0  0  0  0
  6 27  1  0  0  0  0
  7  8  1  0  0  0  0
  7 19  1  0  0  0  0
  8  9  1  0  0  0  0
  8 28  1  0  0  0  0
  8 29  1  0  0  0  0
  9 10  1  0  0  0  0
  9 11  1  0  0  0  0
  9 30  1  0  0  0  0
 10 31  1  0  0  0  0
 11 12  1  0  0  0  0
 11 32  1  0  0  0  0
 11 33  1  0  0  0  0
 12 18  1  0  0  0  0
 12 13  1  0  0  0  0
 12 48  1  0  0  0  0
 13 14  1  0  0  0  0
 13 34  1  0  0  0  0
 13 35  1  0  0  0  0
 14 15  1  0  0  0  0
 14 36  1  0  0  0  0
 14 37  1  0  0  0  0
 15 16  1  0  0  0  0
 16 17  1  0  0  0  0
 16 18  1  0  0  0  0
 16 38  1  0  0  0  0
 17 39  1  0  0  0  0
 17 40  1  0  0  0  0
 17 41  1  0  0  0  0
 18 42  1  0  0  0  0
 18 43  1  0  0  0  0
 19 20  1  0  0  0  0
 20 21  2  0  0  0  0
 20 44  1  0  0  0  0
 21 22  1  0  0  0  0
 22 45  1  0  0  0  0
 22 46  1  0  0  0  0
 22 47  1  0  0  0  0
M  CHG  1  12   1
M  END
> <s_m_source_file>
AV-unprocessed.smi

> <i_m_source_file_index>
1554

> <i_lp_mmshare_version>
43012

> <i_f3d_flags>
0

> <s_epik_input>
W0NIM11jKFtjSF0xKWMoW0NIM10pW2NIXWMoYzEyKW4oW2NIXW4yKVtDSDJdW0NASF0oW09IXSlbQ0gyXU4zW0NIMl1bQ0gyXU9bQ0BASF0oW0NIM10pW0NIMl0z

> <s_epik_cmdline>
J2VwaWtfcHl0aG9uJywgJy1waCcsICc3LjAnLCAnLXRuJywgJzgnLCAnLW1hJywgJzIwMCcsICctbWV0YWxfYmluZGluZycsICctaW1hZScsICc8aW5maWxlLm1hZT4nLCAnLW9tYWUnLCAnPG91dGZpbGUubWFlPic=

> <r_epik_Ionization_Penalty>
0.695251

> <r_epik_Ionization_Penalty_Charging>
0.608065

> <r_epik_Ionization_Penalty_Neutral>
0.0871863

> <r_epik_State_Penalty>
0.731955

> <r_epik_Charging_Adjusted_Penalty>
1.34002

> <i_epik_Tot_Q>
1

> <i_epik_Tot_abs_Q>
1

> <r_epik_Metal_State_Penalty>
0.652186

> <b_epik_Metal_Only>
0

> <s_lp_Force_Field>
OPLS_2005

> <r_lp_Energy>
20.8571

> <b_lp_Chiralities_Consistent>
1

> <s_lp_Variant>
AV-unprocessed.smi:1554-5

> <Gold.Version>
5.8.1

> <Gold.Id.Protein>
6NUR|6NUR_protein|mol2

> <Gold.PLP.Fitness>
57.5922

> <Gold.PLP.PLP>
-45.1677

> <Gold.PLP.part.hbond>
-4.2335

> <Gold.PLP.part.metal>
0.0000

> <Gold.PLP.part.buried>
-3.0688

> <Gold.PLP.part.nonpolar>
-36.1172

> <Gold.PLP.part.repulsive>
0.1834

> <Gold.PLP.ligand.clash>
0.0000

> <Gold.PLP.ligand.torsion>
0.6589

> <Gold.PLP.Chemscore.Hbond>
4.5741

> <Gold.PLP.Chemscore.CHOScore>
0.0000

> <Gold.PLP.Chemscore.Metal>
0.0000

> <Gold.Chemscore.Hbonds>
donor molecule, donor type, donor heavy atom, donor atom, acceptor molecule, acceptor atom, score
      L1  H    10    31       P1  7957  0.35
      L1  H    12    48       P1  8028  2.00
      P1  H  7989  7998       L1    10  0.40
      P1  H  7997  8009       L1     5  1.00
      P1  H  8011  8017       L1    10  0.82

> <Gold.PLP.Chemscore.Internal.Correction>
0.0199

> <Gold.Rescore>
     Score         DG    S(hbond)    S(metal)    S(lipo)     H(rot)  DE(clash)    DE(int)     intcor
     18.96     -20.78       2.12        0.00     115.19       2.05       1.18       0.64       ----

> <Gold.Chemscore.Fitness>
18.9613

> <Gold.Chemscore.DG>
-20.7849

> <Gold.Chemscore.ZeroCoef>
-5.4800

> <Gold.Chemscore.Hbond>
2.1219

> <Gold.Chemscore.Metal>
0.0000

> <Gold.Chemscore.Lipo>
115.1915

> <Gold.Chemscore.Internal_Hbond>
0.0000

> <Gold.Chemscore.DEClash>
1.1840

> <Gold.Chemscore.DEInternal>
0.6396

> <Gold.Chemscore.Rot>
2.0546

> <Gold.Chemscore.Internal.Correction>
   9.000000E+99

> <Gold.Chemscore.Hbonds>
donor molecule, donor type, donor heavy atom, donor atom, acceptor molecule, acceptor atom, score
      L1  H    10    31       P1  7957  0.36
      L1  H    12    48       P1  8028  0.26
      P1  H  7989  7998       L1    10  0.39
      P1  H  7997  8009       L1     5  0.45
      P1  H  8011  8017       L1    10  0.05

> <Gold.Chemscore.Hbond.Weighted>
-7.0872

> <Gold.Chemscore.Metal.Weighted>
-0.0000

> <Gold.Chemscore.Lipo.Weighted>
-13.4774

> <Gold.Chemscore.Internal_Hbond.Weighted>
0.0000

> <Gold.Chemscore.DEClash.Weighted>
1.1840

> <Gold.Chemscore.DEInternal.Weighted>
0.6396

> <Gold.Chemscore.Rot.Weighted>
5.2597

> <Gold.Chemscore.Internal.Correction.Weighted>
   9.000000E+99

> <Gold.Protein.RotatedTorsions>
[ 6907 6896 6895 6894 ] final  133.35 input  -60.11 | X-H torsion
[ 7974 7965 7964 7962 ] final  -39.38 input  175.53 | X-H torsion
[ 8008 7997 7996 7995 ] final -172.31 input   59.86 | X-H torsion
[ 10167 10162 10161 10158 ] final  166.88 input  -65.29 | X-H torsion
[ 10718 10713 10712 10709 ] final   18.19 input   66.30 | X-H torsion
[ 10763 10752 10751 10750 ] final  -87.80 input  -60.55 | X-H torsion
[ 11005 11000 10999 10996 ] final   42.93 input  -57.11 | X-H torsion

> <Gold.Protein.ActiveResidues>
 VAL166  LYS551  ARG553  GLY616  TRP617  ASP618  TYR619  PRO620  LYS621  CYS622 
 ASP623  PHE694  ASN695  SER759  ASP760  ASP761  ALA762  ILE779  LEU786  VAL792 
 PHE793  MET794  SER795  GLU796  ALA797  LYS798  CYS799  TRP800  GLU811  SER814 

> <Gold.Protein.RotatedAtoms>
  152.3228  133.5872  159.5755 H   0  0  0  0  0  0  0  0  0  0  0  0  # atno 6907 bound_to 6896
  150.7380  133.9985  159.3639 H   0  0  0  0  0  0  0  0  0  0  0  0  # atno 6908 bound_to 6896
  151.7868  135.0747  160.0432 H   0  0  0  0  0  0  0  0  0  0  0  0  # atno 6909 bound_to 6896
  146.0402  140.6619  142.9091 H   0  0  0  0  0  0  0  0  0  0  0  0  # atno 7974 bound_to 7965
  155.9430  140.1112  157.1040 H   0  0  0  0  0  0  0  0  0  0  0  0  # atno 8008 bound_to 7997
  154.4093  140.1215  156.5017 H   0  0  0  0  0  0  0  0  0  0  0  0  # atno 8009 bound_to 7997
  155.6939  140.3472  155.4907 H   0  0  0  0  0  0  0  0  0  0  0  0  # atno 8010 bound_to 7997
  139.4934  144.3980  151.9442 H   0  0  0  0  0  0  0  0  0  0  0  0  # atno 10167 bound_to 10162
  157.0928  130.6435  149.5853 H   0  0  0  0  0  0  0  0  0  0  0  0  # atno 10718 bound_to 10713
  154.6376  135.5400  153.7751 H   0  0  0  0  0  0  0  0  0  0  0  0  # atno 10763 bound_to 10752
  153.0316  135.6451  154.1209 H   0  0  0  0  0  0  0  0  0  0  0  0  # atno 10764 bound_to 10752
  154.1135  135.2925  155.3205 H   0  0  0  0  0  0  0  0  0  0  0  0  # atno 10765 bound_to 10752
  140.1693  134.4243  155.8267 H   0  0  0  0  0  0  0  0  0  0  0  0  # atno 11005 bound_to 11000
  144.7071  140.3893  143.7110 LP  0  0  0  0  0  0  0  0  0  0  0  0  # atno 17320 bound_to 7965
  145.6898  139.1636  143.2653 LP  0  0  0  0  0  0  0  0  0  0  0  0  # atno 17321 bound_to 7965
  140.3419  144.3193  150.5965 LP  0  0  0  0  0  0  0  0  0  0  0  0  # atno 17342 bound_to 10162
  140.5559  143.2199  151.7849 LP  0  0  0  0  0  0  0  0  0  0  0  0  # atno 17343 bound_to 10162
  155.9893  130.4940  150.7210 LP  0  0  0  0  0  0  0  0  0  0  0  0  # atno 17370 bound_to 10713
  157.4706  131.0893  151.0646 LP  0  0  0  0  0  0  0  0  0  0  0  0  # atno 17371 bound_to 10713
  141.2216  133.6948  156.7734 LP  0  0  0  0  0  0  0  0  0  0  0  0  # atno 17394 bound_to 11000
  140.2397  134.8623  157.3560 LP  0  0  0  0  0  0  0  0  0  0  0  0  # atno 17395 bound_to 11000

$$$$
