#       Name:                AV-unprocessed.smi:1295
#       Creating user name   scv26
#       Creation time:       Fri Mar 27 04:56:47 2020


#       File generated by GOLD software.
#

@<TRIPOS>MOLECULE
AV-unprocessed.smi:1295
    48    49     1
SMALL
NO_CHARGES


@<TRIPOS>ATOM
      1 ****        -6.4174  -1.5367   1.1726 C.3            1 S1                 0.0000
      2 ****        -4.9046  -1.5787   1.1816 C.2            1 S1                 0.0000
      3 ****        -4.3158  -0.3625   1.4864 N.pl3          1 S1                 0.0000
      4 ****        -2.9338  -0.3021   1.5166 C.2            1 S1                 0.0000
      5 ****        -2.3691   1.0669   1.8553 C.3            1 S1                 0.0000
      6 ****        -2.1767  -1.3977   1.2545 C.2            1 S1                 0.0000
      7 ****        -0.6495  -1.3681   1.2708 C.3            1 S1                 0.0000
      8 ****         0.0114  -0.7956   0.0149 C.2            1 S1                 0.0000
      9 ****        -0.4710  -1.0199  -1.0951 O.2            1 S1                 0.0000
     10 ****         1.1132  -0.0545   0.2099 N.am           1 S1                 0.0000
     11 ****         1.8852   0.6265  -0.8286 C.3            1 S1                 0.0000
     12 ****         2.0579   2.1028  -0.4213 C.3            1 S1                 0.0000
     13 ****         2.9138   2.8762  -1.4343 C.3            1 S1                 0.0000
     14 ****         4.2792   2.2031  -1.6254 C.3            1 S1                 0.0000
     15 ****         4.1144   0.7359  -2.0487 C.3            1 S1                 0.0000
     16 ****         3.2570  -0.0632  -1.0457 C.3            1 S1                 0.0000
     17 ****         3.1205  -1.5267  -1.5028 C.3            1 S1                 0.0000
     18 ****        -2.8640  -2.6702   0.9307 C.2            1 S1                 0.0000
     19 ****        -2.2346  -3.6955   0.6738 O.2            1 S1                 0.0000
     20 ****        -4.2683  -2.6791   0.9174 N.2            1 S1                 0.0000
     21 ****        -4.8410   0.4769   1.6839 H              1 S1                 0.0000
     22 ****        -6.8344  -2.5409   1.0875 H              1 S1                 0.0000
     23 ****        -6.7742  -0.9460   0.3285 H              1 S1                 0.0000
     24 ****        -6.7942  -1.0898   2.0932 H              1 S1                 0.0000
     25 ****        -1.7796   1.0204   2.7711 H              1 S1                 0.0000
     26 ****        -3.1604   1.8026   2.0051 H              1 S1                 0.0000
     27 ****        -1.7281   1.4260   1.0499 H              1 S1                 0.0000
     28 ****        -0.2431  -2.3647   1.4449 H              1 S1                 0.0000
     29 ****        -0.3305  -0.7845   2.1353 H              1 S1                 0.0000
     30 ****         1.4343   0.0648   1.1597 H              1 S1                 0.0000
     31 ****         1.3397   0.6079  -1.7740 H              1 S1                 0.0000
     32 ****         1.0816   2.5804  -0.3290 H              1 S1                 0.0000
     33 ****         2.5245   2.1628   0.5632 H              1 S1                 0.0000
     34 ****         2.3925   2.9268  -2.3911 H              1 S1                 0.0000
     35 ****         3.0485   3.9050  -1.0996 H              1 S1                 0.0000
     36 ****         4.8571   2.7435  -2.3755 H              1 S1                 0.0000
     37 ****         4.8494   2.2566  -0.6972 H              1 S1                 0.0000
     38 ****         3.6560   0.6951  -3.0377 H              1 S1                 0.0000
     39 ****         5.0983   0.2757  -2.1475 H              1 S1                 0.0000
     40 ****         3.7878  -0.0675  -0.0924 H              1 S1                 0.0000
     41 ****         2.5534  -1.5990  -2.4313 H              1 S1                 0.0000
     42 ****         2.6141  -2.1371  -0.7552 H              1 S1                 0.0000
     43 ****         4.0986  -1.9763  -1.6751 H              1 S1                 0.0000
     44 ****        -1.2969  -1.5775  -1.1779 LP             1 S1                 0.0000
     45 ****        -0.0369  -0.6445  -1.9140 LP             1 S1                 0.0000
     46 ****        -1.2347  -3.6832   0.6803 LP             1 S1                 0.0000
     47 ****        -2.7228  -4.5412   0.4585 LP             1 S1                 0.0000
     48 ****        -4.7695  -3.5187   0.7080 LP             1 S1                 0.0000
@<TRIPOS>BOND
    1    1   22 1     
    2    1   23 1     
    3    1   24 1     
    4    1    2 1     
    5    2    3 1     
    6    2   20 2     
    7    3    4 1     
    8    3   21 1     
    9    4    6 2     
   10    4    5 1     
   11    5   25 1     
   12    5   26 1     
   13    5   27 1     
   14    6   18 1     
   15    6    7 1     
   16    7    8 1     
   17    7   28 1     
   18    7   29 1     
   19    8    9 2     
   20    8   10 am    
   21   10   11 1     
   22   10   30 1     
   23   11   16 1     
   24   11   12 1     
   25   11   31 1     
   26   12   13 1     
   27   12   32 1     
   28   12   33 1     
   29   13   14 1     
   30   13   34 1     
   31   13   35 1     
   32   14   15 1     
   33   14   36 1     
   34   14   37 1     
   35   15   16 1     
   36   15   38 1     
   37   15   39 1     
   38   16   17 1     
   39   16   40 1     
   40   17   41 1     
   41   17   42 1     
   42   17   43 1     
   43   18   19 2     
   44   18   20 1     
   45    9   44 1     
   46    9   45 1     
   47   19   46 1     
   48   19   47 1     
   49   20   48 1     
@<TRIPOS>SUBSTRUCTURE
      1 S1             1
@<TRIPOS>SET
LONE_PAIRS      STATIC     ATOMS    <user>   **** ""
5 44 45 46 47 48
DONOR_HYDROGENS      STATIC     ATOMS    <user>   **** ""
2 21 30
ATOM$BLUE        STATIC     ATOMS    COLORGROUP SYSTEM
5 44 45 46 47 48
ATOM$RED        STATIC     ATOMS    COLORGROUP SYSTEM
2 21 30
