AV-unprocessed.smi:31|AV-procd|sdf|195|dock1
  -GOLD-   2262015463D 1   1.00000     0.00000
 Structure written by MMmdl.
 49 52  0  0  0  0  0  0  0  0  1 V2000
  153.2566  139.0649  157.1295 O   0  0  0  0  0  0  0  0  0  0  0  0
  153.9620  138.6893  158.0670 C   0  0  0  0  0  0  0  0  0  0  0  0
  154.7339  137.3629  157.9800 C   0  0  0  0  0  0  0  0  0  0  0  0
  155.6565  137.1411  159.1152 N   0  0  0  0  0  0  0  0  0  0  0  0
  156.8447  137.9100  159.1891 C   0  0  0  0  0  0  0  0  0  0  0  0
  157.1255  138.7372  158.3205 O   0  0  0  0  0  0  0  0  0  0  0  0
  157.6853  137.6596  160.3545 C   0  0  0  0  0  0  0  0  0  0  0  0
  158.8297  138.3470  160.5099 F   0  0  0  0  0  0  0  0  0  0  0  0
  157.3293  136.7511  161.2856 C   0  0  0  0  0  0  0  0  0  0  0  0
  156.1670  136.0067  161.1996 N   0  0  0  0  0  0  0  0  0  0  0  0
  155.7853  135.0143  162.2755 C   0  0  2  0  0  0  0  0  0  0  0  0
  154.4864  135.4521  162.9616 C   0  0  0  0  0  0  0  0  0  0  0  0
  155.0092  136.2288  164.1500 C   0  0  0  0  0  0  0  0  0  0  0  0
  156.2693  135.4445  164.4977 C   0  0  0  0  0  0  0  0  0  0  0  0
  156.7878  134.9877  163.2509 O   0  0  0  0  0  0  0  0  0  0  0  0
  155.2941  136.1986  160.1069 C   0  0  0  0  0  0  0  0  0  0  0  0
  154.2369  135.5689  160.0270 O   0  0  0  0  0  0  0  0  0  0  0  0
  154.1390  139.3781  159.2091 N   0  0  0  0  0  0  0  0  0  0  0  0
  153.5818  140.6318  159.5793 C   0  0  0  0  0  0  0  0  0  0  0  0
  153.8352  141.0936  160.8844 C   0  0  0  0  0  0  0  0  0  0  0  0
  153.3176  142.3288  161.3134 C   0  0  0  0  0  0  0  0  0  0  0  0
  152.5308  143.1209  160.4538 C   0  0  0  0  0  0  0  0  0  0  0  0
  152.2073  142.6267  159.1560 C   0  0  0  0  0  0  0  0  0  0  0  0
  152.7535  141.3996  158.7277 C   0  0  0  0  0  0  0  0  0  0  0  0
  151.3628  143.2622  158.2719 O   0  0  0  0  0  0  0  0  0  0  0  0
  150.2806  143.9806  158.8457 C   0  0  0  0  0  0  0  0  0  0  0  0
  150.7106  145.3890  159.2614 C   0  0  0  0  0  0  0  0  0  0  0  0
  152.0587  145.3987  159.9847 C   0  0  0  0  0  0  0  0  0  0  0  0
  152.1365  144.3489  160.9379 O   0  0  0  0  0  0  0  0  0  0  0  0
  154.0161  136.5443  157.9044 H   0  0  0  0  0  0  0  0  0  0  0  0
  155.2645  137.3368  157.0270 H   0  0  0  0  0  0  0  0  0  0  0  0
  157.9868  136.6149  162.1312 H   0  0  0  0  0  0  0  0  0  0  0  0
  155.7233  134.0413  161.7859 H   0  0  0  0  0  0  0  0  0  0  0  0
  153.8388  136.0301  162.3011 H   0  0  0  0  0  0  0  0  0  0  0  0
  153.9504  134.5619  163.2929 H   0  0  0  0  0  0  0  0  0  0  0  0
  155.2652  137.2467  163.8536 H   0  0  0  0  0  0  0  0  0  0  0  0
  154.2980  136.2817  164.9746 H   0  0  0  0  0  0  0  0  0  0  0  0
  157.0008  136.0432  165.0404 H   0  0  0  0  0  0  0  0  0  0  0  0
  156.0184  134.5772  165.1098 H   0  0  0  0  0  0  0  0  0  0  0  0
  154.8145  138.9958  159.8549 H   0  0  0  0  0  0  0  0  0  0  0  0
  154.4468  140.5113  161.5584 H   0  0  0  0  0  0  0  0  0  0  0  0
  153.5486  142.6852  162.3065 H   0  0  0  0  0  0  0  0  0  0  0  0
  152.4918  141.0450  157.7428 H   0  0  0  0  0  0  0  0  0  0  0  0
  149.4771  144.0449  158.1117 H   0  0  0  0  0  0  0  0  0  0  0  0
  149.8681  143.4338  159.6960 H   0  0  0  0  0  0  0  0  0  0  0  0
  150.7756  146.0334  158.3843 H   0  0  0  0  0  0  0  0  0  0  0  0
  149.9404  145.8183  159.9027 H   0  0  0  0  0  0  0  0  0  0  0  0
  152.8825  145.3279  159.2716 H   0  0  0  0  0  0  0  0  0  0  0  0
  152.1903  146.3495  160.5012 H   0  0  0  0  0  0  0  0  0  0  0  0
  1  2  2  0  0  0  0
  2  3  1  0  0  0  0
  2 18  1  0  0  0  0
  3  4  1  0  0  0  0
  3 30  1  0  0  0  0
  3 31  1  0  0  0  0
  4 16  1  0  0  0  0
  4  5  1  0  0  0  0
  5  6  2  0  0  0  0
  5  7  1  0  0  0  0
  7  8  1  0  0  0  0
  7  9  2  0  0  0  0
  9 10  1  0  0  0  0
  9 32  1  0  0  0  0
 10 11  1  0  0  0  0
 10 16  1  0  0  0  0
 11 15  1  0  0  0  0
 11 12  1  0  0  0  0
 11 33  1  0  0  0  0
 12 13  1  0  0  0  0
 12 34  1  0  0  0  0
 12 35  1  0  0  0  0
 13 14  1  0  0  0  0
 13 36  1  0  0  0  0
 13 37  1  0  0  0  0
 14 15  1  0  0  0  0
 14 38  1  0  0  0  0
 14 39  1  0  0  0  0
 16 17  2  0  0  0  0
 18 19  1  0  0  0  0
 18 40  1  0  0  0  0
 19 24  1  0  0  0  0
 19 20  2  0  0  0  0
 20 21  1  0  0  0  0
 20 41  1  0  0  0  0
 21 22  2  0  0  0  0
 21 42  1  0  0  0  0
 22 29  1  0  0  0  0
 22 23  1  0  0  0  0
 23 24  2  0  0  0  0
 23 25  1  0  0  0  0
 24 43  1  0  0  0  0
 25 26  1  0  0  0  0
 26 27  1  0  0  0  0
 26 44  1  0  0  0  0
 26 45  1  0  0  0  0
 27 28  1  0  0  0  0
 27 46  1  0  0  0  0
 27 47  1  0  0  0  0
 28 29  1  0  0  0  0
 28 48  1  0  0  0  0
 28 49  1  0  0  0  0
M  END
> <s_m_source_file>
AV-unprocessed.smi

> <i_m_source_file_index>
31

> <i_lp_mmshare_version>
43012

> <i_f3d_flags>
0

> <s_epik_input>
TzFbQ0gyXVtDSDJdW0NIMl1PYyhjMTIpW2NIXWMoW2NIXVtjSF0yKVtOSF1DKD1PKVtDSDJdbjNjKD1PKWMoRilbY0hdbihjMz1PKVtDQEBIXTRbQ0gyXVtDSDJdW0NIMl1PNA==

> <s_epik_cmdline>
J2VwaWtfcHl0aG9uJywgJy1waCcsICc3LjAnLCAnLXRuJywgJzgnLCAnLW1hJywgJzIwMCcsICctbWV0YWxfYmluZGluZycsICctaW1hZScsICc8aW5maWxlLm1hZT4nLCAnLW9tYWUnLCAnPG91dGZpbGUubWFlPic=

> <r_lp_tautomer_probability>
1

> <r_epik_Ionization_Penalty>
1.0483e-05

> <r_epik_Ionization_Penalty_Charging>
3.88729e-08

> <r_epik_Ionization_Penalty_Neutral>
1.04441e-05

> <r_epik_State_Penalty>
-0

> <r_epik_Charging_Adjusted_Penalty>
3.88729e-08

> <i_epik_Tot_Q>
0

> <i_epik_Tot_abs_Q>
0

> <r_epik_Metal_State_Penalty>
-0

> <b_epik_Metal_Only>
0

> <s_epik_Chemistry_Notes>
This compound contains an acetal/aminal-like group ( X-CH(R)-Y where X, Y are N, S, or O) that may be acid/base labile, releasing an aldehyde.

> <s_lp_Force_Field>
OPLS_2005

> <r_lp_Energy>
45.2544

> <b_lp_Chiralities_Consistent>
1

> <s_lp_Variant>
AV-unprocessed.smi:31-1

> <Gold.Version>
5.8.1

> <Gold.Id.Protein>
6NUR|6NUR_protein|mol2

> <Gold.PLP.Fitness>
47.3296

> <Gold.PLP.PLP>
-39.6912

> <Gold.PLP.part.hbond>
-3.0000

> <Gold.PLP.part.metal>
0.0000

> <Gold.PLP.part.buried>
-5.5248

> <Gold.PLP.part.nonpolar>
-31.4472

> <Gold.PLP.part.repulsive>
0.4055

> <Gold.PLP.ligand.clash>
0.0000

> <Gold.PLP.ligand.torsion>
0.2166

> <Gold.PLP.Chemscore.Hbond>
2.6710

> <Gold.PLP.Chemscore.CHOScore>
0.0000

> <Gold.PLP.Chemscore.Metal>
0.0000

> <Gold.Chemscore.Hbonds>
donor molecule, donor type, donor heavy atom, donor atom, acceptor molecule, acceptor atom, score
      P1  H  6896  6907       L1    17  1.00
      P1  H  7997  8008       L1     6  0.76
      P1  H  7997  8009       L1     1  0.81

> <Gold.PLP.Chemscore.Internal.Correction>
0.0586

> <Gold.Rescore>
     Score         DG    S(hbond)    S(metal)    S(lipo)     H(rot)  DE(clash)    DE(int)     intcor
     18.62     -21.69       2.23        0.00     110.91       1.64       0.36       2.71       ----

> <Gold.Chemscore.Fitness>
18.6189

> <Gold.Chemscore.DG>
-21.6855

> <Gold.Chemscore.ZeroCoef>
-5.4800

> <Gold.Chemscore.Hbond>
2.2258

> <Gold.Chemscore.Metal>
0.0000

> <Gold.Chemscore.Lipo>
110.9109

> <Gold.Chemscore.Internal_Hbond>
0.0000

> <Gold.Chemscore.DEClash>
0.3579

> <Gold.Chemscore.DEInternal>
2.7087

> <Gold.Chemscore.Rot>
1.6427

> <Gold.Chemscore.Internal.Correction>
   9.000000E+99

> <Gold.Chemscore.Hbonds>
donor molecule, donor type, donor heavy atom, donor atom, acceptor molecule, acceptor atom, score
      P1  H  6896  6907       L1    17  0.97
      P1  H  7997  8008       L1     6  0.75
      P1  H  7997  8009       L1     1  0.16

> <Gold.Chemscore.Hbond.Weighted>
-7.4343

> <Gold.Chemscore.Metal.Weighted>
-0.0000

> <Gold.Chemscore.Lipo.Weighted>
-12.9766

> <Gold.Chemscore.Internal_Hbond.Weighted>
0.0000

> <Gold.Chemscore.DEClash.Weighted>
0.3579

> <Gold.Chemscore.DEInternal.Weighted>
2.7087

> <Gold.Chemscore.Rot.Weighted>
4.2053

> <Gold.Chemscore.Internal.Correction.Weighted>
   9.000000E+99

> <Gold.Protein.RotatedTorsions>
[ 6907 6896 6895 6894 ] final   63.13 input  -60.11 | X-H torsion
[ 7974 7965 7964 7962 ] final  -37.58 input  175.53 | X-H torsion
[ 8008 7997 7996 7995 ] final -163.88 input   59.86 | X-H torsion
[ 10167 10162 10161 10158 ] final -132.43 input  -65.29 | X-H torsion
[ 10718 10713 10712 10709 ] final   53.58 input   66.30 | X-H torsion
[ 10763 10752 10751 10750 ] final  118.26 input  -60.55 | X-H torsion
[ 11005 11000 10999 10996 ] final  -26.75 input  -57.11 | X-H torsion

> <Gold.Protein.ActiveResidues>
 VAL166  LYS551  ARG553  GLY616  TRP617  ASP618  TYR619  PRO620  LYS621  CYS622 
 ASP623  PHE694  ASN695  SER759  ASP760  ASP761  ALA762  ILE779  LEU786  VAL792 
 PHE793  MET794  SER795  GLU796  ALA797  LYS798  CYS799  TRP800  GLU811  SER814 

> <Gold.Protein.RotatedAtoms>
  152.4228  134.5923  159.9977 H   0  0  0  0  0  0  0  0  0  0  0  0  # atno 6907 bound_to 6896
  151.6068  133.3345  159.3067 H   0  0  0  0  0  0  0  0  0  0  0  0  # atno 6908 bound_to 6896
  150.8117  134.7313  159.6759 H   0  0  0  0  0  0  0  0  0  0  0  0  # atno 6909 bound_to 6896
  146.0563  140.6412  142.9018 H   0  0  0  0  0  0  0  0  0  0  0  0  # atno 7974 bound_to 7965
  155.8276  140.0929  157.1812 H   0  0  0  0  0  0  0  0  0  0  0  0  # atno 8008 bound_to 7997
  154.3979  140.1425  156.3636 H   0  0  0  0  0  0  0  0  0  0  0  0  # atno 8009 bound_to 7997
  155.8200  140.3446  155.5511 H   0  0  0  0  0  0  0  0  0  0  0  0  # atno 8010 bound_to 7997
  139.9086  143.6521  152.2580 H   0  0  0  0  0  0  0  0  0  0  0  0  # atno 10167 bound_to 10162
  157.5180  130.8545  149.8520 H   0  0  0  0  0  0  0  0  0  0  0  0  # atno 10718 bound_to 10713
  153.5649  135.3513  155.2814 H   0  0  0  0  0  0  0  0  0  0  0  0  # atno 10763 bound_to 10752
  154.8690  135.4145  154.2789 H   0  0  0  0  0  0  0  0  0  0  0  0  # atno 10764 bound_to 10752
  153.3543  135.7056  153.6833 H   0  0  0  0  0  0  0  0  0  0  0  0  # atno 10765 bound_to 10752
  140.9057  133.7494  156.0603 H   0  0  0  0  0  0  0  0  0  0  0  0  # atno 11005 bound_to 11000
  144.7149  140.4175  143.7052 LP  0  0  0  0  0  0  0  0  0  0  0  0  # atno 17320 bound_to 7965
  145.6638  139.1586  143.2793 LP  0  0  0  0  0  0  0  0  0  0  0  0  # atno 17321 bound_to 7965
  139.6962  144.7641  151.1352 LP  0  0  0  0  0  0  0  0  0  0  0  0  # atno 17342 bound_to 10162
  140.7690  143.5520  150.9194 LP  0  0  0  0  0  0  0  0  0  0  0  0  # atno 17343 bound_to 10162
  156.0333  130.3758  150.1627 LP  0  0  0  0  0  0  0  0  0  0  0  0  # atno 17370 bound_to 10713
  156.9816  130.9866  151.3436 LP  0  0  0  0  0  0  0  0  0  0  0  0  # atno 17371 bound_to 10713
  140.8173  134.3330  157.5393 LP  0  0  0  0  0  0  0  0  0  0  0  0  # atno 17394 bound_to 11000
  139.8749  134.9289  156.3462 LP  0  0  0  0  0  0  0  0  0  0  0  0  # atno 17395 bound_to 11000

$$$$
