AV-unprocessed.smi:227|AV-procd|sdf|1733|dock8
  -GOLD-   2262020233D 1   1.00000     0.00000
 Structure written by MMmdl.
 54 58  0  0  0  0  0  0  0  0  1 V2000
  151.2679  140.0075  155.6057 O   0  0  0  0  0  0  0  0  0  0  0  0
  151.1274  141.2956  156.1706 C   0  0  0  0  0  0  0  0  0  0  0  0
  151.5577  141.3198  157.6558 C   0  0  2  0  0  0  0  0  0  0  0  0
  150.7259  140.2789  158.4490 C   0  0  0  0  0  0  0  0  0  0  0  0
  151.5158  139.2271  159.0651 N   0  0  0  0  0  0  0  0  0  0  0  0
  151.1752  137.8980  159.1688 C   0  0  0  0  0  0  0  0  0  0  0  0
  152.0530  137.1461  159.7733 N   0  0  0  0  0  0  0  0  0  0  0  0
  153.0674  138.0242  160.1380 C   0  0  0  0  0  0  0  0  0  0  0  0
  154.3128  137.8839  160.8167 C   0  0  0  0  0  0  0  0  0  0  0  0
  154.7833  136.6987  161.2930 N   0  0  0  0  0  0  0  0  0  0  0  0
  156.0306  136.6309  162.0441 C   0  0  1  0  0  0  0  0  0  0  0  0
  155.6717  137.2133  163.4276 C   0  0  0  0  0  0  0  0  0  0  0  0
  154.2139  136.7540  163.5748 C   0  0  0  0  0  0  0  0  0  0  0  0
  154.0160  135.9452  162.2736 C   0  0  2  0  0  0  0  0  0  0  0  0
  154.7959  134.6099  162.3026 C   0  0  2  0  0  0  0  0  0  0  0  0
  154.5317  133.6607  163.4864 C   0  0  0  0  0  0  0  0  0  0  0  0
  155.3524  132.5164  163.3878 O   0  0  0  0  0  0  0  0  0  0  0  0
  156.2466  135.1144  162.1912 C   0  0  0  0  0  0  0  0  0  0  0  0
  155.0719  139.0031  160.9597 N   0  0  0  0  0  0  0  0  0  0  0  0
  154.6384  140.1807  160.5026 C   0  0  0  0  0  0  0  0  0  0  0  0
  153.4988  140.4605  159.8692 N   0  0  0  0  0  0  0  0  0  0  0  0
  152.7401  139.3403  159.7010 C   0  0  0  0  0  0  0  0  0  0  0  0
  151.5259  142.7548  158.2589 C   0  0  2  0  0  0  0  0  0  0  0  0
  152.2049  143.8164  157.4073 C   0  0  0  0  0  0  0  0  0  0  0  0
  152.4246  144.9393  158.4098 C   0  0  0  0  0  0  0  0  0  0  0  0
  152.7813  144.2722  159.6103 O   0  0  0  0  0  0  0  0  0  0  0  0
  152.2709  142.9418  159.5911 C   0  0  0  0  0  0  0  0  0  0  0  0
  152.0139  140.0123  155.0255 H   0  0  0  0  0  0  0  0  0  0  0  0
  151.7270  141.9967  155.5893 H   0  0  0  0  0  0  0  0  0  0  0  0
  150.0927  141.6182  156.0557 H   0  0  0  0  0  0  0  0  0  0  0  0
  152.5960  140.9858  157.6672 H   0  0  0  0  0  0  0  0  0  0  0  0
  150.1362  140.7758  159.2198 H   0  0  0  0  0  0  0  0  0  0  0  0
  150.0100  139.7913  157.7864 H   0  0  0  0  0  0  0  0  0  0  0  0
  150.2538  137.4993  158.7699 H   0  0  0  0  0  0  0  0  0  0  0  0
  156.8788  137.1274  161.5713 H   0  0  0  0  0  0  0  0  0  0  0  0
  156.3166  136.8367  164.2223 H   0  0  0  0  0  0  0  0  0  0  0  0
  155.7344  138.3019  163.4315 H   0  0  0  0  0  0  0  0  0  0  0  0
  154.0287  136.1848  164.4843 H   0  0  0  0  0  0  0  0  0  0  0  0
  153.5467  137.6168  163.5920 H   0  0  0  0  0  0  0  0  0  0  0  0
  152.9670  135.7935  162.0259 H   0  0  0  0  0  0  0  0  0  0  0  0
  154.5587  134.0685  161.3846 H   0  0  0  0  0  0  0  0  0  0  0  0
  154.7613  134.1677  164.4239 H   0  0  0  0  0  0  0  0  0  0  0  0
  153.4865  133.3595  163.5460 H   0  0  0  0  0  0  0  0  0  0  0  0
  155.5847  132.3900  162.4807 H   0  0  0  0  0  0  0  0  0  0  0  0
  156.7278  134.6988  161.3050 H   0  0  0  0  0  0  0  0  0  0  0  0
  156.8620  134.8636  163.0561 H   0  0  0  0  0  0  0  0  0  0  0  0
  155.3010  141.0177  160.6666 H   0  0  0  0  0  0  0  0  0  0  0  0
  150.4878  143.0589  158.4044 H   0  0  0  0  0  0  0  0  0  0  0  0
  153.1649  143.4553  157.0350 H   0  0  0  0  0  0  0  0  0  0  0  0
  151.6034  144.1352  156.5554 H   0  0  0  0  0  0  0  0  0  0  0  0
  153.1960  145.6425  158.0955 H   0  0  0  0  0  0  0  0  0  0  0  0
  151.4994  145.4939  158.5723 H   0  0  0  0  0  0  0  0  0  0  0  0
  151.6177  142.7823  160.4483 H   0  0  0  0  0  0  0  0  0  0  0  0
  153.1155  142.2575  159.6757 H   0  0  0  0  0  0  0  0  0  0  0  0
  1  2  1  0  0  0  0
  1 28  1  0  0  0  0
  2  3  1  0  0  0  0
  2 29  1  0  0  0  0
  2 30  1  0  0  0  0
  3  4  1  0  0  0  0
  3 23  1  0  0  0  0
  3 31  1  0  0  0  0
  4  5  1  0  0  0  0
  4 32  1  0  0  0  0
  4 33  1  0  0  0  0
  5 22  1  0  0  0  0
  5  6  1  0  0  0  0
  6  7  2  0  0  0  0
  6 34  1  0  0  0  0
  7  8  1  0  0  0  0
  8 22  2  0  0  0  0
  8  9  1  0  0  0  0
  9 10  1  0  0  0  0
  9 19  2  0  0  0  0
 10 14  1  0  0  0  0
 10 11  1  0  0  0  0
 11 18  1  0  0  0  0
 11 12  1  0  0  0  0
 11 35  1  0  0  0  0
 12 13  1  0  0  0  0
 12 36  1  0  0  0  0
 12 37  1  0  0  0  0
 13 14  1  0  0  0  0
 13 38  1  0  0  0  0
 13 39  1  0  0  0  0
 14 15  1  0  0  0  0
 14 40  1  0  0  0  0
 15 16  1  0  0  0  0
 15 18  1  0  0  0  0
 15 41  1  0  0  0  0
 16 17  1  0  0  0  0
 16 42  1  0  0  0  0
 16 43  1  0  0  0  0
 17 44  1  0  0  0  0
 18 45  1  0  0  0  0
 18 46  1  0  0  0  0
 19 20  1  0  0  0  0
 20 21  2  0  0  0  0
 20 47  1  0  0  0  0
 21 22  1  0  0  0  0
 23 27  1  0  0  0  0
 23 24  1  0  0  0  0
 23 48  1  0  0  0  0
 24 25  1  0  0  0  0
 24 49  1  0  0  0  0
 24 50  1  0  0  0  0
 25 26  1  0  0  0  0
 25 51  1  0  0  0  0
 25 52  1  0  0  0  0
 26 27  1  0  0  0  0
 27 53  1  0  0  0  0
 27 54  1  0  0  0  0
M  END
> <s_m_source_file>
AV-unprocessed.smi

> <i_m_source_file_index>
227

> <i_lp_mmshare_version>
43012

> <i_f3d_flags>
0

> <s_epik_input>
W0NIMl0xT1tDSDJdW0NIMl1bQ0BIXTFbQ0BIXShbQ0gyXVtPSF0pW0NIMl1uKFtjSF1uMiljKGMyMyluW2NIXW5jM04oW0NASF00NSlbQ0BASF0oW0NIMl1bQ0gyXTQpW0NASF0oW0NIMl01KVtDSDJdW09IXQ==

> <s_epik_cmdline>
J2VwaWtfcHl0aG9uJywgJy1waCcsICc3LjAnLCAnLXRuJywgJzgnLCAnLW1hJywgJzIwMCcsICctbWV0YWxfYmluZGluZycsICctaW1hZScsICc8aW5maWxlLm1hZT4nLCAnLW9tYWUnLCAnPG91dGZpbGUubWFlPic=

> <r_lp_tautomer_probability>
1

> <r_epik_Ionization_Penalty>
0.0055791

> <r_epik_Ionization_Penalty_Charging>
0

> <r_epik_Ionization_Penalty_Neutral>
0.0055791

> <r_epik_State_Penalty>
0.00401299

> <r_epik_Charging_Adjusted_Penalty>
0.00401299

> <i_epik_Tot_Q>
0

> <i_epik_Tot_abs_Q>
0

> <r_epik_Metal_State_Penalty>
-0

> <b_epik_Metal_Only>
0

> <s_lp_Force_Field>
OPLS_2005

> <r_lp_Energy>
89.6515

> <b_lp_Chiralities_Consistent>
1

> <s_lp_Variant>
AV-unprocessed.smi:227-7

> <Gold.Version>
5.8.1

> <Gold.Id.Protein>
6NUR|6NUR_protein|mol2

> <Gold.PLP.Fitness>
43.4360

> <Gold.PLP.PLP>
-42.9322

> <Gold.PLP.part.hbond>
-1.5523

> <Gold.PLP.part.metal>
0.0000

> <Gold.PLP.part.buried>
-8.2671

> <Gold.PLP.part.nonpolar>
-34.1008

> <Gold.PLP.part.repulsive>
0.0294

> <Gold.PLP.ligand.clash>
0.0000

> <Gold.PLP.ligand.torsion>
1.1933

> <Gold.PLP.Chemscore.Hbond>
0.9263

> <Gold.PLP.Chemscore.CHOScore>
0.0000

> <Gold.PLP.Chemscore.Metal>
0.0000

> <Gold.Chemscore.Hbonds>
donor molecule, donor type, donor heavy atom, donor atom, acceptor molecule, acceptor atom, score
      P1  H  6896  6908       L1     7  0.99

> <Gold.PLP.Chemscore.Internal.Correction>
0.1118

> <Gold.Rescore>
     Score         DG    S(hbond)    S(metal)    S(lipo)     H(rot)  DE(clash)    DE(int)     intcor
     10.43     -11.84       0.95        0.00     106.11       3.61       0.40       1.01       ----

> <Gold.Chemscore.Fitness>
10.4272

> <Gold.Chemscore.DG>
-11.8358

> <Gold.Chemscore.ZeroCoef>
-5.4800

> <Gold.Chemscore.Hbond>
0.9505

> <Gold.Chemscore.Metal>
0.0000

> <Gold.Chemscore.Lipo>
106.1129

> <Gold.Chemscore.Internal_Hbond>
0.0000

> <Gold.Chemscore.DEClash>
0.3989

> <Gold.Chemscore.DEInternal>
1.0098

> <Gold.Chemscore.Rot>
3.6071

> <Gold.Chemscore.Internal.Correction>
   9.000000E+99

> <Gold.Chemscore.Hbonds>
donor molecule, donor type, donor heavy atom, donor atom, acceptor molecule, acceptor atom, score
      P1  H  6896  6908       L1     7  0.91

> <Gold.Chemscore.Hbond.Weighted>
-3.1748

> <Gold.Chemscore.Metal.Weighted>
-0.0000

> <Gold.Chemscore.Lipo.Weighted>
-12.4152

> <Gold.Chemscore.Internal_Hbond.Weighted>
0.0000

> <Gold.Chemscore.DEClash.Weighted>
0.3989

> <Gold.Chemscore.DEInternal.Weighted>
1.0098

> <Gold.Chemscore.Rot.Weighted>
9.2342

> <Gold.Chemscore.Internal.Correction.Weighted>
   9.000000E+99

> <Gold.Protein.RotatedTorsions>
[ 6907 6896 6895 6894 ] final -107.79 input  -60.11 | X-H torsion
[ 7974 7965 7964 7962 ] final  121.95 input  175.53 | X-H torsion
[ 8008 7997 7996 7995 ] final  -30.63 input   59.86 | X-H torsion
[ 10167 10162 10161 10158 ] final   26.44 input  -65.29 | X-H torsion
[ 10718 10713 10712 10709 ] final  -63.52 input   66.30 | X-H torsion
[ 10763 10752 10751 10750 ] final  129.56 input  -60.55 | X-H torsion
[ 11005 11000 10999 10996 ] final -176.05 input  -57.11 | X-H torsion

> <Gold.Protein.ActiveResidues>
 VAL166  LYS551  ARG553  GLY616  TRP617  ASP618  TYR619  PRO620  LYS621  CYS622 
 ASP623  PHE694  ASN695  SER759  ASP760  ASP761  ALA762  ILE779  LEU786  VAL792 
 PHE793  MET794  SER795  GLU796  ALA797  LYS798  CYS799  TRP800  GLU811  SER814 

> <Gold.Protein.RotatedAtoms>
  150.7464  133.9773  159.3564 H   0  0  0  0  0  0  0  0  0  0  0  0  # atno 6907 bound_to 6896
  151.7712  135.0784  160.0369 H   0  0  0  0  0  0  0  0  0  0  0  0  # atno 6908 bound_to 6896
  152.3338  133.5951  159.5864 H   0  0  0  0  0  0  0  0  0  0  0  0  # atno 6909 bound_to 6896
  145.1133  139.3438  143.4752 H   0  0  0  0  0  0  0  0  0  0  0  0  # atno 7974 bound_to 7965
  154.4243  140.1786  156.1438 H   0  0  0  0  0  0  0  0  0  0  0  0  # atno 8008 bound_to 7997
  155.9970  140.3363  155.6783 H   0  0  0  0  0  0  0  0  0  0  0  0  # atno 8009 bound_to 7997
  155.6295  140.0668  157.2644 H   0  0  0  0  0  0  0  0  0  0  0  0  # atno 8010 bound_to 7997
  140.5022  144.0296  150.6337 H   0  0  0  0  0  0  0  0  0  0  0  0  # atno 10167 bound_to 10162
  156.0786  130.4222  150.1289 H   0  0  0  0  0  0  0  0  0  0  0  0  # atno 10718 bound_to 10713
  153.7437  135.3220  155.3308 H   0  0  0  0  0  0  0  0  0  0  0  0  # atno 10763 bound_to 10752
  154.8286  135.4551  154.1001 H   0  0  0  0  0  0  0  0  0  0  0  0  # atno 10764 bound_to 10752
  153.2183  135.6945  153.8112 H   0  0  0  0  0  0  0  0  0  0  0  0  # atno 10765 bound_to 10752
  140.4565  134.6295  157.4824 H   0  0  0  0  0  0  0  0  0  0  0  0  # atno 11005 bound_to 11000
  146.3525  140.1061  142.8606 LP  0  0  0  0  0  0  0  0  0  0  0  0  # atno 17320 bound_to 7965
  145.0823  140.9229  143.4818 LP  0  0  0  0  0  0  0  0  0  0  0  0  # atno 17321 bound_to 7965
  140.3595  143.2916  152.0399 LP  0  0  0  0  0  0  0  0  0  0  0  0  # atno 17342 bound_to 10162
  139.4875  144.6314  151.7063 LP  0  0  0  0  0  0  0  0  0  0  0  0  # atno 17343 bound_to 10162
  156.9325  130.9718  151.3530 LP  0  0  0  0  0  0  0  0  0  0  0  0  # atno 17370 bound_to 10713
  157.5892  130.8432  149.8635 LP  0  0  0  0  0  0  0  0  0  0  0  0  # atno 17371 bound_to 10713
  139.9973  134.6891  155.9588 LP  0  0  0  0  0  0  0  0  0  0  0  0  # atno 17394 bound_to 11000
  141.1641  133.6537  156.4418 LP  0  0  0  0  0  0  0  0  0  0  0  0  # atno 17395 bound_to 11000

$$$$
