#       Name:                AV-unprocessed.smi:1142
#       Creating user name   scv26
#       Creation time:       Fri Mar 27 03:44:41 2020


#       File generated by GOLD software.
#

@<TRIPOS>MOLECULE
AV-unprocessed.smi:1142
    39    40     1
SMALL
NO_CHARGES


@<TRIPOS>ATOM
      1 ****        -4.2515   3.8101   0.1050 C.1            1 S1                 0.0000
      2 ****        -3.7331   2.8577  -0.4564 C.1            1 S1                 0.0000
      3 ****        -3.0945   1.7148  -1.1303 C.3            1 S1                 0.0000
      4 ****        -1.6480   1.6939  -0.9476 N.am           1 S1                 0.0000
      5 ****        -0.9979   1.0577   0.0413 C.2            1 S1                 0.0000
      6 ****        -1.5636   0.3985   0.9143 O.2            1 S1                 0.0000
      7 ****         0.5036   1.1712  -0.0064 C.ar           1 S1                 0.0000
      8 ****         1.0939   2.4332  -0.2497 C.ar           1 S1                 0.0000
      9 ****         2.4942   2.5581  -0.2489 C.ar           1 S1                 0.0000
     10 ****         3.2629   1.4101   0.0059 C.ar           1 S1                 0.0000
     11 ****         2.7212   0.1989   0.2429 N.ar           1 S1                 0.0000
     12 ****         1.3712   0.0650   0.2403 C.ar           1 S1                 0.0000
     13 ****         0.8686  -1.2355   0.4509 N.3            1 S1                 0.0000
     14 ****         1.6211  -2.1137   1.3414 C.3            1 S1                 0.0000
     15 ****         0.7998  -3.3791   1.6425 C.3            1 S1                 0.0000
     16 ****         0.4408  -4.0182   0.4204 O.3            1 S1                 0.0000
     17 ****        -0.3563  -3.1781  -0.4100 C.3            1 S1                 0.0000
     18 ****         0.4308  -1.9060  -0.7676 C.3            1 S1                 0.0000
     19 ****        -4.7036   4.6413   0.5981 H              1 S1                 0.0000
     20 ****        -3.5565   0.7941  -0.7704 H              1 S1                 0.0000
     21 ****        -3.3139   1.7877  -2.1955 H              1 S1                 0.0000
     22 ****        -1.0974   2.1995  -1.6262 H              1 S1                 0.0000
     23 ****         0.4839   3.3075  -0.4261 H              1 S1                 0.0000
     24 ****         2.9665   3.5121  -0.4311 H              1 S1                 0.0000
     25 ****         4.3414   1.4646   0.0194 H              1 S1                 0.0000
     26 ****         2.5665  -2.3917   0.8734 H              1 S1                 0.0000
     27 ****         1.8564  -1.5899   2.2686 H              1 S1                 0.0000
     28 ****         1.3844  -4.0717   2.2481 H              1 S1                 0.0000
     29 ****        -0.0970  -3.1338   2.2137 H              1 S1                 0.0000
     30 ****        -0.6225  -3.7224  -1.3159 H              1 S1                 0.0000
     31 ****        -1.2895  -2.9267   0.0974 H              1 S1                 0.0000
     32 ****        -0.1885  -1.2458  -1.3750 H              1 S1                 0.0000
     33 ****         1.3050  -2.1629  -1.3675 H              1 S1                 0.0000
     34 ****        -2.5601   0.3154   0.9112 LP             1 S1                 0.0000
     35 ****        -1.0264  -0.0537   1.6264 LP             1 S1                 0.0000
     36 ****         3.3076  -0.5919   0.4186 LP             1 S1                 0.0000
     37 ****         0.0493  -1.0360   0.9883 LP             1 S1                 0.0000
     38 ****        -0.0761  -4.8481   0.6303 LP             1 S1                 0.0000
     39 ****         1.2756  -4.2614  -0.0736 LP             1 S1                 0.0000
@<TRIPOS>BOND
    1    1    2 3     
    2    1   19 1     
    3    2    3 1     
    4    3    4 1     
    5    3   20 1     
    6    3   21 1     
    7    4    5 am    
    8    4   22 1     
    9    5    6 2     
   10    5    7 1     
   11    7   12 ar    
   12    7    8 ar    
   13    8    9 ar    
   14    8   23 1     
   15    9   10 ar    
   16    9   24 1     
   17   10   11 ar    
   18   10   25 1     
   19   11   12 ar    
   20   12   13 1     
   21   13   18 1     
   22   13   14 1     
   23   14   15 1     
   24   14   26 1     
   25   14   27 1     
   26   15   16 1     
   27   15   28 1     
   28   15   29 1     
   29   16   17 1     
   30   17   18 1     
   31   17   30 1     
   32   17   31 1     
   33   18   32 1     
   34   18   33 1     
   35    6   34 1     
   36    6   35 1     
   37   11   36 1     
   38   13   37 1     
   39   16   38 1     
   40   16   39 1     
@<TRIPOS>SUBSTRUCTURE
      1 S1             1
@<TRIPOS>SET
LONE_PAIRS      STATIC     ATOMS    <user>   **** ""
6 34 35 36 37 38 39
DONOR_HYDROGENS      STATIC     ATOMS    <user>   **** ""
1 22
ATOM$BLUE        STATIC     ATOMS    COLORGROUP SYSTEM
6 34 35 36 37 38 39
ATOM$RED        STATIC     ATOMS    COLORGROUP SYSTEM
1 22
