AV-unprocessed.smi:72|AV-procd|sdf|747|dock5
  -GOLD-   2262017 83D 1   1.00000     0.00000
 Structure written by MMmdl.
 29 30  0  0  0  0  0  0  0  0  1 V2000
  149.9472  134.2892  155.5250 N   0  0  0  0  0  0  0  0  0  0  0  0
  150.0541  135.6359  155.2469 C   0  0  0  0  0  0  0  0  0  0  0  0
  148.8649  136.3772  155.2856 N   0  0  0  0  0  0  0  0  0  0  0  0
  148.9628  137.6439  155.0325 C   0  0  0  0  0  0  0  0  0  0  0  0
  150.2461  138.2569  154.7394 N   0  0  0  0  0  0  0  0  0  0  0  0
  150.3671  139.7308  154.4251 C   0  0  2  0  0  0  0  0  0  0  0  0
  151.1310  140.3505  155.4167 O   0  0  0  0  0  0  0  0  0  0  0  0
  150.5618  141.6150  155.7310 C   0  0  2  0  0  0  0  0  0  0  0  0
  151.0185  142.1068  157.1160 C   0  0  0  0  0  0  0  0  0  0  0  0
  150.4338  143.3588  157.4050 O   0  0  0  0  0  0  0  0  0  0  0  0
  149.0546  141.3662  155.5796 C   0  0  2  0  0  0  0  0  0  0  0  0
  148.5126  140.7708  156.7446 O   0  0  0  0  0  0  0  0  0  0  0  0
  148.9802  140.3980  154.4050 C   0  0  1  0  0  0  0  0  0  0  0  0
  148.7758  141.1109  153.2020 O   0  0  0  0  0  0  0  0  0  0  0  0
  151.4082  137.4402  154.6883 C   0  0  0  0  0  0  0  0  0  0  0  0
  152.4985  137.9310  154.3952 O   0  0  0  0  0  0  0  0  0  0  0  0
  151.2482  136.0790  154.9749 N   0  0  0  0  0  0  0  0  0  0  0  0
  150.9072  139.8035  153.4796 H   0  0  0  0  0  0  0  0  0  0  0  0
  150.8644  142.3285  154.9615 H   0  0  0  0  0  0  0  0  0  0  0  0
  148.5090  142.2925  155.3944 H   0  0  0  0  0  0  0  0  0  0  0  0
  148.1798  139.6644  154.5173 H   0  0  0  0  0  0  0  0  0  0  0  0
  150.7345  133.6573  155.5250 H   0  0  0  0  0  0  0  0  0  0  0  0
  149.0735  133.8350  155.7482 H   0  0  0  0  0  0  0  0  0  0  0  0
  148.1047  138.3171  155.0196 H   0  0  0  0  0  0  0  0  0  0  0  0
  150.6901  141.4106  157.8884 H   0  0  0  0  0  0  0  0  0  0  0  0
  152.1053  142.1735  157.1766 H   0  0  0  0  0  0  0  0  0  0  0  0
  149.9964  143.6734  156.6287 H   0  0  0  0  0  0  0  0  0  0  0  0
  148.1945  141.4560  157.3121 H   0  0  0  0  0  0  0  0  0  0  0  0
  149.2769  140.6932  152.5180 H   0  0  0  0  0  0  0  0  0  0  0  0
  1  2  1  0  0  0  0
  1 22  1  0  0  0  0
  1 23  1  0  0  0  0
  2 17  2  0  0  0  0
  2  3  1  0  0  0  0
  3  4  2  0  0  0  0
  4  5  1  0  0  0  0
  4 24  1  0  0  0  0
  5  6  1  0  0  0  0
  5 15  1  0  0  0  0
  6 18  1  0  0  0  0
  6 13  1  0  0  0  0
  6  7  1  0  0  0  0
  7  8  1  0  0  0  0
  8 19  1  0  0  0  0
  8  9  1  0  0  0  0
  8 11  1  0  0  0  0
  9 10  1  0  0  0  0
  9 25  1  0  0  0  0
  9 26  1  0  0  0  0
 10 27  1  0  0  0  0
 11 20  1  0  0  0  0
 11 12  1  0  0  0  0
 11 13  1  0  0  0  0
 12 28  1  0  0  0  0
 13 21  1  0  0  0  0
 13 14  1  0  0  0  0
 14 29  1  0  0  0  0
 15 16  2  0  0  0  0
 15 17  1  0  0  0  0
M  END
> <s_m_source_file>
AV-unprocessed.smi

> <i_m_source_file_index>
72

> <i_lp_mmshare_version>
43012

> <i_f3d_flags>
0

> <s_epik_input>
W05IMl1jMW5bY0hdbihjKD1PKW4xKVtDQEBIXTJPW0NASF0oW0NIMl1bT0hdKVtDQEBIXShbT0hdKVtDQEhdMltPSF0=

> <s_epik_cmdline>
J2VwaWtfcHl0aG9uJywgJy1waCcsICc3LjAnLCAnLXRuJywgJzgnLCAnLW1hJywgJzIwMCcsICctbWV0YWxfYmluZGluZycsICctaW1hZScsICc8aW5maWxlLm1hZT4nLCAnLW9tYWUnLCAnPG91dGZpbGUubWFlPic=

> <r_lp_tautomer_probability>
4.77166e-05

> <r_epik_Ionization_Penalty>
1.3546

> <r_epik_Ionization_Penalty_Charging>
1.46833e-10

> <r_epik_Ionization_Penalty_Neutral>
1.3546

> <r_epik_State_Penalty>
3.51908

> <r_epik_Charging_Adjusted_Penalty>
3.51908

> <i_epik_Tot_Q>
0

> <i_epik_Tot_abs_Q>
0

> <r_epik_Metal_State_Penalty>
3.44088

> <b_epik_Metal_Only>
1

> <s_epik_Chemistry_Notes>
This compound contains an acetal/aminal-like group ( X-CH(R)-Y where X, Y are N, S, or O) that may be acid/base labile, releasing an aldehyde.

> <s_lp_Force_Field>
OPLS_2005

> <r_lp_Energy>
27.1219

> <b_lp_Chiralities_Consistent>
1

> <s_lp_Variant>
AV-unprocessed.smi:72-85

> <Gold.Version>
5.8.1

> <Gold.Id.Protein>
6NUR|6NUR_protein|mol2

> <Gold.PLP.Fitness>
35.8135

> <Gold.PLP.PLP>
-26.8972

> <Gold.PLP.part.hbond>
-5.9245

> <Gold.PLP.part.metal>
0.0000

> <Gold.PLP.part.buried>
-3.0344

> <Gold.PLP.part.nonpolar>
-18.3048

> <Gold.PLP.part.repulsive>
0.4294

> <Gold.PLP.ligand.clash>
0.0000

> <Gold.PLP.ligand.torsion>
0.0478

> <Gold.PLP.Chemscore.Hbond>
3.0000

> <Gold.PLP.Chemscore.CHOScore>
0.0000

> <Gold.PLP.Chemscore.Metal>
0.0000

> <Gold.Chemscore.Hbonds>
donor molecule, donor type, donor heavy atom, donor atom, acceptor molecule, acceptor atom, score
      L1  H    10    27       P1  8028  1.00
      L1  H    14    29       P1  7957  1.00
      P1  H 10752 10763       L1    17  1.00

> <Gold.PLP.Chemscore.Internal.Correction>
0.0118

> <Gold.Rescore>
     Score         DG    S(hbond)    S(metal)    S(lipo)     H(rot)  DE(clash)    DE(int)     intcor
      6.37      -7.70       2.92        0.00      24.54       4.06       0.01       1.32       ----

> <Gold.Chemscore.Fitness>
6.3677

> <Gold.Chemscore.DG>
-7.7003

> <Gold.Chemscore.ZeroCoef>
-5.4800

> <Gold.Chemscore.Hbond>
2.9170

> <Gold.Chemscore.Metal>
0.0000

> <Gold.Chemscore.Lipo>
24.5387

> <Gold.Chemscore.Internal_Hbond>
0.0000

> <Gold.Chemscore.DEClash>
0.0088

> <Gold.Chemscore.DEInternal>
1.3238

> <Gold.Chemscore.Rot>
4.0600

> <Gold.Chemscore.Internal.Correction>
   9.000000E+99

> <Gold.Chemscore.Hbonds>
donor molecule, donor type, donor heavy atom, donor atom, acceptor molecule, acceptor atom, score
      L1  H    10    27       P1  8028  0.99
      L1  H    14    29       P1  7957  0.93
      P1  H 10752 10763       L1    17  0.25

> <Gold.Chemscore.Hbond.Weighted>
-9.7429

> <Gold.Chemscore.Metal.Weighted>
-0.0000

> <Gold.Chemscore.Lipo.Weighted>
-2.8710

> <Gold.Chemscore.Internal_Hbond.Weighted>
0.0000

> <Gold.Chemscore.DEClash.Weighted>
0.0088

> <Gold.Chemscore.DEInternal.Weighted>
1.3238

> <Gold.Chemscore.Rot.Weighted>
10.3936

> <Gold.Chemscore.Internal.Correction.Weighted>
   9.000000E+99

> <Gold.Protein.RotatedTorsions>
[ 6907 6896 6895 6894 ] final  -58.61 input  -60.11 | X-H torsion
[ 7974 7965 7964 7962 ] final  -66.79 input  175.53 | X-H torsion
[ 8008 7997 7996 7995 ] final -149.50 input   59.86 | X-H torsion
[ 10167 10162 10161 10158 ] final  114.88 input  -65.29 | X-H torsion
[ 10718 10713 10712 10709 ] final   -3.78 input   66.30 | X-H torsion
[ 10763 10752 10751 10750 ] final   76.78 input  -60.55 | X-H torsion
[ 11005 11000 10999 10996 ] final -123.95 input  -57.11 | X-H torsion

> <Gold.Protein.ActiveResidues>
 VAL166  LYS551  ARG553  GLY616  TRP617  ASP618  TYR619  PRO620  LYS621  CYS622 
 ASP623  PHE694  ASN695  SER759  ASP760  ASP761  ALA762  ILE779  LEU786  VAL792 
 PHE793  MET794  SER795  GLU796  ALA797  LYS798  CYS799  TRP800  GLU811  SER814 

> <Gold.Protein.RotatedAtoms>
  150.7993  134.7076  159.6585 H   0  0  0  0  0  0  0  0  0  0  0  0  # atno 6907 bound_to 6896
  152.4109  134.6123  160.0038 H   0  0  0  0  0  0  0  0  0  0  0  0  # atno 6908 bound_to 6896
  151.6366  133.3291  159.3157 H   0  0  0  0  0  0  0  0  0  0  0  0  # atno 6909 bound_to 6896
  145.7373  140.8969  143.0548 H   0  0  0  0  0  0  0  0  0  0  0  0  # atno 7974 bound_to 7965
  155.6085  140.0669  157.2713 H   0  0  0  0  0  0  0  0  0  0  0  0  # atno 8008 bound_to 7997
  154.4259  140.1805  156.1295 H   0  0  0  0  0  0  0  0  0  0  0  0  # atno 8009 bound_to 7997
  156.0103  140.3327  155.6937 H   0  0  0  0  0  0  0  0  0  0  0  0  # atno 8010 bound_to 7997
  139.6357  144.7119  151.2340 H   0  0  0  0  0  0  0  0  0  0  0  0  # atno 10167 bound_to 10162
  156.7711  130.5300  149.5767 H   0  0  0  0  0  0  0  0  0  0  0  0  # atno 10718 bound_to 10713
  153.0750  135.4939  154.8385 H   0  0  0  0  0  0  0  0  0  0  0  0  # atno 10763 bound_to 10752
  154.7075  135.3013  154.9251 H   0  0  0  0  0  0  0  0  0  0  0  0  # atno 10764 bound_to 10752
  153.9955  135.6773  153.4809 H   0  0  0  0  0  0  0  0  0  0  0  0  # atno 10765 bound_to 10752
  140.9879  134.0580  157.3689 H   0  0  0  0  0  0  0  0  0  0  0  0  # atno 11005 bound_to 11000
  144.6878  139.9413  143.7475 LP  0  0  0  0  0  0  0  0  0  0  0  0  # atno 17320 bound_to 7965
  146.0481  139.3484  143.0656 LP  0  0  0  0  0  0  0  0  0  0  0  0  # atno 17321 bound_to 7965
  140.7464  143.6401  150.8343 LP  0  0  0  0  0  0  0  0  0  0  0  0  # atno 17342 bound_to 10162
  140.0032  143.5722  152.2867 LP  0  0  0  0  0  0  0  0  0  0  0  0  # atno 17343 bound_to 10162
  156.1278  130.6156  151.0288 LP  0  0  0  0  0  0  0  0  0  0  0  0  # atno 17370 bound_to 10713
  157.6691  131.0865  150.7657 LP  0  0  0  0  0  0  0  0  0  0  0  0  # atno 17371 bound_to 10713
  139.8979  135.0152  156.7122 LP  0  0  0  0  0  0  0  0  0  0  0  0  # atno 17394 bound_to 11000
  140.7085  133.9244  155.8069 LP  0  0  0  0  0  0  0  0  0  0  0  0  # atno 17395 bound_to 11000

$$$$
