AV-unprocessed.smi:1381|AV-procd|sdf|5604|dock8
  -GOLD-   22720 5213D 1   1.00000     0.00000
 Structure written by MMmdl.
 42 43  0  0  0  0  0  0  0  0  1 V2000
  144.3119  143.1722  162.7312 C   0  0  0  0  0  0  0  0  0  0  0  0
  145.0633  142.6836  161.5406 C   0  0  0  0  0  0  0  0  0  0  0  0
  145.8078  143.3179  160.5862 C   0  0  0  0  0  0  0  0  0  0  0  0
  146.2292  142.2515  159.7482 C   0  0  0  0  0  0  0  0  0  0  0  0
  147.0371  142.4974  158.6088 N   0  0  0  0  0  0  0  0  0  0  0  0
  147.9885  141.7009  158.0925 C   0  0  0  0  0  0  0  0  0  0  0  0
  148.3269  140.6097  158.5524 O   0  0  0  0  0  0  0  0  0  0  0  0
  148.5391  142.2456  156.9982 N   0  0  0  0  0  0  0  0  0  0  0  0
  149.6169  141.6468  156.2175 C   0  0  0  0  0  0  0  0  0  0  0  0
  150.9261  142.4520  156.3324 C   0  0  0  0  0  0  0  0  0  0  0  0
  151.2939  142.8618  157.6885 N   0  0  0  0  0  0  0  0  0  0  0  0
  151.8849  144.1974  157.7298 C   0  0  0  0  0  0  0  0  0  0  0  0
  152.3046  144.6196  159.1522 C   0  0  1  0  0  0  0  0  0  0  0  0
  151.1134  144.9815  160.0561 C   0  0  0  0  0  0  0  0  0  0  0  0
  153.1330  143.6172  159.7432 O   0  0  0  0  0  0  0  0  0  0  0  0
  152.5939  142.2967  159.7288 C   0  0  2  0  0  0  0  0  0  0  0  0
  153.6401  141.3499  160.3267 C   0  0  0  0  0  0  0  0  0  0  0  0
  152.2242  141.9123  158.2853 C   0  0  0  0  0  0  0  0  0  0  0  0
  145.7842  141.0723  160.1556 N   0  0  0  0  0  0  0  0  0  0  0  0
  145.0348  141.3434  161.3065 O   0  0  0  0  0  0  0  0  0  0  0  0
  144.5262  144.2238  162.9223 H   0  0  0  0  0  0  0  0  0  0  0  0
  144.5838  142.6047  163.6213 H   0  0  0  0  0  0  0  0  0  0  0  0
  143.2374  143.0688  162.5782 H   0  0  0  0  0  0  0  0  0  0  0  0
  146.0137  144.3748  160.5025 H   0  0  0  0  0  0  0  0  0  0  0  0
  146.8672  143.3701  158.1314 H   0  0  0  0  0  0  0  0  0  0  0  0
  148.2040  143.1473  156.6923 H   0  0  0  0  0  0  0  0  0  0  0  0
  149.7855  140.6215  156.5504 H   0  0  0  0  0  0  0  0  0  0  0  0
  149.2945  141.5709  155.1796 H   0  0  0  0  0  0  0  0  0  0  0  0
  151.7292  141.8417  155.9170 H   0  0  0  0  0  0  0  0  0  0  0  0
  150.8637  143.3309  155.6892 H   0  0  0  0  0  0  0  0  0  0  0  0
  152.7621  144.2245  157.0816 H   0  0  0  0  0  0  0  0  0  0  0  0
  151.1883  144.9364  157.3349 H   0  0  0  0  0  0  0  0  0  0  0  0
  152.9217  145.5144  159.0669 H   0  0  0  0  0  0  0  0  0  0  0  0
  150.5621  145.8297  159.6499 H   0  0  0  0  0  0  0  0  0  0  0  0
  151.4532  145.2567  161.0546 H   0  0  0  0  0  0  0  0  0  0  0  0
  150.4097  144.1557  160.1583 H   0  0  0  0  0  0  0  0  0  0  0  0
  151.7018  142.2622  160.3551 H   0  0  0  0  0  0  0  0  0  0  0  0
  153.2728  140.3235  160.3511 H   0  0  0  0  0  0  0  0  0  0  0  0
  153.8875  141.6385  161.3484 H   0  0  0  0  0  0  0  0  0  0  0  0
  154.5619  141.3625  159.7446 H   0  0  0  0  0  0  0  0  0  0  0  0
  151.7831  140.9148  158.2832 H   0  0  0  0  0  0  0  0  0  0  0  0
  153.1298  141.8532  157.6792 H   0  0  0  0  0  0  0  0  0  0  0  0
  1  2  1  0  0  0  0
  1 21  1  0  0  0  0
  1 22  1  0  0  0  0
  1 23  1  0  0  0  0
  2 20  1  0  0  0  0
  2  3  2  0  0  0  0
  3  4  1  0  0  0  0
  3 24  1  0  0  0  0
  4  5  1  0  0  0  0
  4 19  2  0  0  0  0
  5  6  1  0  0  0  0
  5 25  1  0  0  0  0
  6  7  2  0  0  0  0
  6  8  1  0  0  0  0
  8  9  1  0  0  0  0
  8 26  1  0  0  0  0
  9 10  1  0  0  0  0
  9 27  1  0  0  0  0
  9 28  1  0  0  0  0
 10 11  1  0  0  0  0
 10 29  1  0  0  0  0
 10 30  1  0  0  0  0
 11 18  1  0  0  0  0
 11 12  1  0  0  0  0
 12 13  1  0  0  0  0
 12 31  1  0  0  0  0
 12 32  1  0  0  0  0
 13 14  1  0  0  0  0
 13 15  1  0  0  0  0
 13 33  1  0  0  0  0
 14 34  1  0  0  0  0
 14 35  1  0  0  0  0
 14 36  1  0  0  0  0
 15 16  1  0  0  0  0
 16 17  1  0  0  0  0
 16 18  1  0  0  0  0
 16 37  1  0  0  0  0
 17 38  1  0  0  0  0
 17 39  1  0  0  0  0
 17 40  1  0  0  0  0
 18 41  1  0  0  0  0
 18 42  1  0  0  0  0
 19 20  1  0  0  0  0
M  END
> <s_m_source_file>
AV-unprocessed.smi

> <i_m_source_file_index>
1381

> <i_lp_mmshare_version>
43012

> <i_f3d_flags>
0

> <s_epik_input>
W0NIM11jMVtjSF1jKG5vMSlbTkhdQyg9TylbTkhdW0NIMl1bQ0gyXU4yW0NIMl1bQ0BASF0oW0NIM10pT1tDQEBIXShbQ0gzXSlbQ0gyXTI=

> <s_epik_cmdline>
J2VwaWtfcHl0aG9uJywgJy1waCcsICc3LjAnLCAnLXRuJywgJzgnLCAnLW1hJywgJzIwMCcsICctbWV0YWxfYmluZGluZycsICctaW1hZScsICc8aW5maWxlLm1hZT4nLCAnLW9tYWUnLCAnPG91dGZpbGUubWFlPic=

> <r_epik_Ionization_Penalty>
0.214073

> <r_epik_Ionization_Penalty_Charging>
0

> <r_epik_Ionization_Penalty_Neutral>
0.214073

> <r_epik_State_Penalty>
0.204211

> <r_epik_Charging_Adjusted_Penalty>
0.204211

> <i_epik_Tot_Q>
0

> <i_epik_Tot_abs_Q>
0

> <r_epik_Metal_State_Penalty>
0.217067

> <b_epik_Metal_Only>
0

> <s_lp_Force_Field>
OPLS_2005

> <r_lp_Energy>
24.2919

> <b_lp_Chiralities_Consistent>
1

> <s_lp_Variant>
AV-unprocessed.smi:1381-3

> <Gold.Version>
5.8.1

> <Gold.Id.Protein>
6NUR|6NUR_protein|mol2

> <Gold.PLP.Fitness>
42.9312

> <Gold.PLP.PLP>
-38.8016

> <Gold.PLP.part.hbond>
-3.4955

> <Gold.PLP.part.metal>
0.0000

> <Gold.PLP.part.buried>
-4.1704

> <Gold.PLP.part.nonpolar>
-31.0860

> <Gold.PLP.part.repulsive>
0.2102

> <Gold.PLP.ligand.clash>
0.0000

> <Gold.PLP.ligand.torsion>
0.8072

> <Gold.PLP.Chemscore.Hbond>
1.9120

> <Gold.PLP.Chemscore.CHOScore>
0.0000

> <Gold.PLP.Chemscore.Metal>
0.0000

> <Gold.Chemscore.Hbonds>
donor molecule, donor type, donor heavy atom, donor atom, acceptor molecule, acceptor atom, score
      L1  H     8    26       P1  8028  0.78
      P1  H  6934  6946       L1    19  0.13

> <Gold.PLP.Chemscore.Internal.Correction>
0.0080

> <Gold.Rescore>
     Score         DG    S(hbond)    S(metal)    S(lipo)     H(rot)  DE(clash)    DE(int)     intcor
     15.59     -17.73       1.68        0.00      90.98       1.57       0.26       1.89       ----

> <Gold.Chemscore.Fitness>
15.5867

> <Gold.Chemscore.DG>
-17.7344

> <Gold.Chemscore.ZeroCoef>
-5.4800

> <Gold.Chemscore.Hbond>
1.6850

> <Gold.Chemscore.Metal>
0.0000

> <Gold.Chemscore.Lipo>
90.9836

> <Gold.Chemscore.Internal_Hbond>
0.0000

> <Gold.Chemscore.DEClash>
0.2566

> <Gold.Chemscore.DEInternal>
1.8911

> <Gold.Chemscore.Rot>
1.5697

> <Gold.Chemscore.Internal.Correction>
   9.000000E+99

> <Gold.Chemscore.Hbonds>
donor molecule, donor type, donor heavy atom, donor atom, acceptor molecule, acceptor atom, score
      L1  H     8    26       P1  8028  0.23

> <Gold.Chemscore.Hbond.Weighted>
-5.6278

> <Gold.Chemscore.Metal.Weighted>
-0.0000

> <Gold.Chemscore.Lipo.Weighted>
-10.6451

> <Gold.Chemscore.Internal_Hbond.Weighted>
0.0000

> <Gold.Chemscore.DEClash.Weighted>
0.2566

> <Gold.Chemscore.DEInternal.Weighted>
1.8911

> <Gold.Chemscore.Rot.Weighted>
4.0185

> <Gold.Chemscore.Internal.Correction.Weighted>
   9.000000E+99

> <Gold.Protein.RotatedTorsions>
[ 6907 6896 6895 6894 ] final  127.03 input  -60.11 | X-H torsion
[ 7974 7965 7964 7962 ] final   25.74 input  175.53 | X-H torsion
[ 8008 7997 7996 7995 ] final  -40.39 input   59.86 | X-H torsion
[ 10167 10162 10161 10158 ] final -166.23 input  -65.29 | X-H torsion
[ 10718 10713 10712 10709 ] final   90.80 input   66.30 | X-H torsion
[ 10763 10752 10751 10750 ] final -169.62 input  -60.55 | X-H torsion
[ 11005 11000 10999 10996 ] final  121.84 input  -57.11 | X-H torsion

> <Gold.Protein.ActiveResidues>
 VAL166  LYS551  ARG553  GLY616  TRP617  ASP618  TYR619  PRO620  LYS621  CYS622 
 ASP623  PHE694  ASN695  SER759  ASP760  ASP761  ALA762  ILE779  LEU786  VAL792 
 PHE793  MET794  SER795  GLU796  ALA797  LYS798  CYS799  TRP800  GLU811  SER814 

> <Gold.Protein.RotatedAtoms>
  152.3850  133.6598  159.6191 H   0  0  0  0  0  0  0  0  0  0  0  0  # atno 6907 bound_to 6896
  150.7771  133.9051  159.3361 H   0  0  0  0  0  0  0  0  0  0  0  0  # atno 6908 bound_to 6896
  151.6849  135.0957  160.0274 H   0  0  0  0  0  0  0  0  0  0  0  0  # atno 6909 bound_to 6896
  146.1873  139.7424  142.8857 H   0  0  0  0  0  0  0  0  0  0  0  0  # atno 7974 bound_to 7965
  154.4013  140.1527  156.3019 H   0  0  0  0  0  0  0  0  0  0  0  0  # atno 8008 bound_to 7997
  155.8693  140.3449  155.5788 H   0  0  0  0  0  0  0  0  0  0  0  0  # atno 8009 bound_to 7997
  155.7792  140.0841  157.2058 H   0  0  0  0  0  0  0  0  0  0  0  0  # atno 8010 bound_to 7997
  139.6128  144.0779  152.1859 H   0  0  0  0  0  0  0  0  0  0  0  0  # atno 10167 bound_to 10162
  157.6959  131.0384  150.3633 H   0  0  0  0  0  0  0  0  0  0  0  0  # atno 10718 bound_to 10713
  154.6504  135.2910  154.9994 H   0  0  0  0  0  0  0  0  0  0  0  0  # atno 10763 bound_to 10752
  154.1089  135.6565  153.4885 H   0  0  0  0  0  0  0  0  0  0  0  0  # atno 10764 bound_to 10752
  153.0373  135.5260  154.7409 H   0  0  0  0  0  0  0  0  0  0  0  0  # atno 10765 bound_to 10752
  139.9243  134.9640  156.8018 H   0  0  0  0  0  0  0  0  0  0  0  0  # atno 11005 bound_to 11000
  145.3900  141.0371  143.3129 LP  0  0  0  0  0  0  0  0  0  0  0  0  # atno 17320 bound_to 7965
  144.8421  139.5456  143.6895 LP  0  0  0  0  0  0  0  0  0  0  0  0  # atno 17321 bound_to 7965
  140.0402  144.6013  150.7417 LP  0  0  0  0  0  0  0  0  0  0  0  0  # atno 17342 bound_to 10162
  140.7331  143.2713  151.3879 LP  0  0  0  0  0  0  0  0  0  0  0  0  # atno 17343 bound_to 10162
  156.4066  130.3926  149.6921 LP  0  0  0  0  0  0  0  0  0  0  0  0  # atno 17370 bound_to 10713
  156.4220  130.7773  151.2790 LP  0  0  0  0  0  0  0  0  0  0  0  0  # atno 17371 bound_to 10713
  140.6383  133.9842  155.7695 LP  0  0  0  0  0  0  0  0  0  0  0  0  # atno 17394 bound_to 11000
  141.0788  134.0094  157.3417 LP  0  0  0  0  0  0  0  0  0  0  0  0  # atno 17395 bound_to 11000

$$$$
