AV-unprocessed.smi:833|AV-procd|sdf|3883|dock5
  -GOLD-   22720 1343D 1   1.00000     0.00000
 Structure written by MMmdl.
 40 41  0  0  0  0  0  0  0  0  2 V2000
  151.4870  145.1668  159.9102 C   0  0  0  0  0  0  0  0  0  0  0  0
  151.5520  144.6612  158.4631 C   0  0  1  0  0  0  0  0  0  0  0  0
  152.9113  144.6584  158.0772 O   0  0  0  0  0  0  0  0  0  0  0  0
  150.9921  143.2318  158.3276 C   0  0  0  0  0  0  0  0  0  0  0  0
  150.0492  143.1190  157.2191 N   0  0  0  0  0  0  0  0  0  0  0  0
  149.6863  141.9705  156.6314 C   0  0  0  0  0  0  0  0  0  0  0  0
  150.1129  140.8663  156.9689 O   0  0  0  0  0  0  0  0  0  0  0  0
  148.7894  142.1828  155.6543 N   0  0  0  0  0  0  0  0  0  0  0  0
  148.1491  141.2075  154.8399 C   0  0  0  0  0  0  0  0  0  0  0  0
  148.7854  139.9745  154.5449 C   0  0  0  0  0  0  0  0  0  0  0  0
  148.1680  139.0546  153.6768 C   0  0  0  0  0  0  0  0  0  0  0  0
  146.9290  139.3878  153.1034 C   0  0  0  0  0  0  0  0  0  0  0  0
  146.3546  140.5733  153.3946 N   0  3  0  0  0  0  0  0  0  0  0  0
  146.8917  141.4944  154.2333 C   0  0  0  0  0  0  0  0  0  0  0  0
  146.1678  142.6888  154.4531 N   0  0  0  0  0  0  0  0  0  0  0  0
  145.7875  143.5381  153.3300 C   0  0  0  0  0  0  0  0  0  0  0  0
  144.7451  144.4989  153.8948 C   0  0  0  0  0  0  0  0  0  0  0  0
  144.0099  143.6265  154.9076 C   0  0  0  0  0  0  0  0  0  0  0  0
  145.1019  142.6984  155.4505 C   0  0  0  0  0  0  0  0  0  0  0  0
  150.4558  145.2153  160.2609 H   0  0  0  0  0  0  0  0  0  0  0  0
  151.9097  146.1685  159.9969 H   0  0  0  0  0  0  0  0  0  0  0  0
  152.0379  144.5120  160.5867 H   0  0  0  0  0  0  0  0  0  0  0  0
  151.0032  145.3546  157.8246 H   0  0  0  0  0  0  0  0  0  0  0  0
  153.1010  143.8362  157.6522 H   0  0  0  0  0  0  0  0  0  0  0  0
  151.7986  142.5104  158.1898 H   0  0  0  0  0  0  0  0  0  0  0  0
  150.4841  142.9414  159.2490 H   0  0  0  0  0  0  0  0  0  0  0  0
  149.6485  143.9802  156.8771 H   0  0  0  0  0  0  0  0  0  0  0  0
  148.4513  143.1288  155.5543 H   0  0  0  0  0  0  0  0  0  0  0  0
  149.7538  139.7302  154.9553 H   0  0  0  0  0  0  0  0  0  0  0  0
  148.6451  138.1136  153.4446 H   0  0  0  0  0  0  0  0  0  0  0  0
  146.3850  138.7497  152.4221 H   0  0  0  0  0  0  0  0  0  0  0  0
  146.6480  144.0688  152.9219 H   0  0  0  0  0  0  0  0  0  0  0  0
  145.3408  142.9410  152.5339 H   0  0  0  0  0  0  0  0  0  0  0  0
  145.2379  145.3277  154.4053 H   0  0  0  0  0  0  0  0  0  0  0  0
  144.0886  144.9128  153.1290 H   0  0  0  0  0  0  0  0  0  0  0  0
  143.5172  144.2047  155.6898 H   0  0  0  0  0  0  0  0  0  0  0  0
  143.2477  143.0368  154.3965 H   0  0  0  0  0  0  0  0  0  0  0  0
  144.7108  141.6989  155.6459 H   0  0  0  0  0  0  0  0  0  0  0  0
  145.4986  143.0967  156.3847 H   0  0  0  0  0  0  0  0  0  0  0  0
  145.4558  140.7861  152.9616 H   0  0  0  0  0  0  0  0  0  0  0  0
  1  2  1  0  0  0  0
  1 20  1  0  0  0  0
  1 21  1  0  0  0  0
  1 22  1  0  0  0  0
  2  3  1  0  0  0  0
  2  4  1  0  0  0  0
  2 23  1  0  0  0  0
  3 24  1  0  0  0  0
  4  5  1  0  0  0  0
  4 25  1  0  0  0  0
  4 26  1  0  0  0  0
  5  6  1  0  0  0  0
  5 27  1  0  0  0  0
  6  7  2  0  0  0  0
  6  8  1  0  0  0  0
  8  9  1  0  0  0  0
  8 28  1  0  0  0  0
  9 14  1  0  0  0  0
  9 10  2  0  0  0  0
 10 11  1  0  0  0  0
 10 29  1  0  0  0  0
 11 12  2  0  0  0  0
 11 30  1  0  0  0  0
 12 13  1  0  0  0  0
 12 31  1  0  0  0  0
 13 14  2  0  0  0  0
 13 40  1  0  0  0  0
 14 15  1  0  0  0  0
 15 19  1  0  0  0  0
 15 16  1  0  0  0  0
 16 17  1  0  0  0  0
 16 32  1  0  0  0  0
 16 33  1  0  0  0  0
 17 18  1  0  0  0  0
 17 34  1  0  0  0  0
 17 35  1  0  0  0  0
 18 19  1  0  0  0  0
 18 36  1  0  0  0  0
 18 37  1  0  0  0  0
 19 38  1  0  0  0  0
 19 39  1  0  0  0  0
M  CHG  1  13   1
M  END
> <s_m_source_file>
AV-unprocessed.smi

> <i_m_source_file_index>
833

> <i_lp_mmshare_version>
43012

> <i_f3d_flags>
0

> <s_epik_input>
W0NIM11bQ0BIXShbT0hdKVtDSDJdW05IXUMoPU8pW05IXWMxW2NIXVtjSF1bY0hdbmMxTjJbQ0gyXVtDSDJdW0NIMl1bQ0gyXTI=

> <s_epik_cmdline>
J2VwaWtfcHl0aG9uJywgJy1waCcsICc3LjAnLCAnLXRuJywgJzgnLCAnLW1hJywgJzIwMCcsICctbWV0YWxfYmluZGluZycsICctaW1hZScsICc8aW5maWxlLm1hZT4nLCAnLW9tYWUnLCAnPG91dGZpbGUubWFlPic=

> <r_lp_tautomer_probability>
0.999994

> <r_epik_Ionization_Penalty>
1.11387

> <r_epik_Ionization_Penalty_Charging>
1.11385

> <r_epik_Ionization_Penalty_Neutral>
1.95796e-05

> <r_epik_State_Penalty>
1.17209

> <r_epik_Charging_Adjusted_Penalty>
2.28594

> <i_epik_Tot_Q>
1

> <i_epik_Tot_abs_Q>
1

> <r_epik_Metal_State_Penalty>
1.25763

> <b_epik_Metal_Only>
0

> <s_lp_Force_Field>
OPLS_2005

> <r_lp_Energy>
38.2358

> <b_lp_Chiralities_Consistent>
1

> <s_lp_Variant>
AV-unprocessed.smi:833-4

> <Gold.Version>
5.8.1

> <Gold.Id.Protein>
6NUR|6NUR_protein|mol2

> <Gold.PLP.Fitness>
44.8106

> <Gold.PLP.PLP>
-35.4327

> <Gold.PLP.part.hbond>
-3.0000

> <Gold.PLP.part.metal>
0.0000

> <Gold.PLP.part.buried>
-5.2810

> <Gold.PLP.part.nonpolar>
-28.6464

> <Gold.PLP.part.repulsive>
0.3637

> <Gold.PLP.ligand.clash>
0.0000

> <Gold.PLP.ligand.torsion>
1.3106

> <Gold.PLP.Chemscore.Hbond>
3.8720

> <Gold.PLP.Chemscore.CHOScore>
0.0000

> <Gold.PLP.Chemscore.Metal>
0.0000

> <Gold.Chemscore.Hbonds>
donor molecule, donor type, donor heavy atom, donor atom, acceptor molecule, acceptor atom, score
      L1  H     5    27       P1  8028  0.96
      L1  H     8    28       P1  8028  0.91
      L1  H    13    40       P1 10175  2.00

> <Gold.PLP.Chemscore.Internal.Correction>
0.3832

> <Gold.Rescore>
     Score         DG    S(hbond)    S(metal)    S(lipo)     H(rot)  DE(clash)    DE(int)     intcor
     15.94     -18.86       2.83        0.00      78.90       2.06       0.33       2.60       ----

> <Gold.Chemscore.Fitness>
15.9412

> <Gold.Chemscore.DG>
-18.8643

> <Gold.Chemscore.ZeroCoef>
-5.4800

> <Gold.Chemscore.Hbond>
2.8252

> <Gold.Chemscore.Metal>
0.0000

> <Gold.Chemscore.Lipo>
78.8988

> <Gold.Chemscore.Internal_Hbond>
0.0000

> <Gold.Chemscore.DEClash>
0.3273

> <Gold.Chemscore.DEInternal>
2.5959

> <Gold.Chemscore.Rot>
2.0637

> <Gold.Chemscore.Internal.Correction>
   9.000000E+99

> <Gold.Chemscore.Hbonds>
donor molecule, donor type, donor heavy atom, donor atom, acceptor molecule, acceptor atom, score
      L1  H     5    27       P1  8028  0.80
      L1  H     8    28       P1  8028  0.87
      L1  H    13    40       P1 10175  0.55

> <Gold.Chemscore.Hbond.Weighted>
-9.4363

> <Gold.Chemscore.Metal.Weighted>
-0.0000

> <Gold.Chemscore.Lipo.Weighted>
-9.2312

> <Gold.Chemscore.Internal_Hbond.Weighted>
0.0000

> <Gold.Chemscore.DEClash.Weighted>
0.3273

> <Gold.Chemscore.DEInternal.Weighted>
2.5959

> <Gold.Chemscore.Rot.Weighted>
5.2832

> <Gold.Chemscore.Internal.Correction.Weighted>
   9.000000E+99

> <Gold.Protein.RotatedTorsions>
[ 6907 6896 6895 6894 ] final -167.93 input  -60.11 | X-H torsion
[ 7974 7965 7964 7962 ] final   87.50 input  175.53 | X-H torsion
[ 8008 7997 7996 7995 ] final  132.10 input   59.86 | X-H torsion
[ 10167 10162 10161 10158 ] final   -4.39 input  -65.29 | X-H torsion
[ 10718 10713 10712 10709 ] final  114.14 input   66.30 | X-H torsion
[ 10763 10752 10751 10750 ] final  163.74 input  -60.55 | X-H torsion
[ 11005 11000 10999 10996 ] final    4.18 input  -57.11 | X-H torsion

> <Gold.Protein.ActiveResidues>
 VAL166  LYS551  ARG553  GLY616  TRP617  ASP618  TYR619  PRO620  LYS621  CYS622 
 ASP623  PHE694  ASN695  SER759  ASP760  ASP761  ALA762  ILE779  LEU786  VAL792 
 PHE793  MET794  SER795  GLU796  ALA797  LYS798  CYS799  TRP800  GLU811  SER814 

> <Gold.Protein.RotatedAtoms>
  151.4674  133.3577  159.2817 H   0  0  0  0  0  0  0  0  0  0  0  0  # atno 6907 bound_to 6896
  150.8984  134.8396  159.7354 H   0  0  0  0  0  0  0  0  0  0  0  0  # atno 6908 bound_to 6896
  152.4865  134.4591  159.9651 H   0  0  0  0  0  0  0  0  0  0  0  0  # atno 6909 bound_to 6896
  145.5581  139.2301  143.2474 H   0  0  0  0  0  0  0  0  0  0  0  0  # atno 7974 bound_to 7965
  156.2978  140.2555  156.3034 H   0  0  0  0  0  0  0  0  0  0  0  0  # atno 8008 bound_to 7997
  154.9395  140.0396  157.2108 H   0  0  0  0  0  0  0  0  0  0  0  0  # atno 8009 bound_to 7997
  154.8140  140.2849  155.5837 H   0  0  0  0  0  0  0  0  0  0  0  0  # atno 8010 bound_to 7997
  140.6926  143.6429  150.8419 H   0  0  0  0  0  0  0  0  0  0  0  0  # atno 10167 bound_to 10162
  157.6298  131.0994  150.7143 H   0  0  0  0  0  0  0  0  0  0  0  0  # atno 10718 bound_to 10713
  154.2983  135.2759  155.2623 H   0  0  0  0  0  0  0  0  0  0  0  0  # atno 10763 bound_to 10752
  154.5071  135.5792  153.6579 H   0  0  0  0  0  0  0  0  0  0  0  0  # atno 10764 bound_to 10752
  152.9904  135.6172  154.3152 H   0  0  0  0  0  0  0  0  0  0  0  0  # atno 10765 bound_to 10752
  140.5848  133.9979  155.8063 H   0  0  0  0  0  0  0  0  0  0  0  0  # atno 11005 bound_to 11000
  146.1870  140.6406  142.9163 LP  0  0  0  0  0  0  0  0  0  0  0  0  # atno 17320 bound_to 7965
  144.7496  140.5157  143.6811 LP  0  0  0  0  0  0  0  0  0  0  0  0  # atno 17321 bound_to 7965
  140.0144  143.5609  152.2826 LP  0  0  0  0  0  0  0  0  0  0  0  0  # atno 17342 bound_to 10162
  139.6344  144.7648  151.2468 LP  0  0  0  0  0  0  0  0  0  0  0  0  # atno 17343 bound_to 10162
  156.7485  130.4761  149.5462 LP  0  0  0  0  0  0  0  0  0  0  0  0  # atno 17370 bound_to 10713
  156.1494  130.6299  151.0575 LP  0  0  0  0  0  0  0  0  0  0  0  0  # atno 17371 bound_to 10713
  141.0973  133.9824  157.3139 LP  0  0  0  0  0  0  0  0  0  0  0  0  # atno 17394 bound_to 11000
  139.9300  135.0200  156.8369 LP  0  0  0  0  0  0  0  0  0  0  0  0  # atno 17395 bound_to 11000

$$$$
