#       Name:                AV-unprocessed.smi:1946
#       Creating user name   scv26
#       Creation time:       Fri Mar 27 10:01:23 2020


#       File generated by GOLD software.
#

@<TRIPOS>MOLECULE
AV-unprocessed.smi:1946
    41    43     1
SMALL
NO_CHARGES


@<TRIPOS>ATOM
      1 ****        -4.9716  -0.6875   0.1560 C.3            1 S1                 0.0000
      2 ****        -4.4574  -0.3505   1.8889 S.o2           1 S1                 0.0000
      3 ****        -4.8572   1.0249   2.2247 O.2            1 S1                 0.0000
      4 ****        -4.9188  -1.4682   2.7268 O.2            1 S1                 0.0000
      5 ****        -2.6711  -0.4094   1.8175 C.ar           1 S1                 0.0000
      6 ****        -2.0057  -1.6369   2.0049 C.ar           1 S1                 0.0000
      7 ****        -0.6012  -1.6879   1.9171 C.ar           1 S1                 0.0000
      8 ****         0.1388  -0.5182   1.6339 C.ar           1 S1                 0.0000
      9 ****         1.6564  -0.5707   1.5262 C.3            1 S1                 0.0000
     10 ****         2.2452  -1.2045   2.6421 O.3            1 S1                 0.0000
     11 ****         2.1315  -1.3023   0.2546 C.3            1 S1                 0.0000
     12 ****         1.6511  -0.6654  -0.9781 N.pl3          1 S1                 0.0000
     13 ****         0.6143  -1.0070  -1.7906 C.2            1 S1                 0.0000
     14 ****         0.5688  -0.0969  -2.8028 N.pl3          1 S1                 1.0000
     15 ****         1.5937   0.8373  -2.6364 C.ar           1 S1                 0.0000
     16 ****         1.9526   1.9433  -3.4007 C.ar           1 S1                 0.0000
     17 ****         3.0586   2.6931  -2.9485 C.ar           1 S1                 0.0000
     18 ****         3.7619   2.3342  -1.7801 C.ar           1 S1                 0.0000
     19 ****         3.3896   1.2105  -1.0129 C.ar           1 S1                 0.0000
     20 ****         2.2946   0.4761  -1.4663 C.ar           1 S1                 0.0000
     21 ****        -0.5399   0.7034   1.4304 C.ar           1 S1                 0.0000
     22 ****        -1.9444   0.7597   1.5174 C.ar           1 S1                 0.0000
     23 ****        -6.0595  -0.6748   0.0927 H              1 S1                 0.0000
     24 ****        -4.6021  -1.6661  -0.1500 H              1 S1                 0.0000
     25 ****        -4.5614   0.0785  -0.5016 H              1 S1                 0.0000
     26 ****        -2.5639  -2.5371   2.2153 H              1 S1                 0.0000
     27 ****        -0.0930  -2.6299   2.0633 H              1 S1                 0.0000
     28 ****         2.0399   0.4501   1.5158 H              1 S1                 0.0000
     29 ****         2.0257  -0.7111   3.4179 H              1 S1                 0.0000
     30 ****         3.2208  -1.3463   0.2120 H              1 S1                 0.0000
     31 ****         1.7798  -2.3352   0.2506 H              1 S1                 0.0000
     32 ****        -0.0544  -1.8447  -1.6532 H              1 S1                 0.0000
     33 ****         1.4173   2.2202  -4.2973 H              1 S1                 0.0000
     34 ****         3.3747   3.5605  -3.5096 H              1 S1                 0.0000
     35 ****         4.6050   2.9324  -1.4661 H              1 S1                 0.0000
     36 ****         3.9355   0.9431  -0.1201 H              1 S1                 0.0000
     37 ****         0.0143   1.6022   1.2021 H              1 S1                 0.0000
     38 ****        -2.4558   1.6968   1.3541 H              1 S1                 0.0000
     39 ****        -0.1118  -0.1159  -3.5516 H              1 S1                 0.0000
     40 ****         3.2384  -1.2316   2.5294 LP             1 S1                 0.0000
     41 ****         1.8936  -2.1370   2.7248 LP             1 S1                 0.0000
@<TRIPOS>BOND
    1    1    2 1     
    2    1   23 1     
    3    1   24 1     
    4    1   25 1     
    5    2    3 2     
    6    2    4 2     
    7    2    5 1     
    8    5   22 ar    
    9    5    6 ar    
   10    6    7 ar    
   11    6   26 1     
   12    7    8 ar    
   13    7   27 1     
   14    8    9 1     
   15    8   21 ar    
   16    9   10 1     
   17    9   11 1     
   18    9   28 1     
   19   10   29 1     
   20   11   12 1     
   21   11   30 1     
   22   11   31 1     
   23   12   20 1     
   24   12   13 1     
   25   13   14 2     
   26   13   32 1     
   27   14   15 1     
   28   14   39 1     
   29   15   20 ar    
   30   15   16 ar    
   31   16   17 ar    
   32   16   33 1     
   33   17   18 ar    
   34   17   34 1     
   35   18   19 ar    
   36   18   35 1     
   37   19   20 ar    
   38   19   36 1     
   39   21   22 ar    
   40   21   37 1     
   41   22   38 1     
   42   10   40 1     
   43   10   41 1     
@<TRIPOS>SUBSTRUCTURE
      1 S1             1
@<TRIPOS>SET
LONE_PAIRS      STATIC     ATOMS    <user>   **** ""
4 3 4 40 41
DONOR_HYDROGENS      STATIC     ATOMS    <user>   **** ""
2 29 39
ATOM$BLUE        STATIC     ATOMS    COLORGROUP SYSTEM
4 3 4 40 41
ATOM$RED        STATIC     ATOMS    COLORGROUP SYSTEM
2 29 39
