AV-unprocessed.smi:1816|AV-procd|sdf|7364|dock1
  -GOLD-   22720 9 23D 1   1.00000     0.00000
 Structure written by MMmdl.
 36 37  0  0  0  0  0  0  0  0  2 V2000
  146.4414  142.5919  154.2950 C   0  0  0  0  0  0  0  0  0  0  0  0
  146.8830  141.1255  154.5027 C   0  0  2  0  0  0  0  0  0  0  0  0
  148.4269  140.9996  154.4229 C   0  0  0  0  0  0  0  0  0  0  0  0
  149.1179  141.8091  155.4221 N   0  0  0  0  0  0  0  0  0  0  0  0
  150.0501  141.3492  156.2683 C   0  0  0  0  0  0  0  0  0  0  0  0
  150.4236  140.1765  156.2888 O   0  0  0  0  0  0  0  0  0  0  0  0
  150.5030  142.3251  157.0714 N   0  0  0  0  0  0  0  0  0  0  0  0
  151.4746  142.2235  158.0976 C   0  0  0  0  0  0  0  0  0  0  0  0
  151.8610  141.0120  158.5007 N   0  0  0  0  0  0  0  0  0  0  0  0
  152.8214  141.0778  159.5144 C   0  0  0  0  0  0  0  0  0  0  0  0
  153.1585  142.3594  159.8729 C   0  0  0  0  0  0  0  0  0  0  0  0
  152.2777  143.5459  158.9480 S   0  0  0  0  0  0  0  0  0  0  0  0
  146.2330  140.2150  153.5163 N   0  3  0  0  0  0  0  0  0  0  0  0
  146.7486  140.3189  152.1268 C   0  0  0  0  0  0  0  0  0  0  0  0
  146.7757  138.8999  151.5423 C   0  0  0  0  0  0  0  0  0  0  0  0
  146.0013  138.0514  152.5435 C   0  0  0  0  0  0  0  0  0  0  0  0
  146.2413  138.7765  153.8622 C   0  0  0  0  0  0  0  0  0  0  0  0
  146.9209  143.2613  155.0093 H   0  0  0  0  0  0  0  0  0  0  0  0
  145.3683  142.7200  154.4350 H   0  0  0  0  0  0  0  0  0  0  0  0
  146.6932  142.9432  153.2941 H   0  0  0  0  0  0  0  0  0  0  0  0
  146.5536  140.8168  155.4961 H   0  0  0  0  0  0  0  0  0  0  0  0
  148.7513  139.9646  154.5386 H   0  0  0  0  0  0  0  0  0  0  0  0
  148.7730  141.3170  153.4388 H   0  0  0  0  0  0  0  0  0  0  0  0
  148.8705  142.7870  155.4695 H   0  0  0  0  0  0  0  0  0  0  0  0
  150.1073  143.2441  156.9383 H   0  0  0  0  0  0  0  0  0  0  0  0
  153.2132  140.1592  159.9258 H   0  0  0  0  0  0  0  0  0  0  0  0
  153.8685  142.6757  160.6224 H   0  0  0  0  0  0  0  0  0  0  0  0
  146.0936  140.9729  151.5503 H   0  0  0  0  0  0  0  0  0  0  0  0
  147.7524  140.7460  152.0989 H   0  0  0  0  0  0  0  0  0  0  0  0
  146.3518  138.8506  150.5389 H   0  0  0  0  0  0  0  0  0  0  0  0
  147.8066  138.5475  151.4835 H   0  0  0  0  0  0  0  0  0  0  0  0
  144.9381  138.0659  152.2995 H   0  0  0  0  0  0  0  0  0  0  0  0
  146.3292  137.0117  152.5643 H   0  0  0  0  0  0  0  0  0  0  0  0
  147.2178  138.4978  154.2622 H   0  0  0  0  0  0  0  0  0  0  0  0
  145.4827  138.5305  154.6058 H   0  0  0  0  0  0  0  0  0  0  0  0
  145.2588  140.4773  153.4701 H   0  0  0  0  0  0  0  0  0  0  0  0
  1  2  1  0  0  0  0
  1 18  1  0  0  0  0
  1 19  1  0  0  0  0
  1 20  1  0  0  0  0
  2  3  1  0  0  0  0
  2 13  1  0  0  0  0
  2 21  1  0  0  0  0
  3  4  1  0  0  0  0
  3 22  1  0  0  0  0
  3 23  1  0  0  0  0
  4  5  1  0  0  0  0
  4 24  1  0  0  0  0
  5  6  2  0  0  0  0
  5  7  1  0  0  0  0
  7  8  1  0  0  0  0
  7 25  1  0  0  0  0
  8 12  1  0  0  0  0
  8  9  2  0  0  0  0
  9 10  1  0  0  0  0
 10 11  2  0  0  0  0
 10 26  1  0  0  0  0
 11 12  1  0  0  0  0
 11 27  1  0  0  0  0
 13 17  1  0  0  0  0
 13 14  1  0  0  0  0
 13 36  1  0  0  0  0
 14 15  1  0  0  0  0
 14 28  1  0  0  0  0
 14 29  1  0  0  0  0
 15 16  1  0  0  0  0
 15 30  1  0  0  0  0
 15 31  1  0  0  0  0
 16 17  1  0  0  0  0
 16 32  1  0  0  0  0
 16 33  1  0  0  0  0
 17 34  1  0  0  0  0
 17 35  1  0  0  0  0
M  CHG  1  13   1
M  END
> <s_m_source_file>
AV-unprocessed.smi

> <i_m_source_file_index>
1816

> <i_lp_mmshare_version>
43012

> <i_f3d_flags>
0

> <s_epik_input>
W0NIMl0xW0NIMl1bQ0gyXVtDSDJdTjFbQ0BIXShbQ0gzXSlbQ0gyXVtOSF1DKD1PKVtOSF1jMm5bY0hdW2NIXXMy

> <s_epik_cmdline>
J2VwaWtfcHl0aG9uJywgJy1waCcsICc3LjAnLCAnLXRuJywgJzgnLCAnLW1hJywgJzIwMCcsICctbWV0YWxfYmluZGluZycsICctaW1hZScsICc8aW5maWxlLm1hZT4nLCAnLW9tYWUnLCAnPG91dGZpbGUubWFlPic=

> <r_lp_tautomer_probability>
0.999

> <r_epik_Ionization_Penalty>
0.000988651

> <r_epik_Ionization_Penalty_Charging>
0.000848324

> <r_epik_Ionization_Penalty_Neutral>
0.000140327

> <r_epik_State_Penalty>
0.000546901

> <r_epik_Charging_Adjusted_Penalty>
0.00139523

> <i_epik_Tot_Q>
1

> <i_epik_Tot_abs_Q>
1

> <r_epik_Metal_State_Penalty>
0.0571994

> <b_epik_Metal_Only>
0

> <s_lp_Force_Field>
OPLS_2005

> <r_lp_Energy>
26.1685

> <b_lp_Chiralities_Consistent>
1

> <s_lp_Variant>
AV-unprocessed.smi:1816-1

> <Gold.Version>
5.8.1

> <Gold.Id.Protein>
6NUR|6NUR_protein|mol2

> <Gold.PLP.Fitness>
49.3246

> <Gold.PLP.PLP>
-37.7910

> <Gold.PLP.part.hbond>
-3.0000

> <Gold.PLP.part.metal>
0.0000

> <Gold.PLP.part.buried>
-1.0388

> <Gold.PLP.part.nonpolar>
-34.4591

> <Gold.PLP.part.repulsive>
0.2871

> <Gold.PLP.ligand.clash>
0.0000

> <Gold.PLP.ligand.torsion>
0.2554

> <Gold.PLP.Chemscore.Hbond>
4.0000

> <Gold.PLP.Chemscore.CHOScore>
0.0000

> <Gold.PLP.Chemscore.Metal>
0.0000

> <Gold.Chemscore.Hbonds>
donor molecule, donor type, donor heavy atom, donor atom, acceptor molecule, acceptor atom, score
      L1  H     4    24       P1  8028  1.00
      L1  H     7    25       P1  8028  0.34
      L1  H    13    36       P1 10175  1.89

> <Gold.PLP.Chemscore.Internal.Correction>
0.0443

> <Gold.Rescore>
     Score         DG    S(hbond)    S(metal)    S(lipo)     H(rot)  DE(clash)    DE(int)     intcor
     18.01     -20.48       2.95        0.00      79.05       1.60       0.55       1.92       ----

> <Gold.Chemscore.Fitness>
18.0071

> <Gold.Chemscore.DG>
-20.4830

> <Gold.Chemscore.ZeroCoef>
-5.4800

> <Gold.Chemscore.Hbond>
2.9514

> <Gold.Chemscore.Metal>
0.0000

> <Gold.Chemscore.Lipo>
79.0506

> <Gold.Chemscore.Internal_Hbond>
0.0000

> <Gold.Chemscore.DEClash>
0.5533

> <Gold.Chemscore.DEInternal>
1.9226

> <Gold.Chemscore.Rot>
1.6029

> <Gold.Chemscore.Internal.Correction>
   9.000000E+99

> <Gold.Chemscore.Hbonds>
donor molecule, donor type, donor heavy atom, donor atom, acceptor molecule, acceptor atom, score
      L1  H     4    24       P1  8028  0.99
      L1  H     7    25       P1  8028  0.32
      L1  H    13    36       P1 10175  0.91

> <Gold.Chemscore.Hbond.Weighted>
-9.8576

> <Gold.Chemscore.Metal.Weighted>
-0.0000

> <Gold.Chemscore.Lipo.Weighted>
-9.2489

> <Gold.Chemscore.Internal_Hbond.Weighted>
0.0000

> <Gold.Chemscore.DEClash.Weighted>
0.5533

> <Gold.Chemscore.DEInternal.Weighted>
1.9226

> <Gold.Chemscore.Rot.Weighted>
4.1035

> <Gold.Chemscore.Internal.Correction.Weighted>
   9.000000E+99

> <Gold.Protein.RotatedTorsions>
[ 6907 6896 6895 6894 ] final  -86.66 input  -60.11 | X-H torsion
[ 7974 7965 7964 7962 ] final   81.45 input  175.53 | X-H torsion
[ 8008 7997 7996 7995 ] final -139.96 input   59.86 | X-H torsion
[ 10167 10162 10161 10158 ] final  -24.59 input  -65.29 | X-H torsion
[ 10718 10713 10712 10709 ] final  126.74 input   66.30 | X-H torsion
[ 10763 10752 10751 10750 ] final    2.65 input  -60.55 | X-H torsion
[ 11005 11000 10999 10996 ] final -103.82 input  -57.11 | X-H torsion

> <Gold.Protein.ActiveResidues>
 VAL166  LYS551  ARG553  GLY616  TRP617  ASP618  TYR619  PRO620  LYS621  CYS622 
 ASP623  PHE694  ASN695  SER759  ASP760  ASP761  ALA762  ILE779  LEU786  VAL792 
 PHE793  MET794  SER795  GLU796  ALA797  LYS798  CYS799  TRP800  GLU811  SER814 

> <Gold.Protein.RotatedAtoms>
  150.6866  134.3016  159.4708 H   0  0  0  0  0  0  0  0  0  0  0  0  # atno 6907 bound_to 6896
  152.0911  134.9404  160.0581 H   0  0  0  0  0  0  0  0  0  0  0  0  # atno 6908 bound_to 6896
  152.0719  133.4076  159.4500 H   0  0  0  0  0  0  0  0  0  0  0  0  # atno 6909 bound_to 6896
  145.6380  139.2419  143.2047 H   0  0  0  0  0  0  0  0  0  0  0  0  # atno 7974 bound_to 7965
  155.4534  140.0540  157.2999 H   0  0  0  0  0  0  0  0  0  0  0  0  # atno 8008 bound_to 7997
  154.4768  140.2064  155.9816 H   0  0  0  0  0  0  0  0  0  0  0  0  # atno 8009 bound_to 7997
  156.1143  140.3199  155.8122 H   0  0  0  0  0  0  0  0  0  0  0  0  # atno 8010 bound_to 7997
  140.7288  143.4340  151.0758 H   0  0  0  0  0  0  0  0  0  0  0  0  # atno 10167 bound_to 10162
  157.5393  131.1097  150.8884 H   0  0  0  0  0  0  0  0  0  0  0  0  # atno 10718 bound_to 10713
  153.2929  135.6950  153.7275 H   0  0  0  0  0  0  0  0  0  0  0  0  # atno 10763 bound_to 10752
  153.6219  135.3425  155.3014 H   0  0  0  0  0  0  0  0  0  0  0  0  # atno 10764 bound_to 10752
  154.8529  135.4388  154.2018 H   0  0  0  0  0  0  0  0  0  0  0  0  # atno 10765 bound_to 10752
  141.1129  133.8671  157.1533 H   0  0  0  0  0  0  0  0  0  0  0  0  # atno 11005 bound_to 11000
  146.1304  140.7193  142.9415 LP  0  0  0  0  0  0  0  0  0  0  0  0  # atno 17320 bound_to 7965
  144.7168  140.4238  143.7038 LP  0  0  0  0  0  0  0  0  0  0  0  0  # atno 17321 bound_to 7965
  139.8000  143.8097  152.3162 LP  0  0  0  0  0  0  0  0  0  0  0  0  # atno 17342 bound_to 10162
  139.8111  144.7335  150.9696 LP  0  0  0  0  0  0  0  0  0  0  0  0  # atno 17343 bound_to 10162
  156.9441  130.5395  149.5281 LP  0  0  0  0  0  0  0  0  0  0  0  0  # atno 17370 bound_to 10713
  156.0484  130.5557  150.8934 LP  0  0  0  0  0  0  0  0  0  0  0  0  # atno 17371 bound_to 10713
  140.0033  135.0019  157.0237 LP  0  0  0  0  0  0  0  0  0  0  0  0  # atno 17394 bound_to 11000
  140.4727  134.1370  155.7205 LP  0  0  0  0  0  0  0  0  0  0  0  0  # atno 17395 bound_to 11000

$$$$
