AV-unprocessed.smi:35|AV-procd|sdf|259|dock6
  -GOLD-   2262016 23D 1   1.00000     0.00000
 Structure written by MMmdl.
 29 30  0  0  0  0  0  0  0  0  1 V2000
  151.6641  137.1401  159.8877 O   0  0  0  0  0  0  0  0  0  0  0  0
  151.1359  138.0377  159.2351 C   0  0  0  0  0  0  0  0  0  0  0  0
  151.8368  139.2146  158.9578 N   0  0  0  0  0  0  0  0  0  0  0  0
  151.3439  140.2987  158.2290 C   0  0  0  0  0  0  0  0  0  0  0  0
  152.0537  141.2844  158.0328 O   0  0  0  0  0  0  0  0  0  0  0  0
  150.0248  140.2000  157.7330 N   0  0  0  0  0  0  0  0  0  0  0  0
  149.4658  141.3655  156.9377 C   0  0  2  0  0  0  0  0  0  0  0  0
  148.1032  141.1609  156.6979 O   0  0  0  0  0  0  0  0  0  0  0  0
  147.8852  140.8573  155.3225 C   0  0  1  0  0  0  0  0  0  0  0  0
  146.4442  141.2190  154.9334 C   0  0  0  0  0  0  0  0  0  0  0  0
  146.2736  141.0825  153.5389 O   0  0  0  0  0  0  0  0  0  0  0  0
  148.9438  141.7261  154.6451 C   0  0  2  0  0  0  0  0  0  0  0  0
  149.1932  141.3560  153.3014 O   0  0  0  0  0  0  0  0  0  0  0  0
  150.1505  141.5498  155.5615 C   0  0  2  0  0  0  0  0  0  0  0  0
  150.9570  140.4467  155.1743 O   0  0  0  0  0  0  0  0  0  0  0  0
  149.2901  139.0464  157.9810 C   0  0  0  0  0  0  0  0  0  0  0  0
  149.7837  138.0030  158.6887 C   0  0  0  0  0  0  0  0  0  0  0  0
  148.5792  136.4496  158.9330 Br  0  0  0  0  0  0  0  0  0  0  0  0
  152.7796  139.2845  159.3123 H   0  0  0  0  0  0  0  0  0  0  0  0
  149.5526  142.2396  157.5859 H   0  0  0  0  0  0  0  0  0  0  0  0
  148.0954  139.8039  155.1281 H   0  0  0  0  0  0  0  0  0  0  0  0
  145.7207  140.6030  155.4680 H   0  0  0  0  0  0  0  0  0  0  0  0
  146.2360  142.2586  155.1878 H   0  0  0  0  0  0  0  0  0  0  0  0
  145.4205  140.7102  153.3754 H   0  0  0  0  0  0  0  0  0  0  0  0
  148.6274  142.7703  154.6701 H   0  0  0  0  0  0  0  0  0  0  0  0
  149.5979  140.5020  153.2952 H   0  0  0  0  0  0  0  0  0  0  0  0
  150.7745  142.4438  155.5799 H   0  0  0  0  0  0  0  0  0  0  0  0
  150.5958  139.6639  155.5615 H   0  0  0  0  0  0  0  0  0  0  0  0
  148.2835  138.9550  157.6036 H   0  0  0  0  0  0  0  0  0  0  0  0
  1  2  2  0  0  0  0
  2 17  1  0  0  0  0
  2  3  1  0  0  0  0
  3 19  1  0  0  0  0
  3  4  1  0  0  0  0
  4  5  2  0  0  0  0
  4  6  1  0  0  0  0
  6  7  1  0  0  0  0
  6 16  1  0  0  0  0
  7 14  1  0  0  0  0
  7  8  1  0  0  0  0
  7 20  1  0  0  0  0
  8  9  1  0  0  0  0
  9 10  1  0  0  0  0
  9 12  1  0  0  0  0
  9 21  1  0  0  0  0
 10 11  1  0  0  0  0
 10 22  1  0  0  0  0
 10 23  1  0  0  0  0
 11 24  1  0  0  0  0
 12 13  1  0  0  0  0
 12 14  1  0  0  0  0
 12 25  1  0  0  0  0
 13 26  1  0  0  0  0
 14 15  1  0  0  0  0
 14 27  1  0  0  0  0
 15 28  1  0  0  0  0
 16 17  2  0  0  0  0
 16 29  1  0  0  0  0
 17 18  1  0  0  0  0
M  END
> <s_m_source_file>
AV-unprocessed.smi

> <i_m_source_file_index>
35

> <i_lp_mmshare_version>
43012

> <i_f3d_flags>
0

> <s_epik_input>
Tz1jMVtuSF1jKD1PKW4oW2NIXWMxQnIpW0NAQEhdMk9bQ0BASF0oW0NIMl1bT0hdKVtDQEBIXShbT0hdKVtDQEhdMltPSF0=

> <s_epik_cmdline>
J2VwaWtfcHl0aG9uJywgJy1waCcsICc3LjAnLCAnLXRuJywgJzgnLCAnLW1hJywgJzIwMCcsICctbWV0YWxfYmluZGluZycsICctaW1hZScsICc8aW5maWxlLm1hZT4nLCAnLW9tYWUnLCAnPG91dGZpbGUubWFlPic=

> <r_lp_tautomer_probability>
0.999537

> <r_epik_Ionization_Penalty>
0.10812

> <r_epik_Ionization_Penalty_Charging>
0.108119

> <r_epik_Ionization_Penalty_Neutral>
4.93006e-07

> <r_epik_State_Penalty>
0.0979238

> <r_epik_Charging_Adjusted_Penalty>
0.206043

> <i_epik_Tot_Q>
0

> <i_epik_Tot_abs_Q>
0

> <r_epik_Metal_State_Penalty>
3.07911

> <b_epik_Metal_Only>
0

> <s_epik_Chemistry_Notes>
This compound contains an acetal/aminal-like group ( X-CH(R)-Y where X, Y are N, S, or O) that may be acid/base labile, releasing an aldehyde.

> <s_lp_Force_Field>
OPLS_2005

> <r_lp_Energy>
37.6264

> <b_lp_Chiralities_Consistent>
1

> <s_lp_Variant>
AV-unprocessed.smi:35-13

> <Gold.Version>
5.8.1

> <Gold.Id.Protein>
6NUR|6NUR_protein|mol2

> <Gold.PLP.Fitness>
37.5611

> <Gold.PLP.PLP>
-25.7498

> <Gold.PLP.part.hbond>
-5.9343

> <Gold.PLP.part.metal>
0.0000

> <Gold.PLP.part.buried>
-3.3630

> <Gold.PLP.part.nonpolar>
-15.0050

> <Gold.PLP.part.repulsive>
0.1679

> <Gold.PLP.ligand.clash>
0.0000

> <Gold.PLP.ligand.torsion>
0.1545

> <Gold.PLP.Chemscore.Hbond>
4.0106

> <Gold.PLP.Chemscore.CHOScore>
0.0000

> <Gold.PLP.Chemscore.Metal>
0.0000

> <Gold.Chemscore.Hbonds>
donor molecule, donor type, donor heavy atom, donor atom, acceptor molecule, acceptor atom, score
      L1  H    11    24       P1 10175  1.00
      L1  H    13    26       P1  7957  0.02
      P1  H  6896  6907       L1     1  1.00
      P1  H  7989  7998       L1    15  1.00
      P1  H  8011  8017       L1    13  1.00

> <Gold.PLP.Chemscore.Internal.Correction>
0.0886

> <Gold.Rescore>
     Score         DG    S(hbond)    S(metal)    S(lipo)     H(rot)  DE(clash)    DE(int)     intcor
     11.49     -11.84       3.65        0.00      30.63       3.67       0.04       0.31       ----

> <Gold.Chemscore.Fitness>
11.4931

> <Gold.Chemscore.DG>
-11.8424

> <Gold.Chemscore.ZeroCoef>
-5.4800

> <Gold.Chemscore.Hbond>
3.6451

> <Gold.Chemscore.Metal>
0.0000

> <Gold.Chemscore.Lipo>
30.6263

> <Gold.Chemscore.Internal_Hbond>
0.0000

> <Gold.Chemscore.DEClash>
0.0402

> <Gold.Chemscore.DEInternal>
0.3090

> <Gold.Chemscore.Rot>
3.6701

> <Gold.Chemscore.Internal.Correction>
   9.000000E+99

> <Gold.Chemscore.Hbonds>
donor molecule, donor type, donor heavy atom, donor atom, acceptor molecule, acceptor atom, score
      L1  H    11    24       P1 10175  0.83
      L1  H    13    26       P1  7957  0.04
      P1  H  6896  6907       L1     1  0.97
      P1  H  7989  7998       L1    15  0.53
      P1  H  8011  8017       L1    13  0.82

> <Gold.Chemscore.Hbond.Weighted>
-12.1745

> <Gold.Chemscore.Metal.Weighted>
-0.0000

> <Gold.Chemscore.Lipo.Weighted>
-3.5833

> <Gold.Chemscore.Internal_Hbond.Weighted>
0.0000

> <Gold.Chemscore.DEClash.Weighted>
0.0402

> <Gold.Chemscore.DEInternal.Weighted>
0.3090

> <Gold.Chemscore.Rot.Weighted>
9.3955

> <Gold.Chemscore.Internal.Correction.Weighted>
   9.000000E+99

> <Gold.Protein.RotatedTorsions>
[ 6907 6896 6895 6894 ] final    8.59 input  -60.11 | X-H torsion
[ 7974 7965 7964 7962 ] final   45.02 input  175.53 | X-H torsion
[ 8008 7997 7996 7995 ] final   69.00 input   59.86 | X-H torsion
[ 10167 10162 10161 10158 ] final  139.12 input  -65.29 | X-H torsion
[ 10718 10713 10712 10709 ] final  -81.21 input   66.30 | X-H torsion
[ 10763 10752 10751 10750 ] final  111.14 input  -60.55 | X-H torsion
[ 11005 11000 10999 10996 ] final  162.39 input  -57.11 | X-H torsion

> <Gold.Protein.ActiveResidues>
 VAL166  LYS551  ARG553  GLY616  TRP617  ASP618  TYR619  PRO620  LYS621  CYS622 
 ASP623  PHE694  ASN695  SER759  ASP760  ASP761  ALA762  ILE779  LEU786  VAL792 
 PHE793  MET794  SER795  GLU796  ALA797  LYS798  CYS799  TRP800  GLU811  SER814 

> <Gold.Protein.RotatedAtoms>
  151.7085  135.0917  160.0263 H   0  0  0  0  0  0  0  0  0  0  0  0  # atno 6907 bound_to 6896
  152.3676  133.6373  159.6071 H   0  0  0  0  0  0  0  0  0  0  0  0  # atno 6908 bound_to 6896
  150.7650  133.9238  159.3447 H   0  0  0  0  0  0  0  0  0  0  0  0  # atno 6909 bound_to 6896
  146.0517  139.5010  142.9714 H   0  0  0  0  0  0  0  0  0  0  0  0  # atno 7974 bound_to 7965
  155.7169  140.3493  155.4998 H   0  0  0  0  0  0  0  0  0  0  0  0  # atno 8008 bound_to 7997
  155.9305  140.1083  157.1158 H   0  0  0  0  0  0  0  0  0  0  0  0  # atno 8009 bound_to 7997
  154.4084  140.1232  156.4783 H   0  0  0  0  0  0  0  0  0  0  0  0  # atno 8010 bound_to 7997
  139.5089  144.6314  151.5809 H   0  0  0  0  0  0  0  0  0  0  0  0  # atno 10167 bound_to 10162
  156.0055  130.4597  150.3918 H   0  0  0  0  0  0  0  0  0  0  0  0  # atno 10718 bound_to 10713
  153.4591  135.3726  155.2328 H   0  0  0  0  0  0  0  0  0  0  0  0  # atno 10763 bound_to 10752
  154.8757  135.3904  154.3946 H   0  0  0  0  0  0  0  0  0  0  0  0  # atno 10764 bound_to 10752
  153.4517  135.7085  153.6169 H   0  0  0  0  0  0  0  0  0  0  0  0  # atno 10765 bound_to 10752
  140.2253  134.8165  157.3262 H   0  0  0  0  0  0  0  0  0  0  0  0  # atno 11005 bound_to 11000
  145.6713  141.0216  143.1656 LP  0  0  0  0  0  0  0  0  0  0  0  0  # atno 17320 bound_to 7965
  144.7126  139.8314  143.7409 LP  0  0  0  0  0  0  0  0  0  0  0  0  # atno 17321 bound_to 7965
  140.6047  143.9545  150.6411 LP  0  0  0  0  0  0  0  0  0  0  0  0  # atno 17342 bound_to 10162
  140.2768  143.3417  152.1187 LP  0  0  0  0  0  0  0  0  0  0  0  0  # atno 17343 bound_to 10162
  157.1992  131.0434  151.2659 LP  0  0  0  0  0  0  0  0  0  0  0  0  # atno 17370 bound_to 10713
  157.3991  130.7323  149.6754 LP  0  0  0  0  0  0  0  0  0  0  0  0  # atno 17371 bound_to 10713
  140.1807  134.4493  155.7774 LP  0  0  0  0  0  0  0  0  0  0  0  0  # atno 17394 bound_to 11000
  141.2221  133.6982  156.7864 LP  0  0  0  0  0  0  0  0  0  0  0  0  # atno 17395 bound_to 11000

$$$$
