AV-unprocessed.smi:2092|AV-procd|sdf|8543|dock2
  -GOLD-   2272011263D 1   1.00000     0.00000
 Structure written by MMmdl.
 44 45  0  0  0  0  0  0  0  0  1 V2000
  149.4673  132.2230  154.6976 C   0  0  0  0  0  0  0  0  0  0  0  0
  149.2460  133.5493  153.9549 C   0  0  1  0  0  0  0  0  0  0  0  0
  147.9139  133.5399  153.4472 O   0  0  0  0  0  0  0  0  0  0  0  0
  147.5530  132.3941  152.6817 C   0  0  0  0  0  0  0  0  0  0  0  0
  146.2830  132.6988  151.8786 C   0  0  0  0  0  0  0  0  0  0  0  0
  145.8762  131.5897  151.2622 F   0  0  0  0  0  0  0  0  0  0  0  0
  145.3133  133.1157  152.6920 F   0  0  0  0  0  0  0  0  0  0  0  0
  146.5299  133.6325  150.9603 F   0  0  0  0  0  0  0  0  0  0  0  0
  149.4612  134.7556  154.8836 C   0  0  0  0  0  0  0  0  0  0  0  0
  148.5670  135.5876  155.0377 O   0  0  0  0  0  0  0  0  0  0  0  0
  150.6596  134.8372  155.4814 N   0  0  0  0  0  0  0  0  0  0  0  0
  151.0775  135.8772  156.4169 C   0  0  0  0  0  0  0  0  0  0  0  0
  151.0531  137.2772  155.8229 C   0  0  0  0  0  0  0  0  0  0  0  0
  150.7525  137.5091  154.4634 C   0  0  0  0  0  0  0  0  0  0  0  0
  150.7473  138.8365  153.9961 C   0  0  0  0  0  0  0  0  0  0  0  0
  151.0214  139.8994  154.7808 N   0  0  0  0  0  0  0  0  0  0  0  0
  151.3283  139.6881  156.0844 C   0  0  0  0  0  0  0  0  0  0  0  0
  151.6251  140.8056  156.8931 N   0  0  0  0  0  0  0  0  0  0  0  0
  150.7338  141.9509  156.7302 C   0  0  0  0  0  0  0  0  0  0  0  0
  151.3282  143.1926  157.4167 C   0  0  0  0  0  0  0  0  0  0  0  0
  151.6089  142.9011  158.7820 O   0  0  0  0  0  0  0  0  0  0  0  0
  152.5636  141.8530  158.9144 C   0  0  0  0  0  0  0  0  0  0  0  0
  152.0096  140.5648  158.2823 C   0  0  0  0  0  0  0  0  0  0  0  0
  151.3518  138.3868  156.6400 C   0  0  0  0  0  0  0  0  0  0  0  0
  150.4649  132.1746  155.1357 H   0  0  0  0  0  0  0  0  0  0  0  0
  149.3656  131.3777  154.0167 H   0  0  0  0  0  0  0  0  0  0  0  0
  148.7413  132.0862  155.4999 H   0  0  0  0  0  0  0  0  0  0  0  0
  149.9505  133.5950  153.1221 H   0  0  0  0  0  0  0  0  0  0  0  0
  148.3560  132.1142  151.9987 H   0  0  0  0  0  0  0  0  0  0  0  0
  147.3742  131.5446  153.3424 H   0  0  0  0  0  0  0  0  0  0  0  0
  151.3314  134.1082  155.2895 H   0  0  0  0  0  0  0  0  0  0  0  0
  150.4083  135.8413  157.2773 H   0  0  0  0  0  0  0  0  0  0  0  0
  152.0830  135.6947  156.7989 H   0  0  0  0  0  0  0  0  0  0  0  0
  150.5317  136.6977  153.7855 H   0  0  0  0  0  0  0  0  0  0  0  0
  150.5182  139.0511  152.9627 H   0  0  0  0  0  0  0  0  0  0  0  0
  150.5548  142.1765  155.6797 H   0  0  0  0  0  0  0  0  0  0  0  0
  149.7664  141.7078  157.1718 H   0  0  0  0  0  0  0  0  0  0  0  0
  152.2371  143.5191  156.9085 H   0  0  0  0  0  0  0  0  0  0  0  0
  150.6221  144.0215  157.3688 H   0  0  0  0  0  0  0  0  0  0  0  0
  153.5054  142.1428  158.4456 H   0  0  0  0  0  0  0  0  0  0  0  0
  152.7708  141.6928  159.9726 H   0  0  0  0  0  0  0  0  0  0  0  0
  151.1412  140.2180  158.8441 H   0  0  0  0  0  0  0  0  0  0  0  0
  152.7668  139.7812  158.3331 H   0  0  0  0  0  0  0  0  0  0  0  0
  151.5800  138.2341  157.6846 H   0  0  0  0  0  0  0  0  0  0  0  0
  1  2  1  0  0  0  0
  1 25  1  0  0  0  0
  1 26  1  0  0  0  0
  1 27  1  0  0  0  0
  2  3  1  0  0  0  0
  2  9  1  0  0  0  0
  2 28  1  0  0  0  0
  3  4  1  0  0  0  0
  4  5  1  0  0  0  0
  4 29  1  0  0  0  0
  4 30  1  0  0  0  0
  5  6  1  0  0  0  0
  5  7  1  0  0  0  0
  5  8  1  0  0  0  0
  9 10  2  0  0  0  0
  9 11  1  0  0  0  0
 11 12  1  0  0  0  0
 11 31  1  0  0  0  0
 12 13  1  0  0  0  0
 12 32  1  0  0  0  0
 12 33  1  0  0  0  0
 13 24  1  0  0  0  0
 13 14  2  0  0  0  0
 14 15  1  0  0  0  0
 14 34  1  0  0  0  0
 15 16  2  0  0  0  0
 15 35  1  0  0  0  0
 16 17  1  0  0  0  0
 17 18  1  0  0  0  0
 17 24  2  0  0  0  0
 18 23  1  0  0  0  0
 18 19  1  0  0  0  0
 19 20  1  0  0  0  0
 19 36  1  0  0  0  0
 19 37  1  0  0  0  0
 20 21  1  0  0  0  0
 20 38  1  0  0  0  0
 20 39  1  0  0  0  0
 21 22  1  0  0  0  0
 22 23  1  0  0  0  0
 22 40  1  0  0  0  0
 22 41  1  0  0  0  0
 23 42  1  0  0  0  0
 23 43  1  0  0  0  0
 24 44  1  0  0  0  0
M  END
> <s_m_source_file>
AV-unprocessed.smi

> <i_m_source_file_index>
2092

> <i_lp_mmshare_version>
43012

> <i_f3d_flags>
0

> <s_epik_input>
RkMoRikoRilbQ0gyXU9bQ0BASF0oW0NIM10pQyg9TylbTkhdW0NIMl1jMVtjSF1bY0hdbmMoW2NIXTEpTjJbQ0gyXVtDSDJdT1tDSDJdW0NIMl0y

> <s_epik_cmdline>
J2VwaWtfcHl0aG9uJywgJy1waCcsICc3LjAnLCAnLXRuJywgJzgnLCAnLW1hJywgJzIwMCcsICctbWV0YWxfYmluZGluZycsICctaW1hZScsICc8aW5maWxlLm1hZT4nLCAnLW9tYWUnLCAnPG91dGZpbGUubWFlPic=

> <r_lp_tautomer_probability>
1

> <r_epik_Ionization_Penalty>
0.00451782

> <r_epik_Ionization_Penalty_Charging>
0

> <r_epik_Ionization_Penalty_Neutral>
0.00451782

> <r_epik_State_Penalty>
0.00326147

> <r_epik_Charging_Adjusted_Penalty>
0.00326147

> <i_epik_Tot_Q>
0

> <i_epik_Tot_abs_Q>
0

> <r_epik_Metal_State_Penalty>
-0

> <b_epik_Metal_Only>
0

> <s_lp_Force_Field>
OPLS_2005

> <r_lp_Energy>
17.1262

> <b_lp_Chiralities_Consistent>
1

> <s_lp_Variant>
AV-unprocessed.smi:2092-2

> <Gold.Version>
5.8.1

> <Gold.Id.Protein>
6NUR|6NUR_protein|mol2

> <Gold.PLP.Fitness>
44.0840

> <Gold.PLP.PLP>
-39.0116

> <Gold.PLP.part.hbond>
-1.0000

> <Gold.PLP.part.metal>
0.0000

> <Gold.PLP.part.buried>
-5.8432

> <Gold.PLP.part.nonpolar>
-32.6765

> <Gold.PLP.part.repulsive>
0.4772

> <Gold.PLP.ligand.clash>
0.0000

> <Gold.PLP.ligand.torsion>
0.3703

> <Gold.PLP.Chemscore.Hbond>
0.7500

> <Gold.PLP.Chemscore.CHOScore>
1.0000

> <Gold.PLP.Chemscore.Metal>
0.0000

> <Gold.Chemscore.Hbonds>
donor molecule, donor type, donor heavy atom, donor atom, acceptor molecule, acceptor atom, score
      P1  H  7989  7998       L1    16  0.75
      L1  C    15    35       P1  7957  1.00

> <Gold.PLP.Chemscore.Internal.Correction>
0.5630

> <Gold.Rescore>
     Score         DG    S(hbond)    S(metal)    S(lipo)     H(rot)  DE(clash)    DE(int)     intcor
     10.81     -11.20       0.74        0.00      82.13       2.49       0.05       0.33       ----

> <Gold.Chemscore.Fitness>
10.8120

> <Gold.Chemscore.DG>
-11.1983

> <Gold.Chemscore.ZeroCoef>
-5.4800

> <Gold.Chemscore.Hbond>
0.7435

> <Gold.Chemscore.Metal>
0.0000

> <Gold.Chemscore.Lipo>
82.1280

> <Gold.Chemscore.Internal_Hbond>
0.0000

> <Gold.Chemscore.DEClash>
0.0523

> <Gold.Chemscore.DEInternal>
0.3340

> <Gold.Chemscore.Rot>
2.4899

> <Gold.Chemscore.Internal.Correction>
   9.000000E+99

> <Gold.Chemscore.Hbonds>
donor molecule, donor type, donor heavy atom, donor atom, acceptor molecule, acceptor atom, score
      P1  H  7989  7998       L1    16  0.09

> <Gold.Chemscore.Hbond.Weighted>
-2.4834

> <Gold.Chemscore.Metal.Weighted>
-0.0000

> <Gold.Chemscore.Lipo.Weighted>
-9.6090

> <Gold.Chemscore.Internal_Hbond.Weighted>
0.0000

> <Gold.Chemscore.DEClash.Weighted>
0.0523

> <Gold.Chemscore.DEInternal.Weighted>
0.3340

> <Gold.Chemscore.Rot.Weighted>
6.3741

> <Gold.Chemscore.Internal.Correction.Weighted>
   9.000000E+99

> <Gold.Protein.RotatedTorsions>
[ 6907 6896 6895 6894 ] final   50.65 input  -60.11 | X-H torsion
[ 7974 7965 7964 7962 ] final  177.51 input  175.53 | X-H torsion
[ 8008 7997 7996 7995 ] final   25.95 input   59.86 | X-H torsion
[ 10167 10162 10161 10158 ] final  137.54 input  -65.29 | X-H torsion
[ 10718 10713 10712 10709 ] final    4.99 input   66.30 | X-H torsion
[ 10763 10752 10751 10750 ] final  106.36 input  -60.55 | X-H torsion
[ 11005 11000 10999 10996 ] final -151.66 input  -57.11 | X-H torsion

> <Gold.Protein.ActiveResidues>
 VAL166  LYS551  ARG553  GLY616  TRP617  ASP618  TYR619  PRO620  LYS621  CYS622 
 ASP623  PHE694  ASN695  SER759  ASP760  ASP761  ALA762  ILE779  LEU786  VAL792 
 PHE793  MET794  SER795  GLU796  ALA797  LYS798  CYS799  TRP800  GLU811  SER814 

> <Gold.Protein.RotatedAtoms>
  152.3041  134.7576  160.0350 H   0  0  0  0  0  0  0  0  0  0  0  0  # atno 6907 bound_to 6896
  151.8079  133.3372  159.3554 H   0  0  0  0  0  0  0  0  0  0  0  0  # atno 6908 bound_to 6896
  150.7288  134.5622  159.5892 H   0  0  0  0  0  0  0  0  0  0  0  0  # atno 6909 bound_to 6896
  144.7168  140.0259  143.6439 H   0  0  0  0  0  0  0  0  0  0  0  0  # atno 7974 bound_to 7965
  155.0197  140.3146  155.4798 H   0  0  0  0  0  0  0  0  0  0  0  0  # atno 8008 bound_to 7997
  156.2894  140.2199  156.5256 H   0  0  0  0  0  0  0  0  0  0  0  0  # atno 8009 bound_to 7997
  154.7463  140.0469  157.0842 H   0  0  0  0  0  0  0  0  0  0  0  0  # atno 8010 bound_to 7997
  139.5141  144.6404  151.5584 H   0  0  0  0  0  0  0  0  0  0  0  0  # atno 10167 bound_to 10162
  156.9007  130.5721  149.5648 H   0  0  0  0  0  0  0  0  0  0  0  0  # atno 10718 bound_to 10713
  153.3918  135.3880  155.1928 H   0  0  0  0  0  0  0  0  0  0  0  0  # atno 10763 bound_to 10752
  154.8720  135.3750  154.4727 H   0  0  0  0  0  0  0  0  0  0  0  0  # atno 10764 bound_to 10752
  153.5215  135.7087  153.5790 H   0  0  0  0  0  0  0  0  0  0  0  0  # atno 10765 bound_to 10752
  140.7272  134.3661  157.5173 H   0  0  0  0  0  0  0  0  0  0  0  0  # atno 11005 bound_to 11000
  146.0143  139.3196  143.0851 LP  0  0  0  0  0  0  0  0  0  0  0  0  # atno 17320 bound_to 7965
  145.8645  140.9456  143.0683 LP  0  0  0  0  0  0  0  0  0  0  0  0  # atno 17321 bound_to 7965
  140.6169  143.9332  150.6495 LP  0  0  0  0  0  0  0  0  0  0  0  0  # atno 17342 bound_to 10162
  140.2593  143.3536  152.1337 LP  0  0  0  0  0  0  0  0  0  0  0  0  # atno 17343 bound_to 10162
  156.0583  130.5640  150.9139 LP  0  0  0  0  0  0  0  0  0  0  0  0  # atno 17370 bound_to 10713
  157.6028  131.0940  150.8932 LP  0  0  0  0  0  0  0  0  0  0  0  0  # atno 17371 bound_to 10713
  139.8834  134.8994  156.2767 LP  0  0  0  0  0  0  0  0  0  0  0  0  # atno 17394 bound_to 11000
  140.9952  133.7184  156.0875 LP  0  0  0  0  0  0  0  0  0  0  0  0  # atno 17395 bound_to 11000

$$$$
