#       Name:                AV-unprocessed.smi:1749
#       Creating user name   scv26
#       Creation time:       Fri Mar 27 08:26:33 2020


#       File generated by GOLD software.
#

@<TRIPOS>MOLECULE
AV-unprocessed.smi:1749
    36    37     1
SMALL
NO_CHARGES


@<TRIPOS>ATOM
      1 ****        -1.6094  -1.4007  -2.2671 C.3            1 S1                 0.0000
      2 ****        -1.1186  -0.8168  -0.9348 C.3            1 S1                 0.0000
      3 ****        -1.7476  -1.5479   0.2667 C.3            1 S1                 0.0000
      4 ****        -1.2625  -0.9619   1.6021 C.3            1 S1                 0.0000
      5 ****        -1.5370   0.5495   1.6820 C.3            1 S1                 0.0000
      6 ****        -0.9270   1.3116   0.4871 C.3            1 S1                 0.0000
      7 ****         0.5330   1.3111   0.5506 N.am           1 S1                 0.0000
      8 ****         1.3131   2.1334   1.2785 C.2            1 S1                 0.0000
      9 ****         0.7831   3.0045   1.9671 O.2            1 S1                 0.0000
     10 ****         2.6583   1.9498   1.2115 N.pl3          1 S1                -1.0000
     11 ****         3.2187   0.9859   0.4568 C.2            1 S1                 0.0000
     12 ****         3.5218  -0.2275   0.9463 N.2            1 S1                 0.0000
     13 ****         4.0777  -1.0752  -0.0020 N.2            1 S1                 0.0000
     14 ****         4.1912  -0.4727  -1.1854 C.2            1 S1                 0.0000
     15 ****         3.6288   1.1844  -1.2492 S.3            1 S1                 0.0000
     16 ****        -1.3937   0.6999  -0.8490 C.3            1 S1                 0.0000
     17 ****        -2.6880  -1.2850  -2.3779 H              1 S1                 0.0000
     18 ****        -1.3790  -2.4639  -2.3383 H              1 S1                 0.0000
     19 ****        -1.1323  -0.9034  -3.1121 H              1 S1                 0.0000
     20 ****        -0.0392  -0.9706  -0.8930 H              1 S1                 0.0000
     21 ****        -2.8350  -1.4770   0.2136 H              1 S1                 0.0000
     22 ****        -1.5055  -2.6104   0.2256 H              1 S1                 0.0000
     23 ****        -1.7542  -1.4715   2.4310 H              1 S1                 0.0000
     24 ****        -0.1940  -1.1491   1.7181 H              1 S1                 0.0000
     25 ****        -2.6148   0.7151   1.6975 H              1 S1                 0.0000
     26 ****        -1.1578   0.9487   2.6235 H              1 S1                 0.0000
     27 ****        -1.2707   2.3470   0.5181 H              1 S1                 0.0000
     28 ****         1.0020   0.6055   0.0019 H              1 S1                 0.0000
     29 ****         4.6110  -1.0063  -2.0252 H              1 S1                 0.0000
     30 ****        -0.9102   1.2160  -1.6799 H              1 S1                 0.0000
     31 ****        -2.4637   0.8780  -0.9650 H              1 S1                 0.0000
     32 ****        -0.2127   3.0941   1.9807 LP             1 S1                 0.0000
     33 ****         1.3483   3.6229   2.5132 LP             1 S1                 0.0000
     34 ****         3.2537   2.5529   1.7424 LP             1 S1                 0.0000
     35 ****         3.3632  -0.4933   1.8972 LP             1 S1                 0.0000
     36 ****         4.3575  -2.0180   0.1797 LP             1 S1                 0.0000
@<TRIPOS>BOND
    1    1    2 1     
    2    1   17 1     
    3    1   18 1     
    4    1   19 1     
    5    2   16 1     
    6    2    3 1     
    7    2   20 1     
    8    3    4 1     
    9    3   21 1     
   10    3   22 1     
   11    4    5 1     
   12    4   23 1     
   13    4   24 1     
   14    5    6 1     
   15    5   25 1     
   16    5   26 1     
   17    6    7 1     
   18    6   16 1     
   19    6   27 1     
   20    7    8 am    
   21    7   28 1     
   22    8    9 2     
   23    8   10 1     
   24   10   11 1     
   25   11   15 1     
   26   11   12 2     
   27   12   13 1     
   28   13   14 2     
   29   14   15 1     
   30   14   29 1     
   31   16   30 1     
   32   16   31 1     
   33    9   32 1     
   34    9   33 1     
   35   10   34 1     
   36   12   35 1     
   37   13   36 1     
@<TRIPOS>SUBSTRUCTURE
      1 S1             1
@<TRIPOS>SET
LONE_PAIRS      STATIC     ATOMS    <user>   **** ""
5 32 33 34 35 36
DONOR_HYDROGENS      STATIC     ATOMS    <user>   **** ""
1 28
ATOM$BLUE        STATIC     ATOMS    COLORGROUP SYSTEM
5 32 33 34 35 36
ATOM$RED        STATIC     ATOMS    COLORGROUP SYSTEM
1 28
