#       Name:                AV-unprocessed.smi:3025
#       Creating user name   scv26
#       Creation time:       Fri Mar 27 16:44:47 2020


#       File generated by GOLD software.
#

@<TRIPOS>MOLECULE
AV-unprocessed.smi:3025
    44    45     1
SMALL
NO_CHARGES


@<TRIPOS>ATOM
      1 ****        -1.3182  -5.4789  -1.6339 C.3            1 S1                 0.0000
      2 ****        -1.7021  -4.0012  -1.5010 C.3            1 S1                 0.0000
      3 ****        -1.1699  -3.3706  -0.2030 C.3            1 S1                 0.0000
      4 ****        -1.6111  -1.9087   0.0178 C.3            1 S1                 0.0000
      5 ****        -0.9841  -0.9376  -1.0055 C.3            1 S1                 0.0000
      6 ****        -1.4197   0.5166  -0.7550 C.3            1 S1                 0.0000
      7 ****        -1.1069   0.9858   0.6818 C.3            1 S1                 0.0000
      8 ****         0.3462   1.1524   0.9197 N.4            1 S1                 1.0000
      9 ****         0.9610   2.3405   0.2914 C.3            1 S1                 0.0000
     10 ****         2.4311   2.4841   0.7067 C.3            1 S1                 0.0000
     11 ****         3.0868   3.6680   0.0747 C.2            1 S1                 0.0000
     12 ****         3.5406   3.7021  -1.1838 N.2            1 S1                 0.0000
     13 ****         4.0493   4.9790  -1.3615 N.2            1 S1                 0.0000
     14 ****         3.8511   5.5917  -0.1934 C.2            1 S1                 0.0000
     15 ****         3.2566   4.8266   0.7299 N.pl3          1 S1                 0.0000
     16 ****        -1.7092   0.0058   1.7056 C.3            1 S1                 0.0000
     17 ****        -1.2751  -1.4484   1.4504 C.3            1 S1                 0.0000
     18 ****         3.0037   5.0649   1.6780 H              1 S1                 0.0000
     19 ****        -1.7038  -5.8982  -2.5635 H              1 S1                 0.0000
     20 ****        -1.7236  -6.0679  -0.8106 H              1 S1                 0.0000
     21 ****        -0.2353  -5.6060  -1.6358 H              1 S1                 0.0000
     22 ****        -1.3187  -3.4628  -2.3673 H              1 S1                 0.0000
     23 ****        -2.7883  -3.9101  -1.5348 H              1 S1                 0.0000
     24 ****        -1.5220  -3.9734   0.6354 H              1 S1                 0.0000
     25 ****        -0.0813  -3.4349  -0.1820 H              1 S1                 0.0000
     26 ****        -2.6958  -1.8669  -0.0942 H              1 S1                 0.0000
     27 ****         0.1036  -1.0082  -0.9661 H              1 S1                 0.0000
     28 ****        -1.2717  -1.2159  -2.0189 H              1 S1                 0.0000
     29 ****        -0.9651   1.1759  -1.4939 H              1 S1                 0.0000
     30 ****        -2.4954   0.5905  -0.9212 H              1 S1                 0.0000
     31 ****        -1.5752   1.9579   0.8426 H              1 S1                 0.0000
     32 ****         0.4818   1.2366   1.9170 H              1 S1                 0.0000
     33 ****         0.8939   2.2597  -0.7936 H              1 S1                 0.0000
     34 ****         0.4077   3.2336   0.5845 H              1 S1                 0.0000
     35 ****         2.5093   2.5726   1.7913 H              1 S1                 0.0000
     36 ****         2.9899   1.5902   0.4259 H              1 S1                 0.0000
     37 ****         4.1427   6.6156  -0.0108 H              1 S1                 0.0000
     38 ****        -1.4393   0.3041   2.7194 H              1 S1                 0.0000
     39 ****        -2.7974   0.0619   1.6550 H              1 S1                 0.0000
     40 ****        -1.7658  -2.1001   2.1743 H              1 S1                 0.0000
     41 ****        -0.2037  -1.5496   1.6289 H              1 S1                 0.0000
     42 ****         0.8253   0.3219   0.6015 H              1 S1                 0.0000
     43 ****         3.5175   2.9615  -1.8553 LP             1 S1                 0.0000
     44 ****         4.4721   5.3579  -2.1848 LP             1 S1                 0.0000
@<TRIPOS>BOND
    1    1    2 1     
    2    1   19 1     
    3    1   20 1     
    4    1   21 1     
    5    2    3 1     
    6    2   22 1     
    7    2   23 1     
    8    3    4 1     
    9    3   24 1     
   10    3   25 1     
   11    4   17 1     
   12    4    5 1     
   13    4   26 1     
   14    5    6 1     
   15    5   27 1     
   16    5   28 1     
   17    6    7 1     
   18    6   29 1     
   19    6   30 1     
   20    7    8 1     
   21    7   16 1     
   22    7   31 1     
   23    8    9 1     
   24    8   32 1     
   25    8   42 1     
   26    9   10 1     
   27    9   33 1     
   28    9   34 1     
   29   10   11 1     
   30   10   35 1     
   31   10   36 1     
   32   11   15 1     
   33   11   12 2     
   34   12   13 1     
   35   13   14 2     
   36   14   15 1     
   37   14   37 1     
   38   15   18 1     
   39   16   17 1     
   40   16   38 1     
   41   16   39 1     
   42   17   40 1     
   43   17   41 1     
   44   12   43 1     
   45   13   44 1     
@<TRIPOS>SUBSTRUCTURE
      1 S1             1
@<TRIPOS>SET
LONE_PAIRS      STATIC     ATOMS    <user>   **** ""
2 43 44
DONOR_HYDROGENS      STATIC     ATOMS    <user>   **** ""
3 32 42 18
ATOM$BLUE        STATIC     ATOMS    COLORGROUP SYSTEM
2 43 44
ATOM$RED        STATIC     ATOMS    COLORGROUP SYSTEM
3 32 42 18
