#       Name:                AV-unprocessed.smi:1632
#       Creating user name   scv26
#       Creation time:       Fri Mar 27 07:20:45 2020


#       File generated by GOLD software.
#

@<TRIPOS>MOLECULE
AV-unprocessed.smi:1632
    47    49     1
SMALL
NO_CHARGES


@<TRIPOS>ATOM
      1 ****        -3.9701   2.4578  -1.1787 O.3            1 S1                 0.0000
      2 ****        -3.3676   1.8417  -0.0607 C.3            1 S1                 0.0000
      3 ****        -1.8413   1.8031  -0.2216 C.3            1 S1                 0.0000
      4 ****        -1.3695   0.8531  -1.3354 C.3            1 S1                 0.0000
      5 ****         0.1265   0.7141  -1.3851 C.2            1 S1                 0.0000
      6 ****         0.8974   1.7747  -1.6316 N.2            1 S1                 0.0000
      7 ****         2.1717   1.2473  -1.5982 C.ar           1 S1                 0.0000
      8 ****         3.4282   1.8696  -1.7748 C.ar           1 S1                 0.0000
      9 ****         4.6160   1.1132  -1.6995 C.ar           1 S1                 0.0000
     10 ****         4.5636  -0.2732  -1.4485 C.ar           1 S1                 0.0000
     11 ****         3.3214  -0.9120  -1.2714 C.ar           1 S1                 0.0000
     12 ****         2.1384  -0.1518  -1.3454 C.ar           1 S1                 0.0000
     13 ****         0.7873  -0.4656  -1.2238 N.pl3          1 S1                 0.0000
     14 ****         0.2640  -1.8074  -0.9898 C.3            1 S1                 0.0000
     15 ****         0.4143  -2.2602   0.4761 C.3            1 S1                 0.0000
     16 ****         0.0909  -3.6345   0.5419 O.3            1 S1                 0.0000
     17 ****        -0.4203  -1.4308   1.4444 C.ar           1 S1                 0.0000
     18 ****        -1.8195  -1.6146   1.5132 C.ar           1 S1                 0.0000
     19 ****        -2.5940  -0.8613   2.4163 C.ar           1 S1                 0.0000
     20 ****        -1.9751   0.0832   3.2565 C.ar           1 S1                 0.0000
     21 ****        -0.5821   0.2768   3.1890 C.ar           1 S1                 0.0000
     22 ****         0.1944  -0.4740   2.2845 C.ar           1 S1                 0.0000
     23 ****         1.5322  -0.2675   2.2283 F              1 S1                 0.0000
     24 ****        -3.7579   1.9554  -1.9504 H              1 S1                 0.0000
     25 ****        -3.6347   2.4090   0.8311 H              1 S1                 0.0000
     26 ****        -3.7720   0.8371   0.0649 H              1 S1                 0.0000
     27 ****        -1.4614   2.8105  -0.3975 H              1 S1                 0.0000
     28 ****        -1.4050   1.4798   0.7219 H              1 S1                 0.0000
     29 ****        -1.8492  -0.1114  -1.1946 H              1 S1                 0.0000
     30 ****        -1.7089   1.2192  -2.3048 H              1 S1                 0.0000
     31 ****         3.4779   2.9309  -1.9688 H              1 S1                 0.0000
     32 ****         5.5711   1.5987  -1.8361 H              1 S1                 0.0000
     33 ****         5.4776  -0.8461  -1.3932 H              1 S1                 0.0000
     34 ****         3.2789  -1.9738  -1.0799 H              1 S1                 0.0000
     35 ****        -0.7659  -1.8914  -1.3294 H              1 S1                 0.0000
     36 ****         0.8287  -2.4846  -1.6324 H              1 S1                 0.0000
     37 ****         1.4644  -2.1902   0.7607 H              1 S1                 0.0000
     38 ****         0.2922  -3.9479   1.4105 H              1 S1                 0.0000
     39 ****        -2.3042  -2.3364   0.8721 H              1 S1                 0.0000
     40 ****        -3.6630  -1.0079   2.4635 H              1 S1                 0.0000
     41 ****        -2.5684   0.6619   3.9490 H              1 S1                 0.0000
     42 ****        -0.1081   1.0056   3.8296 H              1 S1                 0.0000
     43 ****        -3.6225   3.3902  -1.2776 LP             1 S1                 0.0000
     44 ****        -4.9621   2.4832  -1.0555 LP             1 S1                 0.0000
     45 ****         0.6195   2.7205  -1.7995 LP             1 S1                 0.0000
     46 ****         0.6287  -4.1405  -0.1326 LP             1 S1                 0.0000
     47 ****        -0.8832  -3.7614   0.3546 LP             1 S1                 0.0000
@<TRIPOS>BOND
    1    1    2 1     
    2    1   24 1     
    3    2    3 1     
    4    2   25 1     
    5    2   26 1     
    6    3    4 1     
    7    3   27 1     
    8    3   28 1     
    9    4    5 1     
   10    4   29 1     
   11    4   30 1     
   12    5   13 1     
   13    5    6 2     
   14    6    7 1     
   15    7   12 ar    
   16    7    8 ar    
   17    8    9 ar    
   18    8   31 1     
   19    9   10 ar    
   20    9   32 1     
   21   10   11 ar    
   22   10   33 1     
   23   11   12 ar    
   24   11   34 1     
   25   12   13 1     
   26   13   14 1     
   27   14   15 1     
   28   14   35 1     
   29   14   36 1     
   30   15   16 1     
   31   15   17 1     
   32   15   37 1     
   33   16   38 1     
   34   17   22 ar    
   35   17   18 ar    
   36   18   19 ar    
   37   18   39 1     
   38   19   20 ar    
   39   19   40 1     
   40   20   21 ar    
   41   20   41 1     
   42   21   22 ar    
   43   21   42 1     
   44   22   23 1     
   45    1   43 1     
   46    1   44 1     
   47    6   45 1     
   48   16   46 1     
   49   16   47 1     
@<TRIPOS>SUBSTRUCTURE
      1 S1             1
@<TRIPOS>SET
LONE_PAIRS      STATIC     ATOMS    <user>   **** ""
5 43 44 45 46 47
DONOR_HYDROGENS      STATIC     ATOMS    <user>   **** ""
2 24 38
ATOM$BLUE        STATIC     ATOMS    COLORGROUP SYSTEM
5 43 44 45 46 47
ATOM$RED        STATIC     ATOMS    COLORGROUP SYSTEM
2 24 38
