AV-unprocessed.smi:2450|AV-procd|sdf|9667|dock2
  -GOLD-   2272013303D 1   1.00000     0.00000
 Structure written by MMmdl.
 42 43  0  0  0  0  0  0  0  0  2 V2000
  153.0747  142.5204  162.0332 C   0  0  0  0  0  0  0  0  0  0  0  0
  152.4199  142.0590  160.7232 C   0  0  0  0  0  0  0  0  0  0  0  0
  152.5747  143.0646  159.5668 C   0  0  2  0  0  0  0  0  0  0  0  0
  152.0897  144.4659  159.9643 C   0  0  0  0  0  0  0  0  0  0  0  0
  151.8288  142.6070  158.3951 N   0  0  0  0  0  0  0  0  0  0  0  0
  152.0000  141.4397  157.7578 C   0  0  0  0  0  0  0  0  0  0  0  0
  152.8398  140.5993  158.0790 O   0  0  0  0  0  0  0  0  0  0  0  0
  151.1488  141.3247  156.7247 N   0  0  0  0  0  0  0  0  0  0  0  0
  151.0167  140.2453  155.8051 C   0  0  0  0  0  0  0  0  0  0  0  0
  152.0428  139.2887  155.5938 C   0  0  0  0  0  0  0  0  0  0  0  0
  151.8364  138.2325  154.6843 C   0  0  0  0  0  0  0  0  0  0  0  0
  150.6067  138.1419  154.0067 C   0  0  0  0  0  0  0  0  0  0  0  0
  149.6450  139.0589  154.2408 N   0  3  0  0  0  0  0  0  0  0  0  0
  149.7927  140.0936  155.1045 C   0  0  0  0  0  0  0  0  0  0  0  0
  148.7245  140.9903  155.2806 N   0  0  0  0  0  0  0  0  0  0  0  0
  148.2947  141.7016  154.0882 C   0  0  0  0  0  0  0  0  0  0  0  0
  146.9315  142.2984  154.4439 C   0  0  0  0  0  0  0  0  0  0  0  0
  146.4044  141.4196  155.5851 C   0  0  0  0  0  0  0  0  0  0  0  0
  147.5238  140.4102  155.8584 C   0  0  0  0  0  0  0  0  0  0  0  0
  152.8934  141.8002  162.8312 H   0  0  0  0  0  0  0  0  0  0  0  0
  152.6723  143.4813  162.3553 H   0  0  0  0  0  0  0  0  0  0  0  0
  154.1543  142.6276  161.9268 H   0  0  0  0  0  0  0  0  0  0  0  0
  152.8362  141.0936  160.4327 H   0  0  0  0  0  0  0  0  0  0  0  0
  151.3589  141.8873  160.9085 H   0  0  0  0  0  0  0  0  0  0  0  0
  153.6380  143.1403  159.3324 H   0  0  0  0  0  0  0  0  0  0  0  0
  152.6433  144.8427  160.8248 H   0  0  0  0  0  0  0  0  0  0  0  0
  151.0310  144.4620  160.2264 H   0  0  0  0  0  0  0  0  0  0  0  0
  152.2293  145.1760  159.1487 H   0  0  0  0  0  0  0  0  0  0  0  0
  151.1146  143.2314  158.0500 H   0  0  0  0  0  0  0  0  0  0  0  0
  150.5817  142.1361  156.5260 H   0  0  0  0  0  0  0  0  0  0  0  0
  152.9811  139.3364  156.1249 H   0  0  0  0  0  0  0  0  0  0  0  0
  152.6106  137.4984  154.5139 H   0  0  0  0  0  0  0  0  0  0  0  0
  150.3619  137.3660  153.2956 H   0  0  0  0  0  0  0  0  0  0  0  0
  149.0118  142.4753  153.8123 H   0  0  0  0  0  0  0  0  0  0  0  0
  148.1946  141.0172  153.2448 H   0  0  0  0  0  0  0  0  0  0  0  0
  147.0495  143.3251  154.7927 H   0  0  0  0  0  0  0  0  0  0  0  0
  146.2605  142.3147  153.5847 H   0  0  0  0  0  0  0  0  0  0  0  0
  146.2151  142.0302  156.4689 H   0  0  0  0  0  0  0  0  0  0  0  0
  145.4723  140.9180  155.3232 H   0  0  0  0  0  0  0  0  0  0  0  0
  147.2935  139.4555  155.3833 H   0  0  0  0  0  0  0  0  0  0  0  0
  147.6500  140.2321  156.9268 H   0  0  0  0  0  0  0  0  0  0  0  0
  148.7602  138.9673  153.7415 H   0  0  0  0  0  0  0  0  0  0  0  0
  1  2  1  0  0  0  0
  1 20  1  0  0  0  0
  1 21  1  0  0  0  0
  1 22  1  0  0  0  0
  2  3  1  0  0  0  0
  2 23  1  0  0  0  0
  2 24  1  0  0  0  0
  3  4  1  0  0  0  0
  3  5  1  0  0  0  0
  3 25  1  0  0  0  0
  4 26  1  0  0  0  0
  4 27  1  0  0  0  0
  4 28  1  0  0  0  0
  5  6  1  0  0  0  0
  5 29  1  0  0  0  0
  6  7  2  0  0  0  0
  6  8  1  0  0  0  0
  8  9  1  0  0  0  0
  8 30  1  0  0  0  0
  9 14  1  0  0  0  0
  9 10  2  0  0  0  0
 10 11  1  0  0  0  0
 10 31  1  0  0  0  0
 11 12  2  0  0  0  0
 11 32  1  0  0  0  0
 12 13  1  0  0  0  0
 12 33  1  0  0  0  0
 13 14  2  0  0  0  0
 13 42  1  0  0  0  0
 14 15  1  0  0  0  0
 15 19  1  0  0  0  0
 15 16  1  0  0  0  0
 16 17  1  0  0  0  0
 16 34  1  0  0  0  0
 16 35  1  0  0  0  0
 17 18  1  0  0  0  0
 17 36  1  0  0  0  0
 17 37  1  0  0  0  0
 18 19  1  0  0  0  0
 18 38  1  0  0  0  0
 18 39  1  0  0  0  0
 19 40  1  0  0  0  0
 19 41  1  0  0  0  0
M  CHG  1  13   1
M  END
> <s_m_source_file>
AV-unprocessed.smi

> <i_m_source_file_index>
2450

> <i_lp_mmshare_version>
43012

> <i_f3d_flags>
0

> <s_epik_input>
W0NIM11bQ0gyXVtDQEhdKFtDSDNdKVtOSF1DKD1PKVtOSF1jMVtjSF1bY0hdW2NIXW5jMU4yW0NIMl1bQ0gyXVtDSDJdW0NIMl0y

> <s_epik_cmdline>
J2VwaWtfcHl0aG9uJywgJy1waCcsICc3LjAnLCAnLXRuJywgJzgnLCAnLW1hJywgJzIwMCcsICctbWV0YWxfYmluZGluZycsICctaW1hZScsICc8aW5maWxlLm1hZT4nLCAnLW9tYWUnLCAnPG91dGZpbGUubWFlPic=

> <r_lp_tautomer_probability>
0.999994

> <r_epik_Ionization_Penalty>
1.08838

> <r_epik_Ionization_Penalty_Charging>
1.08836

> <r_epik_Ionization_Penalty_Neutral>
2.1796e-05

> <r_epik_State_Penalty>
1.14442

> <r_epik_Charging_Adjusted_Penalty>
2.23278

> <i_epik_Tot_Q>
1

> <i_epik_Tot_abs_Q>
1

> <r_epik_Metal_State_Penalty>
1.23344

> <b_epik_Metal_Only>
0

> <s_lp_Force_Field>
OPLS_2005

> <r_lp_Energy>
40.8961

> <b_lp_Chiralities_Consistent>
1

> <s_lp_Variant>
AV-unprocessed.smi:2450-3

> <Gold.Version>
5.8.1

> <Gold.Id.Protein>
6NUR|6NUR_protein|mol2

> <Gold.PLP.Fitness>
41.7775

> <Gold.PLP.PLP>
-39.6618

> <Gold.PLP.part.hbond>
-1.3560

> <Gold.PLP.part.metal>
0.0000

> <Gold.PLP.part.buried>
-2.9917

> <Gold.PLP.part.nonpolar>
-35.0576

> <Gold.PLP.part.repulsive>
0.3264

> <Gold.PLP.ligand.clash>
0.0000

> <Gold.PLP.ligand.torsion>
0.1328

> <Gold.PLP.Chemscore.Hbond>
0.7840

> <Gold.PLP.Chemscore.CHOScore>
0.0000

> <Gold.PLP.Chemscore.Metal>
0.0000

> <Gold.Chemscore.Hbonds>
donor molecule, donor type, donor heavy atom, donor atom, acceptor molecule, acceptor atom, score
      P1  H  7997  8009       L1     7  0.65

> <Gold.PLP.Chemscore.Internal.Correction>
0.0293

> <Gold.Rescore>
     Score         DG    S(hbond)    S(metal)    S(lipo)     H(rot)  DE(clash)    DE(int)     intcor
     13.98     -15.66       0.77        0.00      94.16       1.34       0.31       1.37       ----

> <Gold.Chemscore.Fitness>
13.9784

> <Gold.Chemscore.DG>
-15.6554

> <Gold.Chemscore.ZeroCoef>
-5.4800

> <Gold.Chemscore.Hbond>
0.7745

> <Gold.Chemscore.Metal>
0.0000

> <Gold.Chemscore.Lipo>
94.1623

> <Gold.Chemscore.Internal_Hbond>
0.0000

> <Gold.Chemscore.DEClash>
0.3074

> <Gold.Chemscore.DEInternal>
1.3696

> <Gold.Chemscore.Rot>
1.3393

> <Gold.Chemscore.Internal.Correction>
   9.000000E+99

> <Gold.Chemscore.Hbonds>
donor molecule, donor type, donor heavy atom, donor atom, acceptor molecule, acceptor atom, score
      P1  H  7997  8009       L1     7  0.63

> <Gold.Chemscore.Hbond.Weighted>
-2.5869

> <Gold.Chemscore.Metal.Weighted>
-0.0000

> <Gold.Chemscore.Lipo.Weighted>
-11.0170

> <Gold.Chemscore.Internal_Hbond.Weighted>
0.0000

> <Gold.Chemscore.DEClash.Weighted>
0.3074

> <Gold.Chemscore.DEInternal.Weighted>
1.3696

> <Gold.Chemscore.Rot.Weighted>
3.4285

> <Gold.Chemscore.Internal.Correction.Weighted>
   9.000000E+99

> <Gold.Protein.RotatedTorsions>
[ 6907 6896 6895 6894 ] final -154.73 input  -60.11 | X-H torsion
[ 7974 7965 7964 7962 ] final  -71.05 input  175.53 | X-H torsion
[ 8008 7997 7996 7995 ] final  166.03 input   59.86 | X-H torsion
[ 10167 10162 10161 10158 ] final  169.77 input  -65.29 | X-H torsion
[ 10718 10713 10712 10709 ] final -150.46 input   66.30 | X-H torsion
[ 10763 10752 10751 10750 ] final  -88.14 input  -60.55 | X-H torsion
[ 11005 11000 10999 10996 ] final   11.06 input  -57.11 | X-H torsion

> <Gold.Protein.ActiveResidues>
 VAL166  LYS551  ARG553  GLY616  TRP617  ASP618  TYR619  PRO620  LYS621  CYS622 
 ASP623  PHE694  ASN695  SER759  ASP760  ASP761  ALA762  ILE779  LEU786  VAL792 
 PHE793  MET794  SER795  GLU796  ALA797  LYS798  CYS799  TRP800  GLU811  SER814 

> <Gold.Protein.RotatedAtoms>
  151.2619  133.4298  159.2616 H   0  0  0  0  0  0  0  0  0  0  0  0  # atno 6907 bound_to 6896
  151.0523  134.9681  159.8228 H   0  0  0  0  0  0  0  0  0  0  0  0  # atno 6908 bound_to 6896
  152.5384  134.2573  159.8974 H   0  0  0  0  0  0  0  0  0  0  0  0  # atno 6909 bound_to 6896
  145.6830  140.9181  143.0822 H   0  0  0  0  0  0  0  0  0  0  0  0  # atno 7974 bound_to 7965
  156.1752  140.1654  156.8375 H   0  0  0  0  0  0  0  0  0  0  0  0  # atno 8008 bound_to 7997
  154.5299  140.0759  156.8360 H   0  0  0  0  0  0  0  0  0  0  0  0  # atno 8009 bound_to 7997
  155.3428  140.3385  155.4241 H   0  0  0  0  0  0  0  0  0  0  0  0  # atno 8010 bound_to 7997
  139.5001  144.3669  151.9766 H   0  0  0  0  0  0  0  0  0  0  0  0  # atno 10167 bound_to 10162
  156.4464  130.8147  151.2377 H   0  0  0  0  0  0  0  0  0  0  0  0  # atno 10718 bound_to 10713
  154.6413  135.5388  153.7792 H   0  0  0  0  0  0  0  0  0  0  0  0  # atno 10763 bound_to 10752
  153.0335  135.6460  154.1156 H   0  0  0  0  0  0  0  0  0  0  0  0  # atno 10764 bound_to 10752
  154.1080  135.2928  155.3217 H   0  0  0  0  0  0  0  0  0  0  0  0  # atno 10765 bound_to 10752
  140.5074  134.0685  155.7809 H   0  0  0  0  0  0  0  0  0  0  0  0  # atno 11005 bound_to 11000
  144.7020  139.8722  143.7441 LP  0  0  0  0  0  0  0  0  0  0  0  0  # atno 17320 bound_to 7965
  146.0948  139.3939  143.0383 LP  0  0  0  0  0  0  0  0  0  0  0  0  # atno 17321 bound_to 7965
  140.3105  144.3543  150.6035 LP  0  0  0  0  0  0  0  0  0  0  0  0  # atno 17342 bound_to 10162
  140.5802  143.2173  151.7442 LP  0  0  0  0  0  0  0  0  0  0  0  0  # atno 17343 bound_to 10162
  157.7504  131.0152  150.3493 LP  0  0  0  0  0  0  0  0  0  0  0  0  # atno 17370 bound_to 10713
  156.3862  130.3889  149.7064 LP  0  0  0  0  0  0  0  0  0  0  0  0  # atno 17371 bound_to 10713
  141.1403  133.9149  157.2340 LP  0  0  0  0  0  0  0  0  0  0  0  0  # atno 17394 bound_to 11000
  139.9678  135.0137  156.9433 LP  0  0  0  0  0  0  0  0  0  0  0  0  # atno 17395 bound_to 11000

$$$$
