#       Name:                AV-unprocessed.smi:2165
#       Creating user name   scv26
#       Creation time:       Fri Mar 27 12:00:15 2020


#       File generated by GOLD software.
#

@<TRIPOS>MOLECULE
AV-unprocessed.smi:2165
    44    45     1
SMALL
NO_CHARGES


@<TRIPOS>ATOM
      1 ****        -3.1283   2.8943   0.8242 C.3            1 S1                 0.0000
      2 ****        -2.9696   2.1558  -0.4112 N.am           1 S1                 0.0000
      3 ****        -3.4311   2.7260  -1.6225 C.2            1 S1                 0.0000
      4 ****        -3.9687   3.8327  -1.6743 O.2            1 S1                 0.0000
      5 ****        -3.2210   1.8912  -2.7996 C.2            1 S1                 0.0000
      6 ****        -2.6339   0.6787  -2.6961 C.2            1 S1                 0.0000
      7 ****        -2.1966   0.1432  -1.4983 N.am           1 S1                 0.0000
      8 ****        -1.5602  -1.1800  -1.4781 C.3            1 S1                 0.0000
      9 ****        -0.0325  -1.0968  -1.3666 C.2            1 S1                 0.0000
     10 ****         0.5893  -0.2093  -1.9522 O.2            1 S1                 0.0000
     11 ****         0.5590  -2.0399  -0.6185 N.am           1 S1                 0.0000
     12 ****         1.9888  -2.1185  -0.3446 C.3            1 S1                 0.0000
     13 ****         2.4117  -1.1009   0.7283 C.3            1 S1                 0.0000
     14 ****         3.9010  -1.1335   1.0648 C.3            1 S1                 0.0000
     15 ****         3.9568  -0.5997   2.4889 C.3            1 S1                 0.0000
     16 ****         2.5016  -0.6457   2.9645 C.3            1 S1                 0.0000
     17 ****         1.8157  -1.4045   1.9793 O.3            1 S1                 0.0000
     18 ****        -2.3619   0.8855  -0.3090 C.2            1 S1                 0.0000
     19 ****        -1.9868   0.4310   0.7751 O.2            1 S1                 0.0000
     20 ****        -3.5247   3.8926   0.6423 H              1 S1                 0.0000
     21 ****        -2.1423   2.9758   1.2853 H              1 S1                 0.0000
     22 ****        -3.8153   2.3240   1.4518 H              1 S1                 0.0000
     23 ****        -3.5396   2.2494  -3.7675 H              1 S1                 0.0000
     24 ****        -2.4986   0.1009  -3.5989 H              1 S1                 0.0000
     25 ****        -1.9664  -1.7736  -0.6567 H              1 S1                 0.0000
     26 ****        -1.8050  -1.7290  -2.3882 H              1 S1                 0.0000
     27 ****        -0.0277  -2.7323  -0.1758 H              1 S1                 0.0000
     28 ****         2.2201  -3.1318  -0.0147 H              1 S1                 0.0000
     29 ****         2.5512  -1.9543  -1.2651 H              1 S1                 0.0000
     30 ****         2.1268  -0.0882   0.4358 H              1 S1                 0.0000
     31 ****         4.2709  -2.1596   1.0462 H              1 S1                 0.0000
     32 ****         4.5006  -0.5481   0.3673 H              1 S1                 0.0000
     33 ****         4.6031  -1.2205   3.1104 H              1 S1                 0.0000
     34 ****         4.3398   0.4210   2.5205 H              1 S1                 0.0000
     35 ****         2.3955  -1.0938   3.9524 H              1 S1                 0.0000
     36 ****         2.0783   0.3592   2.9996 H              1 S1                 0.0000
     37 ****        -4.0943   4.3672  -0.8385 LP             1 S1                 0.0000
     38 ****        -4.2797   4.1969  -2.5521 LP             1 S1                 0.0000
     39 ****         0.0983   0.4637  -2.5053 LP             1 S1                 0.0000
     40 ****         1.5851  -0.1619  -1.8745 LP             1 S1                 0.0000
     41 ****         1.9062  -2.3812   2.1743 LP             1 S1                 0.0000
     42 ****         0.8473  -1.1553   1.9673 LP             1 S1                 0.0000
     43 ****        -2.1103   0.9656   1.6111 LP             1 S1                 0.0000
     44 ****        -1.5593  -0.4721   0.8177 LP             1 S1                 0.0000
@<TRIPOS>BOND
    1    1    2 1     
    2    1   20 1     
    3    1   21 1     
    4    1   22 1     
    5    2   18 am    
    6    2    3 am    
    7    3    4 2     
    8    3    5 1     
    9    5    6 2     
   10    5   23 1     
   11    6    7 1     
   12    6   24 1     
   13    7    8 1     
   14    7   18 am    
   15    8    9 1     
   16    8   25 1     
   17    8   26 1     
   18    9   10 2     
   19    9   11 am    
   20   11   12 1     
   21   11   27 1     
   22   12   13 1     
   23   12   28 1     
   24   12   29 1     
   25   13   17 1     
   26   13   14 1     
   27   13   30 1     
   28   14   15 1     
   29   14   31 1     
   30   14   32 1     
   31   15   16 1     
   32   15   33 1     
   33   15   34 1     
   34   16   17 1     
   35   16   35 1     
   36   16   36 1     
   37   18   19 2     
   38    4   37 1     
   39    4   38 1     
   40   10   39 1     
   41   10   40 1     
   42   17   41 1     
   43   17   42 1     
   44   19   43 1     
   45   19   44 1     
@<TRIPOS>SUBSTRUCTURE
      1 S1             1
@<TRIPOS>SET
LONE_PAIRS      STATIC     ATOMS    <user>   **** ""
8 37 38 39 40 41 42 43 44
DONOR_HYDROGENS      STATIC     ATOMS    <user>   **** ""
1 27
ATOM$BLUE        STATIC     ATOMS    COLORGROUP SYSTEM
8 37 38 39 40 41 42 43 44
ATOM$RED        STATIC     ATOMS    COLORGROUP SYSTEM
1 27
