AV-unprocessed.smi:1992|AV-procd|sdf|8069|dock5
  -GOLD-   2272010273D 1   1.00000     0.00000
 Structure written by MMmdl.
 46 47  0  0  0  0  0  0  0  0  2 V2000
  153.0792  139.7016  159.1328 C   0  0  0  0  0  0  0  0  0  0  0  0
  153.2882  139.5613  157.7318 O   0  0  0  0  0  0  0  0  0  0  0  0
  152.3083  138.9432  156.9823 C   0  0  0  0  0  0  0  0  0  0  0  0
  152.4850  138.8488  155.5877 C   0  0  0  0  0  0  0  0  0  0  0  0
  151.4871  138.2211  154.8191 C   0  0  0  0  0  0  0  0  0  0  0  0
  150.3491  137.6966  155.4642 C   0  0  0  0  0  0  0  0  0  0  0  0
  149.3492  137.0857  154.6607 N   0  0  0  0  0  0  0  0  0  0  0  0
  148.0376  136.9504  154.9201 C   0  0  0  0  0  0  0  0  0  0  0  0
  147.4720  137.3239  155.9468 O   0  0  0  0  0  0  0  0  0  0  0  0
  147.4093  136.3231  153.9159 N   0  0  0  0  0  0  0  0  0  0  0  0
  145.9821  136.0057  153.8723 C   0  0  0  0  0  0  0  0  0  0  0  0
  145.1748  136.9079  152.8853 C   0  0  0  0  0  0  0  0  0  0  0  0
  145.3799  138.3563  153.2495 N   0  3  0  0  0  0  0  0  0  0  0  0
  146.6248  138.9522  152.7005 C   0  0  0  0  0  0  0  0  0  0  0  0
  145.2153  138.7133  154.6814 C   0  0  0  0  0  0  0  0  0  0  0  0
  145.5604  136.5626  151.4232 C   0  0  0  0  0  0  0  0  0  0  0  0
  144.8357  135.2511  151.1030 C   0  0  0  0  0  0  0  0  0  0  0  0
  143.5952  135.2348  152.0069 C   0  0  0  0  0  0  0  0  0  0  0  0
  143.6890  136.4885  152.8893 C   0  0  0  0  0  0  0  0  0  0  0  0
  150.2587  137.8510  156.8694 C   0  0  0  0  0  0  0  0  0  0  0  0
  151.2111  138.4548  157.6116 N   0  0  0  0  0  0  0  0  0  0  0  0
  153.9360  140.2087  159.5764 H   0  0  0  0  0  0  0  0  0  0  0  0
  152.9808  138.7307  159.6206 H   0  0  0  0  0  0  0  0  0  0  0  0
  152.1932  140.3016  159.3461 H   0  0  0  0  0  0  0  0  0  0  0  0
  153.3685  139.2529  155.1162 H   0  0  0  0  0  0  0  0  0  0  0  0
  151.5993  138.1415  153.7477 H   0  0  0  0  0  0  0  0  0  0  0  0
  149.6831  136.6554  153.8109 H   0  0  0  0  0  0  0  0  0  0  0  0
  147.9565  136.0671  153.1070 H   0  0  0  0  0  0  0  0  0  0  0  0
  145.8369  134.9460  153.6590 H   0  0  0  0  0  0  0  0  0  0  0  0
  145.6050  136.1268  154.8872 H   0  0  0  0  0  0  0  0  0  0  0  0
  147.5112  138.5341  153.1785 H   0  0  0  0  0  0  0  0  0  0  0  0
  146.6367  140.0297  152.8676 H   0  0  0  0  0  0  0  0  0  0  0  0
  146.7127  138.8032  151.6255 H   0  0  0  0  0  0  0  0  0  0  0  0
  145.8673  138.1202  155.3230 H   0  0  0  0  0  0  0  0  0  0  0  0
  144.1830  138.5849  155.0060 H   0  0  0  0  0  0  0  0  0  0  0  0
  145.4542  139.7642  154.8476 H   0  0  0  0  0  0  0  0  0  0  0  0
  145.1716  137.2909  150.7137 H   0  0  0  0  0  0  0  0  0  0  0  0
  146.6345  136.5025  151.2532 H   0  0  0  0  0  0  0  0  0  0  0  0
  144.5732  135.1835  150.0467 H   0  0  0  0  0  0  0  0  0  0  0  0
  145.4767  134.3986  151.3309 H   0  0  0  0  0  0  0  0  0  0  0  0
  142.6715  135.2308  151.4272 H   0  0  0  0  0  0  0  0  0  0  0  0
  143.5960  134.3335  152.6212 H   0  0  0  0  0  0  0  0  0  0  0  0
  143.2966  136.3101  153.8910 H   0  0  0  0  0  0  0  0  0  0  0  0
  143.0738  137.2702  152.4424 H   0  0  0  0  0  0  0  0  0  0  0  0
  149.4020  137.5093  157.4287 H   0  0  0  0  0  0  0  0  0  0  0  0
  144.6263  138.8425  152.7853 H   0  0  0  0  0  0  0  0  0  0  0  0
  1  2  1  0  0  0  0
  1 22  1  0  0  0  0
  1 23  1  0  0  0  0
  1 24  1  0  0  0  0
  2  3  1  0  0  0  0
  3 21  1  0  0  0  0
  3  4  2  0  0  0  0
  4  5  1  0  0  0  0
  4 25  1  0  0  0  0
  5  6  2  0  0  0  0
  5 26  1  0  0  0  0
  6  7  1  0  0  0  0
  6 20  1  0  0  0  0
  7  8  1  0  0  0  0
  7 27  1  0  0  0  0
  8  9  2  0  0  0  0
  8 10  1  0  0  0  0
 10 11  1  0  0  0  0
 10 28  1  0  0  0  0
 11 12  1  0  0  0  0
 11 29  1  0  0  0  0
 11 30  1  0  0  0  0
 12 19  1  0  0  0  0
 12 13  1  0  0  0  0
 12 16  1  0  0  0  0
 13 14  1  0  0  0  0
 13 15  1  0  0  0  0
 13 46  1  0  0  0  0
 14 31  1  0  0  0  0
 14 32  1  0  0  0  0
 14 33  1  0  0  0  0
 15 34  1  0  0  0  0
 15 35  1  0  0  0  0
 15 36  1  0  0  0  0
 16 17  1  0  0  0  0
 16 37  1  0  0  0  0
 16 38  1  0  0  0  0
 17 18  1  0  0  0  0
 17 39  1  0  0  0  0
 17 40  1  0  0  0  0
 18 19  1  0  0  0  0
 18 41  1  0  0  0  0
 18 42  1  0  0  0  0
 19 43  1  0  0  0  0
 19 44  1  0  0  0  0
 20 21  2  0  0  0  0
 20 45  1  0  0  0  0
M  CHG  1  13   1
M  END
> <s_m_source_file>
AV-unprocessed.smi

> <i_m_source_file_index>
1992

> <i_lp_mmshare_version>
43012

> <i_f3d_flags>
0

> <s_epik_input>
W0NIM11PYzFbY0hdW2NIXWMoW2NIXW4xKVtOSF1DKD1PKVtOSF1bQ0gyXUMyKE4oW0NIM10pW0NIM10pW0NIMl1bQ0gyXVtDSDJdW0NIMl0y

> <s_epik_cmdline>
J2VwaWtfcHl0aG9uJywgJy1waCcsICc3LjAnLCAnLXRuJywgJzgnLCAnLW1hJywgJzIwMCcsICctbWV0YWxfYmluZGluZycsICctaW1hZScsICc8aW5maWxlLm1hZT4nLCAnLW9tYWUnLCAnPG91dGZpbGUubWFlPic=

> <r_lp_tautomer_probability>
1

> <r_epik_Ionization_Penalty>
0.00219675

> <r_epik_Ionization_Penalty_Charging>
0.00211816

> <r_epik_Ionization_Penalty_Neutral>
7.85887e-05

> <r_epik_State_Penalty>
0.00145254

> <r_epik_Charging_Adjusted_Penalty>
0.0035707

> <i_epik_Tot_Q>
1

> <i_epik_Tot_abs_Q>
1

> <r_epik_Metal_State_Penalty>
-0

> <b_epik_Metal_Only>
0

> <s_lp_Force_Field>
OPLS_2005

> <r_lp_Energy>
46.5796

> <b_lp_Chiralities_Consistent>
1

> <s_lp_Variant>
AV-unprocessed.smi:1992-1

> <Gold.Version>
5.8.1

> <Gold.Id.Protein>
6NUR|6NUR_protein|mol2

> <Gold.PLP.Fitness>
39.3939

> <Gold.PLP.PLP>
-26.4106

> <Gold.PLP.part.hbond>
-3.9990

> <Gold.PLP.part.metal>
0.0000

> <Gold.PLP.part.buried>
-2.1177

> <Gold.PLP.part.nonpolar>
-21.2414

> <Gold.PLP.part.repulsive>
0.0291

> <Gold.PLP.ligand.clash>
0.0000

> <Gold.PLP.ligand.torsion>
0.7020

> <Gold.PLP.Chemscore.Hbond>
4.7410

> <Gold.PLP.Chemscore.CHOScore>
0.0000

> <Gold.PLP.Chemscore.Metal>
0.0000

> <Gold.Chemscore.Hbonds>
donor molecule, donor type, donor heavy atom, donor atom, acceptor molecule, acceptor atom, score
      L1  H     7    27       P1  7948  0.66
      L1  H    10    28       P1  7948  1.00
      L1  H    13    46       P1 10175  1.98
      P1  H  7997  8010       L1     2  1.00

> <Gold.PLP.Chemscore.Internal.Correction>
0.1643

> <Gold.Rescore>
     Score         DG    S(hbond)    S(metal)    S(lipo)     H(rot)  DE(clash)    DE(int)     intcor
     16.97     -19.98       3.60        0.00      58.73       1.71       0.53       2.48       ----

> <Gold.Chemscore.Fitness>
16.9688

> <Gold.Chemscore.DG>
-19.9829

> <Gold.Chemscore.ZeroCoef>
-5.4800

> <Gold.Chemscore.Hbond>
3.5973

> <Gold.Chemscore.Metal>
0.0000

> <Gold.Chemscore.Lipo>
58.7269

> <Gold.Chemscore.Internal_Hbond>
0.0000

> <Gold.Chemscore.DEClash>
0.5332

> <Gold.Chemscore.DEInternal>
2.4809

> <Gold.Chemscore.Rot>
1.7122

> <Gold.Chemscore.Internal.Correction>
   9.000000E+99

> <Gold.Chemscore.Hbonds>
donor molecule, donor type, donor heavy atom, donor atom, acceptor molecule, acceptor atom, score
      L1  H     7    27       P1  7948  0.43
      L1  H    10    28       P1  7948  0.98
      L1  H    13    46       P1 10175  0.94
      P1  H  7997  8010       L1     2  0.71

> <Gold.Chemscore.Hbond.Weighted>
-12.0150

> <Gold.Chemscore.Metal.Weighted>
-0.0000

> <Gold.Chemscore.Lipo.Weighted>
-6.8711

> <Gold.Chemscore.Internal_Hbond.Weighted>
0.0000

> <Gold.Chemscore.DEClash.Weighted>
0.5332

> <Gold.Chemscore.DEInternal.Weighted>
2.4809

> <Gold.Chemscore.Rot.Weighted>
4.3831

> <Gold.Chemscore.Internal.Correction.Weighted>
   9.000000E+99

> <Gold.Protein.RotatedTorsions>
[ 6907 6896 6895 6894 ] final  141.14 input  -60.11 | X-H torsion
[ 7974 7965 7964 7962 ] final  162.42 input  175.53 | X-H torsion
[ 8008 7997 7996 7995 ] final   50.77 input   59.86 | X-H torsion
[ 10167 10162 10161 10158 ] final  -11.53 input  -65.29 | X-H torsion
[ 10718 10713 10712 10709 ] final  -10.30 input   66.30 | X-H torsion
[ 10763 10752 10751 10750 ] final -134.76 input  -60.55 | X-H torsion
[ 11005 11000 10999 10996 ] final -112.43 input  -57.11 | X-H torsion

> <Gold.Protein.ActiveResidues>
 VAL166  LYS551  ARG553  GLY616  TRP617  ASP618  TYR619  PRO620  LYS621  CYS622 
 ASP623  PHE694  ASN695  SER759  ASP760  ASP761  ALA762  ILE779  LEU786  VAL792 
 PHE793  MET794  SER795  GLU796  ALA797  LYS798  CYS799  TRP800  GLU811  SER814 

> <Gold.Protein.RotatedAtoms>
  152.2346  133.5086  159.5235 H   0  0  0  0  0  0  0  0  0  0  0  0  # atno 6907 bound_to 6896
  150.7047  134.1170  159.4030 H   0  0  0  0  0  0  0  0  0  0  0  0  # atno 6908 bound_to 6896
  151.9091  135.0346  160.0563 H   0  0  0  0  0  0  0  0  0  0  0  0  # atno 6909 bound_to 6896
  144.7637  139.8038  143.6323 H   0  0  0  0  0  0  0  0  0  0  0  0  # atno 7974 bound_to 7965
  155.4242  140.3448  155.4274 H   0  0  0  0  0  0  0  0  0  0  0  0  # atno 8008 bound_to 7997
  156.1375  140.1532  156.9003 H   0  0  0  0  0  0  0  0  0  0  0  0  # atno 8009 bound_to 7997
  154.4943  140.0832  156.7644 H   0  0  0  0  0  0  0  0  0  0  0  0  # atno 8010 bound_to 7997
  140.7140  143.5630  150.9175 H   0  0  0  0  0  0  0  0  0  0  0  0  # atno 10167 bound_to 10162
  156.6755  130.5021  149.5987 H   0  0  0  0  0  0  0  0  0  0  0  0  # atno 10718 bound_to 10713
  154.8714  135.3724  154.4788 H   0  0  0  0  0  0  0  0  0  0  0  0  # atno 10763 bound_to 10752
  153.5443  135.7026  153.5627 H   0  0  0  0  0  0  0  0  0  0  0  0  # atno 10764 bound_to 10752
  153.3774  135.4005  155.1797 H   0  0  0  0  0  0  0  0  0  0  0  0  # atno 10765 bound_to 10752
  141.0675  133.9434  157.2549 H   0  0  0  0  0  0  0  0  0  0  0  0  # atno 11005 bound_to 11000
  146.1725  139.4882  142.9918 LP  0  0  0  0  0  0  0  0  0  0  0  0  # atno 17320 bound_to 7965
  145.6537  141.0257  143.1746 LP  0  0  0  0  0  0  0  0  0  0  0  0  # atno 17321 bound_to 7965
  139.9355  143.6442  152.3066 LP  0  0  0  0  0  0  0  0  0  0  0  0  # atno 17342 bound_to 10162
  139.6909  144.7647  151.1441 LP  0  0  0  0  0  0  0  0  0  0  0  0  # atno 17343 bound_to 10162
  156.1907  130.6558  151.1058 LP  0  0  0  0  0  0  0  0  0  0  0  0  # atno 17370 bound_to 10713
  157.7062  131.0755  150.6658 LP  0  0  0  0  0  0  0  0  0  0  0  0  # atno 17371 bound_to 10713
  139.9491  135.0179  156.8940 LP  0  0  0  0  0  0  0  0  0  0  0  0  # atno 17394 bound_to 11000
  140.5742  134.0414  155.7441 LP  0  0  0  0  0  0  0  0  0  0  0  0  # atno 17395 bound_to 11000

$$$$
