AV-unprocessed.smi:1579|AV-procd|sdf|6356|dock1
  -GOLD-   22720 6573D 1   1.00000     0.00000
 Structure written by MMmdl.
 47 48  0  0  0  0  0  0  0  0  2 V2000
  150.6535  144.7989  159.7179 C   0  0  0  0  0  0  0  0  0  0  0  0
  151.4309  143.5192  159.5676 C   0  0  0  0  0  0  0  0  0  0  0  0
  151.2536  142.8565  158.4720 N   0  0  0  0  0  0  0  0  0  0  0  0
  151.9160  141.6683  158.2328 N   0  0  0  0  0  0  0  0  0  0  0  0
  151.5839  141.0556  156.9395 C   0  0  0  0  0  0  0  0  0  0  0  0
  150.3775  141.7341  156.2538 C   0  0  2  0  0  0  0  0  0  0  0  0
  150.7226  143.0888  156.0394 O   0  0  0  0  0  0  0  0  0  0  0  0
  149.0810  141.6701  157.0925 C   0  0  0  0  0  0  0  0  0  0  0  0
  147.9472  142.4094  156.4795 N   0  3  2  0  0  0  0  0  0  0  0  0
  146.8219  142.5889  157.4329 C   0  0  0  0  0  0  0  0  0  0  0  0
  145.7121  143.4695  156.8313 C   0  0  0  0  0  0  0  0  0  0  0  0
  145.1970  142.9203  155.4890 C   0  0  2  0  0  0  0  0  0  0  0  0
  144.3126  141.6721  155.6562 C   0  0  0  0  0  0  0  0  0  0  0  0
  146.3893  142.6839  154.5445 C   0  0  0  0  0  0  0  0  0  0  0  0
  147.4853  141.8199  155.1940 C   0  0  0  0  0  0  0  0  0  0  0  0
  152.8034  141.0892  159.0920 C   0  0  0  0  0  0  0  0  0  0  0  0
  153.3895  140.0376  158.8315 O   0  0  0  0  0  0  0  0  0  0  0  0
  152.9992  141.8442  160.3315 C   0  0  0  0  0  0  0  0  0  0  0  0
  153.9216  141.2721  161.2582 C   0  0  0  0  0  0  0  0  0  0  0  0
  154.6590  140.8162  162.0251 N   0  0  0  0  0  0  0  0  0  0  0  0
  152.3516  143.0101  160.5786 C   0  0  0  0  0  0  0  0  0  0  0  0
  152.5220  143.8323  161.8486 C   0  0  0  0  0  0  0  0  0  0  0  0
  150.0145  144.7625  160.6002 H   0  0  0  0  0  0  0  0  0  0  0  0
  150.0124  144.9898  158.8560 H   0  0  0  0  0  0  0  0  0  0  0  0
  151.3261  145.6505  159.8222 H   0  0  0  0  0  0  0  0  0  0  0  0
  152.4425  141.0428  156.2655 H   0  0  0  0  0  0  0  0  0  0  0  0
  151.3528  140.0029  157.1153 H   0  0  0  0  0  0  0  0  0  0  0  0
  150.2327  141.2728  155.2776 H   0  0  0  0  0  0  0  0  0  0  0  0
  149.9629  143.6284  156.1944 H   0  0  0  0  0  0  0  0  0  0  0  0
  148.7685  140.6375  157.2495 H   0  0  0  0  0  0  0  0  0  0  0  0
  149.2945  142.0756  158.0828 H   0  0  0  0  0  0  0  0  0  0  0  0
  146.4258  141.6141  157.7210 H   0  0  0  0  0  0  0  0  0  0  0  0
  147.1882  143.0597  158.3462 H   0  0  0  0  0  0  0  0  0  0  0  0
  144.8891  143.5708  157.5394 H   0  0  0  0  0  0  0  0  0  0  0  0
  146.1041  144.4761  156.6785 H   0  0  0  0  0  0  0  0  0  0  0  0
  144.5659  143.6877  155.0383 H   0  0  0  0  0  0  0  0  0  0  0  0
  144.8531  140.8401  156.1068 H   0  0  0  0  0  0  0  0  0  0  0  0
  143.9306  141.3327  154.6930 H   0  0  0  0  0  0  0  0  0  0  0  0
  143.4518  141.8863  156.2904 H   0  0  0  0  0  0  0  0  0  0  0  0
  146.0502  142.2234  153.6159 H   0  0  0  0  0  0  0  0  0  0  0  0
  146.8184  143.6468  154.2634 H   0  0  0  0  0  0  0  0  0  0  0  0
  148.3162  141.7341  154.4952 H   0  0  0  0  0  0  0  0  0  0  0  0
  147.1190  140.8068  155.3650 H   0  0  0  0  0  0  0  0  0  0  0  0
  153.2271  143.3772  162.5435 H   0  0  0  0  0  0  0  0  0  0  0  0
  151.5695  143.9335  162.3695 H   0  0  0  0  0  0  0  0  0  0  0  0
  152.8932  144.8302  161.6130 H   0  0  0  0  0  0  0  0  0  0  0  0
  148.2886  143.3376  156.2750 H   0  0  0  0  0  0  0  0  0  0  0  0
  1  2  1  0  0  0  0
  1 23  1  0  0  0  0
  1 24  1  0  0  0  0
  1 25  1  0  0  0  0
  2 21  1  0  0  0  0
  2  3  2  0  0  0  0
  3  4  1  0  0  0  0
  4  5  1  0  0  0  0
  4 16  1  0  0  0  0
  5  6  1  0  0  0  0
  5 26  1  0  0  0  0
  5 27  1  0  0  0  0
  6  7  1  0  0  0  0
  6  8  1  0  0  0  0
  6 28  1  0  0  0  0
  7 29  1  0  0  0  0
  8  9  1  0  0  0  0
  8 30  1  0  0  0  0
  8 31  1  0  0  0  0
  9 15  1  0  0  0  0
  9 10  1  0  0  0  0
  9 47  1  0  0  0  0
 10 11  1  0  0  0  0
 10 32  1  0  0  0  0
 10 33  1  0  0  0  0
 11 12  1  0  0  0  0
 11 34  1  0  0  0  0
 11 35  1  0  0  0  0
 12 13  1  0  0  0  0
 12 14  1  0  0  0  0
 12 36  1  0  0  0  0
 13 37  1  0  0  0  0
 13 38  1  0  0  0  0
 13 39  1  0  0  0  0
 14 15  1  0  0  0  0
 14 40  1  0  0  0  0
 14 41  1  0  0  0  0
 15 42  1  0  0  0  0
 15 43  1  0  0  0  0
 16 17  2  0  0  0  0
 16 18  1  0  0  0  0
 18 19  1  0  0  0  0
 18 21  2  0  0  0  0
 19 20  3  0  0  0  0
 21 22  1  0  0  0  0
 22 44  1  0  0  0  0
 22 45  1  0  0  0  0
 22 46  1  0  0  0  0
M  CHG  1   9   1
M  END
> <s_m_source_file>
AV-unprocessed.smi

> <i_m_source_file_index>
1579

> <i_lp_mmshare_version>
43012

> <i_f3d_flags>
0

> <s_epik_input>
TiNDYyhjMVtDSDNdKWMoPU8pbihuYzFbQ0gzXSlbQ0gyXVtDQEhdKFtPSF0pW0NIMl1OMltDSDJdW0NIMl1bQ0hdKFtDSDNdKVtDSDJdW0NIMl0y

> <s_epik_cmdline>
J2VwaWtfcHl0aG9uJywgJy1waCcsICc3LjAnLCAnLXRuJywgJzgnLCAnLW1hJywgJzIwMCcsICctbWV0YWxfYmluZGluZycsICctaW1hZScsICc8aW5maWxlLm1hZT4nLCAnLW9tYWUnLCAnPG91dGZpbGUubWFlPic=

> <r_epik_Ionization_Penalty>
0.00136816

> <r_epik_Ionization_Penalty_Charging>
0.00136813

> <r_epik_Ionization_Penalty_Neutral>
3.19884e-08

> <r_epik_State_Penalty>
0.000910892

> <r_epik_Charging_Adjusted_Penalty>
0.00227902

> <i_epik_Tot_Q>
1

> <i_epik_Tot_abs_Q>
1

> <r_epik_Metal_State_Penalty>
-0

> <b_epik_Metal_Only>
0

> <s_lp_Force_Field>
OPLS_2005

> <r_lp_Energy>
38.3008

> <b_lp_Chiralities_Consistent>
1

> <s_lp_Variant>
AV-unprocessed.smi:1579-3

> <Gold.Version>
5.8.1

> <Gold.Id.Protein>
6NUR|6NUR_protein|mol2

> <Gold.PLP.Fitness>
55.2654

> <Gold.PLP.PLP>
-43.5708

> <Gold.PLP.part.hbond>
-3.7388

> <Gold.PLP.part.metal>
0.0000

> <Gold.PLP.part.buried>
-6.0355

> <Gold.PLP.part.nonpolar>
-33.2186

> <Gold.PLP.part.repulsive>
0.0752

> <Gold.PLP.ligand.clash>
0.0000

> <Gold.PLP.ligand.torsion>
0.1615

> <Gold.PLP.Chemscore.Hbond>
3.9840

> <Gold.PLP.Chemscore.CHOScore>
0.0000

> <Gold.PLP.Chemscore.Metal>
0.0000

> <Gold.Chemscore.Hbonds>
donor molecule, donor type, donor heavy atom, donor atom, acceptor molecule, acceptor atom, score
      L1  H     7    29       P1  8028  0.99
      L1  H     9    47       P1  8028  2.00
      P1  H  7997  8010       L1    17  0.71

> <Gold.PLP.Chemscore.Internal.Correction>
0.0657

> <Gold.Rescore>
     Score         DG    S(hbond)    S(metal)    S(lipo)     H(rot)  DE(clash)    DE(int)     intcor
     16.83     -19.59       2.72        0.00      90.36       2.17       1.20       1.56       ----

> <Gold.Chemscore.Fitness>
16.8314

> <Gold.Chemscore.DG>
-19.5931

> <Gold.Chemscore.ZeroCoef>
-5.4800

> <Gold.Chemscore.Hbond>
2.7245

> <Gold.Chemscore.Metal>
0.0000

> <Gold.Chemscore.Lipo>
90.3613

> <Gold.Chemscore.Internal_Hbond>
0.0000

> <Gold.Chemscore.DEClash>
1.1988

> <Gold.Chemscore.DEInternal>
1.5629

> <Gold.Chemscore.Rot>
2.1715

> <Gold.Chemscore.Internal.Correction>
   9.000000E+99

> <Gold.Chemscore.Hbonds>
donor molecule, donor type, donor heavy atom, donor atom, acceptor molecule, acceptor atom, score
      L1  H     7    29       P1  8028  0.93
      L1  H     9    47       P1  8028  0.49
      P1  H  7997  8010       L1    17  0.64

> <Gold.Chemscore.Hbond.Weighted>
-9.0999

> <Gold.Chemscore.Metal.Weighted>
-0.0000

> <Gold.Chemscore.Lipo.Weighted>
-10.5723

> <Gold.Chemscore.Internal_Hbond.Weighted>
0.0000

> <Gold.Chemscore.DEClash.Weighted>
1.1988

> <Gold.Chemscore.DEInternal.Weighted>
1.5629

> <Gold.Chemscore.Rot.Weighted>
5.5591

> <Gold.Chemscore.Internal.Correction.Weighted>
   9.000000E+99

> <Gold.Protein.RotatedTorsions>
[ 6907 6896 6895 6894 ] final -108.47 input  -60.11 | X-H torsion
[ 7974 7965 7964 7962 ] final  -52.66 input  175.53 | X-H torsion
[ 8008 7997 7996 7995 ] final   29.89 input   59.86 | X-H torsion
[ 10167 10162 10161 10158 ] final  -57.76 input  -65.29 | X-H torsion
[ 10718 10713 10712 10709 ] final   71.04 input   66.30 | X-H torsion
[ 10763 10752 10751 10750 ] final -132.13 input  -60.55 | X-H torsion
[ 11005 11000 10999 10996 ] final -171.23 input  -57.11 | X-H torsion

> <Gold.Protein.ActiveResidues>
 VAL166  LYS551  ARG553  GLY616  TRP617  ASP618  TYR619  PRO620  LYS621  CYS622 
 ASP623  PHE694  ASN695  SER759  ASP760  ASP761  ALA762  ILE779  LEU786  VAL792 
 PHE793  MET794  SER795  GLU796  ALA797  LYS798  CYS799  TRP800  GLU811  SER814 

> <Gold.Protein.RotatedAtoms>
  150.7503  133.9673  159.3534 H   0  0  0  0  0  0  0  0  0  0  0  0  # atno 6907 bound_to 6896
  151.7604  135.0809  160.0354 H   0  0  0  0  0  0  0  0  0  0  0  0  # atno 6908 bound_to 6896
  152.3407  133.6026  159.5910 H   0  0  0  0  0  0  0  0  0  0  0  0  # atno 6909 bound_to 6896
  145.9055  140.7959  142.9721 H   0  0  0  0  0  0  0  0  0  0  0  0  # atno 7974 bound_to 7965
  155.0816  140.3211  155.4600 H   0  0  0  0  0  0  0  0  0  0  0  0  # atno 8008 bound_to 7997
  156.2765  140.2094  156.5890 H   0  0  0  0  0  0  0  0  0  0  0  0  # atno 8009 bound_to 7997
  154.6974  140.0510  157.0411 H   0  0  0  0  0  0  0  0  0  0  0  0  # atno 8010 bound_to 7997
  140.6239  143.2430  151.5413 H   0  0  0  0  0  0  0  0  0  0  0  0  # atno 10167 bound_to 10162
  157.6431  130.9508  150.0734 H   0  0  0  0  0  0  0  0  0  0  0  0  # atno 10718 bound_to 10713
  154.8745  135.3808  154.4359 H   0  0  0  0  0  0  0  0  0  0  0  0  # atno 10763 bound_to 10752
  153.5049  135.7030  153.5817 H   0  0  0  0  0  0  0  0  0  0  0  0  # atno 10764 bound_to 10752
  153.4132  135.3919  155.2030 H   0  0  0  0  0  0  0  0  0  0  0  0  # atno 10765 bound_to 10752
  140.5106  134.5805  157.5017 H   0  0  0  0  0  0  0  0  0  0  0  0  # atno 11005 bound_to 11000
  144.6739  140.1744  143.7411 LP  0  0  0  0  0  0  0  0  0  0  0  0  # atno 17320 bound_to 7965
  145.8737  139.2286  143.1646 LP  0  0  0  0  0  0  0  0  0  0  0  0  # atno 17321 bound_to 7965
  139.5462  144.2514  152.1447 LP  0  0  0  0  0  0  0  0  0  0  0  0  # atno 17342 bound_to 10162
  140.1741  144.4907  150.6563 LP  0  0  0  0  0  0  0  0  0  0  0  0  # atno 17343 bound_to 10162
  156.1731  130.3647  149.9137 LP  0  0  0  0  0  0  0  0  0  0  0  0  # atno 17370 bound_to 10713
  156.7108  130.8969  151.3609 LP  0  0  0  0  0  0  0  0  0  0  0  0  # atno 17371 bound_to 10713
  139.9661  134.7370  156.0135 LP  0  0  0  0  0  0  0  0  0  0  0  0  # atno 17394 bound_to 11000
  141.1388  133.6569  156.3669 LP  0  0  0  0  0  0  0  0  0  0  0  0  # atno 17395 bound_to 11000

$$$$
