AV-unprocessed.smi:2148|AV-procd|sdf|8747|dock3
  -GOLD-   2272011523D 1   1.00000     0.00000
 Structure written by MMmdl.
 44 45  0  0  0  0  0  0  0  0  1 V2000
  144.9090  135.4769  152.1123 C   0  0  0  0  0  0  0  0  0  0  0  0
  145.1999  136.7260  153.3951 S   0  0  0  0  0  0  0  0  0  0  0  0
  146.4692  137.7560  152.5987 C   0  0  1  0  0  0  0  0  0  0  0  0
  145.8659  138.5124  151.4037 C   0  0  0  0  0  0  0  0  0  0  0  0
  147.1378  138.7160  153.5923 C   0  0  0  0  0  0  0  0  0  0  0  0
  146.4621  139.5615  154.1795 O   0  0  0  0  0  0  0  0  0  0  0  0
  148.4596  138.5410  153.7764 N   0  0  0  0  0  0  0  0  0  0  0  0
  149.3308  139.2740  154.6249 C   0  0  0  0  0  0  0  0  0  0  0  0
  150.7030  138.9788  154.7914 C   0  0  0  0  0  0  0  0  0  0  0  0
  151.4641  139.7592  155.6825 C   0  0  0  0  0  0  0  0  0  0  0  0
  150.8371  140.8103  156.3917 C   0  0  0  0  0  0  0  0  0  0  0  0
  151.5852  141.5991  157.2911 N   0  0  0  0  0  0  0  0  0  0  0  0
  152.2130  140.8677  158.3876 C   0  0  0  0  0  0  0  0  0  0  0  0
  153.2356  141.7604  159.1160 C   0  0  2  0  0  0  0  0  0  0  0  0
  153.8171  141.0724  160.3553 C   0  0  0  0  0  0  0  0  0  0  0  0
  152.5984  142.9652  159.5330 O   0  0  0  0  0  0  0  0  0  0  0  0
  152.0911  143.7207  158.4364 C   0  0  2  0  0  0  0  0  0  0  0  0
  151.5201  145.0348  158.9791 C   0  0  0  0  0  0  0  0  0  0  0  0
  151.0265  142.8849  157.7022 C   0  0  0  0  0  0  0  0  0  0  0  0
  149.5189  141.0854  156.2345 N   0  0  0  0  0  0  0  0  0  0  0  0
  148.7918  140.3320  155.3831 C   0  0  0  0  0  0  0  0  0  0  0  0
  144.1131  134.8008  152.4245 H   0  0  0  0  0  0  0  0  0  0  0  0
  145.8076  134.8864  151.9341 H   0  0  0  0  0  0  0  0  0  0  0  0
  144.6106  135.9515  151.1774 H   0  0  0  0  0  0  0  0  0  0  0  0
  147.2313  137.0826  152.2030 H   0  0  0  0  0  0  0  0  0  0  0  0
  146.6043  139.1588  150.9278 H   0  0  0  0  0  0  0  0  0  0  0  0
  145.0218  139.1340  151.7057 H   0  0  0  0  0  0  0  0  0  0  0  0
  145.5051  137.8159  150.6466 H   0  0  0  0  0  0  0  0  0  0  0  0
  148.8712  137.7447  153.3116 H   0  0  0  0  0  0  0  0  0  0  0  0
  151.1794  138.1653  154.2660 H   0  0  0  0  0  0  0  0  0  0  0  0
  152.5163  139.5495  155.8056 H   0  0  0  0  0  0  0  0  0  0  0  0
  151.4351  140.5440  159.0807 H   0  0  0  0  0  0  0  0  0  0  0  0
  152.7141  139.9679  158.0324 H   0  0  0  0  0  0  0  0  0  0  0  0
  154.0555  142.0063  158.4387 H   0  0  0  0  0  0  0  0  0  0  0  0
  154.3284  140.1476  160.0873 H   0  0  0  0  0  0  0  0  0  0  0  0
  153.0342  140.8267  161.0733 H   0  0  0  0  0  0  0  0  0  0  0  0
  154.5384  141.7180  160.8565 H   0  0  0  0  0  0  0  0  0  0  0  0
  152.9098  143.9552  157.7536 H   0  0  0  0  0  0  0  0  0  0  0  0
  151.1281  145.6545  158.1725 H   0  0  0  0  0  0  0  0  0  0  0  0
  152.2895  145.6091  159.4957 H   0  0  0  0  0  0  0  0  0  0  0  0
  150.7099  144.8511  159.6853 H   0  0  0  0  0  0  0  0  0  0  0  0
  150.6702  143.4342  156.8297 H   0  0  0  0  0  0  0  0  0  0  0  0
  150.1684  142.7130  158.3537 H   0  0  0  0  0  0  0  0  0  0  0  0
  147.7453  140.5883  155.3014 H   0  0  0  0  0  0  0  0  0  0  0  0
  1  2  1  0  0  0  0
  1 22  1  0  0  0  0
  1 23  1  0  0  0  0
  1 24  1  0  0  0  0
  2  3  1  0  0  0  0
  3  4  1  0  0  0  0
  3  5  1  0  0  0  0
  3 25  1  0  0  0  0
  4 26  1  0  0  0  0
  4 27  1  0  0  0  0
  4 28  1  0  0  0  0
  5  6  2  0  0  0  0
  5  7  1  0  0  0  0
  7  8  1  0  0  0  0
  7 29  1  0  0  0  0
  8 21  1  0  0  0  0
  8  9  2  0  0  0  0
  9 10  1  0  0  0  0
  9 30  1  0  0  0  0
 10 11  2  0  0  0  0
 10 31  1  0  0  0  0
 11 12  1  0  0  0  0
 11 20  1  0  0  0  0
 12 19  1  0  0  0  0
 12 13  1  0  0  0  0
 13 14  1  0  0  0  0
 13 32  1  0  0  0  0
 13 33  1  0  0  0  0
 14 15  1  0  0  0  0
 14 16  1  0  0  0  0
 14 34  1  0  0  0  0
 15 35  1  0  0  0  0
 15 36  1  0  0  0  0
 15 37  1  0  0  0  0
 16 17  1  0  0  0  0
 17 18  1  0  0  0  0
 17 19  1  0  0  0  0
 17 38  1  0  0  0  0
 18 39  1  0  0  0  0
 18 40  1  0  0  0  0
 18 41  1  0  0  0  0
 19 42  1  0  0  0  0
 19 43  1  0  0  0  0
 20 21  2  0  0  0  0
 21 44  1  0  0  0  0
M  END
> <s_m_source_file>
AV-unprocessed.smi

> <i_m_source_file_index>
2148

> <i_lp_mmshare_version>
43012

> <i_f3d_flags>
0

> <s_epik_input>
W0NIM11TW0NASF0oW0NIM10pQyg9TylbTkhdYzFbY0hdW2NIXWMobltjSF0xKU4yW0NIMl1bQ0BASF0oW0NIM10pT1tDQEBIXShbQ0gzXSlbQ0gyXTI=

> <s_epik_cmdline>
J2VwaWtfcHl0aG9uJywgJy1waCcsICc3LjAnLCAnLXRuJywgJzgnLCAnLW1hJywgJzIwMCcsICctbWV0YWxfYmluZGluZycsICctaW1hZScsICc8aW5maWxlLm1hZT4nLCAnLW9tYWUnLCAnPG91dGZpbGUubWFlPic=

> <r_lp_tautomer_probability>
1

> <r_epik_Ionization_Penalty>
0.000646494

> <r_epik_Ionization_Penalty_Charging>
0

> <r_epik_Ionization_Penalty_Neutral>
0.000646494

> <r_epik_State_Penalty>
0.000408447

> <r_epik_Charging_Adjusted_Penalty>
0.000408447

> <i_epik_Tot_Q>
0

> <i_epik_Tot_abs_Q>
0

> <r_epik_Metal_State_Penalty>
-0

> <b_epik_Metal_Only>
0

> <s_lp_Force_Field>
OPLS_2005

> <r_lp_Energy>
22.7576

> <b_lp_Chiralities_Consistent>
1

> <s_lp_Variant>
AV-unprocessed.smi:2148-2

> <Gold.Version>
5.8.1

> <Gold.Id.Protein>
6NUR|6NUR_protein|mol2

> <Gold.PLP.Fitness>
44.8576

> <Gold.PLP.PLP>
-42.9175

> <Gold.PLP.part.hbond>
-2.0000

> <Gold.PLP.part.metal>
0.0000

> <Gold.PLP.part.buried>
3.0747

> <Gold.PLP.part.nonpolar>
-44.6668

> <Gold.PLP.part.repulsive>
0.3376

> <Gold.PLP.ligand.clash>
0.6108

> <Gold.PLP.ligand.torsion>
0.3064

> <Gold.PLP.Chemscore.Hbond>
0.9425

> <Gold.PLP.Chemscore.CHOScore>
0.0000

> <Gold.PLP.Chemscore.Metal>
0.0000

> <Gold.Chemscore.Hbonds>
donor molecule, donor type, donor heavy atom, donor atom, acceptor molecule, acceptor atom, score
      L1  H     7    29       P1  7948  0.88

> <Gold.PLP.Chemscore.Internal.Correction>
0.3362

> <Gold.Rescore>
     Score         DG    S(hbond)    S(metal)    S(lipo)     H(rot)  DE(clash)    DE(int)     intcor
     15.22     -19.32       0.95        0.00     118.80       1.27       2.39       1.71       ----

> <Gold.Chemscore.Fitness>
15.2219

> <Gold.Chemscore.DG>
-19.3208

> <Gold.Chemscore.ZeroCoef>
-5.4800

> <Gold.Chemscore.Hbond>
0.9525

> <Gold.Chemscore.Metal>
0.0000

> <Gold.Chemscore.Lipo>
118.8029

> <Gold.Chemscore.Internal_Hbond>
0.0000

> <Gold.Chemscore.DEClash>
2.3915

> <Gold.Chemscore.DEInternal>
1.7074

> <Gold.Chemscore.Rot>
1.2659

> <Gold.Chemscore.Internal.Correction>
   9.000000E+99

> <Gold.Chemscore.Hbonds>
donor molecule, donor type, donor heavy atom, donor atom, acceptor molecule, acceptor atom, score
      L1  H     7    29       P1  7948  0.84

> <Gold.Chemscore.Hbond.Weighted>
-3.1815

> <Gold.Chemscore.Metal.Weighted>
-0.0000

> <Gold.Chemscore.Lipo.Weighted>
-13.8999

> <Gold.Chemscore.Internal_Hbond.Weighted>
0.0000

> <Gold.Chemscore.DEClash.Weighted>
2.3915

> <Gold.Chemscore.DEInternal.Weighted>
1.7074

> <Gold.Chemscore.Rot.Weighted>
3.2406

> <Gold.Chemscore.Internal.Correction.Weighted>
   9.000000E+99

> <Gold.Protein.RotatedTorsions>
[ 6907 6896 6895 6894 ] final -116.93 input  -60.11 | X-H torsion
[ 7974 7965 7964 7962 ] final  145.59 input  175.53 | X-H torsion
[ 8008 7997 7996 7995 ] final  -11.21 input   59.86 | X-H torsion
[ 10167 10162 10161 10158 ] final  -97.34 input  -65.29 | X-H torsion
[ 10718 10713 10712 10709 ] final -125.47 input   66.30 | X-H torsion
[ 10763 10752 10751 10750 ] final  127.30 input  -60.55 | X-H torsion
[ 11005 11000 10999 10996 ] final    8.18 input  -57.11 | X-H torsion

> <Gold.Protein.ActiveResidues>
 VAL166  LYS551  ARG553  GLY616  TRP617  ASP618  TYR619  PRO620  LYS621  CYS622 
 ASP623  PHE694  ASN695  SER759  ASP760  ASP761  ALA762  ILE779  LEU786  VAL792 
 PHE793  MET794  SER795  GLU796  ALA797  LYS798  CYS799  TRP800  GLU811  SER814 

> <Gold.Protein.RotatedAtoms>
  150.8096  133.8447  159.3188 H   0  0  0  0  0  0  0  0  0  0  0  0  # atno 6907 bound_to 6896
  151.6236  135.1028  160.0116 H   0  0  0  0  0  0  0  0  0  0  0  0  # atno 6908 bound_to 6896
  152.4187  133.7041  159.6497 H   0  0  0  0  0  0  0  0  0  0  0  0  # atno 6909 bound_to 6896
  144.8740  139.5802  143.5874 H   0  0  0  0  0  0  0  0  0  0  0  0  # atno 7974 bound_to 7965
  154.5485  140.2308  155.8523 H   0  0  0  0  0  0  0  0  0  0  0  0  # atno 8008 bound_to 7997
  156.1925  140.3073  155.9322 H   0  0  0  0  0  0  0  0  0  0  0  0  # atno 8009 bound_to 7997
  155.3117  140.0436  157.3026 H   0  0  0  0  0  0  0  0  0  0  0  0  # atno 8010 bound_to 7997
  140.2844  143.3261  152.0409 H   0  0  0  0  0  0  0  0  0  0  0  0  # atno 10167 bound_to 10162
  156.1679  130.6647  151.0139 H   0  0  0  0  0  0  0  0  0  0  0  0  # atno 10718 bound_to 10713
  153.7072  135.3274  155.3238 H   0  0  0  0  0  0  0  0  0  0  0  0  # atno 10763 bound_to 10752
  154.8395  135.4468  154.1350 H   0  0  0  0  0  0  0  0  0  0  0  0  # atno 10764 bound_to 10752
  153.2434  135.6973  153.7837 H   0  0  0  0  0  0  0  0  0  0  0  0  # atno 10765 bound_to 10752
  140.5399  134.0385  155.7900 H   0  0  0  0  0  0  0  0  0  0  0  0  # atno 11005 bound_to 11000
  146.2950  139.7250  142.9133 LP  0  0  0  0  0  0  0  0  0  0  0  0  # atno 17320 bound_to 7965
  145.4077  141.0393  143.3034 LP  0  0  0  0  0  0  0  0  0  0  0  0  # atno 17321 bound_to 7965
  139.4954  144.6569  151.6552 LP  0  0  0  0  0  0  0  0  0  0  0  0  # atno 17342 bound_to 10162
  140.5785  143.9987  150.6255 LP  0  0  0  0  0  0  0  0  0  0  0  0  # atno 17343 bound_to 10162
  157.6781  131.0845  150.7442 LP  0  0  0  0  0  0  0  0  0  0  0  0  # atno 17370 bound_to 10713
  156.7502  130.4766  149.5458 LP  0  0  0  0  0  0  0  0  0  0  0  0  # atno 17371 bound_to 10713
  141.1233  133.9425  157.2686 LP  0  0  0  0  0  0  0  0  0  0  0  0  # atno 17394 bound_to 11000
  139.9509  135.0175  156.8992 LP  0  0  0  0  0  0  0  0  0  0  0  0  # atno 17395 bound_to 11000

$$$$
