AV-unprocessed.smi:1875|AV-procd|sdf|7613|dock7
  -GOLD-   22720 9333D 1   1.00000     0.00000
 Structure written by MMmdl.
 48 50  0  0  0  0  0  0  0  0  2 V2000
  147.0033  132.9847  152.7239 C   0  0  0  0  0  0  0  0  0  0  0  0
  146.0092  134.0740  152.3776 C   0  0  0  0  0  0  0  0  0  0  0  0
  144.8558  133.6843  151.8263 N   0  0  0  0  0  0  0  0  0  0  0  0
  143.9704  134.6537  151.5077 C   0  0  0  0  0  0  0  0  0  0  0  0
  144.2469  136.0162  151.7415 C   0  0  0  0  0  0  0  0  0  0  0  0
  145.4955  136.3056  152.3306 C   0  0  0  0  0  0  0  0  0  0  0  0
  145.9207  137.7293  152.6218 C   0  0  0  0  0  0  0  0  0  0  0  0
  147.2380  137.7449  153.2836 N   0  3  0  0  0  0  0  0  0  0  0  0
  147.7435  139.0977  153.5878 C   0  0  0  0  0  0  0  0  0  0  0  0
  149.0962  139.0374  154.3212 C   0  0  1  0  0  0  0  0  0  0  0  0
  150.0489  138.4544  153.4538 O   0  0  0  0  0  0  0  0  0  0  0  0
  149.6071  140.4175  154.7913 C   0  0  0  0  0  0  0  0  0  0  0  0
  150.7014  140.3447  155.7467 N   0  0  0  0  0  0  0  0  0  0  0  0
  151.7099  139.4513  155.7592 C   0  0  0  0  0  0  0  0  0  0  0  0
  152.6106  139.5612  156.7307 N   0  0  0  0  0  0  0  0  0  0  0  0
  152.1405  140.6635  157.4233 C   0  0  0  0  0  0  0  0  0  0  0  0
  152.6496  141.3101  158.5706 C   0  0  0  0  0  0  0  0  0  0  0  0
  151.9989  142.4402  159.1146 C   0  0  0  0  0  0  0  0  0  0  0  0
  152.5813  143.1047  160.3498 C   0  0  0  0  0  0  0  0  0  0  0  0
  150.8185  142.9401  158.5084 C   0  0  0  0  0  0  0  0  0  0  0  0
  150.1033  144.1543  159.0741 C   0  0  0  0  0  0  0  0  0  0  0  0
  150.2958  142.3057  157.3619 C   0  0  0  0  0  0  0  0  0  0  0  0
  150.9508  141.1803  156.8311 C   0  0  0  0  0  0  0  0  0  0  0  0
  146.3792  135.3313  152.6429 N   0  0  0  0  0  0  0  0  0  0  0  0
  146.4990  132.0350  152.9060 H   0  0  0  0  0  0  0  0  0  0  0  0
  147.5667  133.2424  153.6216 H   0  0  0  0  0  0  0  0  0  0  0  0
  147.7085  132.8464  151.9039 H   0  0  0  0  0  0  0  0  0  0  0  0
  143.0381  134.3414  151.0610 H   0  0  0  0  0  0  0  0  0  0  0  0
  143.5380  136.7893  151.4833 H   0  0  0  0  0  0  0  0  0  0  0  0
  145.9676  138.2987  151.6926 H   0  0  0  0  0  0  0  0  0  0  0  0
  145.1781  138.2104  153.2600 H   0  0  0  0  0  0  0  0  0  0  0  0
  147.1661  137.2219  154.1446 H   0  0  0  0  0  0  0  0  0  0  0  0
  147.8295  139.6691  152.6623 H   0  0  0  0  0  0  0  0  0  0  0  0
  147.0092  139.6075  154.2129 H   0  0  0  0  0  0  0  0  0  0  0  0
  149.0044  138.3931  155.1968 H   0  0  0  0  0  0  0  0  0  0  0  0
  149.8221  138.6759  152.5630 H   0  0  0  0  0  0  0  0  0  0  0  0
  149.9469  140.9953  153.9307 H   0  0  0  0  0  0  0  0  0  0  0  0
  148.7942  140.9907  155.2388 H   0  0  0  0  0  0  0  0  0  0  0  0
  151.7830  138.6702  155.0168 H   0  0  0  0  0  0  0  0  0  0  0  0
  153.5497  140.9300  159.0312 H   0  0  0  0  0  0  0  0  0  0  0  0
  152.8106  144.1516  160.1499 H   0  0  0  0  0  0  0  0  0  0  0  0
  153.5028  142.6161  160.6679 H   0  0  0  0  0  0  0  0  0  0  0  0
  151.8738  143.0567  161.1779 H   0  0  0  0  0  0  0  0  0  0  0  0
  149.1999  144.3835  158.5084 H   0  0  0  0  0  0  0  0  0  0  0  0
  150.7522  145.0297  159.0380 H   0  0  0  0  0  0  0  0  0  0  0  0
  149.8132  143.9798  160.1105 H   0  0  0  0  0  0  0  0  0  0  0  0
  149.3981  142.6777  156.8912 H   0  0  0  0  0  0  0  0  0  0  0  0
  147.9046  137.2833  152.6813 H   0  0  0  0  0  0  0  0  0  0  0  0
  1  2  1  0  0  0  0
  1 25  1  0  0  0  0
  1 26  1  0  0  0  0
  1 27  1  0  0  0  0
  2 24  1  0  0  0  0
  2  3  2  0  0  0  0
  3  4  1  0  0  0  0
  4  5  2  0  0  0  0
  4 28  1  0  0  0  0
  5  6  1  0  0  0  0
  5 29  1  0  0  0  0
  6  7  1  0  0  0  0
  6 24  2  0  0  0  0
  7  8  1  0  0  0  0
  7 30  1  0  0  0  0
  7 31  1  0  0  0  0
  8  9  1  0  0  0  0
  8 32  1  0  0  0  0
  8 48  1  0  0  0  0
  9 10  1  0  0  0  0
  9 33  1  0  0  0  0
  9 34  1  0  0  0  0
 10 11  1  0  0  0  0
 10 12  1  0  0  0  0
 10 35  1  0  0  0  0
 11 36  1  0  0  0  0
 12 13  1  0  0  0  0
 12 37  1  0  0  0  0
 12 38  1  0  0  0  0
 13 23  1  0  0  0  0
 13 14  1  0  0  0  0
 14 15  2  0  0  0  0
 14 39  1  0  0  0  0
 15 16  1  0  0  0  0
 16 23  2  0  0  0  0
 16 17  1  0  0  0  0
 17 18  2  0  0  0  0
 17 40  1  0  0  0  0
 18 19  1  0  0  0  0
 18 20  1  0  0  0  0
 19 41  1  0  0  0  0
 19 42  1  0  0  0  0
 19 43  1  0  0  0  0
 20 21  1  0  0  0  0
 20 22  2  0  0  0  0
 21 44  1  0  0  0  0
 21 45  1  0  0  0  0
 21 46  1  0  0  0  0
 22 23  1  0  0  0  0
 22 47  1  0  0  0  0
M  CHG  1   8   1
M  END
> <s_m_source_file>
AV-unprocessed.smi

> <i_m_source_file_index>
1875

> <i_lp_mmshare_version>
43012

> <i_f3d_flags>
0

> <s_epik_input>
W0NIM11jMW5bY0hdW2NIXWMobjEpW0NIMl1bTkhdW0NIMl1bQ0BIXShbT0hdKVtDSDJdbihbY0hdbjIpYyhjMjMpW2NIXWMoW0NIM10pYyhbY0hdMylbQ0gzXQ==

> <s_epik_cmdline>
J2VwaWtfcHl0aG9uJywgJy1waCcsICc3LjAnLCAnLXRuJywgJzgnLCAnLW1hJywgJzIwMCcsICctbWV0YWxfYmluZGluZycsICctaW1hZScsICc8aW5maWxlLm1hZT4nLCAnLW9tYWUnLCAnPG91dGZpbGUubWFlPic=

> <r_lp_tautomer_probability>
1

> <r_epik_Ionization_Penalty>
0.192455

> <r_epik_Ionization_Penalty_Charging>
0.102343

> <r_epik_Ionization_Penalty_Neutral>
0.0901122

> <r_epik_State_Penalty>
0.175389

> <r_epik_Charging_Adjusted_Penalty>
0.277732

> <i_epik_Tot_Q>
1

> <i_epik_Tot_abs_Q>
1

> <r_epik_Metal_State_Penalty>
0.167659

> <b_epik_Metal_Only>
0

> <s_epik_Chemistry_Notes>
This compound contains an electron-poor aromatic ring that is susceptible to covalent hydrolysis at low pH, typically resulting in measured values for nitrogen ring protonation that are around two units higher than predicted values.

> <s_lp_Force_Field>
OPLS_2005

> <r_lp_Energy>
1.49454

> <b_lp_Chiralities_Consistent>
1

> <s_lp_Variant>
AV-unprocessed.smi:1875-2

> <Gold.Version>
5.8.1

> <Gold.Id.Protein>
6NUR|6NUR_protein|mol2

> <Gold.PLP.Fitness>
57.2817

> <Gold.PLP.PLP>
-43.0672

> <Gold.PLP.part.hbond>
-4.0000

> <Gold.PLP.part.metal>
0.0000

> <Gold.PLP.part.buried>
-5.9285

> <Gold.PLP.part.nonpolar>
-35.1879

> <Gold.PLP.part.repulsive>
2.5095

> <Gold.PLP.ligand.clash>
0.0000

> <Gold.PLP.ligand.torsion>
0.4454

> <Gold.PLP.Chemscore.Hbond>
4.0000

> <Gold.PLP.Chemscore.CHOScore>
1.0000

> <Gold.PLP.Chemscore.Metal>
0.0000

> <Gold.Chemscore.Hbonds>
donor molecule, donor type, donor heavy atom, donor atom, acceptor molecule, acceptor atom, score
      L1  H     8    48       P1  7948  2.00
      L1  H    11    36       P1  7957  1.00
      P1  H  7997  8008       L1    15  0.95
      L1  C     4    28       P1 10186  1.00

> <Gold.PLP.Chemscore.Internal.Correction>
0.1053

> <Gold.Rescore>
     Score         DG    S(hbond)    S(metal)    S(lipo)     H(rot)  DE(clash)    DE(int)     intcor
     17.89     -19.55       2.84        0.00     100.53       2.80       0.16       1.49       ----

> <Gold.Chemscore.Fitness>
17.8937

> <Gold.Chemscore.DG>
-19.5466

> <Gold.Chemscore.ZeroCoef>
-5.4800

> <Gold.Chemscore.Hbond>
2.8396

> <Gold.Chemscore.Metal>
0.0000

> <Gold.Chemscore.Lipo>
100.5327

> <Gold.Chemscore.Internal_Hbond>
0.0000

> <Gold.Chemscore.DEClash>
0.1619

> <Gold.Chemscore.DEInternal>
1.4911

> <Gold.Chemscore.Rot>
2.8047

> <Gold.Chemscore.Internal.Correction>
   9.000000E+99

> <Gold.Chemscore.Hbonds>
donor molecule, donor type, donor heavy atom, donor atom, acceptor molecule, acceptor atom, score
      L1  H     8    48       P1  7948  1.00
      L1  H    11    36       P1  7957  0.47
      P1  H  7997  8008       L1    15  0.21

> <Gold.Chemscore.Hbond.Weighted>
-9.4844

> <Gold.Chemscore.Metal.Weighted>
-0.0000

> <Gold.Chemscore.Lipo.Weighted>
-11.7623

> <Gold.Chemscore.Internal_Hbond.Weighted>
0.0000

> <Gold.Chemscore.DEClash.Weighted>
0.1619

> <Gold.Chemscore.DEInternal.Weighted>
1.4911

> <Gold.Chemscore.Rot.Weighted>
7.1801

> <Gold.Chemscore.Internal.Correction.Weighted>
   9.000000E+99

> <Gold.Protein.RotatedTorsions>
[ 6907 6896 6895 6894 ] final   99.90 input  -60.11 | X-H torsion
[ 7974 7965 7964 7962 ] final   94.05 input  175.53 | X-H torsion
[ 8008 7997 7996 7995 ] final  -52.16 input   59.86 | X-H torsion
[ 10167 10162 10161 10158 ] final -117.31 input  -65.29 | X-H torsion
[ 10718 10713 10712 10709 ] final -156.82 input   66.30 | X-H torsion
[ 10763 10752 10751 10750 ] final  121.52 input  -60.55 | X-H torsion
[ 11005 11000 10999 10996 ] final   88.33 input  -57.11 | X-H torsion

> <Gold.Protein.ActiveResidues>
 VAL166  LYS551  ARG553  GLY616  TRP617  ASP618  TYR619  PRO620  LYS621  CYS622 
 ASP623  PHE694  ASN695  SER759  ASP760  ASP761  ALA762  ILE779  LEU786  VAL792 
 PHE793  MET794  SER795  GLU796  ALA797  LYS798  CYS799  TRP800  GLU811  SER814 

> <Gold.Protein.RotatedAtoms>
  152.5383  134.0358  159.8045 H   0  0  0  0  0  0  0  0  0  0  0  0  # atno 6907 bound_to 6896
  151.0522  133.5607  159.2648 H   0  0  0  0  0  0  0  0  0  0  0  0  # atno 6908 bound_to 6896
  151.2537  135.0638  159.9125 H   0  0  0  0  0  0  0  0  0  0  0  0  # atno 6909 bound_to 6896
  145.4708  139.2282  143.2936 H   0  0  0  0  0  0  0  0  0  0  0  0  # atno 7974 bound_to 7965
  154.4100  140.1230  156.4946 H   0  0  0  0  0  0  0  0  0  0  0  0  # atno 8008 bound_to 7997
  155.6956  140.3495  155.4892 H   0  0  0  0  0  0  0  0  0  0  0  0  # atno 8009 bound_to 7997
  155.9430  140.1090  157.1029 H   0  0  0  0  0  0  0  0  0  0  0  0  # atno 8010 bound_to 7997
  140.0697  143.4888  152.1986 H   0  0  0  0  0  0  0  0  0  0  0  0  # atno 10167 bound_to 10162
  156.5318  130.8524  151.2719 H   0  0  0  0  0  0  0  0  0  0  0  0  # atno 10718 bound_to 10713
  153.6154  135.3423  155.2993 H   0  0  0  0  0  0  0  0  0  0  0  0  # atno 10763 bound_to 10752
  154.8610  135.4260  154.2265 H   0  0  0  0  0  0  0  0  0  0  0  0  # atno 10764 bound_to 10752
  153.3125  135.7032  153.7175 H   0  0  0  0  0  0  0  0  0  0  0  0  # atno 10765 bound_to 10752
  139.8899  134.8481  156.2985 H   0  0  0  0  0  0  0  0  0  0  0  0  # atno 11005 bound_to 11000
  146.2398  140.5486  142.8939 LP  0  0  0  0  0  0  0  0  0  0  0  0  # atno 17320 bound_to 7965
  144.7946  140.6098  143.6518 LP  0  0  0  0  0  0  0  0  0  0  0  0  # atno 17321 bound_to 7965
  139.5843  144.7524  151.3560 LP  0  0  0  0  0  0  0  0  0  0  0  0  # atno 17342 bound_to 10162
  140.7131  143.7337  150.7604 LP  0  0  0  0  0  0  0  0  0  0  0  0  # atno 17343 bound_to 10162
  157.7420  130.9882  150.2487 LP  0  0  0  0  0  0  0  0  0  0  0  0  # atno 17370 bound_to 10713
  156.3052  130.3764  149.7712 LP  0  0  0  0  0  0  0  0  0  0  0  0  # atno 17371 bound_to 10713
  140.9929  133.7198  156.0841 LP  0  0  0  0  0  0  0  0  0  0  0  0  # atno 17394 bound_to 11000
  140.7601  134.3948  157.5527 LP  0  0  0  0  0  0  0  0  0  0  0  0  # atno 17395 bound_to 11000

$$$$
