AV-unprocessed.smi:1381|AV-procd|sdf|5606|dock10
  -GOLD-   22720 5213D 1   1.00000     0.00000
 Structure written by MMmdl.
 43 44  0  0  0  0  0  0  0  0  2 V2000
  153.2939  142.5615  160.0669 C   0  0  0  0  0  0  0  0  0  0  0  0
  152.3757  142.1554  158.9658 C   0  0  0  0  0  0  0  0  0  0  0  0
  151.5332  142.8571  158.1500 C   0  0  0  0  0  0  0  0  0  0  0  0
  150.9660  141.8455  157.3303 C   0  0  0  0  0  0  0  0  0  0  0  0
  150.0187  142.1686  156.3253 N   0  0  0  0  0  0  0  0  0  0  0  0
  149.3406  141.3174  155.5370 C   0  0  0  0  0  0  0  0  0  0  0  0
  149.4418  140.0904  155.5624 O   0  0  0  0  0  0  0  0  0  0  0  0
  148.5249  141.9716  154.6974 N   0  0  0  0  0  0  0  0  0  0  0  0
  147.6523  141.3303  153.7209 C   0  0  0  0  0  0  0  0  0  0  0  0
  146.6177  140.4143  154.4025 C   0  0  0  0  0  0  0  0  0  0  0  0
  145.3801  141.1432  154.7750 N   0  3  1  0  0  0  0  0  0  0  0  0
  144.6594  140.4975  155.8976 C   0  0  0  0  0  0  0  0  0  0  0  0
  143.3470  141.2396  156.2189 C   0  0  2  0  0  0  0  0  0  0  0  0
  142.2366  141.0033  155.1798 C   0  0  0  0  0  0  0  0  0  0  0  0
  143.6043  142.6278  156.4304 O   0  0  0  0  0  0  0  0  0  0  0  0
  144.2685  143.2853  155.3541 C   0  0  1  0  0  0  0  0  0  0  0  0
  144.4654  144.7534  155.7485 C   0  0  0  0  0  0  0  0  0  0  0  0
  145.6060  142.5789  155.0692 C   0  0  0  0  0  0  0  0  0  0  0  0
  151.4197  140.6358  157.6201 N   0  0  0  0  0  0  0  0  0  0  0  0
  152.3249  140.8281  158.6705 O   0  0  0  0  0  0  0  0  0  0  0  0
  153.4230  143.6438  160.0868 H   0  0  0  0  0  0  0  0  0  0  0  0
  154.2765  142.1071  159.9393 H   0  0  0  0  0  0  0  0  0  0  0  0
  152.8991  142.2491  161.0336 H   0  0  0  0  0  0  0  0  0  0  0  0
  151.3554  143.9223  158.1433 H   0  0  0  0  0  0  0  0  0  0  0  0
  149.8387  143.1531  156.1945 H   0  0  0  0  0  0  0  0  0  0  0  0
  148.5003  142.9800  154.7426 H   0  0  0  0  0  0  0  0  0  0  0  0
  147.1702  142.0985  153.1153 H   0  0  0  0  0  0  0  0  0  0  0  0
  148.2744  140.7461  153.0422 H   0  0  0  0  0  0  0  0  0  0  0  0
  146.3663  139.6134  153.7056 H   0  0  0  0  0  0  0  0  0  0  0  0
  147.0370  139.9314  155.2865 H   0  0  0  0  0  0  0  0  0  0  0  0
  144.4464  139.4545  155.6595 H   0  0  0  0  0  0  0  0  0  0  0  0
  145.3043  140.4944  156.7780 H   0  0  0  0  0  0  0  0  0  0  0  0
  142.9739  140.8550  157.1685 H   0  0  0  0  0  0  0  0  0  0  0  0
  141.9676  139.9477  155.1355 H   0  0  0  0  0  0  0  0  0  0  0  0
  142.5369  141.3022  154.1758 H   0  0  0  0  0  0  0  0  0  0  0  0
  141.3364  141.5605  155.4401 H   0  0  0  0  0  0  0  0  0  0  0  0
  143.6425  143.2576  154.4621 H   0  0  0  0  0  0  0  0  0  0  0  0
  144.9661  145.3097  154.9559 H   0  0  0  0  0  0  0  0  0  0  0  0
  145.0684  144.8429  156.6526 H   0  0  0  0  0  0  0  0  0  0  0  0
  143.5073  145.2373  155.9388 H   0  0  0  0  0  0  0  0  0  0  0  0
  146.2742  142.6743  155.9270 H   0  0  0  0  0  0  0  0  0  0  0  0
  146.0974  143.0671  154.2285 H   0  0  0  0  0  0  0  0  0  0  0  0
  144.7638  141.0950  153.9762 H   0  0  0  0  0  0  0  0  0  0  0  0
  1  2  1  0  0  0  0
  1 21  1  0  0  0  0
  1 22  1  0  0  0  0
  1 23  1  0  0  0  0
  2 20  1  0  0  0  0
  2  3  2  0  0  0  0
  3  4  1  0  0  0  0
  3 24  1  0  0  0  0
  4  5  1  0  0  0  0
  4 19  2  0  0  0  0
  5  6  1  0  0  0  0
  5 25  1  0  0  0  0
  6  7  2  0  0  0  0
  6  8  1  0  0  0  0
  8  9  1  0  0  0  0
  8 26  1  0  0  0  0
  9 10  1  0  0  0  0
  9 27  1  0  0  0  0
  9 28  1  0  0  0  0
 10 11  1  0  0  0  0
 10 29  1  0  0  0  0
 10 30  1  0  0  0  0
 11 18  1  0  0  0  0
 11 12  1  0  0  0  0
 11 43  1  0  0  0  0
 12 13  1  0  0  0  0
 12 31  1  0  0  0  0
 12 32  1  0  0  0  0
 13 14  1  0  0  0  0
 13 15  1  0  0  0  0
 13 33  1  0  0  0  0
 14 34  1  0  0  0  0
 14 35  1  0  0  0  0
 14 36  1  0  0  0  0
 15 16  1  0  0  0  0
 16 17  1  0  0  0  0
 16 18  1  0  0  0  0
 16 37  1  0  0  0  0
 17 38  1  0  0  0  0
 17 39  1  0  0  0  0
 17 40  1  0  0  0  0
 18 41  1  0  0  0  0
 18 42  1  0  0  0  0
 19 20  1  0  0  0  0
M  CHG  1  11   1
M  END
> <s_m_source_file>
AV-unprocessed.smi

> <i_m_source_file_index>
1381

> <i_lp_mmshare_version>
43012

> <i_f3d_flags>
0

> <s_epik_input>
W0NIM11jMVtjSF1jKG5vMSlbTkhdQyg9TylbTkhdW0NIMl1bQ0gyXU4yW0NIMl1bQ0BASF0oW0NIM10pT1tDQEBIXShbQ0gzXSlbQ0gyXTI=

> <s_epik_cmdline>
J2VwaWtfcHl0aG9uJywgJy1waCcsICc3LjAnLCAnLXRuJywgJzgnLCAnLW1hJywgJzIwMCcsICctbWV0YWxfYmluZGluZycsICctaW1hZScsICc8aW5maWxlLm1hZT4nLCAnLW9tYWUnLCAnPG91dGZpbGUubWFlPic=

> <r_epik_Ionization_Penalty>
0.707076

> <r_epik_Ionization_Penalty_Charging>
0.707039

> <r_epik_Ionization_Penalty_Neutral>
3.6548e-05

> <r_epik_State_Penalty>
0.730276

> <r_epik_Charging_Adjusted_Penalty>
1.43732

> <i_epik_Tot_Q>
1

> <i_epik_Tot_abs_Q>
1

> <r_epik_Metal_State_Penalty>
0.743132

> <b_epik_Metal_Only>
0

> <s_lp_Force_Field>
OPLS_2005

> <r_lp_Energy>
14.5355

> <b_lp_Chiralities_Consistent>
1

> <s_lp_Variant>
AV-unprocessed.smi:1381-5

> <Gold.Version>
5.8.1

> <Gold.Id.Protein>
6NUR|6NUR_protein|mol2

> <Gold.PLP.Fitness>
39.7200

> <Gold.PLP.PLP>
-28.7906

> <Gold.PLP.part.hbond>
-3.0000

> <Gold.PLP.part.metal>
0.0000

> <Gold.PLP.part.buried>
-5.7512

> <Gold.PLP.part.nonpolar>
-20.8149

> <Gold.PLP.part.repulsive>
0.4051

> <Gold.PLP.ligand.clash>
0.0000

> <Gold.PLP.ligand.torsion>
0.5095

> <Gold.PLP.Chemscore.Hbond>
3.9760

> <Gold.PLP.Chemscore.CHOScore>
0.0000

> <Gold.PLP.Chemscore.Metal>
0.0000

> <Gold.Chemscore.Hbonds>
donor molecule, donor type, donor heavy atom, donor atom, acceptor molecule, acceptor atom, score
      L1  H     5    25       P1  8028  1.00
      L1  H     8    26       P1  8028  1.00
      L1  H    11    43       P1 10175  2.00

> <Gold.PLP.Chemscore.Internal.Correction>
0.0205

> <Gold.Rescore>
     Score         DG    S(hbond)    S(metal)    S(lipo)     H(rot)  DE(clash)    DE(int)     intcor
     15.62     -17.70       2.87        0.00      57.81       1.61       0.21       1.87       ----

> <Gold.Chemscore.Fitness>
15.6199

> <Gold.Chemscore.DG>
-17.7039

> <Gold.Chemscore.ZeroCoef>
-5.4800

> <Gold.Chemscore.Hbond>
2.8673

> <Gold.Chemscore.Metal>
0.0000

> <Gold.Chemscore.Lipo>
57.8090

> <Gold.Chemscore.Internal_Hbond>
0.0000

> <Gold.Chemscore.DEClash>
0.2121

> <Gold.Chemscore.DEInternal>
1.8719

> <Gold.Chemscore.Rot>
1.6081

> <Gold.Chemscore.Internal.Correction>
   9.000000E+99

> <Gold.Chemscore.Hbonds>
donor molecule, donor type, donor heavy atom, donor atom, acceptor molecule, acceptor atom, score
      L1  H     5    25       P1  8028  0.99
      L1  H     8    26       P1  8028  0.95
      L1  H    11    43       P1 10175  0.74

> <Gold.Chemscore.Hbond.Weighted>
-9.5769

> <Gold.Chemscore.Metal.Weighted>
-0.0000

> <Gold.Chemscore.Lipo.Weighted>
-6.7637

> <Gold.Chemscore.Internal_Hbond.Weighted>
0.0000

> <Gold.Chemscore.DEClash.Weighted>
0.2121

> <Gold.Chemscore.DEInternal.Weighted>
1.8719

> <Gold.Chemscore.Rot.Weighted>
4.1167

> <Gold.Chemscore.Internal.Correction.Weighted>
   9.000000E+99

> <Gold.Protein.RotatedTorsions>
[ 6907 6896 6895 6894 ] final -125.92 input  -60.11 | X-H torsion
[ 7974 7965 7964 7962 ] final   73.33 input  175.53 | X-H torsion
[ 8008 7997 7996 7995 ] final   40.63 input   59.86 | X-H torsion
[ 10167 10162 10161 10158 ] final    8.51 input  -65.29 | X-H torsion
[ 10718 10713 10712 10709 ] final  168.58 input   66.30 | X-H torsion
[ 10763 10752 10751 10750 ] final -110.67 input  -60.55 | X-H torsion
[ 11005 11000 10999 10996 ] final   94.02 input  -57.11 | X-H torsion

> <Gold.Protein.ActiveResidues>
 VAL166  LYS551  ARG553  GLY616  TRP617  ASP618  TYR619  PRO620  LYS621  CYS622 
 ASP623  PHE694  ASN695  SER759  ASP760  ASP761  ALA762  ILE779  LEU786  VAL792 
 PHE793  MET794  SER795  GLU796  ALA797  LYS798  CYS799  TRP800  GLU811  SER814 

> <Gold.Protein.RotatedAtoms>
  150.8916  133.7235  159.2902 H   0  0  0  0  0  0  0  0  0  0  0  0  # atno 6907 bound_to 6896
  151.4784  135.1049  159.9780 H   0  0  0  0  0  0  0  0  0  0  0  0  # atno 6908 bound_to 6896
  152.4823  133.8239  159.7123 H   0  0  0  0  0  0  0  0  0  0  0  0  # atno 6909 bound_to 6896
  145.7422  139.2725  143.1480 H   0  0  0  0  0  0  0  0  0  0  0  0  # atno 7974 bound_to 7965
  155.2563  140.3356  155.4277 H   0  0  0  0  0  0  0  0  0  0  0  0  # atno 8008 bound_to 7997
  156.2194  140.1802  156.7556 H   0  0  0  0  0  0  0  0  0  0  0  0  # atno 8009 bound_to 7997
  154.5802  140.0655  156.9078 H   0  0  0  0  0  0  0  0  0  0  0  0  # atno 8010 bound_to 7997
  140.6310  143.7993  150.7295 H   0  0  0  0  0  0  0  0  0  0  0  0  # atno 10167 bound_to 10162
  157.0351  131.0270  151.2732 H   0  0  0  0  0  0  0  0  0  0  0  0  # atno 10718 bound_to 10713
  154.8260  135.4555  154.0921 H   0  0  0  0  0  0  0  0  0  0  0  0  # atno 10763 bound_to 10752
  153.2235  135.6897  153.7979 H   0  0  0  0  0  0  0  0  0  0  0  0  # atno 10764 bound_to 10752
  153.7387  135.3315  155.3276 H   0  0  0  0  0  0  0  0  0  0  0  0  # atno 10765 bound_to 10752
  139.8803  134.8822  156.3803 H   0  0  0  0  0  0  0  0  0  0  0  0  # atno 11005 bound_to 11000
  146.0437  140.8139  142.9816 LP  0  0  0  0  0  0  0  0  0  0  0  0  # atno 17320 bound_to 7965
  144.6868  140.2949  143.7272 LP  0  0  0  0  0  0  0  0  0  0  0  0  # atno 17321 bound_to 7965
  140.1604  143.4280  152.2070 LP  0  0  0  0  0  0  0  0  0  0  0  0  # atno 17342 bound_to 10162
  139.5524  144.7348  151.4394 LP  0  0  0  0  0  0  0  0  0  0  0  0  # atno 17343 bound_to 10162
  157.5148  130.7961  149.7744 LP  0  0  0  0  0  0  0  0  0  0  0  0  # atno 17370 bound_to 10713
  156.0056  130.3857  150.2442 LP  0  0  0  0  0  0  0  0  0  0  0  0  # atno 17371 bound_to 10713
  140.9403  133.7519  156.0138 LP  0  0  0  0  0  0  0  0  0  0  0  0  # atno 17394 bound_to 11000
  140.8227  134.3271  157.5376 LP  0  0  0  0  0  0  0  0  0  0  0  0  # atno 17395 bound_to 11000

$$$$
