AV-unprocessed.smi:2085|AV-procd|sdf|8517|dock4
  -GOLD-   2272011233D 1   1.00000     0.00000
 Structure written by MMmdl.
 30 31  0  0  0  0  0  0  0  0  1 V2000
  151.6030  145.0666  158.9558 C   0  0  0  0  0  0  0  0  0  0  0  0
  151.6671  143.6950  158.5808 O   0  0  0  0  0  0  0  0  0  0  0  0
  152.3307  142.8136  159.4131 C   0  0  0  0  0  0  0  0  0  0  0  0
  152.7580  143.2630  160.6200 N   0  0  0  0  0  0  0  0  0  0  0  0
  153.4003  142.4024  161.4360 C   0  0  0  0  0  0  0  0  0  0  0  0
  153.6418  141.0576  161.1008 C   0  0  0  0  0  0  0  0  0  0  0  0
  153.2005  140.5892  159.8496 C   0  0  0  0  0  0  0  0  0  0  0  0
  152.5410  141.4854  158.9739 C   0  0  0  0  0  0  0  0  0  0  0  0
  152.0412  141.1116  157.6958 N   0  0  0  0  0  0  0  0  0  0  0  0
  152.3437  140.0263  156.9602 C   0  0  0  0  0  0  0  0  0  0  0  0
  153.1371  139.1492  157.3021 O   0  0  0  0  0  0  0  0  0  0  0  0
  151.6313  139.9225  155.6066 C   0  0  1  0  0  0  0  0  0  0  0  0
  152.1035  138.7410  154.7380 C   0  0  0  0  0  0  0  0  0  0  0  0
  150.9109  137.8046  154.7217 C   0  0  0  0  0  0  0  0  0  0  0  0
  149.7496  138.7731  154.8935 C   0  0  0  0  0  0  0  0  0  0  0  0
  150.2445  139.6951  155.8511 O   0  0  0  0  0  0  0  0  0  0  0  0
  151.0461  145.6210  158.2006 H   0  0  0  0  0  0  0  0  0  0  0  0
  152.5980  145.5091  159.0235 H   0  0  0  0  0  0  0  0  0  0  0  0
  151.0873  145.1958  159.9083 H   0  0  0  0  0  0  0  0  0  0  0  0
  153.7254  142.7959  162.3877 H   0  0  0  0  0  0  0  0  0  0  0  0
  154.1496  140.3987  161.7896 H   0  0  0  0  0  0  0  0  0  0  0  0
  153.3623  139.5533  159.5947 H   0  0  0  0  0  0  0  0  0  0  0  0
  151.4358  141.7889  157.2547 H   0  0  0  0  0  0  0  0  0  0  0  0
  151.7436  140.8532  155.0474 H   0  0  0  0  0  0  0  0  0  0  0  0
  152.3161  139.0919  153.7274 H   0  0  0  0  0  0  0  0  0  0  0  0
  153.0047  138.2472  155.1051 H   0  0  0  0  0  0  0  0  0  0  0  0
  150.8432  137.2121  153.8091 H   0  0  0  0  0  0  0  0  0  0  0  0
  150.9569  137.1227  155.5719 H   0  0  0  0  0  0  0  0  0  0  0  0
  149.5335  139.2941  153.9594 H   0  0  0  0  0  0  0  0  0  0  0  0
  148.8383  138.2849  155.2387 H   0  0  0  0  0  0  0  0  0  0  0  0
  1  2  1  0  0  0  0
  1 17  1  0  0  0  0
  1 18  1  0  0  0  0
  1 19  1  0  0  0  0
  2  3  1  0  0  0  0
  3  8  1  0  0  0  0
  3  4  2  0  0  0  0
  4  5  1  0  0  0  0
  5  6  2  0  0  0  0
  5 20  1  0  0  0  0
  6  7  1  0  0  0  0
  6 21  1  0  0  0  0
  7  8  2  0  0  0  0
  7 22  1  0  0  0  0
  8  9  1  0  0  0  0
  9 10  1  0  0  0  0
  9 23  1  0  0  0  0
 10 11  2  0  0  0  0
 10 12  1  0  0  0  0
 12 16  1  0  0  0  0
 12 13  1  0  0  0  0
 12 24  1  0  0  0  0
 13 14  1  0  0  0  0
 13 25  1  0  0  0  0
 13 26  1  0  0  0  0
 14 15  1  0  0  0  0
 14 27  1  0  0  0  0
 14 28  1  0  0  0  0
 15 16  1  0  0  0  0
 15 29  1  0  0  0  0
 15 30  1  0  0  0  0
M  END
> <s_m_source_file>
AV-unprocessed.smi

> <i_m_source_file_index>
2085

> <i_lp_mmshare_version>
43012

> <i_f3d_flags>
0

> <s_epik_input>
W0NIM11PYzFuW2NIXVtjSF1bY0hdYzFbTkhdQyg9TylbQ0BASF0yW0NIMl1bQ0gyXVtDSDJdTzI=

> <s_epik_cmdline>
J2VwaWtfcHl0aG9uJywgJy1waCcsICc3LjAnLCAnLXRuJywgJzgnLCAnLW1hJywgJzIwMCcsICctbWV0YWxfYmluZGluZycsICctaW1hZScsICc8aW5maWxlLm1hZT4nLCAnLW9tYWUnLCAnPG91dGZpbGUubWFlPic=

> <r_lp_tautomer_probability>
1

> <r_epik_Ionization_Penalty>
2.59253e-05

> <r_epik_Ionization_Penalty_Charging>
0

> <r_epik_Ionization_Penalty_Neutral>
2.59253e-05

> <r_epik_State_Penalty>
-0

> <r_epik_Charging_Adjusted_Penalty>
0

> <i_epik_Tot_Q>
0

> <i_epik_Tot_abs_Q>
0

> <r_epik_Metal_State_Penalty>
-0

> <b_epik_Metal_Only>
0

> <s_lp_Force_Field>
OPLS_2005

> <r_lp_Energy>
23.5272

> <b_lp_Chiralities_Consistent>
1

> <s_lp_Variant>
AV-unprocessed.smi:2085-2

> <Gold.Version>
5.8.1

> <Gold.Id.Protein>
6NUR|6NUR_protein|mol2

> <Gold.PLP.Fitness>
36.0076

> <Gold.PLP.PLP>
-33.4100

> <Gold.PLP.part.hbond>
-1.0000

> <Gold.PLP.part.metal>
0.0000

> <Gold.PLP.part.buried>
-2.6397

> <Gold.PLP.part.nonpolar>
-29.0546

> <Gold.PLP.part.repulsive>
0.1914

> <Gold.PLP.ligand.clash>
0.0000

> <Gold.PLP.ligand.torsion>
0.2065

> <Gold.PLP.Chemscore.Hbond>
1.0000

> <Gold.PLP.Chemscore.CHOScore>
0.0000

> <Gold.PLP.Chemscore.Metal>
0.0000

> <Gold.Chemscore.Hbonds>
donor molecule, donor type, donor heavy atom, donor atom, acceptor molecule, acceptor atom, score
      P1  H  7997  8010       L1    11  0.95

> <Gold.PLP.Chemscore.Internal.Correction>
0.0106

> <Gold.Rescore>
     Score         DG    S(hbond)    S(metal)    S(lipo)     H(rot)  DE(clash)    DE(int)     intcor
     12.49     -14.04       0.80        0.00      77.40       1.24       0.18       1.37       ----

> <Gold.Chemscore.Fitness>
12.4862

> <Gold.Chemscore.DG>
-14.0403

> <Gold.Chemscore.ZeroCoef>
-5.4800

> <Gold.Chemscore.Hbond>
0.8005

> <Gold.Chemscore.Metal>
0.0000

> <Gold.Chemscore.Lipo>
77.4034

> <Gold.Chemscore.Internal_Hbond>
0.0000

> <Gold.Chemscore.DEClash>
0.1844

> <Gold.Chemscore.DEInternal>
1.3697

> <Gold.Chemscore.Rot>
1.2381

> <Gold.Chemscore.Internal.Correction>
   9.000000E+99

> <Gold.Chemscore.Hbonds>
donor molecule, donor type, donor heavy atom, donor atom, acceptor molecule, acceptor atom, score
      P1  H  7997  8010       L1    11  0.20

> <Gold.Chemscore.Hbond.Weighted>
-2.6735

> <Gold.Chemscore.Metal.Weighted>
-0.0000

> <Gold.Chemscore.Lipo.Weighted>
-9.0562

> <Gold.Chemscore.Internal_Hbond.Weighted>
0.0000

> <Gold.Chemscore.DEClash.Weighted>
0.1844

> <Gold.Chemscore.DEInternal.Weighted>
1.3697

> <Gold.Chemscore.Rot.Weighted>
3.1694

> <Gold.Chemscore.Internal.Correction.Weighted>
   9.000000E+99

> <Gold.Protein.RotatedTorsions>
[ 6907 6896 6895 6894 ] final  -53.90 input  -60.11 | X-H torsion
[ 7974 7965 7964 7962 ] final  -64.10 input  175.53 | X-H torsion
[ 8008 7997 7996 7995 ] final   30.52 input   59.86 | X-H torsion
[ 10167 10162 10161 10158 ] final  -61.28 input  -65.29 | X-H torsion
[ 10718 10713 10712 10709 ] final    2.74 input   66.30 | X-H torsion
[ 10763 10752 10751 10750 ] final  174.30 input  -60.55 | X-H torsion
[ 11005 11000 10999 10996 ] final  -15.54 input  -57.11 | X-H torsion

> <Gold.Protein.ActiveResidues>
 VAL166  LYS551  ARG553  GLY616  TRP617  ASP618  TYR619  PRO620  LYS621  CYS622 
 ASP623  PHE694  ASN695  SER759  ASP760  ASP761  ALA762  ILE779  LEU786  VAL792 
 PHE793  MET794  SER795  GLU796  ALA797  LYS798  CYS799  TRP800  GLU811  SER814 

> <Gold.Protein.RotatedAtoms>
  150.8386  134.7669  159.6912 H   0  0  0  0  0  0  0  0  0  0  0  0  # atno 6907 bound_to 6896
  152.4478  134.5455  159.9861 H   0  0  0  0  0  0  0  0  0  0  0  0  # atno 6908 bound_to 6896
  151.5600  133.3367  159.3005 H   0  0  0  0  0  0  0  0  0  0  0  0  # atno 6909 bound_to 6896
  145.7709  140.8813  143.0380 H   0  0  0  0  0  0  0  0  0  0  0  0  # atno 7974 bound_to 7965
  155.0918  140.3221  155.4571 H   0  0  0  0  0  0  0  0  0  0  0  0  # atno 8008 bound_to 7997
  156.2740  140.2076  156.5991 H   0  0  0  0  0  0  0  0  0  0  0  0  # atno 8009 bound_to 7997
  154.6897  140.0517  157.0338 H   0  0  0  0  0  0  0  0  0  0  0  0  # atno 8010 bound_to 7997
  140.6016  143.2363  151.5915 H   0  0  0  0  0  0  0  0  0  0  0  0  # atno 10167 bound_to 10162
  156.8674  130.5608  149.5659 H   0  0  0  0  0  0  0  0  0  0  0  0  # atno 10718 bound_to 10713
  154.4520  135.2765  155.1774 H   0  0  0  0  0  0  0  0  0  0  0  0  # atno 10763 bound_to 10752
  154.3597  135.6132  153.5688 H   0  0  0  0  0  0  0  0  0  0  0  0  # atno 10764 bound_to 10752
  152.9848  135.5831  154.4867 H   0  0  0  0  0  0  0  0  0  0  0  0  # atno 10765 bound_to 10752
  140.7977  133.8238  155.9440 H   0  0  0  0  0  0  0  0  0  0  0  0  # atno 11005 bound_to 11000
  144.6813  139.9854  143.7484 LP  0  0  0  0  0  0  0  0  0  0  0  0  # atno 17320 bound_to 7965
  146.0170  139.3218  143.0835 LP  0  0  0  0  0  0  0  0  0  0  0  0  # atno 17321 bound_to 7965
  139.5295  144.2958  152.1115 LP  0  0  0  0  0  0  0  0  0  0  0  0  # atno 17342 bound_to 10162
  140.2140  144.4534  150.6373 LP  0  0  0  0  0  0  0  0  0  0  0  0  # atno 17343 bound_to 10162
  156.0744  130.5770  150.9446 LP  0  0  0  0  0  0  0  0  0  0  0  0  # atno 17370 bound_to 10713
  157.6215  131.0929  150.8613 LP  0  0  0  0  0  0  0  0  0  0  0  0  # atno 17371 bound_to 10713
  140.9326  134.2002  157.4853 LP  0  0  0  0  0  0  0  0  0  0  0  0  # atno 17394 bound_to 11000
  139.8724  134.9839  156.5217 LP  0  0  0  0  0  0  0  0  0  0  0  0  # atno 17395 bound_to 11000

$$$$
