#       Name:                AV-unprocessed.smi:3056
#       Creating user name   scv26
#       Creation time:       Fri Mar 27 17:04:05 2020


#       File generated by GOLD software.
#

@<TRIPOS>MOLECULE
AV-unprocessed.smi:3056
    53    54     1
SMALL
NO_CHARGES


@<TRIPOS>ATOM
      1 ****        -4.7787  -0.9996  -4.8435 C.3            1 S1                 0.0000
      2 ****        -3.9113  -0.9588  -3.6182 C.2            1 S1                 0.0000
      3 ****        -3.3713  -2.0562  -2.8907 C.2            1 S1                 0.0000
      4 ****        -2.6401  -1.6756  -1.8560 N.2            1 S1                 0.0000
      5 ****        -2.6978  -0.3257  -1.8708 N.pl3          1 S1                 0.0000
      6 ****        -1.9626   0.4292  -0.8590 C.3            1 S1                 0.0000
      7 ****        -2.6742   1.7498  -0.5108 C.3            1 S1                 0.0000
      8 ****        -0.4720   0.6450  -1.2436 C.3            1 S1                 0.0000
      9 ****        -0.2752   1.2719  -2.6356 C.3            1 S1                 0.0000
     10 ****         0.2865  -0.6281  -1.1818 N.4            1 S1                 1.0000
     11 ****         0.7580  -1.0389   0.1620 C.3            1 S1                 0.0000
     12 ****         2.0519  -0.3295   0.5995 C.2            1 S1                 0.0000
     13 ****         2.5921   0.4551  -0.1824 O.2            1 S1                 0.0000
     14 ****         2.5612  -0.5900   1.8274 N.am           1 S1                 0.0000
     15 ****         1.9812  -1.4872   2.8315 C.3            1 S1                 0.0000
     16 ****         1.5893  -0.6488   4.0608 C.3            1 S1                 0.0000
     17 ****         2.7353   0.0390   4.5566 O.3            1 S1                 0.0000
     18 ****         3.3375   0.9043   3.5953 C.3            1 S1                 0.0000
     19 ****         4.5322   1.5992   4.2574 C.3            1 S1                 0.0000
     20 ****         3.7523   0.0770   2.3615 C.3            1 S1                 0.0000
     21 ****        -3.4490   0.1313  -2.9375 C.2            1 S1                 0.0000
     22 ****        -5.1415  -2.0066  -5.0512 H              1 S1                 0.0000
     23 ****        -4.2397  -0.6627  -5.7290 H              1 S1                 0.0000
     24 ****        -5.6552  -0.3600  -4.7374 H              1 S1                 0.0000
     25 ****        -3.4852  -3.1125  -3.0860 H              1 S1                 0.0000
     26 ****        -1.9987  -0.1618   0.0570 H              1 S1                 0.0000
     27 ****        -2.1766   2.2531   0.3184 H              1 S1                 0.0000
     28 ****        -3.7065   1.5699  -0.2088 H              1 S1                 0.0000
     29 ****        -2.6920   2.4441  -1.3506 H              1 S1                 0.0000
     30 ****        -0.0284   1.3317  -0.5212 H              1 S1                 0.0000
     31 ****        -0.7989   2.2234  -2.7245 H              1 S1                 0.0000
     32 ****        -0.6318   0.6180  -3.4319 H              1 S1                 0.0000
     33 ****         0.7807   1.4669  -2.8252 H              1 S1                 0.0000
     34 ****        -0.3055  -1.3552  -1.5584 H              1 S1                 0.0000
     35 ****        -0.0291  -0.8834   0.8995 H              1 S1                 0.0000
     36 ****         0.9572  -2.1102   0.1212 H              1 S1                 0.0000
     37 ****         1.1171  -2.0475   2.4792 H              1 S1                 0.0000
     38 ****         2.7236  -2.2355   3.1128 H              1 S1                 0.0000
     39 ****         0.8035   0.0659   3.8108 H              1 S1                 0.0000
     40 ****         1.1975  -1.2931   4.8480 H              1 S1                 0.0000
     41 ****         2.6125   1.6650   3.3000 H              1 S1                 0.0000
     42 ****         5.0159   2.2906   3.5670 H              1 S1                 0.0000
     43 ****         5.2789   0.8754   4.5852 H              1 S1                 0.0000
     44 ****         4.2155   2.1695   5.1310 H              1 S1                 0.0000
     45 ****         4.4929  -0.6751   2.6386 H              1 S1                 0.0000
     46 ****         4.2387   0.7240   1.6303 H              1 S1                 0.0000
     47 ****        -3.5949   1.1842  -3.1280 H              1 S1                 0.0000
     48 ****         1.1028  -0.5417  -1.7706 H              1 S1                 0.0000
     49 ****        -2.1522  -2.2584  -1.2061 LP             1 S1                 0.0000
     50 ****         2.1892   0.6209  -1.0824 LP             1 S1                 0.0000
     51 ****         3.4334   0.9259   0.0832 LP             1 S1                 0.0000
     52 ****         3.4132  -0.6389   4.8414 LP             1 S1                 0.0000
     53 ****         2.4592   0.5864   5.3466 LP             1 S1                 0.0000
@<TRIPOS>BOND
    1    1    2 1     
    2    1   22 1     
    3    1   23 1     
    4    1   24 1     
    5    2   21 2     
    6    2    3 1     
    7    3    4 2     
    8    3   25 1     
    9    4    5 1     
   10    5    6 1     
   11    5   21 1     
   12    6    7 1     
   13    6    8 1     
   14    6   26 1     
   15    7   27 1     
   16    7   28 1     
   17    7   29 1     
   18    8    9 1     
   19    8   10 1     
   20    8   30 1     
   21    9   31 1     
   22    9   32 1     
   23    9   33 1     
   24   10   11 1     
   25   10   34 1     
   26   10   48 1     
   27   11   12 1     
   28   11   35 1     
   29   11   36 1     
   30   12   13 2     
   31   12   14 am    
   32   14   20 1     
   33   14   15 1     
   34   15   16 1     
   35   15   37 1     
   36   15   38 1     
   37   16   17 1     
   38   16   39 1     
   39   16   40 1     
   40   17   18 1     
   41   18   19 1     
   42   18   20 1     
   43   18   41 1     
   44   19   42 1     
   45   19   43 1     
   46   19   44 1     
   47   20   45 1     
   48   20   46 1     
   49   21   47 1     
   50    4   49 1     
   51   13   50 1     
   52   13   51 1     
   53   17   52 1     
   54   17   53 1     
@<TRIPOS>SUBSTRUCTURE
      1 S1             1
@<TRIPOS>SET
LONE_PAIRS      STATIC     ATOMS    <user>   **** ""
5 49 50 51 52 53
DONOR_HYDROGENS      STATIC     ATOMS    <user>   **** ""
2 34 48
ATOM$BLUE        STATIC     ATOMS    COLORGROUP SYSTEM
5 49 50 51 52 53
ATOM$RED        STATIC     ATOMS    COLORGROUP SYSTEM
2 34 48
