AV-unprocessed.smi:1323|AV-procd|sdf|5465|dock10
  -GOLD-   22720 5 33D 1   1.00000     0.00000
 Structure written by MMmdl.
 45 46  0  0  0  0  0  0  0  0  1 V2000
  153.4021  141.5438  160.2975 C   0  0  0  0  0  0  0  0  0  0  0  0
  152.8277  142.3819  159.1436 C   0  0  2  0  0  0  0  0  0  0  0  0
  153.0556  143.8856  159.3994 C   0  0  0  0  0  0  0  0  0  0  0  0
  152.4850  144.7500  158.2652 C   0  0  0  0  0  0  0  0  0  0  0  0
  150.9926  144.4615  158.0525 C   0  0  0  0  0  0  0  0  0  0  0  0
  150.7541  142.9683  157.7835 C   0  0  0  0  0  0  0  0  0  0  0  0
  151.3281  142.0860  158.9127 C   0  0  1  0  0  0  0  0  0  0  0  0
  151.2036  140.7185  158.5433 O   0  0  0  0  0  0  0  0  0  0  0  0
  149.8884  140.1956  158.6600 C   0  0  0  0  0  0  0  0  0  0  0  0
  149.8154  138.8633  157.9069 C   0  0  0  0  0  0  0  0  0  0  0  0
  148.6720  138.0843  158.3613 N   0  0  0  0  0  0  0  0  0  0  0  0
  148.7203  137.1497  159.3202 C   0  0  0  0  0  0  0  0  0  0  0  0
  149.7553  136.8546  159.9200 O   0  0  0  0  0  0  0  0  0  0  0  0
  147.3920  136.4430  159.6281 C   0  0  0  0  0  0  0  0  0  0  0  0
  147.4549  135.5468  160.7948 N   0  0  0  0  0  0  0  0  0  0  0  0
  147.2322  134.1754  160.5593 C   0  0  0  0  0  0  0  0  0  0  0  0
  147.2674  133.2701  161.5497 C   0  0  0  0  0  0  0  0  0  0  0  0
  147.5414  133.7338  162.8890 C   0  0  0  0  0  0  0  0  0  0  0  0
  147.7606  135.0429  163.1247 C   0  0  0  0  0  0  0  0  0  0  0  0
  147.7273  136.0356  162.0441 C   0  0  0  0  0  0  0  0  0  0  0  0
  147.9315  137.2324  162.2497 O   0  0  0  0  0  0  0  0  0  0  0  0
  152.8911  141.7586  161.2366 H   0  0  0  0  0  0  0  0  0  0  0  0
  154.4629  141.7504  160.4415 H   0  0  0  0  0  0  0  0  0  0  0  0
  153.3025  140.4761  160.1015 H   0  0  0  0  0  0  0  0  0  0  0  0
  153.3699  142.1121  158.2360 H   0  0  0  0  0  0  0  0  0  0  0  0
  152.5897  144.1741  160.3428 H   0  0  0  0  0  0  0  0  0  0  0  0
  154.1217  144.0879  159.5084 H   0  0  0  0  0  0  0  0  0  0  0  0
  152.6313  145.8064  158.4921 H   0  0  0  0  0  0  0  0  0  0  0  0
  153.0323  144.5521  157.3428 H   0  0  0  0  0  0  0  0  0  0  0  0
  150.4293  144.7701  158.9339 H   0  0  0  0  0  0  0  0  0  0  0  0
  150.6146  145.0548  157.2196 H   0  0  0  0  0  0  0  0  0  0  0  0
  149.6855  142.7912  157.6635 H   0  0  0  0  0  0  0  0  0  0  0  0
  151.2188  142.6939  156.8355 H   0  0  0  0  0  0  0  0  0  0  0  0
  150.7897  142.2802  159.8428 H   0  0  0  0  0  0  0  0  0  0  0  0
  149.6550  140.0359  159.7136 H   0  0  0  0  0  0  0  0  0  0  0  0
  149.1466  140.8902  158.2642 H   0  0  0  0  0  0  0  0  0  0  0  0
  149.7425  139.0383  156.8325 H   0  0  0  0  0  0  0  0  0  0  0  0
  150.7292  138.2931  158.0804 H   0  0  0  0  0  0  0  0  0  0  0  0
  147.7867  138.2643  157.9099 H   0  0  0  0  0  0  0  0  0  0  0  0
  146.6142  137.1959  159.7701 H   0  0  0  0  0  0  0  0  0  0  0  0
  147.0885  135.8864  158.7400 H   0  0  0  0  0  0  0  0  0  0  0  0
  147.0407  133.9107  159.5296 H   0  0  0  0  0  0  0  0  0  0  0  0
  147.0992  132.2223  161.3489 H   0  0  0  0  0  0  0  0  0  0  0  0
  147.5721  133.0273  163.7055 H   0  0  0  0  0  0  0  0  0  0  0  0
  147.9654  135.3712  164.1330 H   0  0  0  0  0  0  0  0  0  0  0  0
  1  2  1  0  0  0  0
  1 22  1  0  0  0  0
  1 23  1  0  0  0  0
  1 24  1  0  0  0  0
  2  7  1  0  0  0  0
  2  3  1  0  0  0  0
  2 25  1  0  0  0  0
  3  4  1  0  0  0  0
  3 26  1  0  0  0  0
  3 27  1  0  0  0  0
  4  5  1  0  0  0  0
  4 28  1  0  0  0  0
  4 29  1  0  0  0  0
  5  6  1  0  0  0  0
  5 30  1  0  0  0  0
  5 31  1  0  0  0  0
  6  7  1  0  0  0  0
  6 32  1  0  0  0  0
  6 33  1  0  0  0  0
  7  8  1  0  0  0  0
  7 34  1  0  0  0  0
  8  9  1  0  0  0  0
  9 10  1  0  0  0  0
  9 35  1  0  0  0  0
  9 36  1  0  0  0  0
 10 11  1  0  0  0  0
 10 37  1  0  0  0  0
 10 38  1  0  0  0  0
 11 12  1  0  0  0  0
 11 39  1  0  0  0  0
 12 13  2  0  0  0  0
 12 14  1  0  0  0  0
 14 15  1  0  0  0  0
 14 40  1  0  0  0  0
 14 41  1  0  0  0  0
 15 20  1  0  0  0  0
 15 16  1  0  0  0  0
 16 17  2  0  0  0  0
 16 42  1  0  0  0  0
 17 18  1  0  0  0  0
 17 43  1  0  0  0  0
 18 19  2  0  0  0  0
 18 44  1  0  0  0  0
 19 20  1  0  0  0  0
 19 45  1  0  0  0  0
 20 21  2  0  0  0  0
M  END
> <s_m_source_file>
AV-unprocessed.smi

> <i_m_source_file_index>
1323

> <i_lp_mmshare_version>
43012

> <i_f3d_flags>
0

> <s_epik_input>
W0NIM11bQ0BASF0xW0NIMl1bQ0gyXVtDSDJdW0NIMl1bQ0BIXTFPW0NIMl1bQ0gyXVtOSF1DKD1PKVtDSDJdbjJbY0hdW2NIXVtjSF1bY0hdYzI9Tw==

> <s_epik_cmdline>
J2VwaWtfcHl0aG9uJywgJy1waCcsICc3LjAnLCAnLXRuJywgJzgnLCAnLW1hJywgJzIwMCcsICctbWV0YWxfYmluZGluZycsICctaW1hZScsICc8aW5maWxlLm1hZT4nLCAnLW9tYWUnLCAnPG91dGZpbGUubWFlPic=

> <r_lp_tautomer_probability>
1

> <r_epik_Ionization_Penalty>
4.02412e-07

> <r_epik_Ionization_Penalty_Charging>
3.74552e-07

> <r_epik_Ionization_Penalty_Neutral>
2.78599e-08

> <r_epik_State_Penalty>
-0

> <r_epik_Charging_Adjusted_Penalty>
3.74552e-07

> <i_epik_Tot_Q>
0

> <i_epik_Tot_abs_Q>
0

> <r_epik_Metal_State_Penalty>
-0

> <b_epik_Metal_Only>
0

> <s_lp_Force_Field>
OPLS_2005

> <r_lp_Energy>
21.1571

> <b_lp_Chiralities_Consistent>
1

> <s_lp_Variant>
AV-unprocessed.smi:1323-1

> <Gold.Version>
5.8.1

> <Gold.Id.Protein>
6NUR|6NUR_protein|mol2

> <Gold.PLP.Fitness>
55.3359

> <Gold.PLP.PLP>
-47.9198

> <Gold.PLP.part.hbond>
-3.8929

> <Gold.PLP.part.metal>
0.0000

> <Gold.PLP.part.buried>
-3.3410

> <Gold.PLP.part.nonpolar>
-40.9024

> <Gold.PLP.part.repulsive>
0.1050

> <Gold.PLP.ligand.clash>
0.0000

> <Gold.PLP.ligand.torsion>
0.5077

> <Gold.PLP.Chemscore.Hbond>
2.7920

> <Gold.PLP.Chemscore.CHOScore>
0.0000

> <Gold.PLP.Chemscore.Metal>
0.0000

> <Gold.Chemscore.Hbonds>
donor molecule, donor type, donor heavy atom, donor atom, acceptor molecule, acceptor atom, score
      P1  H  6896  6909       L1    13  0.47
      P1  H  6931  6943       L1    21  0.99
      P1  H  6934  6947       L1    21  0.12

> <Gold.PLP.Chemscore.Internal.Correction>
0.0555

> <Gold.Rescore>
     Score         DG    S(hbond)    S(metal)    S(lipo)     H(rot)  DE(clash)    DE(int)     intcor
     22.69     -23.45       2.72        0.00     118.37       1.94       0.03       0.73       ----

> <Gold.Chemscore.Fitness>
22.6876

> <Gold.Chemscore.DG>
-23.4457

> <Gold.Chemscore.ZeroCoef>
-5.4800

> <Gold.Chemscore.Hbond>
2.7193

> <Gold.Chemscore.Metal>
0.0000

> <Gold.Chemscore.Lipo>
118.3692

> <Gold.Chemscore.Internal_Hbond>
0.0000

> <Gold.Chemscore.DEClash>
0.0319

> <Gold.Chemscore.DEInternal>
0.7262

> <Gold.Chemscore.Rot>
1.9398

> <Gold.Chemscore.Internal.Correction>
   9.000000E+99

> <Gold.Chemscore.Hbonds>
donor molecule, donor type, donor heavy atom, donor atom, acceptor molecule, acceptor atom, score
      P1  H  6896  6909       L1    13  0.45
      P1  H  6931  6943       L1    21  0.87
      P1  H  6934  6947       L1    21  0.11

> <Gold.Chemscore.Hbond.Weighted>
-9.0824

> <Gold.Chemscore.Metal.Weighted>
-0.0000

> <Gold.Chemscore.Lipo.Weighted>
-13.8492

> <Gold.Chemscore.Internal_Hbond.Weighted>
0.0000

> <Gold.Chemscore.DEClash.Weighted>
0.0319

> <Gold.Chemscore.DEInternal.Weighted>
0.7262

> <Gold.Chemscore.Rot.Weighted>
4.9659

> <Gold.Chemscore.Internal.Correction.Weighted>
   9.000000E+99

> <Gold.Protein.RotatedTorsions>
[ 6907 6896 6895 6894 ] final   95.84 input  -60.11 | X-H torsion
[ 7974 7965 7964 7962 ] final  131.11 input  175.53 | X-H torsion
[ 8008 7997 7996 7995 ] final  161.72 input   59.86 | X-H torsion
[ 10167 10162 10161 10158 ] final  176.40 input  -65.29 | X-H torsion
[ 10718 10713 10712 10709 ] final -142.54 input   66.30 | X-H torsion
[ 10763 10752 10751 10750 ] final  -78.10 input  -60.55 | X-H torsion
[ 11005 11000 10999 10996 ] final  -12.51 input  -57.11 | X-H torsion

> <Gold.Protein.ActiveResidues>
 VAL166  LYS551  ARG553  GLY616  TRP617  ASP618  TYR619  PRO620  LYS621  CYS622 
 ASP623  PHE694  ASN695  SER759  ASP760  ASP761  ALA762  ILE779  LEU786  VAL792 
 PHE793  MET794  SER795  GLU796  ALA797  LYS798  CYS799  TRP800  GLU811  SER814 

> <Gold.Protein.RotatedAtoms>
  152.5440  134.0978  159.8304 H   0  0  0  0  0  0  0  0  0  0  0  0  # atno 6907 bound_to 6896
  151.1059  133.5201  159.2615 H   0  0  0  0  0  0  0  0  0  0  0  0  # atno 6908 bound_to 6896
  151.1938  135.0423  159.8898 H   0  0  0  0  0  0  0  0  0  0  0  0  # atno 6909 bound_to 6896
  145.0108  139.4223  143.5246 H   0  0  0  0  0  0  0  0  0  0  0  0  # atno 7974 bound_to 7965
  156.2083  140.1769  156.7752 H   0  0  0  0  0  0  0  0  0  0  0  0  # atno 8008 bound_to 7997
  154.5686  140.0686  156.8959 H   0  0  0  0  0  0  0  0  0  0  0  0  # atno 8009 bound_to 7997
  155.2715  140.3343  155.4267 H   0  0  0  0  0  0  0  0  0  0  0  0  # atno 8010 bound_to 7997
  139.5213  144.2919  152.0456 H   0  0  0  0  0  0  0  0  0  0  0  0  # atno 10167 bound_to 10162
  156.3471  130.7668  151.1815 H   0  0  0  0  0  0  0  0  0  0  0  0  # atno 10718 bound_to 10713
  154.5215  135.5741  153.6684 H   0  0  0  0  0  0  0  0  0  0  0  0  # atno 10763 bound_to 10752
  152.9918  135.6183  154.2749 H   0  0  0  0  0  0  0  0  0  0  0  0  # atno 10764 bound_to 10752
  154.2670  135.2854  155.2734 H   0  0  0  0  0  0  0  0  0  0  0  0  # atno 10765 bound_to 10752
  140.7665  133.8473  155.9169 H   0  0  0  0  0  0  0  0  0  0  0  0  # atno 11005 bound_to 11000
  146.3469  139.9550  142.8724 LP  0  0  0  0  0  0  0  0  0  0  0  0  # atno 17320 bound_to 7965
  145.2026  140.9861  143.4147 LP  0  0  0  0  0  0  0  0  0  0  0  0  # atno 17321 bound_to 7965
  140.2370  144.4309  150.6276 LP  0  0  0  0  0  0  0  0  0  0  0  0  # atno 17342 bound_to 10162
  140.6317  143.2188  151.6482 LP  0  0  0  0  0  0  0  0  0  0  0  0  # atno 17343 bound_to 10162
  157.7456  131.0438  150.4762 LP  0  0  0  0  0  0  0  0  0  0  0  0  # atno 17370 bound_to 10713
  156.4951  130.4104  149.6384 LP  0  0  0  0  0  0  0  0  0  0  0  0  # atno 17371 bound_to 10713
  140.9614  134.1650  157.4651 LP  0  0  0  0  0  0  0  0  0  0  0  0  # atno 17394 bound_to 11000
  139.8762  134.9946  156.5702 LP  0  0  0  0  0  0  0  0  0  0  0  0  # atno 17395 bound_to 11000

$$$$
