AV-unprocessed.smi:3349|AV-procd|sdf|12935|dock7
  -GOLD-   2272019363D 1   1.00000     0.00000
 Structure written by MMmdl.
 41 42  0  0  0  0  0  0  0  0  2 V2000
  147.0801  135.7974  154.6862 C   0  0  0  0  0  0  0  0  0  0  0  0
  148.3813  136.1760  155.4358 C   0  0  2  0  0  0  0  0  0  0  0  0
  148.0641  136.6423  156.8850 C   0  0  0  0  0  0  0  0  0  0  0  0
  147.7618  135.5395  157.7947 N   0  0  0  0  0  0  0  0  0  0  0  0
  148.4429  135.2406  158.9135 C   0  0  0  0  0  0  0  0  0  0  0  0
  149.4000  135.9041  159.3139 O   0  0  0  0  0  0  0  0  0  0  0  0
  147.9547  134.0113  159.6975 C   0  0  2  0  0  0  0  0  0  0  0  0
  146.7827  133.2855  159.0054 C   0  0  0  0  0  0  0  0  0  0  0  0
  147.6372  134.3797  161.0718 N   0  0  0  0  0  0  0  0  0  0  0  0
  147.3621  133.6079  162.1254 C   0  0  0  0  0  0  0  0  0  0  0  0
  147.1627  134.2811  163.2497 N   0  0  0  0  0  0  0  0  0  0  0  0
  147.3504  135.5535  162.7896 C   0  0  0  0  0  0  0  0  0  0  0  0
  147.6469  135.6684  161.4953 N   0  0  0  0  0  0  0  0  0  0  0  0
  149.1758  137.1936  154.6666 N   0  3  0  0  0  0  0  0  0  0  0  0
  148.5741  138.5576  154.6489 C   0  0  0  0  0  0  0  0  0  0  0  0
  149.4372  139.5503  153.8513 C   0  0  0  0  0  0  0  0  0  0  0  0
  150.7498  139.5864  154.3872 O   0  0  0  0  0  0  0  0  0  0  0  0
  151.3800  138.3206  154.2800 C   0  0  0  0  0  0  0  0  0  0  0  0
  150.5987  137.2826  155.1022 C   0  0  0  0  0  0  0  0  0  0  0  0
  146.4838  135.0743  155.2408 H   0  0  0  0  0  0  0  0  0  0  0  0
  147.2697  135.3212  153.7262 H   0  0  0  0  0  0  0  0  0  0  0  0
  146.4547  136.6736  154.5128 H   0  0  0  0  0  0  0  0  0  0  0  0
  148.9937  135.2761  155.5124 H   0  0  0  0  0  0  0  0  0  0  0  0
  148.9285  137.1317  157.3312 H   0  0  0  0  0  0  0  0  0  0  0  0
  147.2601  137.3804  156.8777 H   0  0  0  0  0  0  0  0  0  0  0  0
  146.9866  134.9432  157.5429 H   0  0  0  0  0  0  0  0  0  0  0  0
  148.7869  133.3067  159.7397 H   0  0  0  0  0  0  0  0  0  0  0  0
  147.0548  132.9710  157.9972 H   0  0  0  0  0  0  0  0  0  0  0  0
  145.8973  133.9180  158.9263 H   0  0  0  0  0  0  0  0  0  0  0  0
  146.4993  132.3905  159.5598 H   0  0  0  0  0  0  0  0  0  0  0  0
  147.3115  132.5303  162.0704 H   0  0  0  0  0  0  0  0  0  0  0  0
  147.2730  136.4203  163.4293 H   0  0  0  0  0  0  0  0  0  0  0  0
  147.5922  138.5458  154.1786 H   0  0  0  0  0  0  0  0  0  0  0  0
  148.4441  138.9134  155.6721 H   0  0  0  0  0  0  0  0  0  0  0  0
  149.4676  139.2798  152.7945 H   0  0  0  0  0  0  0  0  0  0  0  0
  149.0068  140.5501  153.9091 H   0  0  0  0  0  0  0  0  0  0  0  0
  151.4509  138.0190  153.2335 H   0  0  0  0  0  0  0  0  0  0  0  0
  152.4000  138.4036  154.6554 H   0  0  0  0  0  0  0  0  0  0  0  0
  150.6405  137.5409  156.1614 H   0  0  0  0  0  0  0  0  0  0  0  0
  151.1094  136.3296  154.9826 H   0  0  0  0  0  0  0  0  0  0  0  0
  149.1873  136.8801  153.7062 H   0  0  0  0  0  0  0  0  0  0  0  0
  1  2  1  0  0  0  0
  1 20  1  0  0  0  0
  1 21  1  0  0  0  0
  1 22  1  0  0  0  0
  2  3  1  0  0  0  0
  2 14  1  0  0  0  0
  2 23  1  0  0  0  0
  3  4  1  0  0  0  0
  3 24  1  0  0  0  0
  3 25  1  0  0  0  0
  4  5  1  0  0  0  0
  4 26  1  0  0  0  0
  5  6  2  0  0  0  0
  5  7  1  0  0  0  0
  7  8  1  0  0  0  0
  7  9  1  0  0  0  0
  7 27  1  0  0  0  0
  8 28  1  0  0  0  0
  8 29  1  0  0  0  0
  8 30  1  0  0  0  0
  9 13  1  0  0  0  0
  9 10  1  0  0  0  0
 10 11  2  0  0  0  0
 10 31  1  0  0  0  0
 11 12  1  0  0  0  0
 12 13  2  0  0  0  0
 12 32  1  0  0  0  0
 14 19  1  0  0  0  0
 14 15  1  0  0  0  0
 14 41  1  0  0  0  0
 15 16  1  0  0  0  0
 15 33  1  0  0  0  0
 15 34  1  0  0  0  0
 16 17  1  0  0  0  0
 16 35  1  0  0  0  0
 16 36  1  0  0  0  0
 17 18  1  0  0  0  0
 18 19  1  0  0  0  0
 18 37  1  0  0  0  0
 18 38  1  0  0  0  0
 19 39  1  0  0  0  0
 19 40  1  0  0  0  0
M  CHG  1  14   1
M  END
> <s_m_source_file>
AV-unprocessed.smi

> <i_m_source_file_index>
3349

> <i_lp_mmshare_version>
43012

> <i_f3d_flags>
0

> <s_epik_input>
W0NIMl0xW0NIMl1PW0NIMl1bQ0gyXU4xW0NASF0oW0NIM10pW0NIMl1bTkhdQyg9TylbQ0BIXShbQ0gzXSluMltjSF1uW2NIXW4y

> <s_epik_cmdline>
J2VwaWtfcHl0aG9uJywgJy1waCcsICc3LjAnLCAnLXRuJywgJzgnLCAnLW1hJywgJzIwMCcsICctbWV0YWxfYmluZGluZycsICctaW1hZScsICc8aW5maWxlLm1hZT4nLCAnLW9tYWUnLCAnPG91dGZpbGUubWFlPic=

> <r_lp_tautomer_probability>
1

> <r_epik_Ionization_Penalty>
0.71326

> <r_epik_Ionization_Penalty_Charging>
0.713252

> <r_epik_Ionization_Penalty_Neutral>
8.10337e-06

> <r_epik_State_Penalty>
0.737017

> <r_epik_Charging_Adjusted_Penalty>
1.45027

> <i_epik_Tot_Q>
1

> <i_epik_Tot_abs_Q>
1

> <r_epik_Metal_State_Penalty>
0.73702

> <b_epik_Metal_Only>
0

> <s_lp_Force_Field>
OPLS_2005

> <r_lp_Energy>
28.3535

> <b_lp_Chiralities_Consistent>
1

> <s_lp_Variant>
AV-unprocessed.smi:3349-5

> <Gold.Version>
5.8.1

> <Gold.Id.Protein>
6NUR|6NUR_protein|mol2

> <Gold.PLP.Fitness>
38.1896

> <Gold.PLP.PLP>
-27.2936

> <Gold.PLP.part.hbond>
-4.3755

> <Gold.PLP.part.metal>
0.0000

> <Gold.PLP.part.buried>
-2.0171

> <Gold.PLP.part.nonpolar>
-20.6332

> <Gold.PLP.part.repulsive>
0.1741

> <Gold.PLP.ligand.clash>
0.3805

> <Gold.PLP.ligand.torsion>
0.4383

> <Gold.PLP.Chemscore.Hbond>
4.0000

> <Gold.PLP.Chemscore.CHOScore>
0.0000

> <Gold.PLP.Chemscore.Metal>
0.0000

> <Gold.Chemscore.Hbonds>
donor molecule, donor type, donor heavy atom, donor atom, acceptor molecule, acceptor atom, score
      L1  H    14    41       P1  7948  2.00
      P1  H  6896  6908       L1     6  1.00
      P1  H  7989  7998       L1    17  1.00

> <Gold.PLP.Chemscore.Internal.Correction>
0.1531

> <Gold.Rescore>
     Score         DG    S(hbond)    S(metal)    S(lipo)     H(rot)  DE(clash)    DE(int)     intcor
      8.66     -12.05       2.73        0.00      35.73       2.63       1.70       1.69       ----

> <Gold.Chemscore.Fitness>
8.6635

> <Gold.Chemscore.DG>
-12.0528

> <Gold.Chemscore.ZeroCoef>
-5.4800

> <Gold.Chemscore.Hbond>
2.7345

> <Gold.Chemscore.Metal>
0.0000

> <Gold.Chemscore.Lipo>
35.7255

> <Gold.Chemscore.Internal_Hbond>
0.0000

> <Gold.Chemscore.DEClash>
1.7023

> <Gold.Chemscore.DEInternal>
1.6870

> <Gold.Chemscore.Rot>
2.6329

> <Gold.Chemscore.Internal.Correction>
   9.000000E+99

> <Gold.Chemscore.Hbonds>
donor molecule, donor type, donor heavy atom, donor atom, acceptor molecule, acceptor atom, score
      L1  H    14    41       P1  7948  0.98
      P1  H  6896  6908       L1     6  0.65
      P1  H  7989  7998       L1    17  0.45

> <Gold.Chemscore.Hbond.Weighted>
-9.1332

> <Gold.Chemscore.Metal.Weighted>
-0.0000

> <Gold.Chemscore.Lipo.Weighted>
-4.1799

> <Gold.Chemscore.Internal_Hbond.Weighted>
0.0000

> <Gold.Chemscore.DEClash.Weighted>
1.7023

> <Gold.Chemscore.DEInternal.Weighted>
1.6870

> <Gold.Chemscore.Rot.Weighted>
6.7403

> <Gold.Chemscore.Internal.Correction.Weighted>
   9.000000E+99

> <Gold.Protein.RotatedTorsions>
[ 6907 6896 6895 6894 ] final -177.20 input  -60.11 | X-H torsion
[ 7974 7965 7964 7962 ] final  -48.64 input  175.53 | X-H torsion
[ 8008 7997 7996 7995 ] final   46.24 input   59.86 | X-H torsion
[ 10167 10162 10161 10158 ] final   -1.22 input  -65.29 | X-H torsion
[ 10718 10713 10712 10709 ] final  -24.58 input   66.30 | X-H torsion
[ 10763 10752 10751 10750 ] final   84.37 input  -60.55 | X-H torsion
[ 11005 11000 10999 10996 ] final -103.71 input  -57.11 | X-H torsion

> <Gold.Protein.ActiveResidues>
 VAL166  LYS551  ARG553  GLY616  TRP617  ASP618  TYR619  PRO620  LYS621  CYS622 
 ASP623  PHE694  ASN695  SER759  ASP760  ASP761  ALA762  ILE779  LEU786  VAL792 
 PHE793  MET794  SER795  GLU796  ALA797  LYS798  CYS799  TRP800  GLU811  SER814 

> <Gold.Protein.RotatedAtoms>
  151.6172  133.3342  159.3079 H   0  0  0  0  0  0  0  0  0  0  0  0  # atno 6907 bound_to 6896
  150.8125  134.7292  159.6712 H   0  0  0  0  0  0  0  0  0  0  0  0  # atno 6908 bound_to 6896
  152.4222  134.5940  160.0033 H   0  0  0  0  0  0  0  0  0  0  0  0  # atno 6909 bound_to 6896
  145.9490  140.7590  142.9514 H   0  0  0  0  0  0  0  0  0  0  0  0  # atno 7974 bound_to 7965
  155.3493  140.3412  155.4239 H   0  0  0  0  0  0  0  0  0  0  0  0  # atno 8008 bound_to 7997
  156.1772  140.1652  156.8376 H   0  0  0  0  0  0  0  0  0  0  0  0  # atno 8009 bound_to 7997
  154.5295  140.0748  156.8302 H   0  0  0  0  0  0  0  0  0  0  0  0  # atno 8010 bound_to 7997
  140.6801  143.6801  150.8113 H   0  0  0  0  0  0  0  0  0  0  0  0  # atno 10167 bound_to 10162
  156.4758  130.4534  149.6842 H   0  0  0  0  0  0  0  0  0  0  0  0  # atno 10718 bound_to 10713
  153.1376  135.4656  154.9446 H   0  0  0  0  0  0  0  0  0  0  0  0  # atno 10763 bound_to 10752
  154.7719  135.3161  154.8174 H   0  0  0  0  0  0  0  0  0  0  0  0  # atno 10764 bound_to 10752
  153.8703  135.6904  153.4829 H   0  0  0  0  0  0  0  0  0  0  0  0  # atno 10765 bound_to 10752
  141.1133  133.8662  157.1520 H   0  0  0  0  0  0  0  0  0  0  0  0  # atno 11005 bound_to 11000
  144.6792  140.2404  143.7344 LP  0  0  0  0  0  0  0  0  0  0  0  0  # atno 17320 bound_to 7965
  145.8197  139.2038  143.1945 LP  0  0  0  0  0  0  0  0  0  0  0  0  # atno 17321 bound_to 7965
  140.0500  143.5259  152.2678 LP  0  0  0  0  0  0  0  0  0  0  0  0  # atno 17342 bound_to 10162
  139.6118  144.7610  151.2935 LP  0  0  0  0  0  0  0  0  0  0  0  0  # atno 17343 bound_to 10162
  156.3572  130.7463  151.2430 LP  0  0  0  0  0  0  0  0  0  0  0  0  # atno 17370 bound_to 10713
  157.7487  131.0360  150.4391 LP  0  0  0  0  0  0  0  0  0  0  0  0  # atno 17371 bound_to 10713
  140.0040  135.0016  157.0253 LP  0  0  0  0  0  0  0  0  0  0  0  0  # atno 17394 bound_to 11000
  140.4714  134.1382  155.7203 LP  0  0  0  0  0  0  0  0  0  0  0  0  # atno 17395 bound_to 11000

$$$$
