#       Name:                AV-unprocessed.smi:99
#       Creating user name   scv26
#       Creation time:       Thu Mar 26 17:35:21 2020


#       File generated by GOLD software.
#

@<TRIPOS>MOLECULE
AV-unprocessed.smi:99
    65    68     1
SMALL
NO_CHARGES


@<TRIPOS>ATOM
      1 ****        -2.9411   1.0701   0.0983 O.2            1 S1                 0.0000
      2 ****        -2.1502   1.9341   0.4822 C.2            1 S1                 0.0000
      3 ****        -0.8429   1.7014   0.7067 O.3            1 S1                 0.0000
      4 ****        -0.3022   0.4137   0.4654 C.3            1 S1                 0.0000
      5 ****         1.2206   0.4570   0.6846 C.3            1 S1                 0.0000
      6 ****         1.8396   1.2158  -0.3550 O.3            1 S1                 0.0000
      7 ****         2.3762   0.3875  -1.3519 C.3            1 S1                 0.0000
      8 ****         1.7610   0.7361  -2.6935 N.am           1 S1                 0.0000
      9 ****         0.6204   1.5215  -2.8137 C.2            1 S1                 0.0000
     10 ****         0.0651   1.8389  -4.0072 C.2            1 S1                 0.0000
     11 ****         0.6584   1.3607  -5.2516 C.2            1 S1                 0.0000
     12 ****         0.2277   1.5957  -6.3785 O.2            1 S1                 0.0000
     13 ****         1.8057   0.5801  -5.0848 N.am           1 S1                 0.0000
     14 ****         2.3865   0.2461  -3.8606 C.2            1 S1                 0.0000
     15 ****         3.4000  -0.4509  -3.8268 O.2            1 S1                 0.0000
     16 ****         2.1294  -1.0774  -0.9246 C.3            1 S1                 0.0000
     17 ****         1.0013  -1.6616  -1.5586 O.3            1 S1                 0.0000
     18 ****         1.9156  -0.8990   0.5717 C.3            1 S1                 0.0000
     19 ****         1.2211  -1.9726   1.1979 O.3            1 S1                 0.0000
     20 ****         1.8699  -3.0911   1.5836 C.2            1 S1                 0.0000
     21 ****         3.0801  -3.2669   1.4300 O.2            1 S1                 0.0000
     22 ****         0.9633  -4.0958   2.2097 C.ar           1 S1                 0.0000
     23 ****         1.5012  -5.3138   2.6873 C.ar           1 S1                 0.0000
     24 ****         0.6677  -6.2822   3.2800 C.ar           1 S1                 0.0000
     25 ****        -0.7139  -6.0451   3.4013 C.ar           1 S1                 0.0000
     26 ****        -1.2613  -4.8376   2.9301 C.ar           1 S1                 0.0000
     27 ****        -0.4294  -3.8674   2.3382 C.ar           1 S1                 0.0000
     28 ****        -2.5407   3.3484   0.7474 C.ar           1 S1                 0.0000
     29 ****        -3.8976   3.7280   0.6217 C.ar           1 S1                 0.0000
     30 ****        -4.2959   5.0570   0.8639 C.ar           1 S1                 0.0000
     31 ****        -3.3418   6.0231   1.2333 C.ar           1 S1                 0.0000
     32 ****        -1.9886   5.6585   1.3600 C.ar           1 S1                 0.0000
     33 ****        -1.5885   4.3296   1.1190 C.ar           1 S1                 0.0000
     34 ****         2.2507   0.2281  -5.9199 H              1 S1                 0.0000
     35 ****        -0.7614  -0.2920   1.1586 H              1 S1                 0.0000
     36 ****        -0.5475   0.0853  -0.5443 H              1 S1                 0.0000
     37 ****         1.4334   0.9075   1.6546 H              1 S1                 0.0000
     38 ****         3.4366   0.6326  -1.4419 H              1 S1                 0.0000
     39 ****         0.1342   1.9122  -1.9339 H              1 S1                 0.0000
     40 ****        -0.8234   2.4527  -4.0416 H              1 S1                 0.0000
     41 ****         3.0092  -1.6830  -1.1442 H              1 S1                 0.0000
     42 ****         0.8947  -2.5413  -1.2305 H              1 S1                 0.0000
     43 ****         2.8947  -0.7843   1.0402 H              1 S1                 0.0000
     44 ****         2.5589  -5.5187   2.6042 H              1 S1                 0.0000
     45 ****         1.0895  -7.2086   3.6417 H              1 S1                 0.0000
     46 ****        -1.3530  -6.7886   3.8547 H              1 S1                 0.0000
     47 ****        -2.3218  -4.6544   3.0214 H              1 S1                 0.0000
     48 ****        -0.8831  -2.9522   1.9867 H              1 S1                 0.0000
     49 ****        -4.6481   3.0034   0.3394 H              1 S1                 0.0000
     50 ****        -5.3349   5.3350   0.7665 H              1 S1                 0.0000
     51 ****        -3.6473   7.0421   1.4193 H              1 S1                 0.0000
     52 ****        -1.2551   6.3992   1.6428 H              1 S1                 0.0000
     53 ****        -0.5415   4.0841   1.2227 H              1 S1                 0.0000
     54 ****        -2.6218   0.1363  -0.0634 LP             1 S1                 0.0000
     55 ****        -3.9020   1.3029  -0.0515 LP             1 S1                 0.0000
     56 ****         2.5751   1.7665   0.0395 LP             1 S1                 0.0000
     57 ****         1.1563   1.8185  -0.7673 LP             1 S1                 0.0000
     58 ****        -0.5929   2.1556  -6.4935 LP             1 S1                 0.0000
     59 ****         0.6978   1.2270  -7.1804 LP             1 S1                 0.0000
     60 ****         3.8126  -0.6911  -2.9481 LP             1 S1                 0.0000
     61 ****         3.8110  -0.7772  -4.6781 LP             1 S1                 0.0000
     62 ****         1.1453  -1.6858  -2.5479 LP             1 S1                 0.0000
     63 ****         0.1834  -1.1239  -1.3540 LP             1 S1                 0.0000
     64 ****         3.6375  -2.5578   0.9982 LP             1 S1                 0.0000
     65 ****         3.5045  -4.1187   1.7371 LP             1 S1                 0.0000
@<TRIPOS>BOND
    1    1    2 2     
    2    2    3 1     
    3    2   28 1     
    4    3    4 1     
    5    4    5 1     
    6    4   35 1     
    7    4   36 1     
    8    5   18 1     
    9    5    6 1     
   10    5   37 1     
   11    6    7 1     
   12    7    8 1     
   13    7   16 1     
   14    7   38 1     
   15    8   14 1     
   16    8    9 1     
   17    9   10 2     
   18    9   39 1     
   19   10   11 1     
   20   10   40 1     
   21   11   12 2     
   22   11   13 1     
   23   13   34 1     
   24   13   14 1     
   25   14   15 2     
   26   16   17 1     
   27   16   18 1     
   28   16   41 1     
   29   17   42 1     
   30   18   19 1     
   31   18   43 1     
   32   19   20 1     
   33   20   21 2     
   34   20   22 1     
   35   22   27 ar    
   36   22   23 ar    
   37   23   24 ar    
   38   23   44 1     
   39   24   25 ar    
   40   24   45 1     
   41   25   26 ar    
   42   25   46 1     
   43   26   27 ar    
   44   26   47 1     
   45   27   48 1     
   46   28   33 ar    
   47   28   29 ar    
   48   29   30 ar    
   49   29   49 1     
   50   30   31 ar    
   51   30   50 1     
   52   31   32 ar    
   53   31   51 1     
   54   32   33 ar    
   55   32   52 1     
   56   33   53 1     
   57    1   54 1     
   58    1   55 1     
   59    6   56 1     
   60    6   57 1     
   61   12   58 1     
   62   12   59 1     
   63   15   60 1     
   64   15   61 1     
   65   17   62 1     
   66   17   63 1     
   67   21   64 1     
   68   21   65 1     
@<TRIPOS>SUBSTRUCTURE
      1 S1             1
@<TRIPOS>SET
LONE_PAIRS      STATIC     ATOMS    <user>   **** ""
12 54 55 56 57 58 59 60 61 62 63 64 65
DONOR_HYDROGENS      STATIC     ATOMS    <user>   **** ""
2 34 42
ATOM$BLUE        STATIC     ATOMS    COLORGROUP SYSTEM
12 54 55 56 57 58 59 60 61 62 63 64 65
ATOM$RED        STATIC     ATOMS    COLORGROUP SYSTEM
2 34 42
