#       Name:                AV-unprocessed.smi:3308
#       Creating user name   scv26
#       Creation time:       Fri Mar 27 19:05:00 2020


#       File generated by GOLD software.
#

@<TRIPOS>MOLECULE
AV-unprocessed.smi:3308
    44    45     1
SMALL
NO_CHARGES


@<TRIPOS>ATOM
      1 ****        -1.6970  -0.0118   0.7391 C.3            1 S1                 0.0000
      2 ****        -1.1426   0.0848  -0.6992 C.3            1 S1                 0.0000
      3 ****         0.3160   0.0692  -0.6392 N.3            1 S1                 0.0000
      4 ****         0.8806   1.4018  -0.3910 C.3            1 S1                 0.0000
      5 ****         2.3973   1.3347  -0.1870 C.2            1 S1                 0.0000
      6 ****         3.1331   1.5850  -1.1417 O.2            1 S1                 0.0000
      7 ****         2.8797   1.0016   1.0293 N.am           1 S1                 0.0000
      8 ****         2.0805   0.6794   2.2117 C.3            1 S1                 0.0000
      9 ****         3.0689   0.1423   3.2471 C.3            1 S1                 0.0000
     10 ****         4.3995   0.7675   2.8518 C.3            1 S1                 0.0000
     11 ****         4.3067   0.9140   1.3330 C.3            1 S1                 0.0000
     12 ****        -1.6076  -1.0825  -1.6109 C.3            1 S1                 0.0000
     13 ****        -1.1850  -0.8943  -3.0801 C.3            1 S1                 0.0000
     14 ****        -3.0502  -1.2818  -1.5425 N.pl3          1 S1                 0.0000
     15 ****        -4.0596  -0.3958  -1.8639 C.2            1 S1                 0.0000
     16 ****        -5.2475  -1.0311  -1.6418 C.2            1 S1                 0.0000
     17 ****        -4.8598  -2.3218  -1.1858 C.2            1 S1                 0.0000
     18 ****        -3.5462  -2.4695  -1.1299 N.2            1 S1                 0.0000
     19 ****        -2.7847   0.0538   0.7568 H              1 S1                 0.0000
     20 ****        -1.3291   0.7907   1.3775 H              1 S1                 0.0000
     21 ****        -1.4165  -0.9570   1.2053 H              1 S1                 0.0000
     22 ****        -1.4817   1.0204  -1.1482 H              1 S1                 0.0000
     23 ****         0.6733  -0.3110  -1.5042 H              1 S1                 0.0000
     24 ****         0.6673   2.0462  -1.2454 H              1 S1                 0.0000
     25 ****         0.4132   1.8734   0.4727 H              1 S1                 0.0000
     26 ****         1.6032   1.5892   2.5785 H              1 S1                 0.0000
     27 ****         1.3009  -0.0535   2.0006 H              1 S1                 0.0000
     28 ****         2.7783   0.3777   4.2712 H              1 S1                 0.0000
     29 ****         3.1359  -0.9432   3.1601 H              1 S1                 0.0000
     30 ****         4.4890   1.7536   3.3096 H              1 S1                 0.0000
     31 ****         5.2575   0.1733   3.1677 H              1 S1                 0.0000
     32 ****         4.7202   0.0344   0.8375 H              1 S1                 0.0000
     33 ****         4.8566   1.7897   0.9848 H              1 S1                 0.0000
     34 ****        -1.1381  -1.9999  -1.2488 H              1 S1                 0.0000
     35 ****        -0.1008  -0.8514  -3.1841 H              1 S1                 0.0000
     36 ****        -1.5941   0.0257  -3.4986 H              1 S1                 0.0000
     37 ****        -1.5354  -1.7236  -3.6957 H              1 S1                 0.0000
     38 ****        -3.8497   0.6036  -2.2165 H              1 S1                 0.0000
     39 ****        -6.2418  -0.6347  -1.7845 H              1 S1                 0.0000
     40 ****        -5.4892  -3.1503  -0.8962 H              1 S1                 0.0000
     41 ****         0.5922  -0.5044   0.1320 LP             1 S1                 0.0000
     42 ****         2.7376   1.8262  -2.0280 LP             1 S1                 0.0000
     43 ****         4.1262   1.5472  -1.0309 LP             1 S1                 0.0000
     44 ****        -3.0341  -3.2799  -0.8455 LP             1 S1                 0.0000
@<TRIPOS>BOND
    1    1    2 1     
    2    1   19 1     
    3    1   20 1     
    4    1   21 1     
    5    2    3 1     
    6    2   12 1     
    7    2   22 1     
    8    3    4 1     
    9    3   23 1     
   10    4    5 1     
   11    4   24 1     
   12    4   25 1     
   13    5    6 2     
   14    5    7 am    
   15    7   11 1     
   16    7    8 1     
   17    8    9 1     
   18    8   26 1     
   19    8   27 1     
   20    9   10 1     
   21    9   28 1     
   22    9   29 1     
   23   10   11 1     
   24   10   30 1     
   25   10   31 1     
   26   11   32 1     
   27   11   33 1     
   28   12   13 1     
   29   12   14 1     
   30   12   34 1     
   31   13   35 1     
   32   13   36 1     
   33   13   37 1     
   34   14   18 1     
   35   14   15 1     
   36   15   16 2     
   37   15   38 1     
   38   16   17 1     
   39   16   39 1     
   40   17   18 2     
   41   17   40 1     
   42    3   41 1     
   43    6   42 1     
   44    6   43 1     
   45   18   44 1     
@<TRIPOS>SUBSTRUCTURE
      1 S1             1
@<TRIPOS>SET
LONE_PAIRS      STATIC     ATOMS    <user>   **** ""
4 41 42 43 44
DONOR_HYDROGENS      STATIC     ATOMS    <user>   **** ""
1 23
ATOM$BLUE        STATIC     ATOMS    COLORGROUP SYSTEM
4 41 42 43 44
ATOM$RED        STATIC     ATOMS    COLORGROUP SYSTEM
1 23
