AV-unprocessed.smi:1|AV-procd|sdf|15|dock1
  -GOLD-   2262015113D 1   1.00000     0.00000
 Structure written by MMmdl.
 57 62  0  0  0  0  0  0  0  0  1 V2000
  154.1178  139.7112  159.0910 O   0  0  0  0  0  0  0  0  0  0  0  0
  153.5671  139.8332  160.1886 C   0  0  0  0  0  0  0  0  0  0  0  0
  153.2611  138.8531  161.1235 N   0  0  0  0  0  0  0  0  0  0  0  0
  153.4406  137.5996  160.8366 C   0  0  0  0  0  0  0  0  0  0  0  0
  153.9252  136.9492  159.6943 N   0  0  0  0  0  0  0  0  0  0  0  0
  154.0746  135.5624  159.5382 C   0  0  0  0  0  0  0  0  0  0  0  0
  153.7765  134.6724  160.4466 N   0  0  0  0  0  0  0  0  0  0  0  0
  153.2864  135.2661  161.6021 C   0  0  0  0  0  0  0  0  0  0  0  0
  153.0950  136.6038  161.8736 C   0  0  0  0  0  0  0  0  0  0  0  0
  152.5827  136.7813  163.1548 N   0  0  0  0  0  0  0  0  0  0  0  0
  152.4890  135.5333  163.6063 C   0  0  0  0  0  0  0  0  0  0  0  0
  152.8855  134.5783  162.7454 N   0  0  0  0  0  0  0  0  0  0  0  0
  152.8962  133.1081  162.9975 C   0  0  2  0  0  0  0  0  0  0  0  0
  152.1954  132.4739  161.9765 O   0  0  0  0  0  0  0  0  0  0  0  0
  151.5192  131.3238  162.4814 C   0  0  2  0  0  0  0  0  0  0  0  0
  150.0496  131.4163  162.0522 C   0  0  0  0  0  0  0  0  0  0  0  0
  149.2695  130.5395  162.8482 O   0  0  0  0  0  0  0  0  0  0  0  0
  148.0970  130.0684  162.3817 C   0  0  0  0  0  0  0  0  0  0  0  0
  147.6752  130.2937  161.2453 O   0  0  0  0  0  0  0  0  0  0  0  0
  147.3644  129.2414  163.3837 C   0  0  0  0  0  0  0  0  0  0  0  0
  147.8744  129.1325  164.6985 C   0  0  0  0  0  0  0  0  0  0  0  0
  147.2024  128.3621  165.6673 C   0  0  0  0  0  0  0  0  0  0  0  0
  146.0126  127.6897  165.3328 C   0  0  0  0  0  0  0  0  0  0  0  0
  145.4959  127.7884  164.0277 C   0  0  0  0  0  0  0  0  0  0  0  0
  146.1662  128.5591  163.0577 C   0  0  0  0  0  0  0  0  0  0  0  0
  151.7076  131.3409  164.0052 C   0  0  1  0  0  0  0  0  0  0  0  0
  152.7316  130.4350  164.3800 O   0  0  0  0  0  0  0  0  0  0  0  0
  153.6925  131.1686  165.5331 S   0  0  0  0  0  0  0  0  0  0  0  0
  153.3057  130.6508  166.8543 O   0  0  0  0  0  0  0  0  0  0  0  0
  155.0823  131.1537  165.0516 O   0  0  0  0  0  0  0  0  0  0  0  0
  153.1023  132.7256  165.3891 O   0  0  0  0  0  0  0  0  0  0  0  0
  152.1896  132.7617  164.3062 C   0  0  1  0  0  0  0  0  0  0  0  0
  153.1707  141.2060  160.6243 C   0  0  0  0  0  0  0  0  0  0  0  0
  153.0539  142.2428  159.6745 C   0  0  0  0  0  0  0  0  0  0  0  0
  152.6910  143.5402  160.0863 C   0  0  0  0  0  0  0  0  0  0  0  0
  152.4459  143.8046  161.4477 C   0  0  0  0  0  0  0  0  0  0  0  0
  152.5635  142.7717  162.3981 C   0  0  0  0  0  0  0  0  0  0  0  0
  152.9267  141.4740  161.9878 C   0  0  0  0  0  0  0  0  0  0  0  0
  154.4733  135.2656  158.5671 H   0  0  0  0  0  0  0  0  0  0  0  0
  152.1204  135.3066  164.5960 H   0  0  0  0  0  0  0  0  0  0  0  0
  153.9444  132.8061  162.9711 H   0  0  0  0  0  0  0  0  0  0  0  0
  151.9730  130.4328  162.0449 H   0  0  0  0  0  0  0  0  0  0  0  0
  149.6877  132.4415  162.1432 H   0  0  0  0  0  0  0  0  0  0  0  0
  149.9524  131.1258  161.0052 H   0  0  0  0  0  0  0  0  0  0  0  0
  148.7857  129.6407  164.9791 H   0  0  0  0  0  0  0  0  0  0  0  0
  147.6004  128.2878  166.6686 H   0  0  0  0  0  0  0  0  0  0  0  0
  145.4977  127.0991  166.0760 H   0  0  0  0  0  0  0  0  0  0  0  0
  144.5828  127.2726  163.7694 H   0  0  0  0  0  0  0  0  0  0  0  0
  145.7426  128.6130  162.0654 H   0  0  0  0  0  0  0  0  0  0  0  0
  150.7995  131.0887  164.5543 H   0  0  0  0  0  0  0  0  0  0  0  0
  151.3511  133.4343  164.4891 H   0  0  0  0  0  0  0  0  0  0  0  0
  153.2420  142.0479  158.6284 H   0  0  0  0  0  0  0  0  0  0  0  0
  152.6027  144.3328  159.3582 H   0  0  0  0  0  0  0  0  0  0  0  0
  152.1689  144.7997  161.7632 H   0  0  0  0  0  0  0  0  0  0  0  0
  152.3761  142.9750  163.4420 H   0  0  0  0  0  0  0  0  0  0  0  0
  153.0182  140.6874  162.7230 H   0  0  0  0  0  0  0  0  0  0  0  0
  154.1943  137.5325  158.9147 H   0  0  0  0  0  0  0  0  0  0  0  0
  1  2  2  0  0  0  0
  2  3  1  0  0  0  0
  2 33  1  0  0  0  0
  3  4  2  0  0  0  0
  4  9  1  0  0  0  0
  4  5  1  0  0  0  0
  5  6  1  0  0  0  0
  5 57  1  0  0  0  0
  6  7  2  0  0  0  0
  6 39  1  0  0  0  0
  7  8  1  0  0  0  0
  8 12  1  0  0  0  0
  8  9  2  0  0  0  0
  9 10  1  0  0  0  0
 10 11  2  0  0  0  0
 11 12  1  0  0  0  0
 11 40  1  0  0  0  0
 12 13  1  0  0  0  0
 13 32  1  0  0  0  0
 13 14  1  0  0  0  0
 13 41  1  0  0  0  0
 14 15  1  0  0  0  0
 15 16  1  0  0  0  0
 15 26  1  0  0  0  0
 15 42  1  0  0  0  0
 16 17  1  0  0  0  0
 16 43  1  0  0  0  0
 16 44  1  0  0  0  0
 17 18  1  0  0  0  0
 18 19  2  0  0  0  0
 18 20  1  0  0  0  0
 20 25  1  0  0  0  0
 20 21  2  0  0  0  0
 21 22  1  0  0  0  0
 21 45  1  0  0  0  0
 22 23  2  0  0  0  0
 22 46  1  0  0  0  0
 23 24  1  0  0  0  0
 23 47  1  0  0  0  0
 24 25  2  0  0  0  0
 24 48  1  0  0  0  0
 25 49  1  0  0  0  0
 26 32  1  0  0  0  0
 26 27  1  0  0  0  0
 26 50  1  0  0  0  0
 27 28  1  0  0  0  0
 28 29  2  0  0  0  0
 28 30  2  0  0  0  0
 28 31  1  0  0  0  0
 31 32  1  0  0  0  0
 32 51  1  0  0  0  0
 33 38  1  0  0  0  0
 33 34  2  0  0  0  0
 34 35  1  0  0  0  0
 34 52  1  0  0  0  0
 35 36  2  0  0  0  0
 35 53  1  0  0  0  0
 36 37  1  0  0  0  0
 36 54  1  0  0  0  0
 37 38  2  0  0  0  0
 37 55  1  0  0  0  0
 38 56  1  0  0  0  0
M  END
> <s_m_source_file>
AV-unprocessed.smi

> <i_m_source_file_index>
1

> <i_lp_mmshare_version>
43012

> <i_f3d_flags>
0

> <s_epik_input>
W2NIXTFbY0hdW2NIXVtjSF1bY0hdYzFDKD1PKVtOSF1jKG5bY0hdbjIpYyhjMjMpbltjSF1uM1tDQEBIXShbQ0BIXShbQ0BIXTQ1KU9TKE81KSg9Tyk9TylPW0NASF00W0NIMl1PQyg9TyljNltjSF1bY0hdW2NIXVtjSF1bY0hdNg==

> <s_epik_cmdline>
J2VwaWtfcHl0aG9uJywgJy1waCcsICc3LjAnLCAnLXRuJywgJzgnLCAnLW1hJywgJzIwMCcsICctbWV0YWxfYmluZGluZycsICctaW1hZScsICc8aW5maWxlLm1hZT4nLCAnLW9tYWUnLCAnPG91dGZpbGUubWFlPic=

> <r_epik_Ionization_Penalty>
0.122545

> <r_epik_Ionization_Penalty_Charging>
0.122545

> <r_epik_Ionization_Penalty_Neutral>
7.8935e-16

> <r_epik_State_Penalty>
2.69178

> <r_epik_Charging_Adjusted_Penalty>
2.81433

> <i_epik_Tot_Q>
0

> <i_epik_Tot_abs_Q>
0

> <r_epik_Metal_State_Penalty>
3.02665

> <b_epik_Metal_Only>
0

> <s_epik_Chemistry_Notes>
This compound has an ester and may undergo hydrolysis at high or low pH. This compound contains an acetal/aminal-like group ( X-CH(R)-Y where X, Y are N, S, or O) that may be acid/base labile, releasing an aldehyde.

> <s_lp_Force_Field>
OPLS_2005

> <r_lp_Energy>
60.8199

> <b_lp_Chiralities_Consistent>
1

> <s_lp_Variant>
AV-unprocessed.smi:1-15

> <Gold.Version>
5.8.1

> <Gold.Id.Protein>
6NUR|6NUR_protein|mol2

> <Gold.PLP.Fitness>
66.4915

> <Gold.PLP.PLP>
-64.4636

> <Gold.PLP.part.hbond>
-1.0000

> <Gold.PLP.part.metal>
0.0000

> <Gold.PLP.part.buried>
-8.7520

> <Gold.PLP.part.nonpolar>
-55.6551

> <Gold.PLP.part.repulsive>
0.3292

> <Gold.PLP.ligand.clash>
0.0000

> <Gold.PLP.ligand.torsion>
0.5629

> <Gold.PLP.Chemscore.Hbond>
1.0000

> <Gold.PLP.Chemscore.CHOScore>
0.0000

> <Gold.PLP.Chemscore.Metal>
0.0000

> <Gold.Chemscore.Hbonds>
donor molecule, donor type, donor heavy atom, donor atom, acceptor molecule, acceptor atom, score
      P1  H  7997  8010       L1     1  1.00

> <Gold.PLP.Chemscore.Internal.Correction>
0.1536

> <Gold.Rescore>
     Score         DG    S(hbond)    S(metal)    S(lipo)     H(rot)  DE(clash)    DE(int)     intcor
     21.04     -21.57       1.00        0.00     155.72       2.13       0.13       0.40       ----

> <Gold.Chemscore.Fitness>
21.0405

> <Gold.Chemscore.DG>
-21.5706

> <Gold.Chemscore.ZeroCoef>
-5.4800

> <Gold.Chemscore.Hbond>
0.9978

> <Gold.Chemscore.Metal>
0.0000

> <Gold.Chemscore.Lipo>
155.7194

> <Gold.Chemscore.Internal_Hbond>
0.0000

> <Gold.Chemscore.DEClash>
0.1266

> <Gold.Chemscore.DEInternal>
0.4034

> <Gold.Chemscore.Rot>
2.1333

> <Gold.Chemscore.Internal.Correction>
   9.000000E+99

> <Gold.Chemscore.Hbonds>
donor molecule, donor type, donor heavy atom, donor atom, acceptor molecule, acceptor atom, score
      P1  H  7997  8010       L1     1  0.95

> <Gold.Chemscore.Hbond.Weighted>
-3.3327

> <Gold.Chemscore.Metal.Weighted>
-0.0000

> <Gold.Chemscore.Lipo.Weighted>
-18.2192

> <Gold.Chemscore.Internal_Hbond.Weighted>
0.0000

> <Gold.Chemscore.DEClash.Weighted>
0.1266

> <Gold.Chemscore.DEInternal.Weighted>
0.4034

> <Gold.Chemscore.Rot.Weighted>
5.4614

> <Gold.Chemscore.Internal.Correction.Weighted>
   9.000000E+99

> <Gold.Protein.RotatedTorsions>
[ 6907 6896 6895 6894 ] final  162.42 input  -60.11 | X-H torsion
[ 7974 7965 7964 7962 ] final   79.11 input  175.53 | X-H torsion
[ 8008 7997 7996 7995 ] final    7.26 input   59.86 | X-H torsion
[ 10167 10162 10161 10158 ] final  -43.91 input  -65.29 | X-H torsion
[ 10718 10713 10712 10709 ] final  -26.65 input   66.30 | X-H torsion
[ 10763 10752 10751 10750 ] final  -28.80 input  -60.55 | X-H torsion
[ 11005 11000 10999 10996 ] final  178.92 input  -57.11 | X-H torsion

> <Gold.Protein.ActiveResidues>
 VAL166  LYS551  ARG553  GLY616  TRP617  ASP618  TYR619  PRO620  LYS621  CYS622 
 ASP623  PHE694  ASN695  SER759  ASP760  ASP761  ALA762  ILE779  LEU786  VAL792 
 PHE793  MET794  SER795  GLU796  ALA797  LYS798  CYS799  TRP800  GLU811  SER814 

> <Gold.Protein.RotatedAtoms>
  151.9407  133.3637  159.3963 H   0  0  0  0  0  0  0  0  0  0  0  0  # atno 6907 bound_to 6896
  150.6999  134.4442  159.5315 H   0  0  0  0  0  0  0  0  0  0  0  0  # atno 6908 bound_to 6896
  152.2099  134.8511  160.0549 H   0  0  0  0  0  0  0  0  0  0  0  0  # atno 6909 bound_to 6896
  145.6684  139.2490  143.1882 H   0  0  0  0  0  0  0  0  0  0  0  0  # atno 7974 bound_to 7965
  154.7515  140.2768  155.6288 H   0  0  0  0  0  0  0  0  0  0  0  0  # atno 8008 bound_to 7997
  156.2896  140.2677  156.2197 H   0  0  0  0  0  0  0  0  0  0  0  0  # atno 8009 bound_to 7997
  155.0130  140.0372  157.2397 H   0  0  0  0  0  0  0  0  0  0  0  0  # atno 8010 bound_to 7997
  140.6917  143.2958  151.3419 H   0  0  0  0  0  0  0  0  0  0  0  0  # atno 10167 bound_to 10162
  156.4484  130.4479  149.7006 H   0  0  0  0  0  0  0  0  0  0  0  0  # atno 10718 bound_to 10713
  153.7542  135.6924  153.4939 H   0  0  0  0  0  0  0  0  0  0  0  0  # atno 10763 bound_to 10752
  153.1982  135.4446  155.0233 H   0  0  0  0  0  0  0  0  0  0  0  0  # atno 10764 bound_to 10752
  154.8176  135.3406  154.7061 H   0  0  0  0  0  0  0  0  0  0  0  0  # atno 10765 bound_to 10752
  140.4005  134.6782  157.4559 H   0  0  0  0  0  0  0  0  0  0  0  0  # atno 11005 bound_to 11000
  146.1066  140.7479  142.9523 LP  0  0  0  0  0  0  0  0  0  0  0  0  # atno 17320 bound_to 7965
  144.7065  140.3872  143.7114 LP  0  0  0  0  0  0  0  0  0  0  0  0  # atno 17321 bound_to 7965
  139.6326  144.0691  152.2489 LP  0  0  0  0  0  0  0  0  0  0  0  0  # atno 17342 bound_to 10162
  140.0171  144.6181  150.7598 LP  0  0  0  0  0  0  0  0  0  0  0  0  # atno 17343 bound_to 10162
  156.3842  130.7594  151.2590 LP  0  0  0  0  0  0  0  0  0  0  0  0  # atno 17370 bound_to 10713
  157.7504  131.0287  150.4059 LP  0  0  0  0  0  0  0  0  0  0  0  0  # atno 17371 bound_to 10713
  140.0340  134.6364  155.9068 LP  0  0  0  0  0  0  0  0  0  0  0  0  # atno 17394 bound_to 11000
  141.1858  133.6556  156.5215 LP  0  0  0  0  0  0  0  0  0  0  0  0  # atno 17395 bound_to 11000

$$$$
