AV-unprocessed.smi:2244|AV-procd|sdf|9073|dock1
  -GOLD-   2272012273D 1   1.00000     0.00000
 Structure written by MMmdl.
 49 51  0  0  0  0  0  0  0  0  1 V2000
  154.1587  142.9958  159.0677 C   0  0  0  0  0  0  0  0  0  0  0  0
  154.0733  141.6099  159.7459 C   0  0  0  0  0  0  0  0  0  0  0  0
  155.5154  141.0949  159.9344 C   0  0  0  0  0  0  0  0  0  0  0  0
  153.4034  141.8090  161.1216 C   0  0  0  0  0  0  0  0  0  0  0  0
  153.2648  140.5977  158.9148 C   0  0  0  0  0  0  0  0  0  0  0  0
  151.9004  140.7739  158.5931 C   0  0  0  0  0  0  0  0  0  0  0  0
  151.2752  139.7777  157.8242 C   0  0  0  0  0  0  0  0  0  0  0  0
  152.0345  138.6621  157.4171 C   0  0  0  0  0  0  0  0  0  0  0  0
  151.3199  137.7032  156.6404 N   0  0  0  0  0  0  0  0  0  0  0  0
  151.5817  136.4100  156.3531 C   0  0  0  0  0  0  0  0  0  0  0  0
  152.5910  135.8571  156.7870 O   0  0  0  0  0  0  0  0  0  0  0  0
  150.6851  135.7786  155.5775 N   0  0  0  0  0  0  0  0  0  0  0  0
  150.7641  134.3880  155.1434 C   0  0  1  0  0  0  0  0  0  0  0  0
  150.7960  133.4383  156.3520 C   0  0  0  0  0  0  0  0  0  0  0  0
  150.7065  131.9744  155.8930 C   0  0  0  0  0  0  0  0  0  0  0  0
  149.5370  131.7811  155.1046 O   0  0  0  0  0  0  0  0  0  0  0  0
  149.5335  132.5531  153.9074 C   0  0  1  0  0  0  0  0  0  0  0  0
  148.3006  132.1785  153.1090 C   0  0  0  0  0  0  0  0  0  0  0  0
  146.9952  131.8658  153.8022 C   0  0  0  0  0  0  0  0  0  0  0  0
  147.7718  130.7632  153.1240 C   0  0  0  0  0  0  0  0  0  0  0  0
  149.5512  134.0511  154.2638 C   0  0  0  0  0  0  0  0  0  0  0  0
  153.3430  138.5607  157.7646 N   0  0  0  0  0  0  0  0  0  0  0  0
  153.9450  139.5039  158.4941 N   0  0  0  0  0  0  0  0  0  0  0  0
  154.7317  143.6977  159.6746 H   0  0  0  0  0  0  0  0  0  0  0  0
  153.1707  143.4342  158.9217 H   0  0  0  0  0  0  0  0  0  0  0  0
  154.6509  142.9402  158.0961 H   0  0  0  0  0  0  0  0  0  0  0  0
  156.0099  140.9431  158.9741 H   0  0  0  0  0  0  0  0  0  0  0  0
  155.5399  140.1450  160.4694 H   0  0  0  0  0  0  0  0  0  0  0  0
  156.1185  141.8006  160.5065 H   0  0  0  0  0  0  0  0  0  0  0  0
  153.9446  142.5380  161.7258 H   0  0  0  0  0  0  0  0  0  0  0  0
  153.3687  140.8816  161.6943 H   0  0  0  0  0  0  0  0  0  0  0  0
  152.3789  142.1668  161.0140 H   0  0  0  0  0  0  0  0  0  0  0  0
  151.3307  141.6334  158.9105 H   0  0  0  0  0  0  0  0  0  0  0  0
  150.2334  139.8729  157.5545 H   0  0  0  0  0  0  0  0  0  0  0  0
  150.4687  138.0556  156.2277 H   0  0  0  0  0  0  0  0  0  0  0  0
  149.8823  136.3065  155.2645 H   0  0  0  0  0  0  0  0  0  0  0  0
  151.6689  134.2437  154.5497 H   0  0  0  0  0  0  0  0  0  0  0  0
  151.7054  133.5907  156.9340 H   0  0  0  0  0  0  0  0  0  0  0  0
  149.9592  133.6564  157.0172 H   0  0  0  0  0  0  0  0  0  0  0  0
  151.5929  131.6903  155.3242 H   0  0  0  0  0  0  0  0  0  0  0  0
  150.6600  131.3136  156.7587 H   0  0  0  0  0  0  0  0  0  0  0  0
  150.4179  132.3044  153.3176 H   0  0  0  0  0  0  0  0  0  0  0  0
  148.2184  132.7038  152.1594 H   0  0  0  0  0  0  0  0  0  0  0  0
  146.9834  131.8757  154.8901 H   0  0  0  0  0  0  0  0  0  0  0  0
  146.0796  132.2058  153.3228 H   0  0  0  0  0  0  0  0  0  0  0  0
  147.3740  130.3664  152.1925 H   0  0  0  0  0  0  0  0  0  0  0  0
  148.2768  130.0399  153.7609 H   0  0  0  0  0  0  0  0  0  0  0  0
  148.6303  134.3091  154.7897 H   0  0  0  0  0  0  0  0  0  0  0  0
  149.5695  134.6523  153.3538 H   0  0  0  0  0  0  0  0  0  0  0  0
  1  2  1  0  0  0  0
  1 24  1  0  0  0  0
  1 25  1  0  0  0  0
  1 26  1  0  0  0  0
  2  3  1  0  0  0  0
  2  4  1  0  0  0  0
  2  5  1  0  0  0  0
  3 27  1  0  0  0  0
  3 28  1  0  0  0  0
  3 29  1  0  0  0  0
  4 30  1  0  0  0  0
  4 31  1  0  0  0  0
  4 32  1  0  0  0  0
  5 23  1  0  0  0  0
  5  6  2  0  0  0  0
  6  7  1  0  0  0  0
  6 33  1  0  0  0  0
  7  8  2  0  0  0  0
  7 34  1  0  0  0  0
  8  9  1  0  0  0  0
  8 22  1  0  0  0  0
  9 10  1  0  0  0  0
  9 35  1  0  0  0  0
 10 11  2  0  0  0  0
 10 12  1  0  0  0  0
 12 13  1  0  0  0  0
 12 36  1  0  0  0  0
 13 21  1  0  0  0  0
 13 14  1  0  0  0  0
 13 37  1  0  0  0  0
 14 15  1  0  0  0  0
 14 38  1  0  0  0  0
 14 39  1  0  0  0  0
 15 16  1  0  0  0  0
 15 40  1  0  0  0  0
 15 41  1  0  0  0  0
 16 17  1  0  0  0  0
 17 18  1  0  0  0  0
 17 21  1  0  0  0  0
 17 42  1  0  0  0  0
 18 20  1  0  0  0  0
 18 19  1  0  0  0  0
 18 43  1  0  0  0  0
 19 20  1  0  0  0  0
 19 44  1  0  0  0  0
 19 45  1  0  0  0  0
 20 46  1  0  0  0  0
 20 47  1  0  0  0  0
 21 48  1  0  0  0  0
 21 49  1  0  0  0  0
 22 23  2  0  0  0  0
M  END
> <s_m_source_file>
AV-unprocessed.smi

> <i_m_source_file_index>
2244

> <i_lp_mmshare_version>
43012

> <i_f3d_flags>
0

> <s_epik_input>
W0NIM11DKFtDSDNdKShbQ0gzXSljMVtjSF1bY0hdYyhubjEpW05IXUMoPU8pW05IXVtDQEBIXTJbQ0gyXVtDSDJdT1tDQEhdKFtDSDJdMilbQ0hdM1tDSDJdW0NIMl0z

> <s_epik_cmdline>
J2VwaWtfcHl0aG9uJywgJy1waCcsICc3LjAnLCAnLXRuJywgJzgnLCAnLW1hJywgJzIwMCcsICctbWV0YWxfYmluZGluZycsICctaW1hZScsICc8aW5maWxlLm1hZT4nLCAnLW9tYWUnLCAnPG91dGZpbGUubWFlPic=

> <r_lp_tautomer_probability>
1

> <r_epik_Ionization_Penalty>
0.011369

> <r_epik_Ionization_Penalty_Charging>
0

> <r_epik_Ionization_Penalty_Neutral>
0.011369

> <r_epik_State_Penalty>
0.00456331

> <r_epik_Charging_Adjusted_Penalty>
0.00456331

> <i_epik_Tot_Q>
0

> <i_epik_Tot_abs_Q>
0

> <r_epik_Metal_State_Penalty>
-0

> <b_epik_Metal_Only>
0

> <s_lp_Force_Field>
OPLS_2005

> <r_lp_Energy>
27.405

> <b_lp_Chiralities_Consistent>
1

> <s_lp_Variant>
AV-unprocessed.smi:2244-2

> <Gold.Version>
5.8.1

> <Gold.Id.Protein>
6NUR|6NUR_protein|mol2

> <Gold.PLP.Fitness>
42.8393

> <Gold.PLP.PLP>
-36.9944

> <Gold.PLP.part.hbond>
-2.1575

> <Gold.PLP.part.metal>
0.0000

> <Gold.PLP.part.buried>
-5.1391

> <Gold.PLP.part.nonpolar>
-29.4335

> <Gold.PLP.part.repulsive>
0.1093

> <Gold.PLP.ligand.clash>
0.0000

> <Gold.PLP.ligand.torsion>
0.6184

> <Gold.PLP.Chemscore.Hbond>
2.0000

> <Gold.PLP.Chemscore.CHOScore>
0.0000

> <Gold.PLP.Chemscore.Metal>
0.0000

> <Gold.Chemscore.Hbonds>
donor molecule, donor type, donor heavy atom, donor atom, acceptor molecule, acceptor atom, score
      P1  H  7997  8009       L1    23  0.75
      P1  H 10752 10764       L1    11  1.00

> <Gold.PLP.Chemscore.Internal.Correction>
1.0818

> <Gold.Rescore>
     Score         DG    S(hbond)    S(metal)    S(lipo)     H(rot)  DE(clash)    DE(int)     intcor
     17.41     -19.12       1.64        0.00      98.14       1.30       0.19       1.51       ----

> <Gold.Chemscore.Fitness>
17.4082

> <Gold.Chemscore.DG>
-19.1161

> <Gold.Chemscore.ZeroCoef>
-5.4800

> <Gold.Chemscore.Hbond>
1.6414

> <Gold.Chemscore.Metal>
0.0000

> <Gold.Chemscore.Lipo>
98.1399

> <Gold.Chemscore.Internal_Hbond>
0.0000

> <Gold.Chemscore.DEClash>
0.1942

> <Gold.Chemscore.DEInternal>
1.5137

> <Gold.Chemscore.Rot>
1.3002

> <Gold.Chemscore.Internal.Correction>
   9.000000E+99

> <Gold.Chemscore.Hbonds>
donor molecule, donor type, donor heavy atom, donor atom, acceptor molecule, acceptor atom, score
      P1  H  7997  8009       L1    23  0.05
      P1  H 10752 10764       L1    11  0.60

> <Gold.Chemscore.Hbond.Weighted>
-5.4822

> <Gold.Chemscore.Metal.Weighted>
-0.0000

> <Gold.Chemscore.Lipo.Weighted>
-11.4824

> <Gold.Chemscore.Internal_Hbond.Weighted>
0.0000

> <Gold.Chemscore.DEClash.Weighted>
0.1942

> <Gold.Chemscore.DEInternal.Weighted>
1.5137

> <Gold.Chemscore.Rot.Weighted>
3.3284

> <Gold.Chemscore.Internal.Correction.Weighted>
   9.000000E+99

> <Gold.Protein.RotatedTorsions>
[ 6907 6896 6895 6894 ] final  -39.51 input  -60.11 | X-H torsion
[ 7974 7965 7964 7962 ] final -159.75 input  175.53 | X-H torsion
[ 8008 7997 7996 7995 ] final  131.03 input   59.86 | X-H torsion
[ 10167 10162 10161 10158 ] final  172.34 input  -65.29 | X-H torsion
[ 10718 10713 10712 10709 ] final   67.18 input   66.30 | X-H torsion
[ 10763 10752 10751 10750 ] final    1.94 input  -60.55 | X-H torsion
[ 11005 11000 10999 10996 ] final   -8.36 input  -57.11 | X-H torsion

> <Gold.Protein.ActiveResidues>
 VAL166  LYS551  ARG553  GLY616  TRP617  ASP618  TYR619  PRO620  LYS621  CYS622 
 ASP623  PHE694  ASN695  SER759  ASP760  ASP761  ALA762  ILE779  LEU786  VAL792 
 PHE793  MET794  SER795  GLU796  ALA797  LYS798  CYS799  TRP800  GLU811  SER814 

> <Gold.Protein.RotatedAtoms>
  150.9895  134.9233  159.7890 H   0  0  0  0  0  0  0  0  0  0  0  0  # atno 6907 bound_to 6896
  152.5246  134.3301  159.9189 H   0  0  0  0  0  0  0  0  0  0  0  0  # atno 6908 bound_to 6896
  151.3307  133.3960  159.2697 H   0  0  0  0  0  0  0  0  0  0  0  0  # atno 6909 bound_to 6896
  144.7453  140.3640  143.6090 H   0  0  0  0  0  0  0  0  0  0  0  0  # atno 7974 bound_to 7965
  156.2964  140.2581  156.2859 H   0  0  0  0  0  0  0  0  0  0  0  0  # atno 8008 bound_to 7997
  154.9557  140.0393  157.2184 H   0  0  0  0  0  0  0  0  0  0  0  0  # atno 8009 bound_to 7997
  154.7994  140.2825  155.5937 H   0  0  0  0  0  0  0  0  0  0  0  0  # atno 8010 bound_to 7997
  139.5073  144.3385  152.0042 H   0  0  0  0  0  0  0  0  0  0  0  0  # atno 10167 bound_to 10162
  157.6215  130.9307  150.0209 H   0  0  0  0  0  0  0  0  0  0  0  0  # atno 10718 bound_to 10713
  153.3017  135.6956  153.7197 H   0  0  0  0  0  0  0  0  0  0  0  0  # atno 10763 bound_to 10752
  153.6108  135.3445  155.2979 H   0  0  0  0  0  0  0  0  0  0  0  0  # atno 10764 bound_to 10752
  154.8552  135.4363  154.2130 H   0  0  0  0  0  0  0  0  0  0  0  0  # atno 10765 bound_to 10752
  140.7227  133.8815  155.8832 H   0  0  0  0  0  0  0  0  0  0  0  0  # atno 11005 bound_to 11000
  145.7147  139.1694  143.2518 LP  0  0  0  0  0  0  0  0  0  0  0  0  # atno 17320 bound_to 7965
  146.1321  140.7171  142.9407 LP  0  0  0  0  0  0  0  0  0  0  0  0  # atno 17321 bound_to 7965
  140.2823  144.3846  150.6115 LP  0  0  0  0  0  0  0  0  0  0  0  0  # atno 17342 bound_to 10162
  140.6009  143.2167  151.7074 LP  0  0  0  0  0  0  0  0  0  0  0  0  # atno 17343 bound_to 10162
  156.1363  130.3642  149.9652 LP  0  0  0  0  0  0  0  0  0  0  0  0  # atno 17370 bound_to 10713
  156.7702  130.9183  151.3644 LP  0  0  0  0  0  0  0  0  0  0  0  0  # atno 17371 bound_to 10713
  140.9990  134.1176  157.4336 LP  0  0  0  0  0  0  0  0  0  0  0  0  # atno 17394 bound_to 11000
  139.8844  135.0063  156.6368 LP  0  0  0  0  0  0  0  0  0  0  0  0  # atno 17395 bound_to 11000

$$$$
