AV-unprocessed.smi:271|AV-procd|sdf|2052|dock2
  -GOLD-   2262021293D 1   1.00000     0.00000
 Structure written by MMmdl.
 58 60  0  0  0  0  0  0  0  0  1 V2000
  153.0534  142.6213  162.1612 C   0  0  0  0  0  0  0  0  0  0  0  0
  152.7874  143.3602  160.8387 C   0  0  0  0  0  0  0  0  0  0  0  0
  151.9530  144.6254  161.0907 C   0  0  0  0  0  0  0  0  0  0  0  0
  152.1059  142.4579  159.7912 C   0  0  0  0  0  0  0  0  0  0  0  0
  153.0736  141.4868  159.0856 C   0  0  0  0  0  0  0  0  0  0  0  0
  152.7898  140.0819  159.3768 N   0  0  0  0  0  0  0  0  0  0  0  0
  153.2594  139.5646  160.6634 C   0  0  0  0  0  0  0  0  0  0  0  0
  154.4141  138.5613  160.5184 C   0  0  0  0  0  0  0  0  0  0  0  0
  153.9367  137.1906  160.2846 C   0  0  0  0  0  0  0  0  0  0  0  0
  153.5616  136.1117  160.1007 N   0  0  0  0  0  0  0  0  0  0  0  0
  151.5953  139.6402  158.9024 C   0  0  0  0  0  0  0  0  0  0  0  0
  151.0760  138.4699  159.3617 N   0  0  0  0  0  0  0  0  0  0  0  0
  149.8932  138.0348  158.9184 C   0  0  0  0  0  0  0  0  0  0  0  0
  149.0742  138.6039  158.0325 N   0  0  0  0  0  0  0  0  0  0  0  0
  149.5872  139.7785  157.5677 C   0  0  0  0  0  0  0  0  0  0  0  0
  150.8286  140.3644  157.9457 C   0  0  0  0  0  0  0  0  0  0  0  0
  151.0176  141.5556  157.2542 N   0  0  0  0  0  0  0  0  0  0  0  0
  149.9462  141.6718  156.5182 C   0  0  0  0  0  0  0  0  0  0  0  0
  149.0314  140.6522  156.6496 N   0  0  0  0  0  0  0  0  0  0  0  0
  147.7640  140.5322  155.9491 C   0  0  0  0  0  0  0  0  0  0  0  0
  147.4520  141.7420  155.0342 C   0  0  1  0  0  0  0  0  0  0  0  0
  147.8091  141.4145  153.5649 C   0  0  0  0  0  0  0  0  0  0  0  0
  149.1521  140.9888  153.4619 O   0  0  0  0  0  0  0  0  0  0  0  0
  146.0009  142.2700  155.2156 C   0  0  1  0  0  0  0  0  0  0  0  0
  145.6596  142.7854  156.6152 C   0  0  0  0  0  0  0  0  0  0  0  0
  145.0405  144.1610  156.3687 C   0  0  0  0  0  0  0  0  0  0  0  0
  144.5816  144.0965  155.0286 O   0  0  0  0  0  0  0  0  0  0  0  0
  145.5870  143.4225  154.2904 C   0  0  0  0  0  0  0  0  0  0  0  0
  152.1274  142.2475  162.5990 H   0  0  0  0  0  0  0  0  0  0  0  0
  153.5213  143.2824  162.8913 H   0  0  0  0  0  0  0  0  0  0  0  0
  153.7232  141.7732  162.0225 H   0  0  0  0  0  0  0  0  0  0  0  0
  153.7478  143.6826  160.4344 H   0  0  0  0  0  0  0  0  0  0  0  0
  150.9656  144.3775  161.4816 H   0  0  0  0  0  0  0  0  0  0  0  0
  151.8138  145.1946  160.1713 H   0  0  0  0  0  0  0  0  0  0  0  0
  152.4409  145.2832  161.8107 H   0  0  0  0  0  0  0  0  0  0  0  0
  151.2941  141.9028  160.2628 H   0  0  0  0  0  0  0  0  0  0  0  0
  151.6384  143.0917  159.0366 H   0  0  0  0  0  0  0  0  0  0  0  0
  153.0551  141.6643  158.0111 H   0  0  0  0  0  0  0  0  0  0  0  0
  154.0977  141.6890  159.3979 H   0  0  0  0  0  0  0  0  0  0  0  0
  153.5960  140.4021  161.2754 H   0  0  0  0  0  0  0  0  0  0  0  0
  152.4303  139.1079  161.2056 H   0  0  0  0  0  0  0  0  0  0  0  0
  155.0722  138.8230  159.6905 H   0  0  0  0  0  0  0  0  0  0  0  0
  155.0221  138.5506  161.4231 H   0  0  0  0  0  0  0  0  0  0  0  0
  149.5539  137.0977  159.3346 H   0  0  0  0  0  0  0  0  0  0  0  0
  149.7901  142.5116  155.8565 H   0  0  0  0  0  0  0  0  0  0  0  0
  147.7988  139.6118  155.3654 H   0  0  0  0  0  0  0  0  0  0  0  0
  146.9676  140.3989  156.6820 H   0  0  0  0  0  0  0  0  0  0  0  0
  148.1063  142.5579  155.3460 H   0  0  0  0  0  0  0  0  0  0  0  0
  147.1639  140.6307  153.1676 H   0  0  0  0  0  0  0  0  0  0  0  0
  147.6888  142.2823  152.9181 H   0  0  0  0  0  0  0  0  0  0  0  0
  149.1851  140.2301  152.8992 H   0  0  0  0  0  0  0  0  0  0  0  0
  145.3052  141.4506  155.0326 H   0  0  0  0  0  0  0  0  0  0  0  0
  144.9303  142.1229  157.0833 H   0  0  0  0  0  0  0  0  0  0  0  0
  146.5142  142.8442  157.2888 H   0  0  0  0  0  0  0  0  0  0  0  0
  144.2304  144.3897  157.0616 H   0  0  0  0  0  0  0  0  0  0  0  0
  145.7951  144.9446  156.4541 H   0  0  0  0  0  0  0  0  0  0  0  0
  146.4042  144.1177  154.0987 H   0  0  0  0  0  0  0  0  0  0  0  0
  145.2073  143.0743  153.3301 H   0  0  0  0  0  0  0  0  0  0  0  0
  1  2  1  0  0  0  0
  1 29  1  0  0  0  0
  1 30  1  0  0  0  0
  1 31  1  0  0  0  0
  2  3  1  0  0  0  0
  2  4  1  0  0  0  0
  2 32  1  0  0  0  0
  3 33  1  0  0  0  0
  3 34  1  0  0  0  0
  3 35  1  0  0  0  0
  4  5  1  0  0  0  0
  4 36  1  0  0  0  0
  4 37  1  0  0  0  0
  5  6  1  0  0  0  0
  5 38  1  0  0  0  0
  5 39  1  0  0  0  0
  6  7  1  0  0  0  0
  6 11  1  0  0  0  0
  7  8  1  0  0  0  0
  7 40  1  0  0  0  0
  7 41  1  0  0  0  0
  8  9  1  0  0  0  0
  8 42  1  0  0  0  0
  8 43  1  0  0  0  0
  9 10  3  0  0  0  0
 11 16  1  0  0  0  0
 11 12  2  0  0  0  0
 12 13  1  0  0  0  0
 13 14  2  0  0  0  0
 13 44  1  0  0  0  0
 14 15  1  0  0  0  0
 15 19  1  0  0  0  0
 15 16  2  0  0  0  0
 16 17  1  0  0  0  0
 17 18  2  0  0  0  0
 18 19  1  0  0  0  0
 18 45  1  0  0  0  0
 19 20  1  0  0  0  0
 20 21  1  0  0  0  0
 20 46  1  0  0  0  0
 20 47  1  0  0  0  0
 21 22  1  0  0  0  0
 21 24  1  0  0  0  0
 21 48  1  0  0  0  0
 22 23  1  0  0  0  0
 22 49  1  0  0  0  0
 22 50  1  0  0  0  0
 23 51  1  0  0  0  0
 24 28  1  0  0  0  0
 24 25  1  0  0  0  0
 24 52  1  0  0  0  0
 25 26  1  0  0  0  0
 25 53  1  0  0  0  0
 25 54  1  0  0  0  0
 26 27  1  0  0  0  0
 26 55  1  0  0  0  0
 26 56  1  0  0  0  0
 27 28  1  0  0  0  0
 28 57  1  0  0  0  0
 28 58  1  0  0  0  0
M  END
> <s_m_source_file>
AV-unprocessed.smi

> <i_m_source_file_index>
271

> <i_lp_mmshare_version>
43012

> <i_f3d_flags>
0

> <s_epik_input>
W0NIM11bQ0hdKFtDSDNdKVtDSDJdW0NIMl1OKFtDSDJdW0NIMl1DI04pYyhuW2NIXW4xKWMoYzEyKW5bY0hdbjJbQ0gyXVtDQEhdKFtDSDJdW09IXSlbQ0BASF0zW0NIMl1bQ0gyXU9bQ0gyXTM=

> <s_epik_cmdline>
J2VwaWtfcHl0aG9uJywgJy1waCcsICc3LjAnLCAnLXRuJywgJzgnLCAnLW1hJywgJzIwMCcsICctbWV0YWxfYmluZGluZycsICctaW1hZScsICc8aW5maWxlLm1hZT4nLCAnLW9tYWUnLCAnPG91dGZpbGUubWFlPic=

> <r_lp_tautomer_probability>
1

> <r_epik_Ionization_Penalty>
0.000825874

> <r_epik_Ionization_Penalty_Charging>
0

> <r_epik_Ionization_Penalty_Neutral>
0.000825874

> <r_epik_State_Penalty>
0.000396768

> <r_epik_Charging_Adjusted_Penalty>
0.000396768

> <i_epik_Tot_Q>
0

> <i_epik_Tot_abs_Q>
0

> <r_epik_Metal_State_Penalty>
-0

> <b_epik_Metal_Only>
0

> <s_lp_Force_Field>
OPLS_2005

> <r_lp_Energy>
37.4576

> <b_lp_Chiralities_Consistent>
1

> <s_lp_Variant>
AV-unprocessed.smi:271-4

> <Gold.Version>
5.8.1

> <Gold.Id.Protein>
6NUR|6NUR_protein|mol2

> <Gold.PLP.Fitness>
53.6356

> <Gold.PLP.PLP>
-45.9114

> <Gold.PLP.part.hbond>
-3.8313

> <Gold.PLP.part.metal>
0.0000

> <Gold.PLP.part.buried>
-8.2328

> <Gold.PLP.part.nonpolar>
-34.0378

> <Gold.PLP.part.repulsive>
0.1976

> <Gold.PLP.ligand.clash>
0.0000

> <Gold.PLP.ligand.torsion>
2.6325

> <Gold.PLP.Chemscore.Hbond>
2.8025

> <Gold.PLP.Chemscore.CHOScore>
1.0000

> <Gold.PLP.Chemscore.Metal>
0.0000

> <Gold.Chemscore.Hbonds>
donor molecule, donor type, donor heavy atom, donor atom, acceptor molecule, acceptor atom, score
      L1  H    23    51       P1  7957  0.64
      P1  H  6896  6908       L1    10  1.00
      P1  H  8011  8017       L1    23  0.90
      L1  C    18    45       P1  8028  1.00

> <Gold.PLP.Chemscore.Internal.Correction>
1.5819

> <Gold.Rescore>
     Score         DG    S(hbond)    S(metal)    S(lipo)     H(rot)  DE(clash)    DE(int)     intcor
     10.16     -14.20       1.98        0.00     100.48       3.77       0.06       3.98       ----

> <Gold.Chemscore.Fitness>
10.1570

> <Gold.Chemscore.DG>
-14.1994

> <Gold.Chemscore.ZeroCoef>
-5.4800

> <Gold.Chemscore.Hbond>
1.9791

> <Gold.Chemscore.Metal>
0.0000

> <Gold.Chemscore.Lipo>
100.4791

> <Gold.Chemscore.Internal_Hbond>
0.0000

> <Gold.Chemscore.DEClash>
0.0626

> <Gold.Chemscore.DEInternal>
3.9798

> <Gold.Chemscore.Rot>
3.7683

> <Gold.Chemscore.Internal.Correction>
   9.000000E+99

> <Gold.Chemscore.Hbonds>
donor molecule, donor type, donor heavy atom, donor atom, acceptor molecule, acceptor atom, score
      L1  H    23    51       P1  7957  0.64
      P1  H  6896  6908       L1    10  1.00
      P1  H  8011  8017       L1    23  0.07

> <Gold.Chemscore.Hbond.Weighted>
-6.6102

> <Gold.Chemscore.Metal.Weighted>
-0.0000

> <Gold.Chemscore.Lipo.Weighted>
-11.7561

> <Gold.Chemscore.Internal_Hbond.Weighted>
0.0000

> <Gold.Chemscore.DEClash.Weighted>
0.0626

> <Gold.Chemscore.DEInternal.Weighted>
3.9798

> <Gold.Chemscore.Rot.Weighted>
9.6468

> <Gold.Chemscore.Internal.Correction.Weighted>
   9.000000E+99

> <Gold.Protein.RotatedTorsions>
[ 6907 6896 6895 6894 ] final  -71.09 input  -60.11 | X-H torsion
[ 7974 7965 7964 7962 ] final -122.27 input  175.53 | X-H torsion
[ 8008 7997 7996 7995 ] final   80.22 input   59.86 | X-H torsion
[ 10167 10162 10161 10158 ] final   92.81 input  -65.29 | X-H torsion
[ 10718 10713 10712 10709 ] final  176.31 input   66.30 | X-H torsion
[ 10763 10752 10751 10750 ] final   46.84 input  -60.55 | X-H torsion
[ 11005 11000 10999 10996 ] final  -21.40 input  -57.11 | X-H torsion

> <Gold.Protein.ActiveResidues>
 VAL166  LYS551  ARG553  GLY616  TRP617  ASP618  TYR619  PRO620  LYS621  CYS622 
 ASP623  PHE694  ASN695  SER759  ASP760  ASP761  ALA762  ILE779  LEU786  VAL792 
 PHE793  MET794  SER795  GLU796  ALA797  LYS798  CYS799  TRP800  GLU811  SER814 

> <Gold.Protein.RotatedAtoms>
  150.7228  134.5359  159.5722 H   0  0  0  0  0  0  0  0  0  0  0  0  # atno 6907 bound_to 6896
  152.2881  134.7750  160.0392 H   0  0  0  0  0  0  0  0  0  0  0  0  # atno 6908 bound_to 6896
  151.8373  133.3382  159.3668 H   0  0  0  0  0  0  0  0  0  0  0  0  # atno 6909 bound_to 6896
  145.0313  140.8070  143.4322 H   0  0  0  0  0  0  0  0  0  0  0  0  # atno 7974 bound_to 7965
  155.8804  140.3444  155.5884 H   0  0  0  0  0  0  0  0  0  0  0  0  # atno 8008 bound_to 7997
  155.7726  140.0847  157.2119 H   0  0  0  0  0  0  0  0  0  0  0  0  # atno 8009 bound_to 7997
  154.4024  140.1515  156.2947 H   0  0  0  0  0  0  0  0  0  0  0  0  # atno 8010 bound_to 7997
  139.8240  144.6718  150.9483 H   0  0  0  0  0  0  0  0  0  0  0  0  # atno 10167 bound_to 10162
  156.9220  130.9943  151.3003 H   0  0  0  0  0  0  0  0  0  0  0  0  # atno 10718 bound_to 10713
  152.9806  135.5995  154.3665 H   0  0  0  0  0  0  0  0  0  0  0  0  # atno 10763 bound_to 10752
  154.3342  135.2768  155.2458 H   0  0  0  0  0  0  0  0  0  0  0  0  # atno 10764 bound_to 10752
  154.4568  135.5976  153.6284 H   0  0  0  0  0  0  0  0  0  0  0  0  # atno 10765 bound_to 10752
  140.8557  133.7824  156.0017 H   0  0  0  0  0  0  0  0  0  0  0  0  # atno 11005 bound_to 11000
  145.1767  139.2374  143.5314 LP  0  0  0  0  0  0  0  0  0  0  0  0  # atno 17320 bound_to 7965
  146.3499  140.1531  142.8592 LP  0  0  0  0  0  0  0  0  0  0  0  0  # atno 17321 bound_to 7965
  140.7811  143.4064  151.1064 LP  0  0  0  0  0  0  0  0  0  0  0  0  # atno 17342 bound_to 10162
  139.7722  143.8477  152.3122 LP  0  0  0  0  0  0  0  0  0  0  0  0  # atno 17343 bound_to 10162
  157.5902  130.8438  149.8647 LP  0  0  0  0  0  0  0  0  0  0  0  0  # atno 17370 bound_to 10713
  156.0486  130.3722  150.1255 LP  0  0  0  0  0  0  0  0  0  0  0  0  # atno 17371 bound_to 10713
  140.8739  134.2693  157.5177 LP  0  0  0  0  0  0  0  0  0  0  0  0  # atno 17394 bound_to 11000
  139.8705  134.9581  156.4290 LP  0  0  0  0  0  0  0  0  0  0  0  0  # atno 17395 bound_to 11000

$$$$
