AV-unprocessed.smi:2220|AV-procd|sdf|8979|dock1
  -GOLD-   2272012193D 1   1.00000     0.00000
 Structure written by MMmdl.
 38 39  0  0  0  0  0  0  0  0  1 V2000
  154.7623  134.2512  161.5731 C   0  0  0  0  0  0  0  0  0  0  0  0
  154.4508  135.2831  162.5424 N   0  0  0  0  0  0  0  0  0  0  0  0
  154.6029  135.2059  163.8716 C   0  0  0  0  0  0  0  0  0  0  0  0
  154.2392  136.2970  164.5320 N   0  0  0  0  0  0  0  0  0  0  0  0
  153.8106  137.1627  163.5297 C   0  0  0  0  0  0  0  0  0  0  0  0
  153.9344  136.5540  162.3000 C   0  0  0  0  0  0  0  0  0  0  0  0
  153.6122  137.0815  160.9384 C   0  0  0  0  0  0  0  0  0  0  0  0
  154.4683  138.2965  160.5458 C   0  0  0  0  0  0  0  0  0  0  0  0
  153.6736  139.5179  160.4964 N   0  0  0  0  0  0  0  0  0  0  0  0
  153.1742  140.0689  159.3791 C   0  0  0  0  0  0  0  0  0  0  0  0
  153.3371  139.5857  158.2582 O   0  0  0  0  0  0  0  0  0  0  0  0
  152.3707  141.3647  159.5543 C   0  0  0  0  0  0  0  0  0  0  0  0
  151.8479  141.8780  158.1963 C   0  0  0  0  0  0  0  0  0  0  0  0
  151.0387  143.1738  158.3671 C   0  0  0  0  0  0  0  0  0  0  0  0
  151.8588  144.2573  159.0878 C   0  0  0  0  0  0  0  0  0  0  0  0
  152.8698  144.6399  158.3060 F   0  0  0  0  0  0  0  0  0  0  0  0
  151.0819  145.3173  159.3104 F   0  0  0  0  0  0  0  0  0  0  0  0
  152.4152  143.7503  160.4294 C   0  0  0  0  0  0  0  0  0  0  0  0
  153.2174  142.4513  160.2496 C   0  0  0  0  0  0  0  0  0  0  0  0
  155.0595  133.3333  162.0813 H   0  0  0  0  0  0  0  0  0  0  0  0
  155.5807  134.5810  160.9334 H   0  0  0  0  0  0  0  0  0  0  0  0
  153.8863  134.0437  160.9583 H   0  0  0  0  0  0  0  0  0  0  0  0
  154.9903  134.3287  164.3689 H   0  0  0  0  0  0  0  0  0  0  0  0
  153.4495  138.1525  163.7673 H   0  0  0  0  0  0  0  0  0  0  0  0
  153.7364  136.2896  160.1993 H   0  0  0  0  0  0  0  0  0  0  0  0
  152.5564  137.3530  160.9066 H   0  0  0  0  0  0  0  0  0  0  0  0
  155.3014  138.4173  161.2405 H   0  0  0  0  0  0  0  0  0  0  0  0
  154.9077  138.1429  159.5604 H   0  0  0  0  0  0  0  0  0  0  0  0
  153.4911  139.9794  161.3757 H   0  0  0  0  0  0  0  0  0  0  0  0
  151.5095  141.1490  160.1894 H   0  0  0  0  0  0  0  0  0  0  0  0
  152.6810  142.0617  157.5162 H   0  0  0  0  0  0  0  0  0  0  0  0
  151.2243  141.1194  157.7213 H   0  0  0  0  0  0  0  0  0  0  0  0
  150.7080  143.5381  157.3940 H   0  0  0  0  0  0  0  0  0  0  0  0
  150.1351  142.9599  158.9395 H   0  0  0  0  0  0  0  0  0  0  0  0
  153.0418  144.5152  160.8891 H   0  0  0  0  0  0  0  0  0  0  0  0
  151.5911  143.5706  161.1212 H   0  0  0  0  0  0  0  0  0  0  0  0
  153.5600  142.0974  161.2230 H   0  0  0  0  0  0  0  0  0  0  0  0
  154.1145  142.6622  159.6655 H   0  0  0  0  0  0  0  0  0  0  0  0
  1  2  1  0  0  0  0
  1 20  1  0  0  0  0
  1 21  1  0  0  0  0
  1 22  1  0  0  0  0
  2  6  1  0  0  0  0
  2  3  1  0  0  0  0
  3  4  2  0  0  0  0
  3 23  1  0  0  0  0
  4  5  1  0  0  0  0
  5  6  2  0  0  0  0
  5 24  1  0  0  0  0
  6  7  1  0  0  0  0
  7  8  1  0  0  0  0
  7 25  1  0  0  0  0
  7 26  1  0  0  0  0
  8  9  1  0  0  0  0
  8 27  1  0  0  0  0
  8 28  1  0  0  0  0
  9 10  1  0  0  0  0
  9 29  1  0  0  0  0
 10 11  2  0  0  0  0
 10 12  1  0  0  0  0
 12 19  1  0  0  0  0
 12 13  1  0  0  0  0
 12 30  1  0  0  0  0
 13 14  1  0  0  0  0
 13 31  1  0  0  0  0
 13 32  1  0  0  0  0
 14 15  1  0  0  0  0
 14 33  1  0  0  0  0
 14 34  1  0  0  0  0
 15 16  1  0  0  0  0
 15 17  1  0  0  0  0
 15 18  1  0  0  0  0
 18 19  1  0  0  0  0
 18 35  1  0  0  0  0
 18 36  1  0  0  0  0
 19 37  1  0  0  0  0
 19 38  1  0  0  0  0
M  END
> <s_m_source_file>
AV-unprocessed.smi

> <i_m_source_file_index>
2220

> <i_lp_mmshare_version>
43012

> <i_f3d_flags>
0

> <s_epik_input>
W0NIM11uMVtjSF1uW2NIXWMxW0NIMl1bQ0gyXVtOSF1DKD1PKVtDSF0oW0NIMl1bQ0gyXTIpW0NIMl1bQ0gyXUMyKEYpRg==

> <s_epik_cmdline>
J2VwaWtfcHl0aG9uJywgJy1waCcsICc3LjAnLCAnLXRuJywgJzgnLCAnLW1hJywgJzIwMCcsICctbWV0YWxfYmluZGluZycsICctaW1hZScsICc8aW5maWxlLm1hZT4nLCAnLW9tYWUnLCAnPG91dGZpbGUubWFlPic=

> <r_lp_tautomer_probability>
1

> <r_epik_Ionization_Penalty>
0.872556

> <r_epik_Ionization_Penalty_Charging>
0.872556

> <r_epik_Ionization_Penalty_Neutral>
1.72153e-08

> <r_epik_State_Penalty>
0.910028

> <r_epik_Charging_Adjusted_Penalty>
1.78258

> <i_epik_Tot_Q>
0

> <i_epik_Tot_abs_Q>
0

> <r_epik_Metal_State_Penalty>
0.360885

> <b_epik_Metal_Only>
0

> <s_lp_Force_Field>
OPLS_2005

> <r_lp_Energy>
9.62652

> <b_lp_Chiralities_Consistent>
1

> <s_lp_Variant>
AV-unprocessed.smi:2220-2

> <Gold.Version>
5.8.1

> <Gold.Id.Protein>
6NUR|6NUR_protein|mol2

> <Gold.PLP.Fitness>
46.9937

> <Gold.PLP.PLP>
-44.9786

> <Gold.PLP.part.hbond>
-1.0000

> <Gold.PLP.part.metal>
0.0000

> <Gold.PLP.part.buried>
-5.8346

> <Gold.PLP.part.nonpolar>
-38.2657

> <Gold.PLP.part.repulsive>
0.1480

> <Gold.PLP.ligand.clash>
0.0000

> <Gold.PLP.ligand.torsion>
0.5198

> <Gold.PLP.Chemscore.Hbond>
1.0000

> <Gold.PLP.Chemscore.CHOScore>
0.0000

> <Gold.PLP.Chemscore.Metal>
0.0000

> <Gold.Chemscore.Hbonds>
donor molecule, donor type, donor heavy atom, donor atom, acceptor molecule, acceptor atom, score
      P1  H  7997  8009       L1    11  1.00

> <Gold.PLP.Chemscore.Internal.Correction>
0.0548

> <Gold.Rescore>
     Score         DG    S(hbond)    S(metal)    S(lipo)     H(rot)  DE(clash)    DE(int)     intcor
     15.06     -15.69       0.99        0.00      98.31       1.80       0.12       0.50       ----

> <Gold.Chemscore.Fitness>
15.0625

> <Gold.Chemscore.DG>
-15.6861

> <Gold.Chemscore.ZeroCoef>
-5.4800

> <Gold.Chemscore.Hbond>
0.9940

> <Gold.Chemscore.Metal>
0.0000

> <Gold.Chemscore.Lipo>
98.3053

> <Gold.Chemscore.Internal_Hbond>
0.0000

> <Gold.Chemscore.DEClash>
0.1199

> <Gold.Chemscore.DEInternal>
0.5037

> <Gold.Chemscore.Rot>
1.8029

> <Gold.Chemscore.Internal.Correction>
   9.000000E+99

> <Gold.Chemscore.Hbonds>
donor molecule, donor type, donor heavy atom, donor atom, acceptor molecule, acceptor atom, score
      P1  H  7997  8009       L1    11  0.99

> <Gold.Chemscore.Hbond.Weighted>
-3.3199

> <Gold.Chemscore.Metal.Weighted>
-0.0000

> <Gold.Chemscore.Lipo.Weighted>
-11.5017

> <Gold.Chemscore.Internal_Hbond.Weighted>
0.0000

> <Gold.Chemscore.DEClash.Weighted>
0.1199

> <Gold.Chemscore.DEInternal.Weighted>
0.5037

> <Gold.Chemscore.Rot.Weighted>
4.6155

> <Gold.Chemscore.Internal.Correction.Weighted>
   9.000000E+99

> <Gold.Protein.RotatedTorsions>
[ 6907 6896 6895 6894 ] final -176.87 input  -60.11 | X-H torsion
[ 7974 7965 7964 7962 ] final -174.31 input  175.53 | X-H torsion
[ 8008 7997 7996 7995 ] final  144.82 input   59.86 | X-H torsion
[ 10167 10162 10161 10158 ] final -143.16 input  -65.29 | X-H torsion
[ 10718 10713 10712 10709 ] final   -9.11 input   66.30 | X-H torsion
[ 10763 10752 10751 10750 ] final  174.12 input  -60.55 | X-H torsion
[ 11005 11000 10999 10996 ] final  143.06 input  -57.11 | X-H torsion

> <Gold.Protein.ActiveResidues>
 VAL166  LYS551  ARG553  GLY616  TRP617  ASP618  TYR619  PRO620  LYS621  CYS622 
 ASP623  PHE694  ASN695  SER759  ASP760  ASP761  ALA762  ILE779  LEU786  VAL792 
 PHE793  MET794  SER795  GLU796  ALA797  LYS798  CYS799  TRP800  GLU811  SER814 

> <Gold.Protein.RotatedAtoms>
  151.6118  133.3346  159.3068 H   0  0  0  0  0  0  0  0  0  0  0  0  # atno 6907 bound_to 6896
  150.8152  134.7334  159.6735 H   0  0  0  0  0  0  0  0  0  0  0  0  # atno 6908 bound_to 6896
  152.4248  134.5893  160.0021 H   0  0  0  0  0  0  0  0  0  0  0  0  # atno 6909 bound_to 6896
  144.7132  140.1490  143.6385 H   0  0  0  0  0  0  0  0  0  0  0  0  # atno 7974 bound_to 7965
  156.2899  140.2225  156.5116 H   0  0  0  0  0  0  0  0  0  0  0  0  # atno 8008 bound_to 7997
  154.7604  140.0474  157.0990 H   0  0  0  0  0  0  0  0  0  0  0  0  # atno 8009 bound_to 7997
  154.9998  140.3100  155.4875 H   0  0  0  0  0  0  0  0  0  0  0  0  # atno 8010 bound_to 7997
  139.8020  143.7820  152.2658 H   0  0  0  0  0  0  0  0  0  0  0  0  # atno 10167 bound_to 10162
  156.6927  130.5070  149.5939 H   0  0  0  0  0  0  0  0  0  0  0  0  # atno 10718 bound_to 10713
  154.4496  135.2764  155.1790 H   0  0  0  0  0  0  0  0  0  0  0  0  # atno 10763 bound_to 10752
  154.3623  135.6127  153.5700 H   0  0  0  0  0  0  0  0  0  0  0  0  # atno 10764 bound_to 10752
  152.9846  135.5837  154.4838 H   0  0  0  0  0  0  0  0  0  0  0  0  # atno 10765 bound_to 10752
  140.0525  134.9248  157.1042 H   0  0  0  0  0  0  0  0  0  0  0  0  # atno 11005 bound_to 11000
  145.9133  139.2500  143.1424 LP  0  0  0  0  0  0  0  0  0  0  0  0  # atno 17320 bound_to 7965
  145.9694  140.8772  143.0170 LP  0  0  0  0  0  0  0  0  0  0  0  0  # atno 17321 bound_to 7965
  139.7943  144.7398  150.9912 LP  0  0  0  0  0  0  0  0  0  0  0  0  # atno 17342 bound_to 10162
  140.7820  143.4410  151.0552 LP  0  0  0  0  0  0  0  0  0  0  0  0  # atno 17343 bound_to 10162
  156.1786  130.6484  151.0924 LP  0  0  0  0  0  0  0  0  0  0  0  0  # atno 17370 bound_to 10713
  157.7003  131.0778  150.6842 LP  0  0  0  0  0  0  0  0  0  0  0  0  # atno 17371 bound_to 10713
  140.3895  134.2199  155.7167 LP  0  0  0  0  0  0  0  0  0  0  0  0  # atno 17394 bound_to 11000
  141.1937  133.8145  157.0789 LP  0  0  0  0  0  0  0  0  0  0  0  0  # atno 17395 bound_to 11000

$$$$
