AV-unprocessed.smi:1976|AV-procd|sdf|7990|dock8
  -GOLD-   2272010173D 1   1.00000     0.00000
 Structure written by MMmdl.
 45 47  0  0  0  0  0  0  0  0  2 V2000
  147.8614  132.9910  155.1025 O   0  0  0  0  0  0  0  0  0  0  0  0
  148.4608  133.8249  154.4227 C   0  0  0  0  0  0  0  0  0  0  0  0
  149.9695  134.0462  154.5996 C   0  0  0  0  0  0  0  0  0  0  0  0
  150.2868  135.1320  155.5420 N   0  0  0  0  0  0  0  0  0  0  0  0
  150.7251  136.3529  154.9925 C   0  0  0  0  0  0  0  0  0  0  0  0
  151.0570  137.4186  155.7464 C   0  0  0  0  0  0  0  0  0  0  0  0
  151.4665  138.7434  155.1219 C   0  0  0  0  0  0  0  0  0  0  0  0
  152.6089  138.6227  154.4458 F   0  0  0  0  0  0  0  0  0  0  0  0
  150.5243  139.1549  154.2747 F   0  0  0  0  0  0  0  0  0  0  0  0
  151.6278  139.6850  156.0521 F   0  0  0  0  0  0  0  0  0  0  0  0
  150.9121  137.2644  157.1806 C   0  0  0  0  0  0  0  0  0  0  0  0
  150.4811  136.1081  157.7217 C   0  0  0  0  0  0  0  0  0  0  0  0
  150.1391  134.9529  156.8889 C   0  0  0  0  0  0  0  0  0  0  0  0
  149.7429  133.8910  157.3705 O   0  0  0  0  0  0  0  0  0  0  0  0
  147.8530  134.5997  153.5126 N   0  0  0  0  0  0  0  0  0  0  0  0
  146.4310  134.5430  153.1927 C   0  0  1  0  0  0  0  0  0  0  0  0
  145.7605  135.9250  153.0712 C   0  0  0  0  0  0  0  0  0  0  0  0
  144.7591  135.7913  151.9065 C   0  0  0  0  0  0  0  0  0  0  0  0
  144.8223  134.3749  151.4979 N   0  3  1  0  0  0  0  0  0  0  0  0
  144.4222  134.0528  150.1108 C   0  0  0  0  0  0  0  0  0  0  0  0
  144.4802  132.5252  149.9070 C   0  0  0  0  0  0  0  0  0  0  0  0
  145.8531  131.9446  150.3054 C   0  0  0  0  0  0  0  0  0  0  0  0
  146.2564  132.3914  151.7243 C   0  0  0  0  0  0  0  0  0  0  0  0
  146.1847  133.9241  151.8182 C   0  0  2  0  0  0  0  0  0  0  0  0
  150.4409  133.1177  154.9281 H   0  0  0  0  0  0  0  0  0  0  0  0
  150.3990  134.2517  153.6182 H   0  0  0  0  0  0  0  0  0  0  0  0
  150.7636  136.3718  153.9130 H   0  0  0  0  0  0  0  0  0  0  0  0
  151.1563  138.0892  157.8337 H   0  0  0  0  0  0  0  0  0  0  0  0
  150.3864  136.0289  158.7948 H   0  0  0  0  0  0  0  0  0  0  0  0
  148.4161  135.2627  152.9998 H   0  0  0  0  0  0  0  0  0  0  0  0
  145.9039  133.9528  153.9455 H   0  0  0  0  0  0  0  0  0  0  0  0
  145.2664  136.2040  154.0024 H   0  0  0  0  0  0  0  0  0  0  0  0
  146.4905  136.7029  152.8420 H   0  0  0  0  0  0  0  0  0  0  0  0
  143.7441  136.0646  152.1963 H   0  0  0  0  0  0  0  0  0  0  0  0
  145.0610  136.4353  151.0789 H   0  0  0  0  0  0  0  0  0  0  0  0
  143.4119  134.4195  149.9260 H   0  0  0  0  0  0  0  0  0  0  0  0
  145.0840  134.5585  149.4058 H   0  0  0  0  0  0  0  0  0  0  0  0
  143.7029  132.0522  150.5090 H   0  0  0  0  0  0  0  0  0  0  0  0
  144.2567  132.2786  148.8685 H   0  0  0  0  0  0  0  0  0  0  0  0
  145.8323  130.8559  150.2463 H   0  0  0  0  0  0  0  0  0  0  0  0
  146.6080  132.2786  149.5924 H   0  0  0  0  0  0  0  0  0  0  0  0
  145.5910  131.9369  152.4596 H   0  0  0  0  0  0  0  0  0  0  0  0
  147.2638  132.0438  151.9556 H   0  0  0  0  0  0  0  0  0  0  0  0
  146.8757  134.3659  151.0960 H   0  0  0  0  0  0  0  0  0  0  0  0
  144.2024  133.8706  152.1156 H   0  0  0  0  0  0  0  0  0  0  0  0
  1  2  2  0  0  0  0
  2  3  1  0  0  0  0
  2 15  1  0  0  0  0
  3  4  1  0  0  0  0
  3 25  1  0  0  0  0
  3 26  1  0  0  0  0
  4 13  1  0  0  0  0
  4  5  1  0  0  0  0
  5  6  2  0  0  0  0
  5 27  1  0  0  0  0
  6  7  1  0  0  0  0
  6 11  1  0  0  0  0
  7  8  1  0  0  0  0
  7  9  1  0  0  0  0
  7 10  1  0  0  0  0
 11 12  2  0  0  0  0
 11 28  1  0  0  0  0
 12 13  1  0  0  0  0
 12 29  1  0  0  0  0
 13 14  2  0  0  0  0
 15 16  1  0  0  0  0
 15 30  1  0  0  0  0
 16 24  1  0  0  0  0
 16 17  1  0  0  0  0
 16 31  1  0  0  0  0
 17 18  1  0  0  0  0
 17 32  1  0  0  0  0
 17 33  1  0  0  0  0
 18 19  1  0  0  0  0
 18 34  1  0  0  0  0
 18 35  1  0  0  0  0
 19 24  1  0  0  0  0
 19 20  1  0  0  0  0
 19 45  1  0  0  0  0
 20 21  1  0  0  0  0
 20 36  1  0  0  0  0
 20 37  1  0  0  0  0
 21 22  1  0  0  0  0
 21 38  1  0  0  0  0
 21 39  1  0  0  0  0
 22 23  1  0  0  0  0
 22 40  1  0  0  0  0
 22 41  1  0  0  0  0
 23 24  1  0  0  0  0
 23 42  1  0  0  0  0
 23 43  1  0  0  0  0
 24 44  1  0  0  0  0
M  CHG  1  19   1
M  END
> <s_m_source_file>
AV-unprocessed.smi

> <i_m_source_file_index>
1976

> <i_lp_mmshare_version>
43012

> <i_f3d_flags>
0

> <s_epik_input>
W0NIMl0xW0NIMl1bQ0gyXVtDSDJdW0NASF0oTjEyKVtDQEBIXShbQ0gyXVtDSDJdMilbTkhdQyg9TylbQ0gyXW4zW2NIXWMoQyhGKShGKUYpW2NIXVtjSF1jMz1P

> <s_epik_cmdline>
J2VwaWtfcHl0aG9uJywgJy1waCcsICc3LjAnLCAnLXRuJywgJzgnLCAnLW1hJywgJzIwMCcsICctbWV0YWxfYmluZGluZycsICctaW1hZScsICc8aW5maWxlLm1hZT4nLCAnLW9tYWUnLCAnPG91dGZpbGUubWFlPic=

> <r_lp_tautomer_probability>
1

> <r_epik_Ionization_Penalty>
0.00171506

> <r_epik_Ionization_Penalty_Charging>
0.00171498

> <r_epik_Ionization_Penalty_Neutral>
7.81737e-08

> <r_epik_State_Penalty>
0.00115937

> <r_epik_Charging_Adjusted_Penalty>
0.00287436

> <i_epik_Tot_Q>
1

> <i_epik_Tot_abs_Q>
1

> <r_epik_Metal_State_Penalty>
-0

> <b_epik_Metal_Only>
0

> <s_lp_Force_Field>
OPLS_2005

> <r_lp_Energy>
46.2407

> <b_lp_Chiralities_Consistent>
1

> <s_lp_Variant>
AV-unprocessed.smi:1976-8

> <Gold.Version>
5.8.1

> <Gold.Id.Protein>
6NUR|6NUR_protein|mol2

> <Gold.PLP.Fitness>
45.0607

> <Gold.PLP.PLP>
-38.5041

> <Gold.PLP.part.hbond>
-1.8796

> <Gold.PLP.part.metal>
0.0000

> <Gold.PLP.part.buried>
-3.4512

> <Gold.PLP.part.nonpolar>
-32.7414

> <Gold.PLP.part.repulsive>
0.0120

> <Gold.PLP.ligand.clash>
0.0000

> <Gold.PLP.ligand.torsion>
0.7518

> <Gold.PLP.Chemscore.Hbond>
1.7638

> <Gold.PLP.Chemscore.CHOScore>
0.9085

> <Gold.PLP.Chemscore.Metal>
0.0000

> <Gold.Chemscore.Hbonds>
donor molecule, donor type, donor heavy atom, donor atom, acceptor molecule, acceptor atom, score
      L1  H    15    30       P1  7948  1.00
      P1  H  6896  6907       L1    14  0.70
      L1  C     5    27       P1  7948  0.17
      L1  C     5    27       P1  7949  0.73

> <Gold.PLP.Chemscore.Internal.Correction>
0.0436

> <Gold.Rescore>
     Score         DG    S(hbond)    S(metal)    S(lipo)     H(rot)  DE(clash)    DE(int)     intcor
     14.80     -16.52       1.82        0.00      77.17       1.58       0.88       0.84       ----

> <Gold.Chemscore.Fitness>
14.8044

> <Gold.Chemscore.DG>
-16.5233

> <Gold.Chemscore.ZeroCoef>
-5.4800

> <Gold.Chemscore.Hbond>
1.8163

> <Gold.Chemscore.Metal>
0.0000

> <Gold.Chemscore.Lipo>
77.1717

> <Gold.Chemscore.Internal_Hbond>
0.0000

> <Gold.Chemscore.DEClash>
0.8777

> <Gold.Chemscore.DEInternal>
0.8412

> <Gold.Chemscore.Rot>
1.5830

> <Gold.Chemscore.Internal.Correction>
   9.000000E+99

> <Gold.Chemscore.Hbonds>
donor molecule, donor type, donor heavy atom, donor atom, acceptor molecule, acceptor atom, score
      L1  H    15    30       P1  7948  0.89
      P1  H  6896  6907       L1    14  0.23

> <Gold.Chemscore.Hbond.Weighted>
-6.0666

> <Gold.Chemscore.Metal.Weighted>
-0.0000

> <Gold.Chemscore.Lipo.Weighted>
-9.0291

> <Gold.Chemscore.Internal_Hbond.Weighted>
0.0000

> <Gold.Chemscore.DEClash.Weighted>
0.8777

> <Gold.Chemscore.DEInternal.Weighted>
0.8412

> <Gold.Chemscore.Rot.Weighted>
4.0524

> <Gold.Chemscore.Internal.Correction.Weighted>
   9.000000E+99

> <Gold.Protein.RotatedTorsions>
[ 6907 6896 6895 6894 ] final -117.44 input  -60.11 | X-H torsion
[ 7974 7965 7964 7962 ] final   12.28 input  175.53 | X-H torsion
[ 8008 7997 7996 7995 ] final   33.44 input   59.86 | X-H torsion
[ 10167 10162 10161 10158 ] final  -81.07 input  -65.29 | X-H torsion
[ 10718 10713 10712 10709 ] final -171.75 input   66.30 | X-H torsion
[ 10763 10752 10751 10750 ] final  -67.30 input  -60.55 | X-H torsion
[ 11005 11000 10999 10996 ] final   93.40 input  -57.11 | X-H torsion

> <Gold.Protein.ActiveResidues>
 VAL166  LYS551  ARG553  GLY616  TRP617  ASP618  TYR619  PRO620  LYS621  CYS622 
 ASP623  PHE694  ASN695  SER759  ASP760  ASP761  ALA762  ILE779  LEU786  VAL792 
 PHE793  MET794  SER795  GLU796  ALA797  LYS798  CYS799  TRP800  GLU811  SER814 

> <Gold.Protein.RotatedAtoms>
  150.8137  133.8375  159.3170 H   0  0  0  0  0  0  0  0  0  0  0  0  # atno 6907 bound_to 6896
  151.6153  135.1035  160.0099 H   0  0  0  0  0  0  0  0  0  0  0  0  # atno 6908 bound_to 6896
  152.4229  133.7106  159.6533 H   0  0  0  0  0  0  0  0  0  0  0  0  # atno 6909 bound_to 6896
  146.2354  139.9360  142.8490 H   0  0  0  0  0  0  0  0  0  0  0  0  # atno 7974 bound_to 7965
  155.1387  140.3264  155.4457 H   0  0  0  0  0  0  0  0  0  0  0  0  # atno 8008 bound_to 7997
  156.2611  140.1997  156.6453 H   0  0  0  0  0  0  0  0  0  0  0  0  # atno 8009 bound_to 7997
  154.6558  140.0553  156.9994 H   0  0  0  0  0  0  0  0  0  0  0  0  # atno 8010 bound_to 7997
  140.4446  143.2503  151.8577 H   0  0  0  0  0  0  0  0  0  0  0  0  # atno 10167 bound_to 10162
  156.7455  130.9358  151.3112 H   0  0  0  0  0  0  0  0  0  0  0  0  # atno 10718 bound_to 10713
  154.3725  135.6092  153.5747 H   0  0  0  0  0  0  0  0  0  0  0  0  # atno 10763 bound_to 10752
  152.9790  135.5841  154.4505 H   0  0  0  0  0  0  0  0  0  0  0  0  # atno 10764 bound_to 10752
  154.4261  135.2847  155.1921 H   0  0  0  0  0  0  0  0  0  0  0  0  # atno 10765 bound_to 10752
  139.8810  134.8788  156.3712 H   0  0  0  0  0  0  0  0  0  0  0  0  # atno 11005 bound_to 11000
  145.1999  140.9849  143.4162 LP  0  0  0  0  0  0  0  0  0  0  0  0  # atno 17320 bound_to 7965
  144.9783  139.3809  143.6274 LP  0  0  0  0  0  0  0  0  0  0  0  0  # atno 17321 bound_to 7965
  139.4792  144.5190  151.8827 LP  0  0  0  0  0  0  0  0  0  0  0  0  # atno 17342 bound_to 10162
  140.4279  144.2155  150.5887 LP  0  0  0  0  0  0  0  0  0  0  0  0  # atno 17343 bound_to 10162
  157.6800  130.9131  150.0243 LP  0  0  0  0  0  0  0  0  0  0  0  0  # atno 17370 bound_to 10713
  156.1436  130.3642  149.9544 LP  0  0  0  0  0  0  0  0  0  0  0  0  # atno 17371 bound_to 10713
  140.9463  133.7481  156.0212 LP  0  0  0  0  0  0  0  0  0  0  0  0  # atno 17394 bound_to 11000
  140.8160  134.3345  157.5397 LP  0  0  0  0  0  0  0  0  0  0  0  0  # atno 17395 bound_to 11000

$$$$
