AV-unprocessed.smi:2224|AV-procd|sdf|8996|dock4
  -GOLD-   2272012203D 1   1.00000     0.00000
 Structure written by MMmdl.
 44 46  0  0  0  0  0  0  0  0  1 V2000
  147.3252  132.6055  160.7792 C   0  0  0  0  0  0  0  0  0  0  0  0
  147.6453  134.0808  160.8987 C   0  0  0  0  0  0  0  0  0  0  0  0
  147.3860  134.7833  162.0912 C   0  0  0  0  0  0  0  0  0  0  0  0
  147.7059  136.1544  162.1373 C   0  0  0  0  0  0  0  0  0  0  0  0
  147.4540  136.9712  163.3873 C   0  0  0  0  0  0  0  0  0  0  0  0
  148.2447  136.8213  161.0941 N   0  0  0  0  0  0  0  0  0  0  0  0
  148.4981  136.1548  159.9406 C   0  0  0  0  0  0  0  0  0  0  0  0
  149.0659  136.7604  158.7887 N   0  0  0  0  0  0  0  0  0  0  0  0
  150.0501  137.6744  158.7288 C   0  0  0  0  0  0  0  0  0  0  0  0
  150.6281  138.1663  159.6984 O   0  0  0  0  0  0  0  0  0  0  0  0
  150.3243  138.0040  157.4598 N   0  0  0  0  0  0  0  0  0  0  0  0
  151.3132  139.0013  157.0467 C   0  0  1  0  0  0  0  0  0  0  0  0
  151.5880  138.9810  155.5262 C   0  0  1  0  0  0  0  0  0  0  0  0
  151.0962  137.8801  154.6185 C   0  0  0  0  0  0  0  0  0  0  0  0
  149.8096  138.4712  154.0348 C   0  0  0  0  0  0  0  0  0  0  0  0
  149.4308  139.4969  154.9505 O   0  0  0  0  0  0  0  0  0  0  0  0
  150.6198  140.1455  155.3973 C   0  0  1  0  0  0  0  0  0  0  0  0
  150.7206  140.4299  156.9110 C   0  0  0  0  0  0  0  0  0  0  0  0
  149.4056  140.7595  157.6307 C   0  0  0  0  0  0  0  0  0  0  0  0
  151.7006  141.5495  157.2742 C   0  0  0  0  0  0  0  0  0  0  0  0
  148.2092  134.7777  159.8112 C   0  0  0  0  0  0  0  0  0  0  0  0
  146.9888  132.1938  161.7314 H   0  0  0  0  0  0  0  0  0  0  0  0
  148.2085  132.0509  160.4619 H   0  0  0  0  0  0  0  0  0  0  0  0
  146.5374  132.4495  160.0421 H   0  0  0  0  0  0  0  0  0  0  0  0
  146.9536  134.2856  162.9470 H   0  0  0  0  0  0  0  0  0  0  0  0
  147.1593  136.3349  164.2223 H   0  0  0  0  0  0  0  0  0  0  0  0
  146.6571  137.6939  163.2109 H   0  0  0  0  0  0  0  0  0  0  0  0
  148.3539  137.5146  163.6767 H   0  0  0  0  0  0  0  0  0  0  0  0
  148.6744  136.4660  157.9066 H   0  0  0  0  0  0  0  0  0  0  0  0
  149.7962  137.5581  156.7241 H   0  0  0  0  0  0  0  0  0  0  0  0
  152.2367  138.9727  157.6281 H   0  0  0  0  0  0  0  0  0  0  0  0
  152.6101  139.2990  155.3145 H   0  0  0  0  0  0  0  0  0  0  0  0
  151.8119  137.6453  153.8302 H   0  0  0  0  0  0  0  0  0  0  0  0
  150.8987  136.9562  155.1615 H   0  0  0  0  0  0  0  0  0  0  0  0
  150.0035  138.9212  153.0601 H   0  0  0  0  0  0  0  0  0  0  0  0
  149.0210  137.7277  153.9173 H   0  0  0  0  0  0  0  0  0  0  0  0
  150.9620  140.9396  154.7319 H   0  0  0  0  0  0  0  0  0  0  0  0
  149.0480  141.7573  157.3750 H   0  0  0  0  0  0  0  0  0  0  0  0
  149.5249  140.7206  158.7139 H   0  0  0  0  0  0  0  0  0  0  0  0
  148.6071  140.0648  157.3698 H   0  0  0  0  0  0  0  0  0  0  0  0
  151.3332  142.5247  156.9534 H   0  0  0  0  0  0  0  0  0  0  0  0
  152.6726  141.4023  156.8026 H   0  0  0  0  0  0  0  0  0  0  0  0
  151.8704  141.5979  158.3502 H   0  0  0  0  0  0  0  0  0  0  0  0
  148.4152  134.2579  158.8865 H   0  0  0  0  0  0  0  0  0  0  0  0
  1  2  1  0  0  0  0
  1 22  1  0  0  0  0
  1 23  1  0  0  0  0
  1 24  1  0  0  0  0
  2 21  1  0  0  0  0
  2  3  2  0  0  0  0
  3  4  1  0  0  0  0
  3 25  1  0  0  0  0
  4  5  1  0  0  0  0
  4  6  2  0  0  0  0
  5 26  1  0  0  0  0
  5 27  1  0  0  0  0
  5 28  1  0  0  0  0
  6  7  1  0  0  0  0
  7  8  1  0  0  0  0
  7 21  2  0  0  0  0
  8  9  1  0  0  0  0
  8 29  1  0  0  0  0
  9 10  2  0  0  0  0
  9 11  1  0  0  0  0
 11 12  1  0  0  0  0
 11 30  1  0  0  0  0
 12 18  1  0  0  0  0
 12 13  1  0  0  0  0
 12 31  1  0  0  0  0
 13 17  1  0  0  0  0
 13 14  1  0  0  0  0
 13 32  1  0  0  0  0
 14 15  1  0  0  0  0
 14 33  1  0  0  0  0
 14 34  1  0  0  0  0
 15 16  1  0  0  0  0
 15 35  1  0  0  0  0
 15 36  1  0  0  0  0
 16 17  1  0  0  0  0
 17 18  1  0  0  0  0
 17 37  1  0  0  0  0
 18 19  1  0  0  0  0
 18 20  1  0  0  0  0
 19 38  1  0  0  0  0
 19 39  1  0  0  0  0
 19 40  1  0  0  0  0
 20 41  1  0  0  0  0
 20 42  1  0  0  0  0
 20 43  1  0  0  0  0
 21 44  1  0  0  0  0
M  END
> <s_m_source_file>
AV-unprocessed.smi

> <i_m_source_file_index>
2224

> <i_lp_mmshare_version>
43012

> <i_f3d_flags>
0

> <s_epik_input>
W0NIM11jMVtjSF1jKFtDSDNdKW5jKFtjSF0xKVtOSF1DKD1PKVtOSF1bQ0BIXTJDKFtDSDNdKShbQ0gzXSlbQ0BIXShbQ0BASF0yMylPW0NIMl1bQ0gyXTM=

> <s_epik_cmdline>
J2VwaWtfcHl0aG9uJywgJy1waCcsICc3LjAnLCAnLXRuJywgJzgnLCAnLW1hJywgJzIwMCcsICctbWV0YWxfYmluZGluZycsICctaW1hZScsICc8aW5maWxlLm1hZT4nLCAnLW9tYWUnLCAnPG91dGZpbGUubWFlPic=

> <r_lp_tautomer_probability>
1

> <r_epik_Ionization_Penalty>
0.000276544

> <r_epik_Ionization_Penalty_Charging>
0

> <r_epik_Ionization_Penalty_Neutral>
0.000276544

> <r_epik_State_Penalty>
-0

> <r_epik_Charging_Adjusted_Penalty>
0

> <i_epik_Tot_Q>
0

> <i_epik_Tot_abs_Q>
0

> <r_epik_Metal_State_Penalty>
-0

> <b_epik_Metal_Only>
0

> <s_lp_Force_Field>
OPLS_2005

> <r_lp_Energy>
39.8946

> <b_lp_Chiralities_Consistent>
1

> <s_lp_Variant>
AV-unprocessed.smi:2224-6

> <Gold.Version>
5.8.1

> <Gold.Id.Protein>
6NUR|6NUR_protein|mol2

> <Gold.PLP.Fitness>
37.2493

> <Gold.PLP.PLP>
-35.1516

> <Gold.PLP.part.hbond>
-2.2816

> <Gold.PLP.part.metal>
0.0000

> <Gold.PLP.part.buried>
-3.3933

> <Gold.PLP.part.nonpolar>
-29.4562

> <Gold.PLP.part.repulsive>
0.2432

> <Gold.PLP.ligand.clash>
0.0000

> <Gold.PLP.ligand.torsion>
0.5450

> <Gold.PLP.Chemscore.Hbond>
1.0000

> <Gold.PLP.Chemscore.CHOScore>
0.0000

> <Gold.PLP.Chemscore.Metal>
0.0000

> <Gold.Chemscore.Hbonds>
donor molecule, donor type, donor heavy atom, donor atom, acceptor molecule, acceptor atom, score
      P1  H  6931  6943       L1     6  1.00

> <Gold.PLP.Chemscore.Internal.Correction>
0.1876

> <Gold.Rescore>
     Score         DG    S(hbond)    S(metal)    S(lipo)     H(rot)  DE(clash)    DE(int)     intcor
     14.53     -16.34       0.84        0.00      90.75       1.00       0.55       1.26       ----

> <Gold.Chemscore.Fitness>
14.5336

> <Gold.Chemscore.DG>
-16.3431

> <Gold.Chemscore.ZeroCoef>
-5.4800

> <Gold.Chemscore.Hbond>
0.8400

> <Gold.Chemscore.Metal>
0.0000

> <Gold.Chemscore.Lipo>
90.7479

> <Gold.Chemscore.Internal_Hbond>
0.0000

> <Gold.Chemscore.DEClash>
0.5509

> <Gold.Chemscore.DEInternal>
1.2586

> <Gold.Chemscore.Rot>
1.0000

> <Gold.Chemscore.Internal.Correction>
   9.000000E+99

> <Gold.Chemscore.Hbonds>
donor molecule, donor type, donor heavy atom, donor atom, acceptor molecule, acceptor atom, score
      P1  H  6931  6943       L1     6  0.39
      P1  H  6934  6947       L1     6  0.03

> <Gold.Chemscore.Hbond.Weighted>
-2.8056

> <Gold.Chemscore.Metal.Weighted>
-0.0000

> <Gold.Chemscore.Lipo.Weighted>
-10.6175

> <Gold.Chemscore.Internal_Hbond.Weighted>
0.0000

> <Gold.Chemscore.DEClash.Weighted>
0.5509

> <Gold.Chemscore.DEInternal.Weighted>
1.2586

> <Gold.Chemscore.Rot.Weighted>
2.5600

> <Gold.Chemscore.Internal.Correction.Weighted>
   9.000000E+99

> <Gold.Protein.RotatedTorsions>
[ 6907 6896 6895 6894 ] final  129.31 input  -60.11 | X-H torsion
[ 7974 7965 7964 7962 ] final  -36.99 input  175.53 | X-H torsion
[ 8008 7997 7996 7995 ] final   28.92 input   59.86 | X-H torsion
[ 10167 10162 10161 10158 ] final  -55.41 input  -65.29 | X-H torsion
[ 10718 10713 10712 10709 ] final  -65.96 input   66.30 | X-H torsion
[ 10763 10752 10751 10750 ] final   61.49 input  -60.55 | X-H torsion
[ 11005 11000 10999 10996 ] final  138.74 input  -57.11 | X-H torsion

> <Gold.Protein.ActiveResidues>
 VAL166  LYS551  ARG553  GLY616  TRP617  ASP618  TYR619  PRO620  LYS621  CYS622 
 ASP623  PHE694  ASN695  SER759  ASP760  ASP761  ALA762  ILE779  LEU786  VAL792 
 PHE793  MET794  SER795  GLU796  ALA797  LYS798  CYS799  TRP800  GLU811  SER814 

> <Gold.Protein.RotatedAtoms>
  152.3636  133.6328  159.6033 H   0  0  0  0  0  0  0  0  0  0  0  0  # atno 6907 bound_to 6896
  150.7618  133.9384  159.3457 H   0  0  0  0  0  0  0  0  0  0  0  0  # atno 6908 bound_to 6896
  151.7219  135.0893  160.0336 H   0  0  0  0  0  0  0  0  0  0  0  0  # atno 6909 bound_to 6896
  146.0614  140.6343  142.8995 H   0  0  0  0  0  0  0  0  0  0  0  0  # atno 7974 bound_to 7965
  155.0662  140.3195  155.4645 H   0  0  0  0  0  0  0  0  0  0  0  0  # atno 8008 bound_to 7997
  156.2801  140.2120  156.5734 H   0  0  0  0  0  0  0  0  0  0  0  0  # atno 8009 bound_to 7997
  154.7091  140.0500  157.0520 H   0  0  0  0  0  0  0  0  0  0  0  0  # atno 8010 bound_to 7997
  140.6376  143.2490  151.5076 H   0  0  0  0  0  0  0  0  0  0  0  0  # atno 10167 bound_to 10162
  156.0639  130.4255  150.1639 H   0  0  0  0  0  0  0  0  0  0  0  0  # atno 10718 bound_to 10713
  152.9952  135.5499  154.6042 H   0  0  0  0  0  0  0  0  0  0  0  0  # atno 10763 bound_to 10752
  154.5377  135.2817  155.1126 H   0  0  0  0  0  0  0  0  0  0  0  0  # atno 10764 bound_to 10752
  154.2416  135.6415  153.5262 H   0  0  0  0  0  0  0  0  0  0  0  0  # atno 10765 bound_to 10752
  140.0205  134.9399  157.0463 H   0  0  0  0  0  0  0  0  0  0  0  0  # atno 11005 bound_to 11000
  144.7177  140.4266  143.7032 LP  0  0  0  0  0  0  0  0  0  0  0  0  # atno 17320 bound_to 7965
  145.6554  139.1572  143.2838 LP  0  0  0  0  0  0  0  0  0  0  0  0  # atno 17321 bound_to 7965
  139.5586  144.2213  152.1654 LP  0  0  0  0  0  0  0  0  0  0  0  0  # atno 17342 bound_to 10162
  140.1474  144.5146  150.6707 LP  0  0  0  0  0  0  0  0  0  0  0  0  # atno 17343 bound_to 10162
  156.9702  130.9832  151.3460 LP  0  0  0  0  0  0  0  0  0  0  0  0  # atno 17370 bound_to 10713
  157.5668  130.8283  149.8338 LP  0  0  0  0  0  0  0  0  0  0  0  0  # atno 17371 bound_to 10713
  140.4396  134.1695  155.7173 LP  0  0  0  0  0  0  0  0  0  0  0  0  # atno 17394 bound_to 11000
  141.1770  133.8493  157.1387 LP  0  0  0  0  0  0  0  0  0  0  0  0  # atno 17395 bound_to 11000

$$$$
