AV-unprocessed.smi:105|AV-procd|sdf|1010|dock4
  -GOLD-   2262018 03D 1   1.00000     0.00000
 Structure written by MMmdl.
 42 45  0  0  0  0  0  0  0  0  1 V2000
  149.3919  131.7991  154.6019 C   0  0  0  0  0  0  0  0  0  0  0  0
  150.0885  132.3685  155.6855 C   0  0  0  0  0  0  0  0  0  0  0  0
  149.9667  133.7456  155.9558 C   0  0  0  0  0  0  0  0  0  0  0  0
  149.1464  134.5564  155.1440 C   0  0  0  0  0  0  0  0  0  0  0  0
  149.0239  136.0388  155.4290 C   0  0  0  0  0  0  0  0  0  0  0  0
  149.7139  136.8602  154.4443 N   0  0  0  0  0  0  0  0  0  0  0  0
  150.7099  137.6860  154.8308 C   0  0  0  0  0  0  0  0  0  0  0  0
  151.9902  137.4769  154.4250 N   0  0  0  0  0  0  0  0  0  0  0  0
  152.9615  138.3057  154.8214 C   0  0  0  0  0  0  0  0  0  0  0  0
  152.8728  139.3816  155.6073 N   0  0  0  0  0  0  0  0  0  0  0  0
  151.5882  139.5920  156.0157 C   0  0  0  0  0  0  0  0  0  0  0  0
  150.4568  138.7987  155.6742 C   0  0  0  0  0  0  0  0  0  0  0  0
  149.3135  139.3151  156.2700 N   0  0  0  0  0  0  0  0  0  0  0  0
  149.7449  140.3558  156.9298 C   0  0  0  0  0  0  0  0  0  0  0  0
  151.0984  140.5968  156.8319 N   0  0  0  0  0  0  0  0  0  0  0  0
  151.8412  141.6740  157.4624 C   0  0  1  0  0  0  0  0  0  0  0  0
  151.2711  143.0548  157.0820 C   0  0  0  0  0  0  0  0  0  0  0  0
  152.0905  144.1313  157.8037 C   0  0  0  0  0  0  0  0  0  0  0  0
  152.0625  143.8652  159.3120 C   0  0  0  0  0  0  0  0  0  0  0  0
  152.5296  142.4275  159.5947 C   0  0  0  0  0  0  0  0  0  0  0  0
  151.7399  141.5059  158.8469 O   0  0  0  0  0  0  0  0  0  0  0  0
  148.4510  133.9837  154.0587 C   0  0  0  0  0  0  0  0  0  0  0  0
  148.5734  132.6066  153.7887 C   0  0  0  0  0  0  0  0  0  0  0  0
  149.4860  130.7432  154.3941 H   0  0  0  0  0  0  0  0  0  0  0  0
  150.7166  131.7489  156.3084 H   0  0  0  0  0  0  0  0  0  0  0  0
  150.5047  134.1782  156.7868 H   0  0  0  0  0  0  0  0  0  0  0  0
  147.9678  136.3115  155.4556 H   0  0  0  0  0  0  0  0  0  0  0  0
  149.4314  136.2406  156.4206 H   0  0  0  0  0  0  0  0  0  0  0  0
  149.3906  136.7831  153.4905 H   0  0  0  0  0  0  0  0  0  0  0  0
  153.9514  138.0733  154.4571 H   0  0  0  0  0  0  0  0  0  0  0  0
  149.0837  140.9808  157.5126 H   0  0  0  0  0  0  0  0  0  0  0  0
  152.8882  141.5810  157.1678 H   0  0  0  0  0  0  0  0  0  0  0  0
  151.3292  143.1824  156.0004 H   0  0  0  0  0  0  0  0  0  0  0  0
  150.2203  143.1069  157.3701 H   0  0  0  0  0  0  0  0  0  0  0  0
  153.1194  144.1238  157.4416 H   0  0  0  0  0  0  0  0  0  0  0  0
  151.6877  145.1210  157.5864 H   0  0  0  0  0  0  0  0  0  0  0  0
  152.6958  144.5807  159.8374 H   0  0  0  0  0  0  0  0  0  0  0  0
  151.0492  144.0027  159.6913 H   0  0  0  0  0  0  0  0  0  0  0  0
  153.5846  142.3042  159.3447 H   0  0  0  0  0  0  0  0  0  0  0  0
  152.4262  142.2010  160.6558 H   0  0  0  0  0  0  0  0  0  0  0  0
  147.8239  134.5986  153.4298 H   0  0  0  0  0  0  0  0  0  0  0  0
  148.0401  132.1698  152.9570 H   0  0  0  0  0  0  0  0  0  0  0  0
  1 23  1  0  0  0  0
  1  2  2  0  0  0  0
  1 24  1  0  0  0  0
  2  3  1  0  0  0  0
  2 25  1  0  0  0  0
  3  4  2  0  0  0  0
  3 26  1  0  0  0  0
  4  5  1  0  0  0  0
  4 22  1  0  0  0  0
  5  6  1  0  0  0  0
  5 27  1  0  0  0  0
  5 28  1  0  0  0  0
  6  7  1  0  0  0  0
  6 29  1  0  0  0  0
  7 12  1  0  0  0  0
  7  8  2  0  0  0  0
  8  9  1  0  0  0  0
  9 10  2  0  0  0  0
  9 30  1  0  0  0  0
 10 11  1  0  0  0  0
 11 15  1  0  0  0  0
 11 12  2  0  0  0  0
 12 13  1  0  0  0  0
 13 14  2  0  0  0  0
 14 15  1  0  0  0  0
 14 31  1  0  0  0  0
 15 16  1  0  0  0  0
 16 21  1  0  0  0  0
 16 17  1  0  0  0  0
 16 32  1  0  0  0  0
 17 18  1  0  0  0  0
 17 33  1  0  0  0  0
 17 34  1  0  0  0  0
 18 19  1  0  0  0  0
 18 35  1  0  0  0  0
 18 36  1  0  0  0  0
 19 20  1  0  0  0  0
 19 37  1  0  0  0  0
 19 38  1  0  0  0  0
 20 21  1  0  0  0  0
 20 39  1  0  0  0  0
 20 40  1  0  0  0  0
 22 23  2  0  0  0  0
 22 41  1  0  0  0  0
 23 42  1  0  0  0  0
M  END
> <s_m_source_file>
AV-unprocessed.smi

> <i_m_source_file_index>
105

> <i_lp_mmshare_version>
43012

> <i_f3d_flags>
0

> <s_epik_input>
W2NIXTFbY0hdW2NIXVtjSF1bY0hdYzFbQ0gyXVtOSF1jKG5bY0hdbjIpYyhjMjMpbltjSF1uM1tDQEBIXTRbQ0gyXVtDSDJdW0NIMl1bQ0gyXU80

> <s_epik_cmdline>
J2VwaWtfcHl0aG9uJywgJy1waCcsICc3LjAnLCAnLXRuJywgJzgnLCAnLW1hJywgJzIwMCcsICctbWV0YWxfYmluZGluZycsICctaW1hZScsICc8aW5maWxlLm1hZT4nLCAnLW9tYWUnLCAnPG91dGZpbGUubWFlPic=

> <r_lp_tautomer_probability>
1

> <r_epik_Ionization_Penalty>
0.000653933

> <r_epik_Ionization_Penalty_Charging>
0

> <r_epik_Ionization_Penalty_Neutral>
0.000653933

> <r_epik_State_Penalty>
-0

> <r_epik_Charging_Adjusted_Penalty>
0

> <i_epik_Tot_Q>
0

> <i_epik_Tot_abs_Q>
0

> <r_epik_Metal_State_Penalty>
-0

> <b_epik_Metal_Only>
0

> <s_epik_Chemistry_Notes>
This compound contains an acetal/aminal-like group ( X-CH(R)-Y where X, Y are N, S, or O) that may be acid/base labile, releasing an aldehyde.

> <s_lp_Force_Field>
OPLS_2005

> <r_lp_Energy>
23.9687

> <b_lp_Chiralities_Consistent>
1

> <s_lp_Variant>
AV-unprocessed.smi:105-2

> <Gold.Version>
5.8.1

> <Gold.Id.Protein>
6NUR|6NUR_protein|mol2

> <Gold.PLP.Fitness>
52.1193

> <Gold.PLP.PLP>
-45.6350

> <Gold.PLP.part.hbond>
-3.0000

> <Gold.PLP.part.metal>
0.0000

> <Gold.PLP.part.buried>
-6.5978

> <Gold.PLP.part.nonpolar>
-36.8655

> <Gold.PLP.part.repulsive>
0.1814

> <Gold.PLP.ligand.clash>
0.0000

> <Gold.PLP.ligand.torsion>
0.7729

> <Gold.PLP.Chemscore.Hbond>
2.6721

> <Gold.PLP.Chemscore.CHOScore>
0.0000

> <Gold.PLP.Chemscore.Metal>
0.0000

> <Gold.Chemscore.Hbonds>
donor molecule, donor type, donor heavy atom, donor atom, acceptor molecule, acceptor atom, score
      L1  H     6    29       P1  7948  1.00
      P1  H  7997  8008       L1    10  1.00
      P1  H 10752 10765       L1     8  0.60

> <Gold.PLP.Chemscore.Internal.Correction>
0.0138

> <Gold.Rescore>
     Score         DG    S(hbond)    S(metal)    S(lipo)     H(rot)  DE(clash)    DE(int)     intcor
     17.18     -18.28       2.05        0.00      84.76       1.55       0.16       0.94       ----

> <Gold.Chemscore.Fitness>
17.1808

> <Gold.Chemscore.DG>
-18.2777

> <Gold.Chemscore.ZeroCoef>
-5.4800

> <Gold.Chemscore.Hbond>
2.0539

> <Gold.Chemscore.Metal>
0.0000

> <Gold.Chemscore.Lipo>
84.7647

> <Gold.Chemscore.Internal_Hbond>
0.0000

> <Gold.Chemscore.DEClash>
0.1617

> <Gold.Chemscore.DEInternal>
0.9351

> <Gold.Chemscore.Rot>
1.5547

> <Gold.Chemscore.Internal.Correction>
   9.000000E+99

> <Gold.Chemscore.Hbonds>
donor molecule, donor type, donor heavy atom, donor atom, acceptor molecule, acceptor atom, score
      L1  H     6    29       P1  7948  0.91
      P1  H  7997  8008       L1    10  0.88
      P1  H 10752 10765       L1     8  0.21

> <Gold.Chemscore.Hbond.Weighted>
-6.8602

> <Gold.Chemscore.Metal.Weighted>
-0.0000

> <Gold.Chemscore.Lipo.Weighted>
-9.9175

> <Gold.Chemscore.Internal_Hbond.Weighted>
0.0000

> <Gold.Chemscore.DEClash.Weighted>
0.1617

> <Gold.Chemscore.DEInternal.Weighted>
0.9351

> <Gold.Chemscore.Rot.Weighted>
3.9800

> <Gold.Chemscore.Internal.Correction.Weighted>
   9.000000E+99

> <Gold.Protein.RotatedTorsions>
[ 6907 6896 6895 6894 ] final  -33.53 input  -60.11 | X-H torsion
[ 7974 7965 7964 7962 ] final -148.24 input  175.53 | X-H torsion
[ 8008 7997 7996 7995 ] final  -16.67 input   59.86 | X-H torsion
[ 10167 10162 10161 10158 ] final  -33.52 input  -65.29 | X-H torsion
[ 10718 10713 10712 10709 ] final  142.20 input   66.30 | X-H torsion
[ 10763 10752 10751 10750 ] final  139.87 input  -60.55 | X-H torsion
[ 11005 11000 10999 10996 ] final   17.33 input  -57.11 | X-H torsion

> <Gold.Protein.ActiveResidues>
 VAL166  LYS551  ARG553  GLY616  TRP617  ASP618  TYR619  PRO620  LYS621  CYS622 
 ASP623  PHE694  ASN695  SER759  ASP760  ASP761  ALA762  ILE779  LEU786  VAL792 
 PHE793  MET794  SER795  GLU796  ALA797  LYS798  CYS799  TRP800  GLU811  SER814 

> <Gold.Protein.RotatedAtoms>
  151.0644  134.9757  159.8276 H   0  0  0  0  0  0  0  0  0  0  0  0  # atno 6907 bound_to 6896
  152.5400  134.2378  159.8860 H   0  0  0  0  0  0  0  0  0  0  0  0  # atno 6908 bound_to 6896
  151.2399  133.4362  159.2640 H   0  0  0  0  0  0  0  0  0  0  0  0  # atno 6909 bound_to 6896
  144.8042  140.5222  143.5686 H   0  0  0  0  0  0  0  0  0  0  0  0  # atno 7974 bound_to 7965
  154.5036  140.2163  155.9297 H   0  0  0  0  0  0  0  0  0  0  0  0  # atno 8008 bound_to 7997
  156.1465  140.3170  155.8545 H   0  0  0  0  0  0  0  0  0  0  0  0  # atno 8009 bound_to 7997
  155.4021  140.0485  157.3027 H   0  0  0  0  0  0  0  0  0  0  0  0  # atno 8010 bound_to 7997
  140.7203  143.3614  151.1955 H   0  0  0  0  0  0  0  0  0  0  0  0  # atno 10167 bound_to 10162
  157.3833  131.0995  151.0717 H   0  0  0  0  0  0  0  0  0  0  0  0  # atno 10718 bound_to 10713
  153.9134  135.3008  155.3448 H   0  0  0  0  0  0  0  0  0  0  0  0  # atno 10763 bound_to 10752
  154.7612  135.4933  153.9471 H   0  0  0  0  0  0  0  0  0  0  0  0  # atno 10764 bound_to 10752
  153.1181  135.6775  153.9485 H   0  0  0  0  0  0  0  0  0  0  0  0  # atno 10765 bound_to 10752
  140.4372  134.1359  155.7686 H   0  0  0  0  0  0  0  0  0  0  0  0  # atno 11005 bound_to 11000
  145.5480  139.1476  143.3410 LP  0  0  0  0  0  0  0  0  0  0  0  0  # atno 17320 bound_to 7965
  146.2329  140.5618  142.8967 LP  0  0  0  0  0  0  0  0  0  0  0  0  # atno 17321 bound_to 7965
  139.7167  143.9289  152.2969 LP  0  0  0  0  0  0  0  0  0  0  0  0  # atno 17342 bound_to 10162
  139.9032  144.6899  150.8642 LP  0  0  0  0  0  0  0  0  0  0  0  0  # atno 17343 bound_to 10162
  157.1778  130.6296  149.5662 LP  0  0  0  0  0  0  0  0  0  0  0  0  # atno 17370 bound_to 10713
  155.9781  130.4763  150.6633 LP  0  0  0  0  0  0  0  0  0  0  0  0  # atno 17371 bound_to 10713
  141.1721  133.8588  157.1538 LP  0  0  0  0  0  0  0  0  0  0  0  0  # atno 17394 bound_to 11000
  140.0094  134.9994  157.0363 LP  0  0  0  0  0  0  0  0  0  0  0  0  # atno 17395 bound_to 11000

$$$$
