AV-unprocessed.smi:37|AV-procd|sdf|305|dock2
  -GOLD-   2262016113D 1   1.00000     0.00000
 Structure written by MMmdl.
 44 45  0  0  0  0  0  0  0  0  1 V2000
  151.5273  138.0276  157.6341 C   0  0  0  0  0  0  0  0  0  0  0  0
  152.2039  138.7127  156.4390 C   0  0  0  0  0  0  0  0  0  0  0  0
  151.4779  139.9867  156.0113 C   0  0  0  0  0  0  0  0  0  0  0  0
  150.9593  140.0867  154.8994 O   0  0  0  0  0  0  0  0  0  0  0  0
  151.4958  140.9368  156.9586 O   0  0  0  0  0  0  0  0  0  0  0  0
  150.8529  142.1786  156.7231 C   0  0  0  0  0  0  0  0  0  0  0  0
  151.3005  143.1865  157.7885 C   0  0  2  0  0  0  0  0  0  0  0  0
  152.6864  143.0313  158.0953 O   0  0  0  0  0  0  0  0  0  0  0  0
  152.9092  143.2004  159.4676 C   0  0  2  0  0  0  0  0  0  0  0  0
  153.3525  141.8858  160.0783 N   0  0  0  0  0  0  0  0  0  0  0  0
  153.5628  140.7419  159.3167 C   0  0  0  0  0  0  0  0  0  0  0  0
  153.9495  139.5602  159.8528 C   0  0  0  0  0  0  0  0  0  0  0  0
  154.1322  138.4967  159.0517 F   0  0  0  0  0  0  0  0  0  0  0  0
  154.1674  139.4289  161.2901 C   0  0  0  0  0  0  0  0  0  0  0  0
  154.5171  138.4014  161.8673 O   0  0  0  0  0  0  0  0  0  0  0  0
  153.9423  140.6016  162.0166 N   0  0  0  0  0  0  0  0  0  0  0  0
  153.5425  141.8250  161.4771 C   0  0  0  0  0  0  0  0  0  0  0  0
  153.3636  142.7937  162.2141 O   0  0  0  0  0  0  0  0  0  0  0  0
  151.5826  143.6473  160.0904 C   0  0  1  0  0  0  0  0  0  0  0  0
  151.4877  145.6410  160.0634 Br  0  0  0  0  0  0  0  0  0  0  0  0
  150.5775  143.0406  159.1264 C   0  0  1  0  0  0  0  0  0  0  0  0
  149.3296  143.7203  159.1271 O   0  0  0  0  0  0  0  0  0  0  0  0
  148.1953  143.0529  158.8564 C   0  0  0  0  0  0  0  0  0  0  0  0
  148.1192  141.9080  158.4103 O   0  0  0  0  0  0  0  0  0  0  0  0
  146.9454  143.8702  159.1720 C   0  0  0  0  0  0  0  0  0  0  0  0
  146.8859  144.2849  160.6487 C   0  0  0  0  0  0  0  0  0  0  0  0
  154.0779  140.5583  163.0164 H   0  0  0  0  0  0  0  0  0  0  0  0
  152.0419  137.1002  157.8854 H   0  0  0  0  0  0  0  0  0  0  0  0
  150.4884  137.7801  157.4137 H   0  0  0  0  0  0  0  0  0  0  0  0
  151.5421  138.6618  158.5212 H   0  0  0  0  0  0  0  0  0  0  0  0
  153.2361  138.9615  156.6847 H   0  0  0  0  0  0  0  0  0  0  0  0
  152.2386  138.0269  155.5921 H   0  0  0  0  0  0  0  0  0  0  0  0
  151.0903  142.5423  155.7229 H   0  0  0  0  0  0  0  0  0  0  0  0
  149.7726  142.0384  156.7753 H   0  0  0  0  0  0  0  0  0  0  0  0
  151.1770  144.2024  157.4094 H   0  0  0  0  0  0  0  0  0  0  0  0
  153.7377  143.8928  159.6288 H   0  0  0  0  0  0  0  0  0  0  0  0
  153.4169  140.7690  158.2485 H   0  0  0  0  0  0  0  0  0  0  0  0
  151.4636  143.3133  161.1216 H   0  0  0  0  0  0  0  0  0  0  0  0
  150.4534  141.9781  159.3440 H   0  0  0  0  0  0  0  0  0  0  0  0
  146.9332  144.7564  158.5370 H   0  0  0  0  0  0  0  0  0  0  0  0
  146.0648  143.2820  158.9126 H   0  0  0  0  0  0  0  0  0  0  0  0
  146.0080  144.9018  160.8398 H   0  0  0  0  0  0  0  0  0  0  0  0
  147.7651  144.8639  160.9334 H   0  0  0  0  0  0  0  0  0  0  0  0
  146.8272  143.4165  161.3056 H   0  0  0  0  0  0  0  0  0  0  0  0
  1  2  1  0  0  0  0
  1 28  1  0  0  0  0
  1 29  1  0  0  0  0
  1 30  1  0  0  0  0
  2  3  1  0  0  0  0
  2 31  1  0  0  0  0
  2 32  1  0  0  0  0
  3  4  2  0  0  0  0
  3  5  1  0  0  0  0
  5  6  1  0  0  0  0
  6  7  1  0  0  0  0
  6 33  1  0  0  0  0
  6 34  1  0  0  0  0
  7 21  1  0  0  0  0
  7  8  1  0  0  0  0
  7 35  1  0  0  0  0
  8  9  1  0  0  0  0
  9 10  1  0  0  0  0
  9 19  1  0  0  0  0
  9 36  1  0  0  0  0
 10 17  1  0  0  0  0
 10 11  1  0  0  0  0
 11 12  2  0  0  0  0
 11 37  1  0  0  0  0
 12 13  1  0  0  0  0
 12 14  1  0  0  0  0
 14 15  2  0  0  0  0
 14 16  1  0  0  0  0
 16 27  1  0  0  0  0
 16 17  1  0  0  0  0
 17 18  2  0  0  0  0
 19 20  1  0  0  0  0
 19 21  1  0  0  0  0
 19 38  1  0  0  0  0
 21 22  1  0  0  0  0
 21 39  1  0  0  0  0
 22 23  1  0  0  0  0
 23 24  2  0  0  0  0
 23 25  1  0  0  0  0
 25 26  1  0  0  0  0
 25 40  1  0  0  0  0
 25 41  1  0  0  0  0
 26 42  1  0  0  0  0
 26 43  1  0  0  0  0
 26 44  1  0  0  0  0
M  END
> <s_m_source_file>
AV-unprocessed.smi

> <i_m_source_file_index>
37

> <i_lp_mmshare_version>
43012

> <i_f3d_flags>
0

> <s_epik_input>
W0NIM11bQ0gyXUMoPU8pT1tDSDJdW0NAQEhdMU9bQ0BASF0objJbY0hdYyhGKWMoPU8pW25IXWMyPU8pW0NAQEhdKEJyKVtDQEhdMU9DKD1PKVtDSDJdW0NIM10=

> <s_epik_cmdline>
J2VwaWtfcHl0aG9uJywgJy1waCcsICc3LjAnLCAnLXRuJywgJzgnLCAnLW1hJywgJzIwMCcsICctbWV0YWxfYmluZGluZycsICctaW1hZScsICc8aW5maWxlLm1hZT4nLCAnLW9tYWUnLCAnPG91dGZpbGUubWFlPic=

> <r_lp_tautomer_probability>
0.999537

> <r_epik_Ionization_Penalty>
0.104106

> <r_epik_Ionization_Penalty_Charging>
0.104106

> <r_epik_Ionization_Penalty_Neutral>
3.94675e-16

> <r_epik_State_Penalty>
0.0940182

> <r_epik_Charging_Adjusted_Penalty>
0.198124

> <i_epik_Tot_Q>
0

> <i_epik_Tot_abs_Q>
0

> <r_epik_Metal_State_Penalty>
3.05314

> <b_epik_Metal_Only>
0

> <s_epik_Chemistry_Notes>
This compound has an ester and may undergo hydrolysis at high or low pH. This compound contains an acetal/aminal-like group ( X-CH(R)-Y where X, Y are N, S, or O) that may be acid/base labile, releasing an aldehyde.

> <s_lp_Force_Field>
OPLS_2005

> <r_lp_Energy>
22.9743

> <b_lp_Chiralities_Consistent>
1

> <s_lp_Variant>
AV-unprocessed.smi:37-3

> <Gold.Version>
5.8.1

> <Gold.Id.Protein>
6NUR|6NUR_protein|mol2

> <Gold.PLP.Fitness>
40.4461

> <Gold.PLP.PLP>
-38.8948

> <Gold.PLP.part.hbond>
-1.5770

> <Gold.PLP.part.metal>
0.0000

> <Gold.PLP.part.buried>
0.2064

> <Gold.PLP.part.nonpolar>
-36.1924

> <Gold.PLP.part.repulsive>
0.4201

> <Gold.PLP.ligand.clash>
0.0000

> <Gold.PLP.ligand.torsion>
0.8260

> <Gold.PLP.Chemscore.Hbond>
1.0000

> <Gold.PLP.Chemscore.CHOScore>
0.0000

> <Gold.PLP.Chemscore.Metal>
0.0000

> <Gold.Chemscore.Hbonds>
donor molecule, donor type, donor heavy atom, donor atom, acceptor molecule, acceptor atom, score
      P1  H  7989  7998       L1     4  1.00

> <Gold.PLP.Chemscore.Internal.Correction>
0.2034

> <Gold.Rescore>
     Score         DG    S(hbond)    S(metal)    S(lipo)     H(rot)  DE(clash)    DE(int)     intcor
      6.26      -9.28       1.00        0.00      76.80       3.33       1.23       1.78       ----

> <Gold.Chemscore.Fitness>
6.2640

> <Gold.Chemscore.DG>
-9.2793

> <Gold.Chemscore.ZeroCoef>
-5.4800

> <Gold.Chemscore.Hbond>
0.9997

> <Gold.Chemscore.Metal>
0.0000

> <Gold.Chemscore.Lipo>
76.8036

> <Gold.Chemscore.Internal_Hbond>
0.0000

> <Gold.Chemscore.DEClash>
1.2310

> <Gold.Chemscore.DEInternal>
1.7843

> <Gold.Chemscore.Rot>
3.3303

> <Gold.Chemscore.Internal.Correction>
   9.000000E+99

> <Gold.Chemscore.Hbonds>
donor molecule, donor type, donor heavy atom, donor atom, acceptor molecule, acceptor atom, score
      P1  H  7989  7998       L1     4  1.00

> <Gold.Chemscore.Hbond.Weighted>
-3.3389

> <Gold.Chemscore.Metal.Weighted>
-0.0000

> <Gold.Chemscore.Lipo.Weighted>
-8.9860

> <Gold.Chemscore.Internal_Hbond.Weighted>
0.0000

> <Gold.Chemscore.DEClash.Weighted>
1.2310

> <Gold.Chemscore.DEInternal.Weighted>
1.7843

> <Gold.Chemscore.Rot.Weighted>
8.5256

> <Gold.Chemscore.Internal.Correction.Weighted>
   9.000000E+99

> <Gold.Protein.RotatedTorsions>
[ 6907 6896 6895 6894 ] final -124.30 input  -60.11 | X-H torsion
[ 7974 7965 7964 7962 ] final -150.70 input  175.53 | X-H torsion
[ 8008 7997 7996 7995 ] final -110.82 input   59.86 | X-H torsion
[ 10167 10162 10161 10158 ] final -105.87 input  -65.29 | X-H torsion
[ 10718 10713 10712 10709 ] final  -75.13 input   66.30 | X-H torsion
[ 10763 10752 10751 10750 ] final   99.45 input  -60.55 | X-H torsion
[ 11005 11000 10999 10996 ] final  -20.34 input  -57.11 | X-H torsion

> <Gold.Protein.ActiveResidues>
 VAL166  LYS551  ARG553  GLY616  TRP617  ASP618  TYR619  PRO620  LYS621  CYS622 
 ASP623  PHE694  ASN695  SER759  ASP760  ASP761  ALA762  ILE779  LEU786  VAL792 
 PHE793  MET794  SER795  GLU796  ALA797  LYS798  CYS799  TRP800  GLU811  SER814 

> <Gold.Protein.RotatedAtoms>
  150.8754  133.7446  159.2947 H   0  0  0  0  0  0  0  0  0  0  0  0  # atno 6907 bound_to 6896
  151.5044  135.1061  159.9847 H   0  0  0  0  0  0  0  0  0  0  0  0  # atno 6908 bound_to 6896
  152.4724  133.8015  159.7011 H   0  0  0  0  0  0  0  0  0  0  0  0  # atno 6909 bound_to 6896
  144.7892  140.4897  143.5784 H   0  0  0  0  0  0  0  0  0  0  0  0  # atno 7974 bound_to 7965
  154.9803  140.0396  157.2275 H   0  0  0  0  0  0  0  0  0  0  0  0  # atno 8008 bound_to 7997
  154.7720  140.2803  155.6108 H   0  0  0  0  0  0  0  0  0  0  0  0  # atno 8009 bound_to 7997
  156.2922  140.2608  156.2525 H   0  0  0  0  0  0  0  0  0  0  0  0  # atno 8010 bound_to 7997
  140.1939  143.3871  152.1184 H   0  0  0  0  0  0  0  0  0  0  0  0  # atno 10167 bound_to 10162
  156.0218  130.4433  150.2996 H   0  0  0  0  0  0  0  0  0  0  0  0  # atno 10718 bound_to 10713
  153.3016  135.4113  155.1257 H   0  0  0  0  0  0  0  0  0  0  0  0  # atno 10763 bound_to 10752
  154.8551  135.3543  154.5844 H   0  0  0  0  0  0  0  0  0  0  0  0  # atno 10764 bound_to 10752
  153.6270  135.7062  153.5348 H   0  0  0  0  0  0  0  0  0  0  0  0  # atno 10765 bound_to 10752
  140.8455  133.7895  155.9908 H   0  0  0  0  0  0  0  0  0  0  0  0  # atno 11005 bound_to 11000
  145.5838  139.1490  143.3220 LP  0  0  0  0  0  0  0  0  0  0  0  0  # atno 17320 bound_to 7965
  146.2138  140.5967  142.9048 LP  0  0  0  0  0  0  0  0  0  0  0  0  # atno 17321 bound_to 7965
  139.5245  144.7084  151.5283 LP  0  0  0  0  0  0  0  0  0  0  0  0  # atno 17342 bound_to 10162
  140.6437  143.8837  150.6716 LP  0  0  0  0  0  0  0  0  0  0  0  0  # atno 17343 bound_to 10162
  157.1099  131.0218  151.3052 LP  0  0  0  0  0  0  0  0  0  0  0  0  # atno 17370 bound_to 10713
  157.4712  130.7710  149.7326 LP  0  0  0  0  0  0  0  0  0  0  0  0  # atno 17371 bound_to 10713
  140.8848  134.2567  157.5125 LP  0  0  0  0  0  0  0  0  0  0  0  0  # atno 17394 bound_to 11000
  139.8703  134.9633  156.4456 LP  0  0  0  0  0  0  0  0  0  0  0  0  # atno 17395 bound_to 11000

$$$$
