#       Name:                AV-unprocessed.smi:2101
#       Creating user name   scv26
#       Creation time:       Fri Mar 27 11:31:07 2020


#       File generated by GOLD software.
#

@<TRIPOS>MOLECULE
AV-unprocessed.smi:2101
    44    45     1
SMALL
NO_CHARGES


@<TRIPOS>ATOM
      1 ****        -4.9940   2.2581  -2.0974 C.3            1 S1                 0.0000
      2 ****        -5.3222   1.1227  -0.6879 S.o2           1 S1                 0.0000
      3 ****        -6.0261   1.8793   0.3589 O.2            1 S1                 0.0000
      4 ****        -5.9167  -0.1134  -1.2194 O.2            1 S1                 0.0000
      5 ****        -3.7347   0.7378  -0.0912 N.pl3          1 S1                 0.0000
      6 ****        -2.8914  -0.2213  -0.8414 C.3            1 S1                 0.0000
      7 ****        -1.7677   0.4946  -1.6161 C.3            1 S1                 0.0000
      8 ****        -1.0060   1.3301  -0.6787 N.am           1 S1                 0.0000
      9 ****         0.2102   1.0470  -0.1503 C.2            1 S1                 0.0000
     10 ****         0.6841   1.6503   0.8137 O.2            1 S1                 0.0000
     11 ****         0.8893   0.0780  -0.7883 N.am           1 S1                 0.0000
     12 ****         2.2191  -0.3930  -0.4187 C.3            1 S1                 0.0000
     13 ****         2.1587  -1.3882   0.7524 C.3            1 S1                 0.0000
     14 ****         3.5365  -1.8532   1.1806 C.ar           1 S1                 0.0000
     15 ****         4.0811  -3.0860   0.7597 C.ar           1 S1                 0.0000
     16 ****         5.3734  -3.4514   1.1921 C.ar           1 S1                 0.0000
     17 ****         6.0920  -2.5783   2.0353 C.ar           1 S1                 0.0000
     18 ****         5.5001  -1.3591   2.4239 C.ar           1 S1                 0.0000
     19 ****         4.2607  -1.0440   1.9874 N.pl3          1 S1                 1.0000
     20 ****        -1.8625   2.3919  -0.1471 C.3            1 S1                 0.0000
     21 ****        -2.9897   1.7537   0.6876 C.3            1 S1                 0.0000
     22 ****        -5.9424   2.5570  -2.5431 H              1 S1                 0.0000
     23 ****        -4.3919   1.7501  -2.8491 H              1 S1                 0.0000
     24 ****        -4.4733   3.1463  -1.7425 H              1 S1                 0.0000
     25 ****        -2.4547  -0.9232  -0.1299 H              1 S1                 0.0000
     26 ****        -3.5010  -0.8141  -1.5226 H              1 S1                 0.0000
     27 ****        -1.1596  -0.2421  -2.1409 H              1 S1                 0.0000
     28 ****        -2.1877   1.1259  -2.3993 H              1 S1                 0.0000
     29 ****         0.4514  -0.3628  -1.5843 H              1 S1                 0.0000
     30 ****         2.6673  -0.8708  -1.2905 H              1 S1                 0.0000
     31 ****         2.8566   0.4572  -0.1698 H              1 S1                 0.0000
     32 ****         1.6635  -0.9344   1.6122 H              1 S1                 0.0000
     33 ****         1.5571  -2.2547   0.4747 H              1 S1                 0.0000
     34 ****         3.5190  -3.7433   0.1121 H              1 S1                 0.0000
     35 ****         5.8087  -4.3898   0.8805 H              1 S1                 0.0000
     36 ****         7.0825  -2.8399   2.3782 H              1 S1                 0.0000
     37 ****         5.9763  -0.6317   3.0653 H              1 S1                 0.0000
     38 ****        -1.3087   3.1081   0.4614 H              1 S1                 0.0000
     39 ****        -2.2764   2.9719  -0.9721 H              1 S1                 0.0000
     40 ****        -3.6670   2.5225   1.0582 H              1 S1                 0.0000
     41 ****        -2.5643   1.2689   1.5671 H              1 S1                 0.0000
     42 ****         3.8518  -0.1560   2.2802 H              1 S1                 0.0000
     43 ****         0.1660   2.3889   1.2451 LP             1 S1                 0.0000
     44 ****         1.5868   1.4014   1.1647 LP             1 S1                 0.0000
@<TRIPOS>BOND
    1    1    2 1     
    2    1   22 1     
    3    1   23 1     
    4    1   24 1     
    5    2    3 2     
    6    2    4 2     
    7    2    5 1     
    8    5   21 1     
    9    5    6 1     
   10    6    7 1     
   11    6   25 1     
   12    6   26 1     
   13    7    8 1     
   14    7   27 1     
   15    7   28 1     
   16    8    9 am    
   17    8   20 1     
   18    9   10 2     
   19    9   11 am    
   20   11   12 1     
   21   11   29 1     
   22   12   13 1     
   23   12   30 1     
   24   12   31 1     
   25   13   14 1     
   26   13   32 1     
   27   13   33 1     
   28   14   19 ar    
   29   14   15 ar    
   30   15   16 ar    
   31   15   34 1     
   32   16   17 ar    
   33   16   35 1     
   34   17   18 ar    
   35   17   36 1     
   36   18   19 ar    
   37   18   37 1     
   38   19   42 1     
   39   20   21 1     
   40   20   38 1     
   41   20   39 1     
   42   21   40 1     
   43   21   41 1     
   44   10   43 1     
   45   10   44 1     
@<TRIPOS>SUBSTRUCTURE
      1 S1             1
@<TRIPOS>SET
LONE_PAIRS      STATIC     ATOMS    <user>   **** ""
4 3 4 43 44
DONOR_HYDROGENS      STATIC     ATOMS    <user>   **** ""
2 29 42
ATOM$BLUE        STATIC     ATOMS    COLORGROUP SYSTEM
4 3 4 43 44
ATOM$RED        STATIC     ATOMS    COLORGROUP SYSTEM
2 29 42
