AV-unprocessed.smi:281|AV-procd|sdf|2108|dock4
  -GOLD-   2262021403D 1   1.00000     0.00000
 Structure written by MMmdl.
 55 59  0  0  0  0  0  0  0  0  1 V2000
  153.3562  138.7075  154.4318 C   0  0  0  0  0  0  0  0  0  0  0  0
  152.2673  138.8705  155.4973 C   0  0  1  0  0  0  0  0  0  0  0  0
  151.7561  137.5139  156.0123 C   0  0  0  0  0  0  0  0  0  0  0  0
  150.8013  137.7243  157.0914 N   0  0  0  0  0  0  0  0  0  0  0  0
  150.1549  136.6138  157.5018 C   0  0  0  0  0  0  0  0  0  0  0  0
  150.4532  135.4572  156.8617 N   0  0  0  0  0  0  0  0  0  0  0  0
  149.8419  134.3224  157.2155 C   0  0  0  0  0  0  0  0  0  0  0  0
  148.9205  134.1298  158.1620 N   0  0  0  0  0  0  0  0  0  0  0  0
  148.6162  135.2943  158.8045 C   0  0  0  0  0  0  0  0  0  0  0  0
  149.1772  136.5744  158.5359 C   0  0  0  0  0  0  0  0  0  0  0  0
  148.6106  137.5253  159.3758 N   0  0  0  0  0  0  0  0  0  0  0  0
  147.7686  136.8450  160.1044 C   0  0  0  0  0  0  0  0  0  0  0  0
  147.7174  135.4950  159.8380 N   0  0  0  0  0  0  0  0  0  0  0  0
  146.8805  134.5047  160.4992 C   0  0  0  0  0  0  0  0  0  0  0  0
  146.4230  134.9246  161.9176 C   0  0  2  0  0  0  0  0  0  0  0  0
  147.5604  135.2913  162.6771 O   0  0  0  0  0  0  0  0  0  0  0  0
  145.6753  133.8059  162.6476 C   0  0  0  0  0  0  0  0  0  0  0  0
  144.2356  134.3044  162.6959 C   0  0  0  0  0  0  0  0  0  0  0  0
  144.3949  135.7052  162.8286 O   0  0  0  0  0  0  0  0  0  0  0  0
  145.4174  136.0935  161.9230 C   0  0  0  0  0  0  0  0  0  0  0  0
  151.3574  138.5033  158.1883 C   0  0  0  0  0  0  0  0  0  0  0  0
  151.9133  139.8532  157.6678 C   0  0  1  0  0  0  0  0  0  0  0  0
  150.8136  140.8307  157.2636 C   0  0  0  0  0  0  0  0  0  0  0  0
  150.4383  141.4928  158.5839 C   0  0  0  0  0  0  0  0  0  0  0  0
  151.6355  141.5175  159.3510 O   0  0  0  0  0  0  0  0  0  0  0  0
  152.6292  140.6970  158.7420 C   0  0  1  0  0  0  0  0  0  0  0  0
  153.4318  139.9327  159.8047 C   0  0  0  0  0  0  0  0  0  0  0  0
  152.8194  139.6129  156.5858 O   0  0  0  0  0  0  0  0  0  0  0  0
  152.9815  138.1573  153.5683 H   0  0  0  0  0  0  0  0  0  0  0  0
  154.2168  138.1665  154.8263 H   0  0  0  0  0  0  0  0  0  0  0  0
  153.7056  139.6786  154.0803 H   0  0  0  0  0  0  0  0  0  0  0  0
  151.4405  139.4286  155.0564 H   0  0  0  0  0  0  0  0  0  0  0  0
  151.2827  136.9566  155.2027 H   0  0  0  0  0  0  0  0  0  0  0  0
  152.5963  136.9174  156.3687 H   0  0  0  0  0  0  0  0  0  0  0  0
  150.1329  133.4425  156.6609 H   0  0  0  0  0  0  0  0  0  0  0  0
  147.1604  137.3142  160.8640 H   0  0  0  0  0  0  0  0  0  0  0  0
  146.0118  134.3176  159.8663 H   0  0  0  0  0  0  0  0  0  0  0  0
  147.4324  133.5648  160.5434 H   0  0  0  0  0  0  0  0  0  0  0  0
  148.0870  134.5196  162.8196 H   0  0  0  0  0  0  0  0  0  0  0  0
  145.7591  132.8348  162.1582 H   0  0  0  0  0  0  0  0  0  0  0  0
  146.0444  133.6886  163.6680 H   0  0  0  0  0  0  0  0  0  0  0  0
  143.7105  134.0789  161.7660 H   0  0  0  0  0  0  0  0  0  0  0  0
  143.6691  133.8815  163.5257 H   0  0  0  0  0  0  0  0  0  0  0  0
  145.8587  137.0512  162.2020 H   0  0  0  0  0  0  0  0  0  0  0  0
  144.9540  136.2175  160.9437 H   0  0  0  0  0  0  0  0  0  0  0  0
  150.6006  138.6659  158.9570 H   0  0  0  0  0  0  0  0  0  0  0  0
  152.1559  137.9185  158.6461 H   0  0  0  0  0  0  0  0  0  0  0  0
  151.2182  141.5838  156.5858 H   0  0  0  0  0  0  0  0  0  0  0  0
  149.9613  140.3634  156.7695 H   0  0  0  0  0  0  0  0  0  0  0  0
  150.0323  142.4951  158.4462 H   0  0  0  0  0  0  0  0  0  0  0  0
  149.6949  140.8970  159.1145 H   0  0  0  0  0  0  0  0  0  0  0  0
  153.3073  141.3840  158.2327 H   0  0  0  0  0  0  0  0  0  0  0  0
  154.1778  139.2861  159.3420 H   0  0  0  0  0  0  0  0  0  0  0  0
  152.7869  139.3152  160.4303 H   0  0  0  0  0  0  0  0  0  0  0  0
  153.9563  140.6254  160.4627 H   0  0  0  0  0  0  0  0  0  0  0  0
  1  2  1  0  0  0  0
  1 29  1  0  0  0  0
  1 30  1  0  0  0  0
  1 31  1  0  0  0  0
  2 28  1  0  0  0  0
  2  3  1  0  0  0  0
  2 32  1  0  0  0  0
  3  4  1  0  0  0  0
  3 33  1  0  0  0  0
  3 34  1  0  0  0  0
  4  5  1  0  0  0  0
  4 21  1  0  0  0  0
  5 10  1  0  0  0  0
  5  6  2  0  0  0  0
  6  7  1  0  0  0  0
  7  8  2  0  0  0  0
  7 35  1  0  0  0  0
  8  9  1  0  0  0  0
  9 13  1  0  0  0  0
  9 10  2  0  0  0  0
 10 11  1  0  0  0  0
 11 12  2  0  0  0  0
 12 13  1  0  0  0  0
 12 36  1  0  0  0  0
 13 14  1  0  0  0  0
 14 15  1  0  0  0  0
 14 37  1  0  0  0  0
 14 38  1  0  0  0  0
 15 20  1  0  0  0  0
 15 16  1  0  0  0  0
 15 17  1  0  0  0  0
 16 39  1  0  0  0  0
 17 18  1  0  0  0  0
 17 40  1  0  0  0  0
 17 41  1  0  0  0  0
 18 19  1  0  0  0  0
 18 42  1  0  0  0  0
 18 43  1  0  0  0  0
 19 20  1  0  0  0  0
 20 44  1  0  0  0  0
 20 45  1  0  0  0  0
 21 22  1  0  0  0  0
 21 46  1  0  0  0  0
 21 47  1  0  0  0  0
 22 26  1  0  0  0  0
 22 23  1  0  0  0  0
 22 28  1  0  0  0  0
 23 24  1  0  0  0  0
 23 48  1  0  0  0  0
 23 49  1  0  0  0  0
 24 25  1  0  0  0  0
 24 50  1  0  0  0  0
 24 51  1  0  0  0  0
 25 26  1  0  0  0  0
 26 27  1  0  0  0  0
 26 52  1  0  0  0  0
 27 53  1  0  0  0  0
 27 54  1  0  0  0  0
 27 55  1  0  0  0  0
M  END
> <s_m_source_file>
AV-unprocessed.smi

> <i_m_source_file_index>
281

> <i_lp_mmshare_version>
43012

> <i_f3d_flags>
0

> <s_epik_input>
W0NIM11bQ0BASF0xT1tDSDJdW0NIMl1bQ0BAXTEyW0NIMl1OKFtDSDJdW0NASF0oTzIpW0NIM10pYyhuW2NIXW4zKWMoYzM0KW5bY0hdbjRbQ0gyXVtDQEBdNShbT0hdKVtDSDJdW0NIMl1PW0NIMl01

> <s_epik_cmdline>
J2VwaWtfcHl0aG9uJywgJy1waCcsICc3LjAnLCAnLXRuJywgJzgnLCAnLW1hJywgJzIwMCcsICctbWV0YWxfYmluZGluZycsICctaW1hZScsICc8aW5maWxlLm1hZT4nLCAnLW9tYWUnLCAnPG91dGZpbGUubWFlPic=

> <r_lp_tautomer_probability>
1

> <r_epik_Ionization_Penalty>
0.00571331

> <r_epik_Ionization_Penalty_Charging>
0

> <r_epik_Ionization_Penalty_Neutral>
0.00571331

> <r_epik_State_Penalty>
0.00399586

> <r_epik_Charging_Adjusted_Penalty>
0.00399586

> <i_epik_Tot_Q>
0

> <i_epik_Tot_abs_Q>
0

> <r_epik_Metal_State_Penalty>
-0

> <b_epik_Metal_Only>
0

> <s_lp_Force_Field>
OPLS_2005

> <r_lp_Energy>
55.9706

> <b_lp_Chiralities_Consistent>
1

> <s_lp_Variant>
AV-unprocessed.smi:281-8

> <Gold.Version>
5.8.1

> <Gold.Id.Protein>
6NUR|6NUR_protein|mol2

> <Gold.PLP.Fitness>
38.4493

> <Gold.PLP.PLP>
-36.2688

> <Gold.PLP.part.hbond>
-2.7165

> <Gold.PLP.part.metal>
0.0000

> <Gold.PLP.part.buried>
-5.9184

> <Gold.PLP.part.nonpolar>
-28.0511

> <Gold.PLP.part.repulsive>
0.0442

> <Gold.PLP.ligand.clash>
0.0000

> <Gold.PLP.ligand.torsion>
0.4897

> <Gold.PLP.Chemscore.Hbond>
1.0078

> <Gold.PLP.Chemscore.CHOScore>
0.0000

> <Gold.PLP.Chemscore.Metal>
0.0000

> <Gold.Chemscore.Hbonds>
donor molecule, donor type, donor heavy atom, donor atom, acceptor molecule, acceptor atom, score
      P1  H  6896  6908       L1     8  0.01
      P1  H  7997  8008       L1    28  1.00

> <Gold.PLP.Chemscore.Internal.Correction>
0.1365

> <Gold.Rescore>
     Score         DG    S(hbond)    S(metal)    S(lipo)     H(rot)  DE(clash)    DE(int)     intcor
     12.93     -14.35       0.97        0.00      94.00       2.09       0.17       1.26       ----

> <Gold.Chemscore.Fitness>
12.9285

> <Gold.Chemscore.DG>
-14.3528

> <Gold.Chemscore.ZeroCoef>
-5.4800

> <Gold.Chemscore.Hbond>
0.9675

> <Gold.Chemscore.Metal>
0.0000

> <Gold.Chemscore.Lipo>
94.0049

> <Gold.Chemscore.Internal_Hbond>
0.0000

> <Gold.Chemscore.DEClash>
0.1659

> <Gold.Chemscore.DEInternal>
1.2584

> <Gold.Chemscore.Rot>
2.0927

> <Gold.Chemscore.Internal.Correction>
   9.000000E+99

> <Gold.Chemscore.Hbonds>
donor molecule, donor type, donor heavy atom, donor atom, acceptor molecule, acceptor atom, score
      P1  H  7997  8008       L1    28  0.96

> <Gold.Chemscore.Hbond.Weighted>
-3.2316

> <Gold.Chemscore.Metal.Weighted>
-0.0000

> <Gold.Chemscore.Lipo.Weighted>
-10.9986

> <Gold.Chemscore.Internal_Hbond.Weighted>
0.0000

> <Gold.Chemscore.DEClash.Weighted>
0.1659

> <Gold.Chemscore.DEInternal.Weighted>
1.2584

> <Gold.Chemscore.Rot.Weighted>
5.3573

> <Gold.Chemscore.Internal.Correction.Weighted>
   9.000000E+99

> <Gold.Protein.RotatedTorsions>
[ 6907 6896 6895 6894 ] final  145.84 input  -60.11 | X-H torsion
[ 7974 7965 7964 7962 ] final   26.88 input  175.53 | X-H torsion
[ 8008 7997 7996 7995 ] final  -65.99 input   59.86 | X-H torsion
[ 10167 10162 10161 10158 ] final  -28.24 input  -65.29 | X-H torsion
[ 10718 10713 10712 10709 ] final -100.51 input   66.30 | X-H torsion
[ 10763 10752 10751 10750 ] final  -76.72 input  -60.55 | X-H torsion
[ 11005 11000 10999 10996 ] final -119.75 input  -57.11 | X-H torsion

> <Gold.Protein.ActiveResidues>
 VAL166  LYS551  ARG553  GLY616  TRP617  ASP618  TYR619  PRO620  LYS621  CYS622 
 ASP623  PHE694  ASN695  SER759  ASP760  ASP761  ALA762  ILE779  LEU786  VAL792 
 PHE793  MET794  SER795  GLU796  ALA797  LYS798  CYS799  TRP800  GLU811  SER814 

> <Gold.Protein.RotatedAtoms>
  152.1757  133.4673  159.4931 H   0  0  0  0  0  0  0  0  0  0  0  0  # atno 6907 bound_to 6896
  150.6926  134.1897  159.4289 H   0  0  0  0  0  0  0  0  0  0  0  0  # atno 6908 bound_to 6896
  151.9806  135.0030  160.0608 H   0  0  0  0  0  0  0  0  0  0  0  0  # atno 6909 bound_to 6896
  146.1814  139.7268  142.8897 H   0  0  0  0  0  0  0  0  0  0  0  0  # atno 7974 bound_to 7965
  154.4706  140.0922  156.7134 H   0  0  0  0  0  0  0  0  0  0  0  0  # atno 8008 bound_to 7997
  155.4735  140.3465  155.4311 H   0  0  0  0  0  0  0  0  0  0  0  0  # atno 8009 bound_to 7997
  156.1032  140.1428  156.9428 H   0  0  0  0  0  0  0  0  0  0  0  0  # atno 8010 bound_to 7997
  140.7271  143.4027  151.1238 H   0  0  0  0  0  0  0  0  0  0  0  0  # atno 10167 bound_to 10162
  156.0165  130.5331  150.6827 H   0  0  0  0  0  0  0  0  0  0  0  0  # atno 10718 bound_to 10713
  154.5035  135.5788  153.6549 H   0  0  0  0  0  0  0  0  0  0  0  0  # atno 10763 bound_to 10752
  152.9883  135.6141  154.2971 H   0  0  0  0  0  0  0  0  0  0  0  0  # atno 10764 bound_to 10752
  154.2881  135.2849  155.2647 H   0  0  0  0  0  0  0  0  0  0  0  0  # atno 10765 bound_to 10752
  141.0193  134.0148  157.3305 H   0  0  0  0  0  0  0  0  0  0  0  0  # atno 11005 bound_to 11000
  145.4064  141.0391  143.3041 LP  0  0  0  0  0  0  0  0  0  0  0  0  # atno 17320 bound_to 7965
  144.8322  139.5609  143.6938 LP  0  0  0  0  0  0  0  0  0  0  0  0  # atno 17321 bound_to 7965
  139.7649  143.8580  152.3108 LP  0  0  0  0  0  0  0  0  0  0  0  0  # atno 17342 bound_to 10162
  139.8479  144.7179  150.9250 LP  0  0  0  0  0  0  0  0  0  0  0  0  # atno 17343 bound_to 10162
  157.4526  131.0874  151.0830 LP  0  0  0  0  0  0  0  0  0  0  0  0  # atno 17370 bound_to 10713
  157.1341  130.6115  149.5537 LP  0  0  0  0  0  0  0  0  0  0  0  0  # atno 17371 bound_to 10713
  139.9136  135.0194  156.7792 LP  0  0  0  0  0  0  0  0  0  0  0  0  # atno 17394 bound_to 11000
  140.6600  133.9653  155.7800 LP  0  0  0  0  0  0  0  0  0  0  0  0  # atno 17395 bound_to 11000

$$$$
