AV-unprocessed.smi:1570|AV-procd|sdf|6325|dock9
  -GOLD-   22720 6533D 1   1.00000     0.00000
 Structure written by MMmdl.
 52 54  0  0  0  0  0  0  0  0  2 V2000
  154.8117  140.5076  160.1961 C   0  0  0  0  0  0  0  0  0  0  0  0
  153.4488  141.0371  160.6592 C   0  0  0  0  0  0  0  0  0  0  0  0
  152.7633  141.7474  159.5828 N   0  0  0  0  0  0  0  0  0  0  0  0
  152.4043  141.2386  158.3810 C   0  0  0  0  0  0  0  0  0  0  0  0
  152.5909  140.0839  157.9968 O   0  0  0  0  0  0  0  0  0  0  0  0
  151.7827  142.2157  157.6793 N   0  0  0  0  0  0  0  0  0  0  0  0
  151.2207  142.0932  156.3360 C   0  0  0  0  0  0  0  0  0  0  0  0
  149.7886  141.5204  156.3704 C   0  0  1  0  0  0  0  0  0  0  0  0
  148.9166  142.5437  156.8096 O   0  0  0  0  0  0  0  0  0  0  0  0
  149.3193  141.0737  154.9707 C   0  0  0  0  0  0  0  0  0  0  0  0
  147.8414  141.1494  154.8107 N   0  3  1  0  0  0  0  0  0  0  0  0
  147.3787  140.8630  153.4312 C   0  0  0  0  0  0  0  0  0  0  0  0
  147.3833  139.3480  153.1416 C   0  0  2  0  0  0  0  0  0  0  0  0
  146.8252  139.0265  151.7511 C   0  0  0  0  0  0  0  0  0  0  0  0
  146.5686  138.6918  154.1070 O   0  0  0  0  0  0  0  0  0  0  0  0
  147.0481  138.8538  155.4377 C   0  0  2  0  0  0  0  0  0  0  0  0
  146.1377  138.0501  156.3725 C   0  0  0  0  0  0  0  0  0  0  0  0
  147.0598  140.3559  155.7941 C   0  0  0  0  0  0  0  0  0  0  0  0
  151.7154  143.3744  158.4659 C   0  0  0  0  0  0  0  0  0  0  0  0
  151.1525  144.6368  158.2093 C   0  0  0  0  0  0  0  0  0  0  0  0
  151.2418  145.6054  159.2366 C   0  0  0  0  0  0  0  0  0  0  0  0
  151.8745  145.3011  160.4696 C   0  0  0  0  0  0  0  0  0  0  0  0
  152.4320  144.0220  160.7021 C   0  0  0  0  0  0  0  0  0  0  0  0
  152.3313  143.0791  159.6643 C   0  0  0  0  0  0  0  0  0  0  0  0
  155.3158  139.9773  161.0041 H   0  0  0  0  0  0  0  0  0  0  0  0
  155.4631  141.3210  159.8751 H   0  0  0  0  0  0  0  0  0  0  0  0
  154.7027  139.8146  159.3612 H   0  0  0  0  0  0  0  0  0  0  0  0
  152.8260  140.2130  161.0086 H   0  0  0  0  0  0  0  0  0  0  0  0
  153.5800  141.6999  161.5162 H   0  0  0  0  0  0  0  0  0  0  0  0
  151.2604  143.0454  155.8053 H   0  0  0  0  0  0  0  0  0  0  0  0
  151.8719  141.4235  155.7719 H   0  0  0  0  0  0  0  0  0  0  0  0
  149.7402  140.6854  157.0684 H   0  0  0  0  0  0  0  0  0  0  0  0
  148.9679  143.2671  156.2034 H   0  0  0  0  0  0  0  0  0  0  0  0
  149.8028  141.7087  154.2266 H   0  0  0  0  0  0  0  0  0  0  0  0
  149.6606  140.0593  154.7644 H   0  0  0  0  0  0  0  0  0  0  0  0
  146.3646  141.2510  153.3253 H   0  0  0  0  0  0  0  0  0  0  0  0
  147.9878  141.4016  152.7044 H   0  0  0  0  0  0  0  0  0  0  0  0
  148.4003  138.9568  153.2023 H   0  0  0  0  0  0  0  0  0  0  0  0
  147.4203  139.5001  150.9699 H   0  0  0  0  0  0  0  0  0  0  0  0
  145.7974  139.3753  151.6473 H   0  0  0  0  0  0  0  0  0  0  0  0
  146.8322  137.9519  151.5674 H   0  0  0  0  0  0  0  0  0  0  0  0
  148.0544  138.4395  155.5081 H   0  0  0  0  0  0  0  0  0  0  0  0
  146.4698  138.1297  157.4079 H   0  0  0  0  0  0  0  0  0  0  0  0
  146.1390  136.9933  156.1041 H   0  0  0  0  0  0  0  0  0  0  0  0
  145.1074  138.4042  156.3235 H   0  0  0  0  0  0  0  0  0  0  0  0
  147.4283  140.5066  156.8078 H   0  0  0  0  0  0  0  0  0  0  0  0
  146.0367  140.7345  155.7876 H   0  0  0  0  0  0  0  0  0  0  0  0
  150.6672  144.8624  157.2714 H   0  0  0  0  0  0  0  0  0  0  0  0
  150.8204  146.5878  159.0812 H   0  0  0  0  0  0  0  0  0  0  0  0
  151.9291  146.0548  161.2415 H   0  0  0  0  0  0  0  0  0  0  0  0
  152.9101  143.7834  161.6406 H   0  0  0  0  0  0  0  0  0  0  0  0
  147.6158  142.1196  154.9807 H   0  0  0  0  0  0  0  0  0  0  0  0
  1  2  1  0  0  0  0
  1 25  1  0  0  0  0
  1 26  1  0  0  0  0
  1 27  1  0  0  0  0
  2  3  1  0  0  0  0
  2 28  1  0  0  0  0
  2 29  1  0  0  0  0
  3 24  1  0  0  0  0
  3  4  1  0  0  0  0
  4  5  2  0  0  0  0
  4  6  1  0  0  0  0
  6  7  1  0  0  0  0
  6 19  1  0  0  0  0
  7  8  1  0  0  0  0
  7 30  1  0  0  0  0
  7 31  1  0  0  0  0
  8  9  1  0  0  0  0
  8 10  1  0  0  0  0
  8 32  1  0  0  0  0
  9 33  1  0  0  0  0
 10 11  1  0  0  0  0
 10 34  1  0  0  0  0
 10 35  1  0  0  0  0
 11 18  1  0  0  0  0
 11 12  1  0  0  0  0
 11 52  1  0  0  0  0
 12 13  1  0  0  0  0
 12 36  1  0  0  0  0
 12 37  1  0  0  0  0
 13 14  1  0  0  0  0
 13 15  1  0  0  0  0
 13 38  1  0  0  0  0
 14 39  1  0  0  0  0
 14 40  1  0  0  0  0
 14 41  1  0  0  0  0
 15 16  1  0  0  0  0
 16 17  1  0  0  0  0
 16 18  1  0  0  0  0
 16 42  1  0  0  0  0
 17 43  1  0  0  0  0
 17 44  1  0  0  0  0
 17 45  1  0  0  0  0
 18 46  1  0  0  0  0
 18 47  1  0  0  0  0
 19 24  2  0  0  0  0
 19 20  1  0  0  0  0
 20 21  2  0  0  0  0
 20 48  1  0  0  0  0
 21 22  1  0  0  0  0
 21 49  1  0  0  0  0
 22 23  2  0  0  0  0
 22 50  1  0  0  0  0
 23 24  1  0  0  0  0
 23 51  1  0  0  0  0
M  CHG  1  11   1
M  END
> <s_m_source_file>
AV-unprocessed.smi

> <i_m_source_file_index>
1570

> <i_lp_mmshare_version>
43012

> <i_f3d_flags>
0

> <s_epik_input>
W2NIXTFbY0hdW2NIXVtjSF1jKGMxMiluKFtDSDJdW0NIM10pYyg9TyluMltDSDJdW0NASF0oW09IXSlbQ0gyXU4zW0NIMl1bQ0BASF0oW0NIM10pT1tDQEBIXShbQ0gzXSlbQ0gyXTM=

> <s_epik_cmdline>
J2VwaWtfcHl0aG9uJywgJy1waCcsICc3LjAnLCAnLXRuJywgJzgnLCAnLW1hJywgJzIwMCcsICctbWV0YWxfYmluZGluZycsICctaW1hZScsICc8aW5maWxlLm1hZT4nLCAnLW9tYWUnLCAnPG91dGZpbGUubWFlPic=

> <r_epik_Ionization_Penalty>
0.706332

> <r_epik_Ionization_Penalty_Charging>
0.706318

> <r_epik_Ionization_Penalty_Neutral>
1.42224e-05

> <r_epik_State_Penalty>
0.729493

> <r_epik_Charging_Adjusted_Penalty>
1.43581

> <i_epik_Tot_Q>
1

> <i_epik_Tot_abs_Q>
1

> <r_epik_Metal_State_Penalty>
0.729493

> <b_epik_Metal_Only>
0

> <s_lp_Force_Field>
OPLS_2005

> <r_lp_Energy>
54.0737

> <b_lp_Chiralities_Consistent>
1

> <s_lp_Variant>
AV-unprocessed.smi:1570-14

> <Gold.Version>
5.8.1

> <Gold.Id.Protein>
6NUR|6NUR_protein|mol2

> <Gold.PLP.Fitness>
52.4873

> <Gold.PLP.PLP>
-47.9977

> <Gold.PLP.part.hbond>
-2.0000

> <Gold.PLP.part.metal>
0.0000

> <Gold.PLP.part.buried>
-4.1542

> <Gold.PLP.part.nonpolar>
-40.8890

> <Gold.PLP.part.repulsive>
0.1897

> <Gold.PLP.ligand.clash>
0.0000

> <Gold.PLP.ligand.torsion>
0.7935

> <Gold.PLP.Chemscore.Hbond>
2.0000

> <Gold.PLP.Chemscore.CHOScore>
0.0000

> <Gold.PLP.Chemscore.Metal>
0.0000

> <Gold.Chemscore.Hbonds>
donor molecule, donor type, donor heavy atom, donor atom, acceptor molecule, acceptor atom, score
      L1  H     9    33       P1  8028  1.00
      P1  H  7997  8010       L1     5  0.52

> <Gold.PLP.Chemscore.Internal.Correction>
0.0766

> <Gold.Rescore>
     Score         DG    S(hbond)    S(metal)    S(lipo)     H(rot)  DE(clash)    DE(int)     intcor
     20.51     -21.26       1.91        0.00     126.87       2.13       0.05       0.69       ----

> <Gold.Chemscore.Fitness>
20.5145

> <Gold.Chemscore.DG>
-21.2595

> <Gold.Chemscore.ZeroCoef>
-5.4800

> <Gold.Chemscore.Hbond>
1.9128

> <Gold.Chemscore.Metal>
0.0000

> <Gold.Chemscore.Lipo>
126.8747

> <Gold.Chemscore.Internal_Hbond>
0.0000

> <Gold.Chemscore.DEClash>
0.0511

> <Gold.Chemscore.DEInternal>
0.6939

> <Gold.Chemscore.Rot>
2.1303

> <Gold.Chemscore.Internal.Correction>
   9.000000E+99

> <Gold.Chemscore.Hbonds>
donor molecule, donor type, donor heavy atom, donor atom, acceptor molecule, acceptor atom, score
      L1  H     9    33       P1  8028  0.95
      P1  H  7997  8010       L1     5  0.30

> <Gold.Chemscore.Hbond.Weighted>
-6.3887

> <Gold.Chemscore.Metal.Weighted>
-0.0000

> <Gold.Chemscore.Lipo.Weighted>
-14.8443

> <Gold.Chemscore.Internal_Hbond.Weighted>
0.0000

> <Gold.Chemscore.DEClash.Weighted>
0.0511

> <Gold.Chemscore.DEInternal.Weighted>
0.6939

> <Gold.Chemscore.Rot.Weighted>
5.4535

> <Gold.Chemscore.Internal.Correction.Weighted>
   9.000000E+99

> <Gold.Protein.RotatedTorsions>
[ 6907 6896 6895 6894 ] final  -81.41 input  -60.11 | X-H torsion
[ 7974 7965 7964 7962 ] final   29.38 input  175.53 | X-H torsion
[ 8008 7997 7996 7995 ] final   56.91 input   59.86 | X-H torsion
[ 10167 10162 10161 10158 ] final   23.26 input  -65.29 | X-H torsion
[ 10718 10713 10712 10709 ] final  158.60 input   66.30 | X-H torsion
[ 10763 10752 10751 10750 ] final   27.32 input  -60.55 | X-H torsion
[ 11005 11000 10999 10996 ] final  -50.46 input  -57.11 | X-H torsion

> <Gold.Protein.ActiveResidues>
 VAL166  LYS551  ARG553  GLY616  TRP617  ASP618  TYR619  PRO620  LYS621  CYS622 
 ASP623  PHE694  ASN695  SER759  ASP760  ASP761  ALA762  ILE779  LEU786  VAL792 
 PHE793  MET794  SER795  GLU796  ALA797  LYS798  CYS799  TRP800  GLU811  SER814 

> <Gold.Protein.RotatedAtoms>
  150.6912  134.3821  159.5038 H   0  0  0  0  0  0  0  0  0  0  0  0  # atno 6907 bound_to 6896
  152.1622  134.8900  160.0550 H   0  0  0  0  0  0  0  0  0  0  0  0  # atno 6908 bound_to 6896
  151.9958  133.3772  159.4199 H   0  0  0  0  0  0  0  0  0  0  0  0  # atno 6909 bound_to 6896
  146.1675  139.6930  142.8991 H   0  0  0  0  0  0  0  0  0  0  0  0  # atno 7974 bound_to 7965
  155.5252  140.3480  155.4415 H   0  0  0  0  0  0  0  0  0  0  0  0  # atno 8008 bound_to 7997
  156.0757  140.1374  156.9801 H   0  0  0  0  0  0  0  0  0  0  0  0  # atno 8009 bound_to 7997
  154.4552  140.0956  156.6711 H   0  0  0  0  0  0  0  0  0  0  0  0  # atno 8010 bound_to 7997
  140.5283  143.9885  150.6452 H   0  0  0  0  0  0  0  0  0  0  0  0  # atno 10167 bound_to 10162
  157.1757  131.0620  151.2159 H   0  0  0  0  0  0  0  0  0  0  0  0  # atno 10718 bound_to 10713
  153.0564  135.6540  154.0568 H   0  0  0  0  0  0  0  0  0  0  0  0  # atno 10763 bound_to 10752
  154.0245  135.2917  155.3378 H   0  0  0  0  0  0  0  0  0  0  0  0  # atno 10764 bound_to 10752
  154.6881  135.5294  153.8421 H   0  0  0  0  0  0  0  0  0  0  0  0  # atno 10765 bound_to 10752
  141.0817  133.6652  156.3734 H   0  0  0  0  0  0  0  0  0  0  0  0  # atno 11005 bound_to 11000
  145.4429  141.0423  143.2847 LP  0  0  0  0  0  0  0  0  0  0  0  0  # atno 17320 bound_to 7965
  144.8113  139.5956  143.7028 LP  0  0  0  0  0  0  0  0  0  0  0  0  # atno 17321 bound_to 7965
  140.3253  143.3111  152.0743 LP  0  0  0  0  0  0  0  0  0  0  0  0  # atno 17342 bound_to 10162
  139.4946  144.6546  151.6600 LP  0  0  0  0  0  0  0  0  0  0  0  0  # atno 17343 bound_to 10162
  157.4001  130.7328  149.6760 LP  0  0  0  0  0  0  0  0  0  0  0  0  # atno 17370 bound_to 10713
  155.9732  130.4123  150.4025 LP  0  0  0  0  0  0  0  0  0  0  0  0  # atno 17371 bound_to 10713
  140.5454  134.6080  157.5392 LP  0  0  0  0  0  0  0  0  0  0  0  0  # atno 17394 bound_to 11000
  139.9631  134.7418  156.0194 LP  0  0  0  0  0  0  0  0  0  0  0  0  # atno 17395 bound_to 11000

$$$$
