AV-unprocessed.smi:1534|AV-procd|sdf|6166|dock4
  -GOLD-   22720 6313D 1   1.00000     0.00000
 Structure written by MMmdl.
 36 37  0  0  0  0  0  0  0  0  1 V2000
  149.3854  134.3995  155.9910 O   0  0  0  0  0  0  0  0  0  0  0  0
  149.2403  134.8450  154.8545 C   0  0  0  0  0  0  0  0  0  0  0  0
  148.3778  134.3306  153.9627 N   0  0  0  0  0  0  0  0  0  0  0  0
  147.5646  133.1370  154.1702 C   0  0  0  0  0  0  0  0  0  0  0  0
  147.5417  132.2104  152.9371 C   0  0  0  0  0  0  0  0  0  0  0  0
  146.3373  132.4275  152.0353 C   0  0  0  0  0  0  0  0  0  0  0  0
  145.3579  131.4217  151.8848 C   0  0  0  0  0  0  0  0  0  0  0  0
  144.2720  131.6655  151.0222 C   0  0  0  0  0  0  0  0  0  0  0  0
  144.2070  132.8992  150.3467 C   0  0  0  0  0  0  0  0  0  0  0  0
  145.2334  133.8392  150.5674 C   0  0  0  0  0  0  0  0  0  0  0  0
  146.2792  133.6152  151.3922 N   0  0  0  0  0  0  0  0  0  0  0  0
  149.9523  135.8940  154.4056 N   0  0  0  0  0  0  0  0  0  0  0  0
  150.9648  136.6718  155.1223 C   0  0  2  0  0  0  0  0  0  0  0  0
  150.4147  137.2953  156.4237 C   0  0  0  0  0  0  0  0  0  0  0  0
  151.3803  138.3873  156.8974 C   0  0  0  0  0  0  0  0  0  0  0  0
  152.1499  139.0781  155.3849 S   0  0  0  0  0  0  0  0  0  0  0  0
  151.5396  140.3787  155.0706 O   0  0  0  0  0  0  0  0  0  0  0  0
  153.6097  138.9305  155.4834 O   0  0  0  0  0  0  0  0  0  0  0  0
  151.4849  137.8135  154.2378 C   0  0  0  0  0  0  0  0  0  0  0  0
  148.3156  134.7689  153.0556 H   0  0  0  0  0  0  0  0  0  0  0  0
  147.9032  132.5922  155.0526 H   0  0  0  0  0  0  0  0  0  0  0  0
  146.5506  133.4738  154.3867 H   0  0  0  0  0  0  0  0  0  0  0  0
  148.4503  132.3595  152.3524 H   0  0  0  0  0  0  0  0  0  0  0  0
  147.5624  131.1686  153.2596 H   0  0  0  0  0  0  0  0  0  0  0  0
  145.4401  130.4817  152.4107 H   0  0  0  0  0  0  0  0  0  0  0  0
  143.5054  130.9186  150.8783 H   0  0  0  0  0  0  0  0  0  0  0  0
  143.3893  133.1209  149.6770 H   0  0  0  0  0  0  0  0  0  0  0  0
  145.2152  134.7957  150.0665 H   0  0  0  0  0  0  0  0  0  0  0  0
  149.7407  136.2086  153.4698 H   0  0  0  0  0  0  0  0  0  0  0  0
  151.8146  136.0337  155.3718 H   0  0  0  0  0  0  0  0  0  0  0  0
  149.4443  137.7509  156.2212 H   0  0  0  0  0  0  0  0  0  0  0  0
  150.2575  136.5487  157.2022 H   0  0  0  0  0  0  0  0  0  0  0  0
  150.8857  139.1758  157.4647 H   0  0  0  0  0  0  0  0  0  0  0  0
  152.1732  137.9612  157.5127 H   0  0  0  0  0  0  0  0  0  0  0  0
  152.2595  137.4941  153.5402 H   0  0  0  0  0  0  0  0  0  0  0  0
  150.6764  138.2764  153.6708 H   0  0  0  0  0  0  0  0  0  0  0  0
  1  2  2  0  0  0  0
  2  3  1  0  0  0  0
  2 12  1  0  0  0  0
  3  4  1  0  0  0  0
  3 20  1  0  0  0  0
  4  5  1  0  0  0  0
  4 21  1  0  0  0  0
  4 22  1  0  0  0  0
  5  6  1  0  0  0  0
  5 23  1  0  0  0  0
  5 24  1  0  0  0  0
  6 11  1  0  0  0  0
  6  7  2  0  0  0  0
  7  8  1  0  0  0  0
  7 25  1  0  0  0  0
  8  9  2  0  0  0  0
  8 26  1  0  0  0  0
  9 10  1  0  0  0  0
  9 27  1  0  0  0  0
 10 11  2  0  0  0  0
 10 28  1  0  0  0  0
 12 13  1  0  0  0  0
 12 29  1  0  0  0  0
 13 19  1  0  0  0  0
 13 14  1  0  0  0  0
 13 30  1  0  0  0  0
 14 15  1  0  0  0  0
 14 31  1  0  0  0  0
 14 32  1  0  0  0  0
 15 16  1  0  0  0  0
 15 33  1  0  0  0  0
 15 34  1  0  0  0  0
 16 17  2  0  0  0  0
 16 18  2  0  0  0  0
 16 19  1  0  0  0  0
 19 35  1  0  0  0  0
 19 36  1  0  0  0  0
M  END
> <s_m_source_file>
AV-unprocessed.smi

> <i_m_source_file_index>
1534

> <i_lp_mmshare_version>
43012

> <i_f3d_flags>
0

> <s_epik_input>
Tz1TMSg9TylbQ0gyXVtDSDJdW0NASF0oW0NIMl0xKVtOSF1DKD1PKVtOSF1bQ0gyXVtDSDJdYzJbY0hdW2NIXVtjSF1bY0hdbjI=

> <s_epik_cmdline>
J2VwaWtfcHl0aG9uJywgJy1waCcsICc3LjAnLCAnLXRuJywgJzgnLCAnLW1hJywgJzIwMCcsICctbWV0YWxfYmluZGluZycsICctaW1hZScsICc8aW5maWxlLm1hZT4nLCAnLW9tYWUnLCAnPG91dGZpbGUubWFlPic=

> <r_epik_Ionization_Penalty>
0.0423605

> <r_epik_Ionization_Penalty_Charging>
0

> <r_epik_Ionization_Penalty_Neutral>
0.0423605

> <r_epik_State_Penalty>
0.0357408

> <r_epik_Charging_Adjusted_Penalty>
0.0357408

> <i_epik_Tot_Q>
0

> <i_epik_Tot_abs_Q>
0

> <r_epik_Metal_State_Penalty>
0.033344

> <b_epik_Metal_Only>
0

> <s_lp_Force_Field>
OPLS_2005

> <r_lp_Energy>
11.0291

> <b_lp_Chiralities_Consistent>
1

> <s_lp_Variant>
AV-unprocessed.smi:1534-1

> <Gold.Version>
5.8.1

> <Gold.Id.Protein>
6NUR|6NUR_protein|mol2

> <Gold.PLP.Fitness>
44.4496

> <Gold.PLP.PLP>
-31.1718

> <Gold.PLP.part.hbond>
-4.0878

> <Gold.PLP.part.metal>
0.0000

> <Gold.PLP.part.buried>
-4.9797

> <Gold.PLP.part.nonpolar>
-22.9045

> <Gold.PLP.part.repulsive>
0.2815

> <Gold.PLP.ligand.clash>
0.0000

> <Gold.PLP.ligand.torsion>
0.3994

> <Gold.PLP.Chemscore.Hbond>
3.9360

> <Gold.PLP.Chemscore.CHOScore>
0.7545

> <Gold.PLP.Chemscore.Metal>
0.0000

> <Gold.Chemscore.Hbonds>
donor molecule, donor type, donor heavy atom, donor atom, acceptor molecule, acceptor atom, score
      L1  H     3    20       P1  7948  0.94
      L1  H    12    29       P1  7948  0.95
      P1  H  7989  7998       L1    17  0.93
      P1  H  7997  8008       L1    18  0.88
      L1  C    10    28       P1  7921  0.60

> <Gold.PLP.Chemscore.Internal.Correction>
0.0053

> <Gold.Rescore>
     Score         DG    S(hbond)    S(metal)    S(lipo)     H(rot)  DE(clash)    DE(int)     intcor
     20.08     -20.54       3.36        0.00      70.84       1.73       0.01       0.45       ----

> <Gold.Chemscore.Fitness>
20.0797

> <Gold.Chemscore.DG>
-20.5435

> <Gold.Chemscore.ZeroCoef>
-5.4800

> <Gold.Chemscore.Hbond>
3.3582

> <Gold.Chemscore.Metal>
0.0000

> <Gold.Chemscore.Lipo>
70.8390

> <Gold.Chemscore.Internal_Hbond>
0.0000

> <Gold.Chemscore.DEClash>
0.0120

> <Gold.Chemscore.DEInternal>
0.4518

> <Gold.Chemscore.Rot>
1.7348

> <Gold.Chemscore.Internal.Correction>
   9.000000E+99

> <Gold.Chemscore.Hbonds>
donor molecule, donor type, donor heavy atom, donor atom, acceptor molecule, acceptor atom, score
      L1  H     3    20       P1  7948  0.63
      L1  H    12    29       P1  7948  0.21
      P1  H  7989  7998       L1    17  0.83
      P1  H  7997  8008       L1    18  0.78

> <Gold.Chemscore.Hbond.Weighted>
-11.2163

> <Gold.Chemscore.Metal.Weighted>
-0.0000

> <Gold.Chemscore.Lipo.Weighted>
-8.2882

> <Gold.Chemscore.Internal_Hbond.Weighted>
0.0000

> <Gold.Chemscore.DEClash.Weighted>
0.0120

> <Gold.Chemscore.DEInternal.Weighted>
0.4518

> <Gold.Chemscore.Rot.Weighted>
4.4410

> <Gold.Chemscore.Internal.Correction.Weighted>
   9.000000E+99

> <Gold.Protein.RotatedTorsions>
[ 6907 6896 6895 6894 ] final  148.08 input  -60.11 | X-H torsion
[ 7974 7965 7964 7962 ] final  -54.69 input  175.53 | X-H torsion
[ 8008 7997 7996 7995 ] final  -33.94 input   59.86 | X-H torsion
[ 10167 10162 10161 10158 ] final  -26.43 input  -65.29 | X-H torsion
[ 10718 10713 10712 10709 ] final   42.01 input   66.30 | X-H torsion
[ 10763 10752 10751 10750 ] final  -30.68 input  -60.55 | X-H torsion
[ 11005 11000 10999 10996 ] final -143.89 input  -57.11 | X-H torsion

> <Gold.Protein.ActiveResidues>
 VAL166  LYS551  ARG553  GLY616  TRP617  ASP618  TYR619  PRO620  LYS621  CYS622 
 ASP623  PHE694  ASN695  SER759  ASP760  ASP761  ALA762  ILE779  LEU786  VAL792 
 PHE793  MET794  SER795  GLU796  ALA797  LYS798  CYS799  TRP800  GLU811  SER814 

> <Gold.Protein.RotatedAtoms>
  152.1462  133.4494  159.4790 H   0  0  0  0  0  0  0  0  0  0  0  0  # atno 6907 bound_to 6896
  150.6891  134.2245  159.4419 H   0  0  0  0  0  0  0  0  0  0  0  0  # atno 6908 bound_to 6896
  152.0139  134.9860  160.0619 H   0  0  0  0  0  0  0  0  0  0  0  0  # atno 6909 bound_to 6896
  145.8827  140.8132  142.9832 H   0  0  0  0  0  0  0  0  0  0  0  0  # atno 7974 bound_to 7965
  154.4134  140.1697  156.1969 H   0  0  0  0  0  0  0  0  0  0  0  0  # atno 8008 bound_to 7997
  155.9557  140.3397  155.6423 H   0  0  0  0  0  0  0  0  0  0  0  0  # atno 8009 bound_to 7997
  155.6813  140.0723  157.2474 H   0  0  0  0  0  0  0  0  0  0  0  0  # atno 8010 bound_to 7997
  140.7283  143.4178  151.0999 H   0  0  0  0  0  0  0  0  0  0  0  0  # atno 10167 bound_to 10162
  157.4000  130.7854  149.7340 H   0  0  0  0  0  0  0  0  0  0  0  0  # atno 10718 bound_to 10713
  153.7849  135.6902  153.4881 H   0  0  0  0  0  0  0  0  0  0  0  0  # atno 10763 bound_to 10752
  153.1787  135.4515  154.9998 H   0  0  0  0  0  0  0  0  0  0  0  0  # atno 10764 bound_to 10752
  154.8067  135.3360  154.7350 H   0  0  0  0  0  0  0  0  0  0  0  0  # atno 10765 bound_to 10752
  140.8079  134.2779  157.4952 H   0  0  0  0  0  0  0  0  0  0  0  0  # atno 11005 bound_to 11000
  144.6727  140.1408  143.7437 LP  0  0  0  0  0  0  0  0  0  0  0  0  # atno 17320 bound_to 7965
  145.9004  139.2427  143.1497 LP  0  0  0  0  0  0  0  0  0  0  0  0  # atno 17321 bound_to 7965
  139.7820  143.8341  152.3139 LP  0  0  0  0  0  0  0  0  0  0  0  0  # atno 17342 bound_to 10162
  139.8296  144.7260  150.9468 LP  0  0  0  0  0  0  0  0  0  0  0  0  # atno 17343 bound_to 10162
  155.9820  130.4013  150.3437 LP  0  0  0  0  0  0  0  0  0  0  0  0  # atno 17370 bound_to 10713
  157.1564  131.0334  151.2861 LP  0  0  0  0  0  0  0  0  0  0  0  0  # atno 17371 bound_to 10713
  139.8716  134.9467  156.3945 LP  0  0  0  0  0  0  0  0  0  0  0  0  # atno 17394 bound_to 11000
  140.9228  133.7633  155.9927 LP  0  0  0  0  0  0  0  0  0  0  0  0  # atno 17395 bound_to 11000

$$$$
