AV-unprocessed.smi:3048|AV-procd|sdf|11626|dock9
  -GOLD-   2272017 13D 1   1.00000     0.00000
 Structure written by MMmdl.
 38 39  0  0  0  0  0  0  0  0  2 V2000
  154.3542  140.9778  161.7450 C   0  0  0  0  0  0  0  0  0  0  0  0
  153.3516  141.9448  161.1837 C   0  0  0  0  0  0  0  0  0  0  0  0
  152.6067  142.9367  161.8830 C   0  0  0  0  0  0  0  0  0  0  0  0
  151.8040  143.6294  161.0915 N   0  0  0  0  0  0  0  0  0  0  0  0
  152.0055  143.1053  159.8635 N   0  0  0  0  0  0  0  0  0  0  0  0
  151.2820  143.6376  158.7221 C   0  0  0  0  0  0  0  0  0  0  0  0
  150.0148  142.8266  158.4054 C   0  0  0  0  0  0  0  0  0  0  0  0
  150.0106  142.3475  157.0087 N   0  3  0  0  0  0  0  0  0  0  0  0
  151.2890  141.7603  156.5634 C   0  0  0  0  0  0  0  0  0  0  0  0
  151.1094  140.2842  156.1816 C   0  0  1  0  0  0  0  0  0  0  0  0
  150.0854  140.1022  155.0446 C   0  0  0  0  0  0  0  0  0  0  0  0
  149.9919  138.6276  154.6357 C   0  0  0  0  0  0  0  0  0  0  0  0
  151.3903  138.0912  154.3121 C   0  0  0  0  0  0  0  0  0  0  0  0
  152.3577  138.3833  155.4703 C   0  0  0  0  0  0  0  0  0  0  0  0
  152.3722  139.7800  155.7507 O   0  0  0  0  0  0  0  0  0  0  0  0
  152.9339  142.0862  159.8905 C   0  0  0  0  0  0  0  0  0  0  0  0
  154.4033  141.0299  162.8330 H   0  0  0  0  0  0  0  0  0  0  0  0
  155.3580  141.1759  161.3690 H   0  0  0  0  0  0  0  0  0  0  0  0
  154.1097  139.9480  161.4842 H   0  0  0  0  0  0  0  0  0  0  0  0
  152.6275  143.1736  162.9367 H   0  0  0  0  0  0  0  0  0  0  0  0
  151.0115  144.6705  158.9442 H   0  0  0  0  0  0  0  0  0  0  0  0
  151.9486  143.6700  157.8588 H   0  0  0  0  0  0  0  0  0  0  0  0
  149.9362  141.9771  159.0853 H   0  0  0  0  0  0  0  0  0  0  0  0
  149.1328  143.4475  158.5661 H   0  0  0  0  0  0  0  0  0  0  0  0
  149.2849  141.6521  156.9070 H   0  0  0  0  0  0  0  0  0  0  0  0
  151.6471  142.3223  155.6999 H   0  0  0  0  0  0  0  0  0  0  0  0
  152.0378  141.8641  157.3499 H   0  0  0  0  0  0  0  0  0  0  0  0
  150.7762  139.7284  157.0603 H   0  0  0  0  0  0  0  0  0  0  0  0
  149.1048  140.4640  155.3554 H   0  0  0  0  0  0  0  0  0  0  0  0
  150.3815  140.7014  154.1823 H   0  0  0  0  0  0  0  0  0  0  0  0
  149.5546  138.0475  155.4495 H   0  0  0  0  0  0  0  0  0  0  0  0
  149.3307  138.5110  153.7766 H   0  0  0  0  0  0  0  0  0  0  0  0
  151.3478  137.0194  154.1160 H   0  0  0  0  0  0  0  0  0  0  0  0
  151.7617  138.5619  153.4009 H   0  0  0  0  0  0  0  0  0  0  0  0
  152.0751  137.8254  156.3643 H   0  0  0  0  0  0  0  0  0  0  0  0
  153.3664  138.0669  155.2040 H   0  0  0  0  0  0  0  0  0  0  0  0
  153.2199  141.5518  158.9961 H   0  0  0  0  0  0  0  0  0  0  0  0
  149.7896  143.1297  156.4085 H   0  0  0  0  0  0  0  0  0  0  0  0
  1  2  1  0  0  0  0
  1 17  1  0  0  0  0
  1 18  1  0  0  0  0
  1 19  1  0  0  0  0
  2 16  2  0  0  0  0
  2  3  1  0  0  0  0
  3  4  2  0  0  0  0
  3 20  1  0  0  0  0
  4  5  1  0  0  0  0
  5  6  1  0  0  0  0
  5 16  1  0  0  0  0
  6  7  1  0  0  0  0
  6 21  1  0  0  0  0
  6 22  1  0  0  0  0
  7  8  1  0  0  0  0
  7 23  1  0  0  0  0
  7 24  1  0  0  0  0
  8  9  1  0  0  0  0
  8 25  1  0  0  0  0
  8 38  1  0  0  0  0
  9 10  1  0  0  0  0
  9 26  1  0  0  0  0
  9 27  1  0  0  0  0
 10 15  1  0  0  0  0
 10 11  1  0  0  0  0
 10 28  1  0  0  0  0
 11 12  1  0  0  0  0
 11 29  1  0  0  0  0
 11 30  1  0  0  0  0
 12 13  1  0  0  0  0
 12 31  1  0  0  0  0
 12 32  1  0  0  0  0
 13 14  1  0  0  0  0
 13 33  1  0  0  0  0
 13 34  1  0  0  0  0
 14 15  1  0  0  0  0
 14 35  1  0  0  0  0
 14 36  1  0  0  0  0
 16 37  1  0  0  0  0
M  CHG  1   8   1
M  END
> <s_m_source_file>
AV-unprocessed.smi

> <i_m_source_file_index>
3048

> <i_lp_mmshare_version>
43012

> <i_f3d_flags>
0

> <s_epik_input>
W0NIM11jMVtjSF1ubihbY0hdMSlbQ0gyXVtDSDJdW05IXVtDSDJdW0NAQEhdMltDSDJdW0NIMl1bQ0gyXVtDSDJdTzI=

> <s_epik_cmdline>
J2VwaWtfcHl0aG9uJywgJy1waCcsICc3LjAnLCAnLXRuJywgJzgnLCAnLW1hJywgJzIwMCcsICctbWV0YWxfYmluZGluZycsICctaW1hZScsICc8aW5maWxlLm1hZT4nLCAnLW9tYWUnLCAnPG91dGZpbGUubWFlPic=

> <r_lp_tautomer_probability>
1

> <r_epik_Ionization_Penalty>
0.0084937

> <r_epik_Ionization_Penalty_Charging>
0.00848754

> <r_epik_Ionization_Penalty_Neutral>
6.1613e-06

> <r_epik_State_Penalty>
0.00639836

> <r_epik_Charging_Adjusted_Penalty>
0.0148859

> <i_epik_Tot_Q>
1

> <i_epik_Tot_abs_Q>
1

> <r_epik_Metal_State_Penalty>
0.00642541

> <b_epik_Metal_Only>
0

> <s_lp_Force_Field>
OPLS_2005

> <r_lp_Energy>
10.7756

> <b_lp_Chiralities_Consistent>
1

> <s_lp_Variant>
AV-unprocessed.smi:3048-2

> <Gold.Version>
5.8.1

> <Gold.Id.Protein>
6NUR|6NUR_protein|mol2

> <Gold.PLP.Fitness>
47.9220

> <Gold.PLP.PLP>
-41.1908

> <Gold.PLP.part.hbond>
-2.0447

> <Gold.PLP.part.metal>
0.0000

> <Gold.PLP.part.buried>
-3.9983

> <Gold.PLP.part.nonpolar>
-34.1790

> <Gold.PLP.part.repulsive>
0.1524

> <Gold.PLP.ligand.clash>
0.0000

> <Gold.PLP.ligand.torsion>
1.1399

> <Gold.PLP.Chemscore.Hbond>
3.0000

> <Gold.PLP.Chemscore.CHOScore>
0.0000

> <Gold.PLP.Chemscore.Metal>
0.0000

> <Gold.Chemscore.Hbonds>
donor molecule, donor type, donor heavy atom, donor atom, acceptor molecule, acceptor atom, score
      L1  H     8    38       P1  8028  2.00
      P1  H  7997  8010       L1    15  0.94

> <Gold.PLP.Chemscore.Internal.Correction>
0.0111

> <Gold.Rescore>
     Score         DG    S(hbond)    S(metal)    S(lipo)     H(rot)  DE(clash)    DE(int)     intcor
     17.14     -18.35       1.56        0.00     100.89       1.61       0.04       1.17       ----

> <Gold.Chemscore.Fitness>
17.1381

> <Gold.Chemscore.DG>
-18.3493

> <Gold.Chemscore.ZeroCoef>
-5.4800

> <Gold.Chemscore.Hbond>
1.5567

> <Gold.Chemscore.Metal>
0.0000

> <Gold.Chemscore.Lipo>
100.8897

> <Gold.Chemscore.Internal_Hbond>
0.0000

> <Gold.Chemscore.DEClash>
0.0375

> <Gold.Chemscore.DEInternal>
1.1737

> <Gold.Chemscore.Rot>
1.6149

> <Gold.Chemscore.Internal.Correction>
   9.000000E+99

> <Gold.Chemscore.Hbonds>
donor molecule, donor type, donor heavy atom, donor atom, acceptor molecule, acceptor atom, score
      L1  H     8    38       P1  8028  0.98
      P1  H  7997  8010       L1    15  0.36

> <Gold.Chemscore.Hbond.Weighted>
-5.1994

> <Gold.Chemscore.Metal.Weighted>
-0.0000

> <Gold.Chemscore.Lipo.Weighted>
-11.8041

> <Gold.Chemscore.Internal_Hbond.Weighted>
0.0000

> <Gold.Chemscore.DEClash.Weighted>
0.0375

> <Gold.Chemscore.DEInternal.Weighted>
1.1737

> <Gold.Chemscore.Rot.Weighted>
4.1341

> <Gold.Chemscore.Internal.Correction.Weighted>
   9.000000E+99

> <Gold.Protein.RotatedTorsions>
[ 6907 6896 6895 6894 ] final   96.15 input  -60.11 | X-H torsion
[ 7974 7965 7964 7962 ] final  -68.24 input  175.53 | X-H torsion
[ 8008 7997 7996 7995 ] final   85.18 input   59.86 | X-H torsion
[ 10167 10162 10161 10158 ] final   81.50 input  -65.29 | X-H torsion
[ 10718 10713 10712 10709 ] final   60.67 input   66.30 | X-H torsion
[ 10763 10752 10751 10750 ] final  -34.25 input  -60.55 | X-H torsion
[ 11005 11000 10999 10996 ] final  -48.82 input  -57.11 | X-H torsion

> <Gold.Protein.ActiveResidues>
 VAL166  LYS551  ARG553  GLY616  TRP617  ASP618  TYR619  PRO620  LYS621  CYS622 
 ASP623  PHE694  ASN695  SER759  ASP760  ASP761  ALA762  ILE779  LEU786  VAL792 
 PHE793  MET794  SER795  GLU796  ALA797  LYS798  CYS799  TRP800  GLU811  SER814 

> <Gold.Protein.RotatedAtoms>
  152.5437  134.0931  159.8285 H   0  0  0  0  0  0  0  0  0  0  0  0  # atno 6907 bound_to 6896
  151.1018  133.5230  159.2617 H   0  0  0  0  0  0  0  0  0  0  0  0  # atno 6908 bound_to 6896
  151.1982  135.0441  159.8915 H   0  0  0  0  0  0  0  0  0  0  0  0  # atno 6909 bound_to 6896
  145.7190  140.9046  143.0640 H   0  0  0  0  0  0  0  0  0  0  0  0  # atno 7974 bound_to 7965
  155.9467  140.3404  155.6373 H   0  0  0  0  0  0  0  0  0  0  0  0  # atno 8008 bound_to 7997
  155.6972  140.0756  157.2443 H   0  0  0  0  0  0  0  0  0  0  0  0  # atno 8009 bound_to 7997
  154.4113  140.1646  156.2138 H   0  0  0  0  0  0  0  0  0  0  0  0  # atno 8010 bound_to 7997
  139.9386  144.6105  150.8274 H   0  0  0  0  0  0  0  0  0  0  0  0  # atno 10167 bound_to 10162
  157.5771  130.8952  149.9365 H   0  0  0  0  0  0  0  0  0  0  0  0  # atno 10718 bound_to 10713
  153.8437  135.6855  153.4800 H   0  0  0  0  0  0  0  0  0  0  0  0  # atno 10763 bound_to 10752
  153.1438  135.4646  154.9534 H   0  0  0  0  0  0  0  0  0  0  0  0  # atno 10764 bound_to 10752
  154.7833  135.3276  154.7888 H   0  0  0  0  0  0  0  0  0  0  0  0  # atno 10765 bound_to 10752
  141.0723  133.6675  156.3496 H   0  0  0  0  0  0  0  0  0  0  0  0  # atno 11005 bound_to 11000
  144.6922  139.9176  143.7466 LP  0  0  0  0  0  0  0  0  0  0  0  0  # atno 17320 bound_to 7965
  146.0643  139.3635  143.0562 LP  0  0  0  0  0  0  0  0  0  0  0  0  # atno 17321 bound_to 7965
  140.7617  143.3181  151.2685 LP  0  0  0  0  0  0  0  0  0  0  0  0  # atno 17342 bound_to 10162
  139.6723  143.9998  152.2760 LP  0  0  0  0  0  0  0  0  0  0  0  0  # atno 17343 bound_to 10162
  156.0815  130.3672  150.0570 LP  0  0  0  0  0  0  0  0  0  0  0  0  # atno 17370 bound_to 10713
  156.8715  130.9526  151.3609 LP  0  0  0  0  0  0  0  0  0  0  0  0  # atno 17371 bound_to 10713
  140.5647  134.5899  157.5443 LP  0  0  0  0  0  0  0  0  0  0  0  0  # atno 17394 bound_to 11000
  139.9536  134.7574  156.0392 LP  0  0  0  0  0  0  0  0  0  0  0  0  # atno 17395 bound_to 11000

$$$$
