AV-unprocessed.smi:2884|AV-procd|sdf|11085|dock8
  -GOLD-   2272015553D 1   1.00000     0.00000
 Structure written by MMmdl.
 41 42  0  0  0  0  0  0  0  0  2 V2000
  152.1753  144.9677  159.0944 C   0  0  0  0  0  0  0  0  0  0  0  0
  151.6170  143.5514  159.2843 C   0  0  0  0  0  0  0  0  0  0  0  0
  150.2534  143.3513  158.6114 C   0  0  0  0  0  0  0  0  0  0  0  0
  149.9865  141.9544  158.5685 O   0  0  0  0  0  0  0  0  0  0  0  0
  149.3711  141.3736  157.4131 C   0  0  0  0  0  0  0  0  0  0  0  0
  149.2062  139.8896  157.8321 C   0  0  0  0  0  0  0  0  0  0  0  0
  150.4418  139.3046  158.3372 N   0  0  0  0  0  0  0  0  0  0  0  0
  151.2095  138.2765  157.8008 C   0  0  0  0  0  0  0  0  0  0  0  0
  150.8575  137.5886  156.5330 C   0  0  0  0  0  0  0  0  0  0  0  0
  151.5700  136.6526  156.0429 N   0  0  0  0  0  0  0  0  0  0  0  0
  152.7764  136.2090  156.7047 N   0  5  0  0  0  0  0  0  0  0  0  0
  153.1725  136.7959  157.8746 C   0  0  0  0  0  0  0  0  0  0  0  0
  154.1942  136.4516  158.4663 O   0  0  0  0  0  0  0  0  0  0  0  0
  152.3416  137.8707  158.4301 C   0  0  0  0  0  0  0  0  0  0  0  0
  152.8471  138.6213  159.9093 Cl  0  0  0  0  0  0  0  0  0  0  0  0
  148.0068  142.0385  157.0770 C   0  0  0  0  0  0  0  0  0  0  0  0
  147.3673  141.4506  155.8064 C   0  0  0  0  0  0  0  0  0  0  0  0
  148.3213  141.5561  154.6055 C   0  0  0  0  0  0  0  0  0  0  0  0
  149.6813  140.9037  154.9027 C   0  0  0  0  0  0  0  0  0  0  0  0
  150.3125  141.4790  156.1849 C   0  0  0  0  0  0  0  0  0  0  0  0
  153.1512  145.0671  159.5699 H   0  0  0  0  0  0  0  0  0  0  0  0
  151.5174  145.7170  159.5347 H   0  0  0  0  0  0  0  0  0  0  0  0
  152.2931  145.2071  158.0373 H   0  0  0  0  0  0  0  0  0  0  0  0
  152.3271  142.8335  158.8732 H   0  0  0  0  0  0  0  0  0  0  0  0
  151.5363  143.3297  160.3490 H   0  0  0  0  0  0  0  0  0  0  0  0
  149.4970  143.8991  159.1709 H   0  0  0  0  0  0  0  0  0  0  0  0
  150.2904  143.7660  157.6048 H   0  0  0  0  0  0  0  0  0  0  0  0
  148.4665  139.7924  158.6249 H   0  0  0  0  0  0  0  0  0  0  0  0
  148.8165  139.3011  157.0027 H   0  0  0  0  0  0  0  0  0  0  0  0
  150.8318  139.7772  159.1397 H   0  0  0  0  0  0  0  0  0  0  0  0
  149.9505  137.9271  156.0282 H   0  0  0  0  0  0  0  0  0  0  0  0
  147.3165  141.9577  157.9170 H   0  0  0  0  0  0  0  0  0  0  0  0
  148.1374  143.1051  156.9012 H   0  0  0  0  0  0  0  0  0  0  0  0
  147.0892  140.4094  155.9704 H   0  0  0  0  0  0  0  0  0  0  0  0
  146.4394  141.9784  155.5850 H   0  0  0  0  0  0  0  0  0  0  0  0
  147.8691  141.0908  153.7291 H   0  0  0  0  0  0  0  0  0  0  0  0
  148.4713  142.6069  154.3534 H   0  0  0  0  0  0  0  0  0  0  0  0
  149.5613  139.8241  154.9916 H   0  0  0  0  0  0  0  0  0  0  0  0
  150.3551  141.0623  154.0602 H   0  0  0  0  0  0  0  0  0  0  0  0
  150.5565  142.5215  155.9841 H   0  0  0  0  0  0  0  0  0  0  0  0
  151.2594  140.9789  156.3909 H   0  0  0  0  0  0  0  0  0  0  0  0
  1  2  1  0  0  0  0
  1 21  1  0  0  0  0
  1 22  1  0  0  0  0
  1 23  1  0  0  0  0
  2  3  1  0  0  0  0
  2 24  1  0  0  0  0
  2 25  1  0  0  0  0
  3  4  1  0  0  0  0
  3 26  1  0  0  0  0
  3 27  1  0  0  0  0
  4  5  1  0  0  0  0
  5 20  1  0  0  0  0
  5  6  1  0  0  0  0
  5 16  1  0  0  0  0
  6  7  1  0  0  0  0
  6 28  1  0  0  0  0
  6 29  1  0  0  0  0
  7  8  1  0  0  0  0
  7 30  1  0  0  0  0
  8 14  2  0  0  0  0
  8  9  1  0  0  0  0
  9 10  2  0  0  0  0
  9 31  1  0  0  0  0
 10 11  1  0  0  0  0
 11 12  1  0  0  0  0
 12 13  2  0  0  0  0
 12 14  1  0  0  0  0
 14 15  1  0  0  0  0
 16 17  1  0  0  0  0
 16 32  1  0  0  0  0
 16 33  1  0  0  0  0
 17 18  1  0  0  0  0
 17 34  1  0  0  0  0
 17 35  1  0  0  0  0
 18 19  1  0  0  0  0
 18 36  1  0  0  0  0
 18 37  1  0  0  0  0
 19 20  1  0  0  0  0
 19 38  1  0  0  0  0
 19 39  1  0  0  0  0
 20 40  1  0  0  0  0
 20 41  1  0  0  0  0
M  CHG  1  11  -1
M  END
> <s_m_source_file>
AV-unprocessed.smi

> <i_m_source_file_index>
2884

> <i_lp_mmshare_version>
43012

> <i_f3d_flags>
0

> <s_epik_input>
W0NIMl0xW0NIMl1bQ0gyXVtDSDJdW0NIMl1DMShPW0NIMl1bQ0gyXVtDSDNdKVtDSDJdW05IXWMyW2NIXW5bbkhdYyg9TyljMkNs

> <s_epik_cmdline>
J2VwaWtfcHl0aG9uJywgJy1waCcsICc3LjAnLCAnLXRuJywgJzgnLCAnLW1hJywgJzIwMCcsICctbWV0YWxfYmluZGluZycsICctaW1hZScsICc8aW5maWxlLm1hZT4nLCAnLW9tYWUnLCAnPG91dGZpbGUubWFlPic=

> <r_lp_tautomer_probability>
0.986175

> <r_epik_Ionization_Penalty>
3.75229

> <r_epik_Ionization_Penalty_Charging>
0.0129106

> <r_epik_Ionization_Penalty_Neutral>
3.73938

> <r_epik_State_Penalty>
3.73863

> <r_epik_Charging_Adjusted_Penalty>
3.75154

> <i_epik_Tot_Q>
-1

> <i_epik_Tot_abs_Q>
1

> <r_epik_Metal_State_Penalty>
0.55642

> <b_epik_Metal_Only>
1

> <s_lp_Force_Field>
OPLS_2005

> <r_lp_Energy>
41.2708

> <b_lp_Chiralities_Consistent>
1

> <s_lp_Variant>
AV-unprocessed.smi:2884-3

> <Gold.Version>
5.8.1

> <Gold.Id.Protein>
6NUR|6NUR_protein|mol2

> <Gold.PLP.Fitness>
34.0616

> <Gold.PLP.PLP>
-28.8394

> <Gold.PLP.part.hbond>
-2.0000

> <Gold.PLP.part.metal>
0.0000

> <Gold.PLP.part.buried>
-4.0533

> <Gold.PLP.part.nonpolar>
-22.8875

> <Gold.PLP.part.repulsive>
0.2117

> <Gold.PLP.ligand.clash>
0.0000

> <Gold.PLP.ligand.torsion>
0.3990

> <Gold.PLP.Chemscore.Hbond>
2.0000

> <Gold.PLP.Chemscore.CHOScore>
0.0000

> <Gold.PLP.Chemscore.Metal>
0.0000

> <Gold.Chemscore.Hbonds>
donor molecule, donor type, donor heavy atom, donor atom, acceptor molecule, acceptor atom, score
      P1  H 10752 10763       L1    11  2.00

> <Gold.PLP.Chemscore.Internal.Correction>
0.0202

> <Gold.Rescore>
     Score         DG    S(hbond)    S(metal)    S(lipo)     H(rot)  DE(clash)    DE(int)     intcor
     13.18     -13.57       0.81        0.00      83.28       1.71       0.03       0.36       ----

> <Gold.Chemscore.Fitness>
13.1756

> <Gold.Chemscore.DG>
-13.5686

> <Gold.Chemscore.ZeroCoef>
-5.4800

> <Gold.Chemscore.Hbond>
0.8128

> <Gold.Chemscore.Metal>
0.0000

> <Gold.Chemscore.Lipo>
83.2765

> <Gold.Chemscore.Internal_Hbond>
0.0000

> <Gold.Chemscore.DEClash>
0.0310

> <Gold.Chemscore.DEInternal>
0.3620

> <Gold.Chemscore.Rot>
1.7068

> <Gold.Chemscore.Internal.Correction>
   9.000000E+99

> <Gold.Chemscore.Hbonds>
donor molecule, donor type, donor heavy atom, donor atom, acceptor molecule, acceptor atom, score
      P1  H 10752 10763       L1    11  0.29

> <Gold.Chemscore.Hbond.Weighted>
-2.7146

> <Gold.Chemscore.Metal.Weighted>
-0.0000

> <Gold.Chemscore.Lipo.Weighted>
-9.7433

> <Gold.Chemscore.Internal_Hbond.Weighted>
0.0000

> <Gold.Chemscore.DEClash.Weighted>
0.0310

> <Gold.Chemscore.DEInternal.Weighted>
0.3620

> <Gold.Chemscore.Rot.Weighted>
4.3694

> <Gold.Chemscore.Internal.Correction.Weighted>
   9.000000E+99

> <Gold.Protein.RotatedTorsions>
[ 6907 6896 6895 6894 ] final  118.73 input  -60.11 | X-H torsion
[ 7974 7965 7964 7962 ] final   27.58 input  175.53 | X-H torsion
[ 8008 7997 7996 7995 ] final -100.59 input   59.86 | X-H torsion
[ 10167 10162 10161 10158 ] final   27.16 input  -65.29 | X-H torsion
[ 10718 10713 10712 10709 ] final  133.09 input   66.30 | X-H torsion
[ 10763 10752 10751 10750 ] final  123.60 input  -60.55 | X-H torsion
[ 11005 11000 10999 10996 ] final  -87.40 input  -57.11 | X-H torsion

> <Gold.Protein.ActiveResidues>
 VAL166  LYS551  ARG553  GLY616  TRP617  ASP618  TYR619  PRO620  LYS621  CYS622 
 ASP623  PHE694  ASN695  SER759  ASP760  ASP761  ALA762  ILE779  LEU786  VAL792 
 PHE793  MET794  SER795  GLU796  ALA797  LYS798  CYS799  TRP800  GLU811  SER814 

> <Gold.Protein.RotatedAtoms>
  152.4523  133.7653  159.6768 H   0  0  0  0  0  0  0  0  0  0  0  0  # atno 6907 bound_to 6896
  150.8438  133.7883  159.3057 H   0  0  0  0  0  0  0  0  0  0  0  0  # atno 6908 bound_to 6896
  151.5500  135.1070  159.9999 H   0  0  0  0  0  0  0  0  0  0  0  0  # atno 6909 bound_to 6896
  146.1776  139.7171  142.8923 H   0  0  0  0  0  0  0  0  0  0  0  0  # atno 7974 bound_to 7965
  154.8308  140.0440  157.1475 H   0  0  0  0  0  0  0  0  0  0  0  0  # atno 8008 bound_to 7997
  154.9155  140.3019  155.5223 H   0  0  0  0  0  0  0  0  0  0  0  0  # atno 8009 bound_to 7997
  156.2987  140.2350  156.4199 H   0  0  0  0  0  0  0  0  0  0  0  0  # atno 8010 bound_to 7997
  140.4961  144.0389  150.6315 H   0  0  0  0  0  0  0  0  0  0  0  0  # atno 10167 bound_to 10162
  157.4807  131.1085  150.9685 H   0  0  0  0  0  0  0  0  0  0  0  0  # atno 10718 bound_to 10713
  153.6481  135.3367  155.3092 H   0  0  0  0  0  0  0  0  0  0  0  0  # atno 10763 bound_to 10752
  154.8544  135.4334  154.1933 H   0  0  0  0  0  0  0  0  0  0  0  0  # atno 10764 bound_to 10752
  153.2869  135.7013  153.7405 H   0  0  0  0  0  0  0  0  0  0  0  0  # atno 10765 bound_to 10752
  141.1617  133.7509  156.9301 H   0  0  0  0  0  0  0  0  0  0  0  0  # atno 11005 bound_to 11000
  145.4168  141.0402  143.2986 LP  0  0  0  0  0  0  0  0  0  0  0  0  # atno 17320 bound_to 7965
  144.8262  139.5707  143.6964 LP  0  0  0  0  0  0  0  0  0  0  0  0  # atno 17321 bound_to 7965
  140.3672  143.2875  152.0318 LP  0  0  0  0  0  0  0  0  0  0  0  0  # atno 17342 bound_to 10162
  139.4861  144.6258  151.7167 LP  0  0  0  0  0  0  0  0  0  0  0  0  # atno 17343 bound_to 10162
  157.0419  130.5752  149.5357 LP  0  0  0  0  0  0  0  0  0  0  0  0  # atno 17370 bound_to 10713
  156.0120  130.5212  150.8018 LP  0  0  0  0  0  0  0  0  0  0  0  0  # atno 17371 bound_to 10713
  140.1392  134.9305  157.2444 LP  0  0  0  0  0  0  0  0  0  0  0  0  # atno 17394 bound_to 11000
  140.2857  134.3298  155.7330 LP  0  0  0  0  0  0  0  0  0  0  0  0  # atno 17395 bound_to 11000

$$$$
