AV-unprocessed.smi:1247|AV-procd|sdf|5244|dock6
  -GOLD-   22720 4353D 1   1.00000     0.00000
 Structure written by MMmdl.
 46 47  0  0  0  0  0  0  0  0  1 V2000
  146.0451  129.2138  151.6612 C   0  0  0  0  0  0  0  0  0  0  0  0
  146.4089  130.6611  151.8154 C   0  0  0  0  0  0  0  0  0  0  0  0
  147.5429  131.2155  152.4775 C   0  0  0  0  0  0  0  0  0  0  0  0
  147.3637  132.5610  152.3057 C   0  0  0  0  0  0  0  0  0  0  0  0
  148.1490  133.5886  152.7248 N   0  0  0  0  0  0  0  0  0  0  0  0
  149.0833  133.5915  153.6916 C   0  0  0  0  0  0  0  0  0  0  0  0
  149.3778  132.6308  154.4033 O   0  0  0  0  0  0  0  0  0  0  0  0
  149.6664  134.7940  153.7968 N   0  0  0  0  0  0  0  0  0  0  0  0
  150.7171  135.1334  154.7486 C   0  0  0  0  0  0  0  0  0  0  0  0
  151.6079  136.2707  154.2152 C   0  0  0  0  0  0  0  0  0  0  0  0
  151.4284  137.5590  154.8823 N   0  0  0  0  0  0  0  0  0  0  0  0
  152.5607  138.4606  154.6798 C   0  0  0  0  0  0  0  0  0  0  0  0
  152.3587  139.8331  155.3534 C   0  0  2  0  0  0  0  0  0  0  0  0
  152.5092  139.7886  156.8837 C   0  0  0  0  0  0  0  0  0  0  0  0
  151.1083  140.4010  154.9604 O   0  0  0  0  0  0  0  0  0  0  0  0
  149.9733  139.5568  155.1440 C   0  0  1  0  0  0  0  0  0  0  0  0
  148.7417  140.2902  154.6026 C   0  0  0  0  0  0  0  0  0  0  0  0
  150.2115  138.2172  154.4242 C   0  0  0  0  0  0  0  0  0  0  0  0
  146.2062  132.7679  151.5889 N   0  0  0  0  0  0  0  0  0  0  0  0
  145.6004  134.0125  151.1572 C   0  0  0  0  0  0  0  0  0  0  0  0
  145.6173  131.5898  151.2904 N   0  0  0  0  0  0  0  0  0  0  0  0
  146.8165  128.5669  152.0797 H   0  0  0  0  0  0  0  0  0  0  0  0
  145.9250  128.9481  150.6106 H   0  0  0  0  0  0  0  0  0  0  0  0
  145.1093  128.9880  152.1728 H   0  0  0  0  0  0  0  0  0  0  0  0
  148.3416  130.6950  152.9839 H   0  0  0  0  0  0  0  0  0  0  0  0
  148.0054  134.4637  152.2427 H   0  0  0  0  0  0  0  0  0  0  0  0
  149.3633  135.5279  153.1736 H   0  0  0  0  0  0  0  0  0  0  0  0
  150.2810  135.4078  155.7109 H   0  0  0  0  0  0  0  0  0  0  0  0
  151.3020  134.2300  154.9179 H   0  0  0  0  0  0  0  0  0  0  0  0
  152.6555  135.9706  154.2690 H   0  0  0  0  0  0  0  0  0  0  0  0
  151.3878  136.3972  153.1542 H   0  0  0  0  0  0  0  0  0  0  0  0
  153.4786  138.0149  155.0616 H   0  0  0  0  0  0  0  0  0  0  0  0
  152.7139  138.6129  153.6104 H   0  0  0  0  0  0  0  0  0  0  0  0
  153.1307  140.5059  154.9786 H   0  0  0  0  0  0  0  0  0  0  0  0
  153.5097  139.4597  157.1648 H   0  0  0  0  0  0  0  0  0  0  0  0
  151.8002  139.1022  157.3462 H   0  0  0  0  0  0  0  0  0  0  0  0
  152.3515  140.7755  157.3189 H   0  0  0  0  0  0  0  0  0  0  0  0
  149.8239  139.3765  156.2089 H   0  0  0  0  0  0  0  0  0  0  0  0
  147.8407  139.6896  154.7295 H   0  0  0  0  0  0  0  0  0  0  0  0
  148.8501  140.5127  153.5407 H   0  0  0  0  0  0  0  0  0  0  0  0
  148.5884  141.2337  155.1268 H   0  0  0  0  0  0  0  0  0  0  0  0
  150.2670  138.3863  153.3475 H   0  0  0  0  0  0  0  0  0  0  0  0
  149.3542  137.5640  154.5920 H   0  0  0  0  0  0  0  0  0  0  0  0
  146.3093  134.5726  150.5470 H   0  0  0  0  0  0  0  0  0  0  0  0
  145.3298  134.6090  152.0289 H   0  0  0  0  0  0  0  0  0  0  0  0
  144.7030  133.8196  150.5678 H   0  0  0  0  0  0  0  0  0  0  0  0
  1  2  1  0  0  0  0
  1 22  1  0  0  0  0
  1 23  1  0  0  0  0
  1 24  1  0  0  0  0
  2 21  2  0  0  0  0
  2  3  1  0  0  0  0
  3  4  2  0  0  0  0
  3 25  1  0  0  0  0
  4  5  1  0  0  0  0
  4 19  1  0  0  0  0
  5  6  1  0  0  0  0
  5 26  1  0  0  0  0
  6  7  2  0  0  0  0
  6  8  1  0  0  0  0
  8  9  1  0  0  0  0
  8 27  1  0  0  0  0
  9 10  1  0  0  0  0
  9 28  1  0  0  0  0
  9 29  1  0  0  0  0
 10 11  1  0  0  0  0
 10 30  1  0  0  0  0
 10 31  1  0  0  0  0
 11 18  1  0  0  0  0
 11 12  1  0  0  0  0
 12 13  1  0  0  0  0
 12 32  1  0  0  0  0
 12 33  1  0  0  0  0
 13 14  1  0  0  0  0
 13 15  1  0  0  0  0
 13 34  1  0  0  0  0
 14 35  1  0  0  0  0
 14 36  1  0  0  0  0
 14 37  1  0  0  0  0
 15 16  1  0  0  0  0
 16 17  1  0  0  0  0
 16 18  1  0  0  0  0
 16 38  1  0  0  0  0
 17 39  1  0  0  0  0
 17 40  1  0  0  0  0
 17 41  1  0  0  0  0
 18 42  1  0  0  0  0
 18 43  1  0  0  0  0
 19 20  1  0  0  0  0
 19 21  1  0  0  0  0
 20 44  1  0  0  0  0
 20 45  1  0  0  0  0
 20 46  1  0  0  0  0
M  END
> <s_m_source_file>
AV-unprocessed.smi

> <i_m_source_file_index>
1247

> <i_lp_mmshare_version>
43012

> <i_f3d_flags>
0

> <s_epik_input>
W0NIM11jMVtjSF1jKG4objEpW0NIM10pW05IXUMoPU8pW05IXVtDSDJdW0NIMl1OMltDSDJdW0NAQEhdKFtDSDNdKU9bQ0BASF0oW0NIM10pW0NIMl0y

> <s_epik_cmdline>
J2VwaWtfcHl0aG9uJywgJy1waCcsICc3LjAnLCAnLXRuJywgJzgnLCAnLW1hJywgJzIwMCcsICctbWV0YWxfYmluZGluZycsICctaW1hZScsICc8aW5maWxlLm1hZT4nLCAnLW9tYWUnLCAnPG91dGZpbGUubWFlPic=

> <r_lp_tautomer_probability>
1

> <r_epik_Ionization_Penalty>
0.233972

> <r_epik_Ionization_Penalty_Charging>
0

> <r_epik_Ionization_Penalty_Neutral>
0.233972

> <r_epik_State_Penalty>
0.224627

> <r_epik_Charging_Adjusted_Penalty>
0.224627

> <i_epik_Tot_Q>
0

> <i_epik_Tot_abs_Q>
0

> <r_epik_Metal_State_Penalty>
0.224624

> <b_epik_Metal_Only>
0

> <s_lp_Force_Field>
OPLS_2005

> <r_lp_Energy>
23.1298

> <b_lp_Chiralities_Consistent>
1

> <s_lp_Variant>
AV-unprocessed.smi:1247-2

> <Gold.Version>
5.8.1

> <Gold.Id.Protein>
6NUR|6NUR_protein|mol2

> <Gold.PLP.Fitness>
43.4390

> <Gold.PLP.PLP>
-36.0909

> <Gold.PLP.part.hbond>
-3.0000

> <Gold.PLP.part.metal>
0.0000

> <Gold.PLP.part.buried>
-2.3274

> <Gold.PLP.part.nonpolar>
-30.6433

> <Gold.PLP.part.repulsive>
0.2896

> <Gold.PLP.ligand.clash>
0.0000

> <Gold.PLP.ligand.torsion>
0.7622

> <Gold.PLP.Chemscore.Hbond>
2.9360

> <Gold.PLP.Chemscore.CHOScore>
0.0000

> <Gold.PLP.Chemscore.Metal>
0.0000

> <Gold.Chemscore.Hbonds>
donor molecule, donor type, donor heavy atom, donor atom, acceptor molecule, acceptor atom, score
      L1  H     5    26       P1  7948  0.80
      L1  H     8    27       P1  7948  0.74
      P1  H  7989  7998       L1    15  0.70

> <Gold.PLP.Chemscore.Internal.Correction>
0.0644

> <Gold.Rescore>
     Score         DG    S(hbond)    S(metal)    S(lipo)     H(rot)  DE(clash)    DE(int)     intcor
     16.95     -18.34       2.17        0.00      80.32       1.48       0.48       0.91       ----

> <Gold.Chemscore.Fitness>
16.9456

> <Gold.Chemscore.DG>
-18.3399

> <Gold.Chemscore.ZeroCoef>
-5.4800

> <Gold.Chemscore.Hbond>
2.1741

> <Gold.Chemscore.Metal>
0.0000

> <Gold.Chemscore.Lipo>
80.3169

> <Gold.Chemscore.Internal_Hbond>
0.0000

> <Gold.Chemscore.DEClash>
0.4838

> <Gold.Chemscore.DEInternal>
0.9105

> <Gold.Chemscore.Rot>
1.4838

> <Gold.Chemscore.Internal.Correction>
   9.000000E+99

> <Gold.Chemscore.Hbonds>
donor molecule, donor type, donor heavy atom, donor atom, acceptor molecule, acceptor atom, score
      L1  H     5    26       P1  7948  0.20
      L1  H     8    27       P1  7948  0.10
      P1  H  7989  7998       L1    15  0.07

> <Gold.Chemscore.Hbond.Weighted>
-7.2613

> <Gold.Chemscore.Metal.Weighted>
-0.0000

> <Gold.Chemscore.Lipo.Weighted>
-9.3971

> <Gold.Chemscore.Internal_Hbond.Weighted>
0.0000

> <Gold.Chemscore.DEClash.Weighted>
0.4838

> <Gold.Chemscore.DEInternal.Weighted>
0.9105

> <Gold.Chemscore.Rot.Weighted>
3.7985

> <Gold.Chemscore.Internal.Correction.Weighted>
   9.000000E+99

> <Gold.Protein.RotatedTorsions>
[ 6907 6896 6895 6894 ] final  156.59 input  -60.11 | X-H torsion
[ 7974 7965 7964 7962 ] final  -31.58 input  175.53 | X-H torsion
[ 8008 7997 7996 7995 ] final -133.32 input   59.86 | X-H torsion
[ 10167 10162 10161 10158 ] final  130.85 input  -65.29 | X-H torsion
[ 10718 10713 10712 10709 ] final   27.93 input   66.30 | X-H torsion
[ 10763 10752 10751 10750 ] final   68.13 input  -60.55 | X-H torsion
[ 11005 11000 10999 10996 ] final -115.09 input  -57.11 | X-H torsion

> <Gold.Protein.ActiveResidues>
 VAL166  LYS551  ARG553  GLY616  TRP617  ASP618  TYR619  PRO620  LYS621  CYS622 
 ASP623  PHE694  ASN695  SER759  ASP760  ASP761  ALA762  ILE779  LEU786  VAL792 
 PHE793  MET794  SER795  GLU796  ALA797  LYS798  CYS799  TRP800  GLU811  SER814 

> <Gold.Protein.RotatedAtoms>
  152.0274  133.3923  159.4282 H   0  0  0  0  0  0  0  0  0  0  0  0  # atno 6907 bound_to 6896
  150.6885  134.3558  159.4938 H   0  0  0  0  0  0  0  0  0  0  0  0  # atno 6908 bound_to 6896
  152.1340  134.9113  160.0608 H   0  0  0  0  0  0  0  0  0  0  0  0  # atno 6909 bound_to 6896
  146.1056  140.5685  142.8801 H   0  0  0  0  0  0  0  0  0  0  0  0  # atno 7974 bound_to 7965
  155.3436  140.0473  157.3045 H   0  0  0  0  0  0  0  0  0  0  0  0  # atno 8008 bound_to 7997
  154.5264  140.2242  155.8847 H   0  0  0  0  0  0  0  0  0  0  0  0  # atno 8009 bound_to 7997
  156.1744  140.3088  155.9038 H   0  0  0  0  0  0  0  0  0  0  0  0  # atno 8010 bound_to 7997
  139.5411  144.6731  151.4622 H   0  0  0  0  0  0  0  0  0  0  0  0  # atno 10167 bound_to 10162
  157.2267  130.7004  149.6294 H   0  0  0  0  0  0  0  0  0  0  0  0  # atno 10718 bound_to 10713
  153.0220  135.5258  154.7087 H   0  0  0  0  0  0  0  0  0  0  0  0  # atno 10763 bound_to 10752
  154.6175  135.2885  155.0365 H   0  0  0  0  0  0  0  0  0  0  0  0  # atno 10764 bound_to 10752
  154.1364  135.6585  153.4985 H   0  0  0  0  0  0  0  0  0  0  0  0  # atno 10765 bound_to 10752
  141.0510  133.9687  157.2837 H   0  0  0  0  0  0  0  0  0  0  0  0  # atno 11005 bound_to 11000
  144.7468  140.5089  143.6830 LP  0  0  0  0  0  0  0  0  0  0  0  0  # atno 17320 bound_to 7965
  145.5767  139.1486  143.3258 LP  0  0  0  0  0  0  0  0  0  0  0  0  # atno 17321 bound_to 7965
  140.6641  143.8436  150.6921 LP  0  0  0  0  0  0  0  0  0  0  0  0  # atno 17342 bound_to 10162
  140.1839  143.4092  152.1912 LP  0  0  0  0  0  0  0  0  0  0  0  0  # atno 17343 bound_to 10162
  155.9678  130.4502  150.5689 LP  0  0  0  0  0  0  0  0  0  0  0  0  # atno 17370 bound_to 10713
  157.3521  131.0735  151.1705 LP  0  0  0  0  0  0  0  0  0  0  0  0  # atno 17371 bound_to 10713
  139.9350  135.0197  156.8526 LP  0  0  0  0  0  0  0  0  0  0  0  0  # atno 17394 bound_to 11000
  140.6056  134.0131  155.7555 LP  0  0  0  0  0  0  0  0  0  0  0  0  # atno 17395 bound_to 11000

$$$$
