AV-unprocessed.smi:2061|AV-procd|sdf|8395|dock9
  -GOLD-   2272011 83D 1   1.00000     0.00000
 Structure written by MMmdl.
 45 46  0  0  0  0  0  0  0  0  3 V2000
  151.1558  144.9989  159.4897 C   0  0  0  0  0  0  0  0  0  0  0  0
  151.0373  143.7022  158.7649 C   0  0  0  0  0  0  0  0  0  0  0  0
  151.1233  143.3635  157.4441 C   0  0  0  0  0  0  0  0  0  0  0  0
  150.9100  141.9593  157.4575 C   0  0  0  0  0  0  0  0  0  0  0  0
  150.9177  141.2151  156.2482 N   0  0  0  0  0  0  0  0  0  0  0  0
  151.7581  140.2365  155.8653 C   0  0  0  0  0  0  0  0  0  0  0  0
  152.6922  139.8922  156.5991 O   0  0  0  0  0  0  0  0  0  0  0  0
  151.4361  139.7330  154.6425 N   0  5  0  0  0  0  0  0  0  0  0  0
  151.2229  138.3142  154.3579 C   0  0  0  0  0  0  0  0  0  0  0  0
  149.9217  137.8108  155.0499 C   0  0  1  0  0  0  0  0  0  0  0  0
  148.7693  138.8406  154.8647 C   0  0  0  0  0  0  0  0  0  0  0  0
  149.5918  136.4198  154.5732 N   0  3  1  0  0  0  0  0  0  0  0  0
  150.7002  135.4296  154.7171 C   0  0  0  0  0  0  0  0  0  0  0  0
  150.7914  134.8794  156.1564 C   0  0  2  0  0  0  0  0  0  0  0  0
  151.8683  133.7974  156.2902 C   0  0  0  0  0  0  0  0  0  0  0  0
  149.5406  134.3038  156.5141 O   0  0  0  0  0  0  0  0  0  0  0  0
  148.4776  135.2491  156.4920 C   0  0  2  0  0  0  0  0  0  0  0  0
  147.2056  134.5433  156.9733 C   0  0  0  0  0  0  0  0  0  0  0  0
  148.3279  135.7974  155.0566 C   0  0  0  0  0  0  0  0  0  0  0  0
  150.7127  141.4843  158.6785 N   0  0  0  0  0  0  0  0  0  0  0  0
  150.7939  142.5984  159.5222 O   0  0  0  0  0  0  0  0  0  0  0  0
  151.2934  145.8245  158.7912 H   0  0  0  0  0  0  0  0  0  0  0  0
  152.0080  144.9846  160.1692 H   0  0  0  0  0  0  0  0  0  0  0  0
  150.2578  145.1977  160.0749 H   0  0  0  0  0  0  0  0  0  0  0  0
  151.3076  144.0165  156.6041 H   0  0  0  0  0  0  0  0  0  0  0  0
  150.1872  141.4449  155.5912 H   0  0  0  0  0  0  0  0  0  0  0  0
  151.1589  138.1158  153.2875 H   0  0  0  0  0  0  0  0  0  0  0  0
  152.0650  137.7177  154.7103 H   0  0  0  0  0  0  0  0  0  0  0  0
  150.1070  137.7480  156.1226 H   0  0  0  0  0  0  0  0  0  0  0  0
  149.0337  139.8319  155.2388 H   0  0  0  0  0  0  0  0  0  0  0  0
  147.8773  138.5602  155.4218 H   0  0  0  0  0  0  0  0  0  0  0  0
  148.4798  138.9590  153.8185 H   0  0  0  0  0  0  0  0  0  0  0  0
  150.5070  134.6063  154.0278 H   0  0  0  0  0  0  0  0  0  0  0  0
  151.6596  135.8495  154.4152 H   0  0  0  0  0  0  0  0  0  0  0  0
  151.0293  135.6827  156.8550 H   0  0  0  0  0  0  0  0  0  0  0  0
  152.8528  134.1915  156.0369 H   0  0  0  0  0  0  0  0  0  0  0  0
  151.6654  132.9527  155.6315 H   0  0  0  0  0  0  0  0  0  0  0  0
  151.9159  133.4194  157.3118 H   0  0  0  0  0  0  0  0  0  0  0  0
  148.7081  136.0545  157.1899 H   0  0  0  0  0  0  0  0  0  0  0  0
  146.3576  135.2285  156.9843 H   0  0  0  0  0  0  0  0  0  0  0  0
  147.3334  134.1567  157.9847 H   0  0  0  0  0  0  0  0  0  0  0  0
  146.9502  133.7038  156.3260 H   0  0  0  0  0  0  0  0  0  0  0  0
  147.4739  136.4669  154.9654 H   0  0  0  0  0  0  0  0  0  0  0  0
  148.0988  134.9657  154.3886 H   0  0  0  0  0  0  0  0  0  0  0  0
  149.4553  136.5417  153.5796 H   0  0  0  0  0  0  0  0  0  0  0  0
  1  2  1  0  0  0  0
  1 22  1  0  0  0  0
  1 23  1  0  0  0  0
  1 24  1  0  0  0  0
  2 21  1  0  0  0  0
  2  3  2  0  0  0  0
  3  4  1  0  0  0  0
  3 25  1  0  0  0  0
  4  5  1  0  0  0  0
  4 20  2  0  0  0  0
  5  6  1  0  0  0  0
  5 26  1  0  0  0  0
  6  7  2  0  0  0  0
  6  8  1  0  0  0  0
  8  9  1  0  0  0  0
  9 10  1  0  0  0  0
  9 27  1  0  0  0  0
  9 28  1  0  0  0  0
 10 11  1  0  0  0  0
 10 12  1  0  0  0  0
 10 29  1  0  0  0  0
 11 30  1  0  0  0  0
 11 31  1  0  0  0  0
 11 32  1  0  0  0  0
 12 19  1  0  0  0  0
 12 13  1  0  0  0  0
 12 45  1  0  0  0  0
 13 14  1  0  0  0  0
 13 33  1  0  0  0  0
 13 34  1  0  0  0  0
 14 15  1  0  0  0  0
 14 16  1  0  0  0  0
 14 35  1  0  0  0  0
 15 36  1  0  0  0  0
 15 37  1  0  0  0  0
 15 38  1  0  0  0  0
 16 17  1  0  0  0  0
 17 18  1  0  0  0  0
 17 19  1  0  0  0  0
 17 39  1  0  0  0  0
 18 40  1  0  0  0  0
 18 41  1  0  0  0  0
 18 42  1  0  0  0  0
 19 43  1  0  0  0  0
 19 44  1  0  0  0  0
 20 21  1  0  0  0  0
M  CHG  1   8  -1
M  CHG  1  12   1
M  END
> <s_m_source_file>
AV-unprocessed.smi

> <i_m_source_file_index>
2061

> <i_lp_mmshare_version>
43012

> <i_f3d_flags>
0

> <s_epik_input>
W0NIM11jMVtjSF1jKG5vMSlbTkhdQyg9TylbTkhdW0NIMl1bQ0BIXShbQ0gzXSlOMltDSDJdW0NAQEhdKFtDSDNdKU9bQ0BASF0oW0NIM10pW0NIMl0y

> <s_epik_cmdline>
J2VwaWtfcHl0aG9uJywgJy1waCcsICc3LjAnLCAnLXRuJywgJzgnLCAnLW1hJywgJzIwMCcsICctbWV0YWxfYmluZGluZycsICctaW1hZScsICc8aW5maWxlLm1hZT4nLCAnLW9tYWUnLCAnPG91dGZpbGUubWFlPic=

> <r_epik_Ionization_Penalty>
6.8073

> <r_epik_Ionization_Penalty_Charging>
6.80729

> <r_epik_Ionization_Penalty_Neutral>
5.65391e-06

> <r_epik_State_Penalty>
7.47323

> <r_epik_Charging_Adjusted_Penalty>
14.2805

> <i_epik_Tot_Q>
0

> <i_epik_Tot_abs_Q>
2

> <r_epik_Metal_State_Penalty>
3.40035

> <b_epik_Metal_Only>
1

> <s_lp_Force_Field>
OPLS_2005

> <r_lp_Energy>
21.1883

> <b_lp_Chiralities_Consistent>
1

> <s_lp_Variant>
AV-unprocessed.smi:2061-36

> <Gold.Version>
5.8.1

> <Gold.Id.Protein>
6NUR|6NUR_protein|mol2

> <Gold.PLP.Fitness>
41.5633

> <Gold.PLP.PLP>
-31.9005

> <Gold.PLP.part.hbond>
-3.7159

> <Gold.PLP.part.metal>
0.0000

> <Gold.PLP.part.buried>
-6.2517

> <Gold.PLP.part.nonpolar>
-22.2780

> <Gold.PLP.part.repulsive>
0.2268

> <Gold.PLP.ligand.clash>
0.0000

> <Gold.PLP.ligand.torsion>
1.2343

> <Gold.PLP.Chemscore.Hbond>
4.0000

> <Gold.PLP.Chemscore.CHOScore>
0.0000

> <Gold.PLP.Chemscore.Metal>
0.0000

> <Gold.Chemscore.Hbonds>
donor molecule, donor type, donor heavy atom, donor atom, acceptor molecule, acceptor atom, score
      L1  H    12    45       P1  7948  2.00
      P1  H  7989  7998       L1     8  1.00
      P1  H  7997  8009       L1     7  1.00

> <Gold.PLP.Chemscore.Internal.Correction>
0.1314

> <Gold.Rescore>
     Score         DG    S(hbond)    S(metal)    S(lipo)     H(rot)  DE(clash)    DE(int)     intcor
     17.18     -18.57       2.80        0.00      66.08       1.56       0.03       1.36       ----

> <Gold.Chemscore.Fitness>
17.1784

> <Gold.Chemscore.DG>
-18.5670

> <Gold.Chemscore.ZeroCoef>
-5.4800

> <Gold.Chemscore.Hbond>
2.7953

> <Gold.Chemscore.Metal>
0.0000

> <Gold.Chemscore.Lipo>
66.0822

> <Gold.Chemscore.Internal_Hbond>
0.0000

> <Gold.Chemscore.DEClash>
0.0310

> <Gold.Chemscore.DEInternal>
1.3576

> <Gold.Chemscore.Rot>
1.5550

> <Gold.Chemscore.Internal.Correction>
   9.000000E+99

> <Gold.Chemscore.Hbonds>
donor molecule, donor type, donor heavy atom, donor atom, acceptor molecule, acceptor atom, score
      L1  H    12    45       P1  7948  0.82
      P1  H  7989  7998       L1     8  0.73
      P1  H  7997  8009       L1     7  1.00

> <Gold.Chemscore.Hbond.Weighted>
-9.3363

> <Gold.Chemscore.Metal.Weighted>
-0.0000

> <Gold.Chemscore.Lipo.Weighted>
-7.7316

> <Gold.Chemscore.Internal_Hbond.Weighted>
0.0000

> <Gold.Chemscore.DEClash.Weighted>
0.0310

> <Gold.Chemscore.DEInternal.Weighted>
1.3576

> <Gold.Chemscore.Rot.Weighted>
3.9809

> <Gold.Chemscore.Internal.Correction.Weighted>
   9.000000E+99

> <Gold.Protein.RotatedTorsions>
[ 6907 6896 6895 6894 ] final  138.06 input  -60.11 | X-H torsion
[ 7974 7965 7964 7962 ] final  -46.91 input  175.53 | X-H torsion
[ 8008 7997 7996 7995 ] final -165.10 input   59.86 | X-H torsion
[ 10167 10162 10161 10158 ] final  -33.66 input  -65.29 | X-H torsion
[ 10718 10713 10712 10709 ] final  152.60 input   66.30 | X-H torsion
[ 10763 10752 10751 10750 ] final  105.71 input  -60.55 | X-H torsion
[ 11005 11000 10999 10996 ] final  -46.77 input  -57.11 | X-H torsion

> <Gold.Protein.ActiveResidues>
 VAL166  LYS551  ARG553  GLY616  TRP617  ASP618  TYR619  PRO620  LYS621  CYS622 
 ASP623  PHE694  ASN695  SER759  ASP760  ASP761  ALA762  ILE779  LEU786  VAL792 
 PHE793  MET794  SER795  GLU796  ALA797  LYS798  CYS799  TRP800  GLU811  SER814 

> <Gold.Protein.RotatedAtoms>
  152.2710  133.5382  159.5438 H   0  0  0  0  0  0  0  0  0  0  0  0  # atno 6907 bound_to 6896
  150.7159  134.0698  159.3869 H   0  0  0  0  0  0  0  0  0  0  0  0  # atno 6908 bound_to 6896
  151.8612  135.0523  160.0520 H   0  0  0  0  0  0  0  0  0  0  0  0  # atno 6909 bound_to 6896
  145.9671  140.7421  142.9429 H   0  0  0  0  0  0  0  0  0  0  0  0  # atno 7974 bound_to 7965
  155.8450  140.0954  157.1710 H   0  0  0  0  0  0  0  0  0  0  0  0  # atno 8008 bound_to 7997
  154.3983  140.1394  156.3837 H   0  0  0  0  0  0  0  0  0  0  0  0  # atno 8009 bound_to 7997
  155.8023  140.3452  155.5412 H   0  0  0  0  0  0  0  0  0  0  0  0  # atno 8010 bound_to 7997
  140.7200  143.3604  151.1975 H   0  0  0  0  0  0  0  0  0  0  0  0  # atno 10167 bound_to 10162
  157.2557  131.0788  151.1700 H   0  0  0  0  0  0  0  0  0  0  0  0  # atno 10718 bound_to 10713
  153.3830  135.3901  155.1870 H   0  0  0  0  0  0  0  0  0  0  0  0  # atno 10763 bound_to 10752
  154.8710  135.3730  154.4833 H   0  0  0  0  0  0  0  0  0  0  0  0  # atno 10764 bound_to 10752
  153.5312  135.7086  153.5744 H   0  0  0  0  0  0  0  0  0  0  0  0  # atno 10765 bound_to 10752
  141.0599  133.6712  156.3202 H   0  0  0  0  0  0  0  0  0  0  0  0  # atno 11005 bound_to 11000
  144.6828  140.2687  143.7309 LP  0  0  0  0  0  0  0  0  0  0  0  0  # atno 17320 bound_to 7965
  145.7959  139.1945  143.2076 LP  0  0  0  0  0  0  0  0  0  0  0  0  # atno 17321 bound_to 7965
  139.7154  143.9308  152.2964 LP  0  0  0  0  0  0  0  0  0  0  0  0  # atno 17342 bound_to 10162
  139.9047  144.6891  150.8626 LP  0  0  0  0  0  0  0  0  0  0  0  0  # atno 17343 bound_to 10162
  157.3230  130.6946  149.6280 LP  0  0  0  0  0  0  0  0  0  0  0  0  # atno 17370 bound_to 10713
  155.9665  130.4330  150.4986 LP  0  0  0  0  0  0  0  0  0  0  0  0  # atno 17371 bound_to 10713
  140.5889  134.5671  157.5495 LP  0  0  0  0  0  0  0  0  0  0  0  0  # atno 17394 bound_to 11000
  139.9423  134.7764  156.0646 LP  0  0  0  0  0  0  0  0  0  0  0  0  # atno 17395 bound_to 11000

$$$$
