AV-unprocessed.smi:2110|AV-procd|sdf|8610|dock1
  -GOLD-   2272011353D 1   1.00000     0.00000
 Structure written by MMmdl.
 45 46  0  0  0  0  0  0  0  0  2 V2000
  155.1877  144.3059  168.9843 C   0  0  0  0  0  0  0  0  0  0  0  0
  154.5075  143.1600  168.2172 C   0  0  0  0  0  0  0  0  0  0  0  0
  155.3954  142.5212  167.2244 N   0  0  0  0  0  0  0  0  0  0  0  0
  155.5674  141.0580  167.3259 C   0  0  0  0  0  0  0  0  0  0  0  0
  155.0124  140.4758  168.6349 C   0  0  0  0  0  0  0  0  0  0  0  0
  155.8499  143.3612  165.7676 S   0  0  0  0  0  0  0  0  0  0  0  0
  155.0203  144.5768  165.7173 O   0  0  0  0  0  0  0  0  0  0  0  0
  157.3112  143.5290  165.8249 O   0  0  0  0  0  0  0  0  0  0  0  0
  155.3862  142.2191  164.7167 N   0  5  0  0  0  0  0  0  0  0  0  0
  153.9850  142.1174  164.3554 C   0  0  0  0  0  0  0  0  0  0  0  0
  153.8061  141.8752  162.8623 C   0  0  0  0  0  0  0  0  0  0  0  0
  154.4243  140.7727  162.2320 C   0  0  0  0  0  0  0  0  0  0  0  0
  154.2302  140.5964  160.8501 C   0  0  0  0  0  0  0  0  0  0  0  0
  153.4745  141.4209  160.0960 N   0  0  0  0  0  0  0  0  0  0  0  0
  152.8671  142.4783  160.6890 C   0  0  0  0  0  0  0  0  0  0  0  0
  152.0698  143.3255  159.8882 N   0  0  0  0  0  0  0  0  0  0  0  0
  152.7017  143.8153  158.6655 C   0  0  0  0  0  0  0  0  0  0  0  0
  151.6536  144.4599  157.7421 C   0  0  0  0  0  0  0  0  0  0  0  0
  150.9515  145.4792  158.4460 O   0  0  0  0  0  0  0  0  0  0  0  0
  150.2527  144.9584  159.5718 C   0  0  0  0  0  0  0  0  0  0  0  0
  151.2531  144.3349  160.5597 C   0  0  0  0  0  0  0  0  0  0  0  0
  153.0170  142.7426  162.0719 C   0  0  0  0  0  0  0  0  0  0  0  0
  154.4760  144.7988  169.6461 H   0  0  0  0  0  0  0  0  0  0  0  0
  155.5929  145.0627  168.3137 H   0  0  0  0  0  0  0  0  0  0  0  0
  156.0054  143.9404  169.6053 H   0  0  0  0  0  0  0  0  0  0  0  0
  154.1712  142.4008  168.9235 H   0  0  0  0  0  0  0  0  0  0  0  0
  153.6093  143.5289  167.7212 H   0  0  0  0  0  0  0  0  0  0  0  0
  155.0790  140.5755  166.4800 H   0  0  0  0  0  0  0  0  0  0  0  0
  156.6280  140.8211  167.2392 H   0  0  0  0  0  0  0  0  0  0  0  0
  155.1067  139.3901  168.6383 H   0  0  0  0  0  0  0  0  0  0  0  0
  153.9567  140.7117  168.7650 H   0  0  0  0  0  0  0  0  0  0  0  0
  155.5534  140.8494  169.5037 H   0  0  0  0  0  0  0  0  0  0  0  0
  153.4928  141.2957  164.8765 H   0  0  0  0  0  0  0  0  0  0  0  0
  153.4331  143.0146  164.6379 H   0  0  0  0  0  0  0  0  0  0  0  0
  155.0433  140.0757  162.7806 H   0  0  0  0  0  0  0  0  0  0  0  0
  154.6934  139.7679  160.3353 H   0  0  0  0  0  0  0  0  0  0  0  0
  153.4630  144.5488  158.9338 H   0  0  0  0  0  0  0  0  0  0  0  0
  153.2086  143.0184  158.1231 H   0  0  0  0  0  0  0  0  0  0  0  0
  152.1411  144.9012  156.8727 H   0  0  0  0  0  0  0  0  0  0  0  0
  150.9530  143.7115  157.3678 H   0  0  0  0  0  0  0  0  0  0  0  0
  149.7034  145.7669  160.0543 H   0  0  0  0  0  0  0  0  0  0  0  0
  149.5160  144.2215  159.2476 H   0  0  0  0  0  0  0  0  0  0  0  0
  150.7081  143.8875  161.3918 H   0  0  0  0  0  0  0  0  0  0  0  0
  151.9014  145.1093  160.9720 H   0  0  0  0  0  0  0  0  0  0  0  0
  152.5420  143.6079  162.5135 H   0  0  0  0  0  0  0  0  0  0  0  0
  1  2  1  0  0  0  0
  1 23  1  0  0  0  0
  1 24  1  0  0  0  0
  1 25  1  0  0  0  0
  2  3  1  0  0  0  0
  2 26  1  0  0  0  0
  2 27  1  0  0  0  0
  3  4  1  0  0  0  0
  3  6  1  0  0  0  0
  4  5  1  0  0  0  0
  4 28  1  0  0  0  0
  4 29  1  0  0  0  0
  5 30  1  0  0  0  0
  5 31  1  0  0  0  0
  5 32  1  0  0  0  0
  6  7  2  0  0  0  0
  6  8  2  0  0  0  0
  6  9  1  0  0  0  0
  9 10  1  0  0  0  0
 10 11  1  0  0  0  0
 10 33  1  0  0  0  0
 10 34  1  0  0  0  0
 11 22  1  0  0  0  0
 11 12  2  0  0  0  0
 12 13  1  0  0  0  0
 12 35  1  0  0  0  0
 13 14  2  0  0  0  0
 13 36  1  0  0  0  0
 14 15  1  0  0  0  0
 15 16  1  0  0  0  0
 15 22  2  0  0  0  0
 16 21  1  0  0  0  0
 16 17  1  0  0  0  0
 17 18  1  0  0  0  0
 17 37  1  0  0  0  0
 17 38  1  0  0  0  0
 18 19  1  0  0  0  0
 18 39  1  0  0  0  0
 18 40  1  0  0  0  0
 19 20  1  0  0  0  0
 20 21  1  0  0  0  0
 20 41  1  0  0  0  0
 20 42  1  0  0  0  0
 21 43  1  0  0  0  0
 21 44  1  0  0  0  0
 22 45  1  0  0  0  0
M  CHG  1   9  -1
M  END
> <s_m_source_file>
AV-unprocessed.smi

> <i_m_source_file_index>
2110

> <i_lp_mmshare_version>
43012

> <i_f3d_flags>
0

> <s_epik_input>
W0NIM11bQ0gyXU4oW0NIMl1bQ0gzXSlTKD1PKSg9TylbTkhdW0NIMl1jMVtjSF1bY0hdbmMoW2NIXTEpTjJbQ0gyXVtDSDJdT1tDSDJdW0NIMl0y

> <s_epik_cmdline>
J2VwaWtfcHl0aG9uJywgJy1waCcsICc3LjAnLCAnLXRuJywgJzgnLCAnLW1hJywgJzIwMCcsICctbWV0YWxfYmluZGluZycsICctaW1hZScsICc8aW5maWxlLm1hZT4nLCAnLW9tYWUnLCAnPG91dGZpbGUubWFlPic=

> <r_lp_tautomer_probability>
1

> <r_epik_Ionization_Penalty>
2.67693

> <r_epik_Ionization_Penalty_Charging>
2.41478

> <r_epik_Ionization_Penalty_Neutral>
0.262148

> <r_epik_State_Penalty>
2.66454

> <r_epik_Charging_Adjusted_Penalty>
5.07933

> <i_epik_Tot_Q>
-1

> <i_epik_Tot_abs_Q>
1

> <r_epik_Metal_State_Penalty>
0.588443

> <b_epik_Metal_Only>
0

> <s_lp_Force_Field>
OPLS_2005

> <r_lp_Energy>
11.2641

> <b_lp_Chiralities_Consistent>
1

> <s_lp_Variant>
AV-unprocessed.smi:2110-3

> <Gold.Version>
5.8.1

> <Gold.Id.Protein>
6NUR|6NUR_protein|mol2

> <Gold.PLP.Fitness>
50.5017

> <Gold.PLP.PLP>
-50.8537

> <Gold.PLP.part.hbond>
-4.0000

> <Gold.PLP.part.metal>
0.0000

> <Gold.PLP.part.buried>
-4.5447

> <Gold.PLP.part.nonpolar>
-42.5724

> <Gold.PLP.part.repulsive>
0.2619

> <Gold.PLP.ligand.clash>
0.0000

> <Gold.PLP.ligand.torsion>
2.0424

> <Gold.PLP.Chemscore.Hbond>
0.0000

> <Gold.PLP.Chemscore.CHOScore>
0.0000

> <Gold.PLP.Chemscore.Metal>
0.0000

> <Gold.PLP.Chemscore.Internal.Correction>
3.7329

> <Gold.Rescore>
     Score         DG    S(hbond)    S(metal)    S(lipo)     H(rot)  DE(clash)    DE(int)     intcor
     10.45     -14.99       0.00        0.00     117.67       1.66       2.39       2.15       ----

> <Gold.Chemscore.Fitness>
10.4455

> <Gold.Chemscore.DG>
-14.9872

> <Gold.Chemscore.ZeroCoef>
-5.4800

> <Gold.Chemscore.Hbond>
0.0000

> <Gold.Chemscore.Metal>
0.0000

> <Gold.Chemscore.Lipo>
117.6715

> <Gold.Chemscore.Internal_Hbond>
0.0000

> <Gold.Chemscore.DEClash>
2.3914

> <Gold.Chemscore.DEInternal>
2.1502

> <Gold.Chemscore.Rot>
1.6642

> <Gold.Chemscore.Internal.Correction>
   9.000000E+99

> <Gold.Chemscore.Hbond.Weighted>
-0.0000

> <Gold.Chemscore.Metal.Weighted>
-0.0000

> <Gold.Chemscore.Lipo.Weighted>
-13.7676

> <Gold.Chemscore.Internal_Hbond.Weighted>
0.0000

> <Gold.Chemscore.DEClash.Weighted>
2.3914

> <Gold.Chemscore.DEInternal.Weighted>
2.1502

> <Gold.Chemscore.Rot.Weighted>
4.2604

> <Gold.Chemscore.Internal.Correction.Weighted>
   9.000000E+99

> <Gold.Protein.RotatedTorsions>
[ 6907 6896 6895 6894 ] final  169.32 input  -60.11 | X-H torsion
[ 7974 7965 7964 7962 ] final -160.28 input  175.53 | X-H torsion
[ 8008 7997 7996 7995 ] final   49.84 input   59.86 | X-H torsion
[ 10167 10162 10161 10158 ] final -117.15 input  -65.29 | X-H torsion
[ 10718 10713 10712 10709 ] final    8.68 input   66.30 | X-H torsion
[ 10763 10752 10751 10750 ] final   71.89 input  -60.55 | X-H torsion
[ 11005 11000 10999 10996 ] final  141.63 input  -57.11 | X-H torsion

> <Gold.Protein.ActiveResidues>
 VAL166  LYS551  ARG553  GLY616  TRP617  ASP618  TYR619  PRO620  LYS621  CYS622 
 ASP623  PHE694  ASN695  SER759  ASP760  ASP761  ALA762  ILE779  LEU786  VAL792 
 PHE793  MET794  SER795  GLU796  ALA797  LYS798  CYS799  TRP800  GLU811  SER814 

> <Gold.Protein.RotatedAtoms>
  151.8337  133.3412  159.3621 H   0  0  0  0  0  0  0  0  0  0  0  0  # atno 6907 bound_to 6896
  150.7256  134.5458  159.5779 H   0  0  0  0  0  0  0  0  0  0  0  0  # atno 6908 bound_to 6896
  152.2917  134.7715  160.0427 H   0  0  0  0  0  0  0  0  0  0  0  0  # atno 6909 bound_to 6896
  144.7433  140.3565  143.6105 H   0  0  0  0  0  0  0  0  0  0  0  0  # atno 7974 bound_to 7965
  155.4088  140.3441  155.4262 H   0  0  0  0  0  0  0  0  0  0  0  0  # atno 8008 bound_to 7997
  156.1461  140.1556  156.8877 H   0  0  0  0  0  0  0  0  0  0  0  0  # atno 8009 bound_to 7997
  154.5011  140.0814  156.7781 H   0  0  0  0  0  0  0  0  0  0  0  0  # atno 8010 bound_to 7997
  140.0715  143.4872  152.1977 H   0  0  0  0  0  0  0  0  0  0  0  0  # atno 10167 bound_to 10162
  156.9552  130.5912  149.5659 H   0  0  0  0  0  0  0  0  0  0  0  0  # atno 10718 bound_to 10713
  153.0425  135.5120  154.7661 H   0  0  0  0  0  0  0  0  0  0  0  0  # atno 10763 bound_to 10752
  154.6586  135.2935  154.9897 H   0  0  0  0  0  0  0  0  0  0  0  0  # atno 10764 bound_to 10752
  154.0756  135.6671  153.4883 H   0  0  0  0  0  0  0  0  0  0  0  0  # atno 10765 bound_to 10752
  140.0416  134.9302  157.0853 H   0  0  0  0  0  0  0  0  0  0  0  0  # atno 11005 bound_to 11000
  145.7222  139.1713  143.2478 LP  0  0  0  0  0  0  0  0  0  0  0  0  # atno 17320 bound_to 7965
  146.1269  140.7237  142.9431 LP  0  0  0  0  0  0  0  0  0  0  0  0  # atno 17321 bound_to 7965
  139.5833  144.7520  151.3584 LP  0  0  0  0  0  0  0  0  0  0  0  0  # atno 17342 bound_to 10162
  140.7123  143.7358  150.7590 LP  0  0  0  0  0  0  0  0  0  0  0  0  # atno 17343 bound_to 10162
  156.0345  130.5434  150.8620 LP  0  0  0  0  0  0  0  0  0  0  0  0  # atno 17370 bound_to 10713
  157.5695  131.0946  150.9439 LP  0  0  0  0  0  0  0  0  0  0  0  0  # atno 17371 bound_to 10713
  140.4060  134.2032  155.7163 LP  0  0  0  0  0  0  0  0  0  0  0  0  # atno 17394 bound_to 11000
  141.1886  133.8257  157.0989 LP  0  0  0  0  0  0  0  0  0  0  0  0  # atno 17395 bound_to 11000

$$$$
