AV-unprocessed.smi:53|AV-procd|sdf|522|dock10
  -GOLD-   2262016393D 1   1.00000     0.00000
 Structure written by MMmdl.
 30 31  0  0  0  0  0  0  0  0  1 V2000
  152.9721  143.0949  160.4948 N   0  0  0  0  0  0  0  0  0  0  0  0
  152.1359  142.5013  159.6317 C   0  0  0  0  0  0  0  0  0  0  0  0
  151.4328  143.2843  158.6408 C   0  0  0  0  0  0  0  0  0  0  0  0
  150.6057  142.6154  157.8073 C   0  0  0  0  0  0  0  0  0  0  0  0
  150.4284  141.2400  157.8884 N   0  0  0  0  0  0  0  0  0  0  0  0
  149.4998  140.4874  156.9524 C   0  0  1  0  0  0  0  0  0  0  0  0
  148.3566  141.2547  156.7047 O   0  0  0  0  0  0  0  0  0  0  0  0
  148.3708  141.7440  155.3663 C   0  0  2  0  0  0  0  0  0  0  0  0
  146.9348  142.0345  154.9046 C   0  0  0  0  0  0  0  0  0  0  0  0
  146.9117  143.1911  154.0957 O   0  0  0  0  0  0  0  0  0  0  0  0
  149.0342  140.5864  154.6217 C   0  0  1  0  0  0  0  0  0  0  0  0
  149.5040  140.9466  153.3356 O   0  0  0  0  0  0  0  0  0  0  0  0
  150.1437  140.1681  155.5813 C   0  0  1  0  0  0  0  0  0  0  0  0
  151.3511  140.8762  155.3406 O   0  0  0  0  0  0  0  0  0  0  0  0
  151.1372  140.5007  158.8655 C   0  0  0  0  0  0  0  0  0  0  0  0
  151.0247  139.2787  158.9579 O   0  0  0  0  0  0  0  0  0  0  0  0
  151.9684  141.1951  159.7026 N   0  0  0  0  0  0  0  0  0  0  0  0
  149.1784  139.5988  157.4990 H   0  0  0  0  0  0  0  0  0  0  0  0
  148.9984  142.6345  155.2952 H   0  0  0  0  0  0  0  0  0  0  0  0
  148.3234  139.7646  154.5200 H   0  0  0  0  0  0  0  0  0  0  0  0
  150.3513  139.0997  155.5139 H   0  0  0  0  0  0  0  0  0  0  0  0
  153.4621  142.5445  161.1849 H   0  0  0  0  0  0  0  0  0  0  0  0
  153.1107  144.0943  160.4518 H   0  0  0  0  0  0  0  0  0  0  0  0
  151.5402  144.3554  158.5439 H   0  0  0  0  0  0  0  0  0  0  0  0
  150.0794  143.1950  157.0647 H   0  0  0  0  0  0  0  0  0  0  0  0
  146.5595  141.2071  154.3016 H   0  0  0  0  0  0  0  0  0  0  0  0
  146.2600  142.1499  155.7532 H   0  0  0  0  0  0  0  0  0  0  0  0
  147.6791  143.7081  154.2880 H   0  0  0  0  0  0  0  0  0  0  0  0
  149.5407  140.1681  152.8014 H   0  0  0  0  0  0  0  0  0  0  0  0
  151.7716  141.0360  156.1721 H   0  0  0  0  0  0  0  0  0  0  0  0
  1  2  1  0  0  0  0
  1 22  1  0  0  0  0
  1 23  1  0  0  0  0
  2 17  2  0  0  0  0
  2  3  1  0  0  0  0
  3  4  2  0  0  0  0
  3 24  1  0  0  0  0
  4  5  1  0  0  0  0
  4 25  1  0  0  0  0
  5  6  1  0  0  0  0
  5 15  1  0  0  0  0
  6 18  1  0  0  0  0
  6 13  1  0  0  0  0
  6  7  1  0  0  0  0
  7  8  1  0  0  0  0
  8 19  1  0  0  0  0
  8  9  1  0  0  0  0
  8 11  1  0  0  0  0
  9 10  1  0  0  0  0
  9 26  1  0  0  0  0
  9 27  1  0  0  0  0
 10 28  1  0  0  0  0
 11 20  1  0  0  0  0
 11 12  1  0  0  0  0
 11 13  1  0  0  0  0
 12 29  1  0  0  0  0
 13 21  1  0  0  0  0
 13 14  1  0  0  0  0
 14 30  1  0  0  0  0
 15 16  2  0  0  0  0
 15 17  1  0  0  0  0
M  END
> <s_m_source_file>
AV-unprocessed.smi

> <i_m_source_file_index>
53

> <i_lp_mmshare_version>
43012

> <i_f3d_flags>
0

> <s_epik_input>
W05IMl1jMVtjSF1bY0hdbihjKD1PKW4xKVtDQEBIXTJPW0NASF0oW0NIMl1bT0hdKVtDQEBIXShbT0hdKVtDQEBIXTJbT0hd

> <s_epik_cmdline>
J2VwaWtfcHl0aG9uJywgJy1waCcsICc3LjAnLCAnLXRuJywgJzgnLCAnLW1hJywgJzIwMCcsICctbWV0YWxfYmluZGluZycsICctaW1hZScsICc8aW5maWxlLm1hZT4nLCAnLW9tYWUnLCAnPG91dGZpbGUubWFlPic=

> <r_lp_tautomer_probability>
0.99996

> <r_epik_Ionization_Penalty>
0.00069087

> <r_epik_Ionization_Penalty_Charging>
2.61959e-08

> <r_epik_Ionization_Penalty_Neutral>
0.000690844

> <r_epik_State_Penalty>
1.15523e-05

> <r_epik_Charging_Adjusted_Penalty>
1.15785e-05

> <i_epik_Tot_Q>
0

> <i_epik_Tot_abs_Q>
0

> <r_epik_Metal_State_Penalty>
-0

> <b_epik_Metal_Only>
0

> <s_epik_Chemistry_Notes>
This compound contains an acetal/aminal-like group ( X-CH(R)-Y where X, Y are N, S, or O) that may be acid/base labile, releasing an aldehyde.

> <s_lp_Force_Field>
OPLS_2005

> <r_lp_Energy>
37.6612

> <b_lp_Chiralities_Consistent>
1

> <s_lp_Variant>
AV-unprocessed.smi:53-10

> <Gold.Version>
5.8.1

> <Gold.Id.Protein>
6NUR|6NUR_protein|mol2

> <Gold.PLP.Fitness>
36.5111

> <Gold.PLP.PLP>
-26.0646

> <Gold.PLP.part.hbond>
-5.3989

> <Gold.PLP.part.metal>
0.0000

> <Gold.PLP.part.buried>
-1.8120

> <Gold.PLP.part.nonpolar>
-18.7333

> <Gold.PLP.part.repulsive>
0.1174

> <Gold.PLP.ligand.clash>
0.0000

> <Gold.PLP.ligand.torsion>
1.2050

> <Gold.PLP.Chemscore.Hbond>
3.2640

> <Gold.PLP.Chemscore.CHOScore>
1.0000

> <Gold.PLP.Chemscore.Metal>
0.0000

> <Gold.Chemscore.Hbonds>
donor molecule, donor type, donor heavy atom, donor atom, acceptor molecule, acceptor atom, score
      L1  H    10    28       P1  8028  1.00
      L1  H    12    29       P1  7957  0.58
      P1  H  7989  7998       L1    14  0.69
      P1  H  8011  8017       L1    12  1.00
      L1  C     4    25       P1  8028  1.00

> <Gold.PLP.Chemscore.Internal.Correction>
0.0645

> <Gold.Rescore>
     Score         DG    S(hbond)    S(metal)    S(lipo)     H(rot)  DE(clash)    DE(int)     intcor
      7.53      -8.87       2.44        0.00      40.60       3.71       0.14       1.21       ----

> <Gold.Chemscore.Fitness>
7.5261

> <Gold.Chemscore.DG>
-8.8743

> <Gold.Chemscore.ZeroCoef>
-5.4800

> <Gold.Chemscore.Hbond>
2.4374

> <Gold.Chemscore.Metal>
0.0000

> <Gold.Chemscore.Lipo>
40.5968

> <Gold.Chemscore.Internal_Hbond>
0.0000

> <Gold.Chemscore.DEClash>
0.1412

> <Gold.Chemscore.DEInternal>
1.2070

> <Gold.Chemscore.Rot>
3.7095

> <Gold.Chemscore.Internal.Correction>
   9.000000E+99

> <Gold.Chemscore.Hbonds>
donor molecule, donor type, donor heavy atom, donor atom, acceptor molecule, acceptor atom, score
      L1  H    10    28       P1  8028  0.27
      L1  H    12    29       P1  7957  0.58
      P1  H  7989  7998       L1    14  0.44
      P1  H  8011  8017       L1    12  0.74

> <Gold.Chemscore.Hbond.Weighted>
-8.1409

> <Gold.Chemscore.Metal.Weighted>
-0.0000

> <Gold.Chemscore.Lipo.Weighted>
-4.7498

> <Gold.Chemscore.Internal_Hbond.Weighted>
0.0000

> <Gold.Chemscore.DEClash.Weighted>
0.1412

> <Gold.Chemscore.DEInternal.Weighted>
1.2070

> <Gold.Chemscore.Rot.Weighted>
9.4964

> <Gold.Chemscore.Internal.Correction.Weighted>
   9.000000E+99

> <Gold.Protein.RotatedTorsions>
[ 6907 6896 6895 6894 ] final  122.44 input  -60.11 | X-H torsion
[ 7974 7965 7964 7962 ] final  168.13 input  175.53 | X-H torsion
[ 8008 7997 7996 7995 ] final -116.71 input   59.86 | X-H torsion
[ 10167 10162 10161 10158 ] final -143.74 input  -65.29 | X-H torsion
[ 10718 10713 10712 10709 ] final   15.70 input   66.30 | X-H torsion
[ 10763 10752 10751 10750 ] final  125.48 input  -60.55 | X-H torsion
[ 11005 11000 10999 10996 ] final -138.77 input  -57.11 | X-H torsion

> <Gold.Protein.ActiveResidues>
 VAL166  LYS551  ARG553  GLY616  TRP617  ASP618  TYR619  PRO620  LYS621  CYS622 
 ASP623  PHE694  ASN695  SER759  ASP760  ASP761  ALA762  ILE779  LEU786  VAL792 
 PHE793  MET794  SER795  GLU796  ALA797  LYS798  CYS799  TRP800  GLU811  SER814 

> <Gold.Protein.RotatedAtoms>
  152.4243  133.7168  159.6510 H   0  0  0  0  0  0  0  0  0  0  0  0  # atno 6907 bound_to 6896
  150.8119  133.8396  159.3184 H   0  0  0  0  0  0  0  0  0  0  0  0  # atno 6908 bound_to 6896
  151.6104  135.1043  160.0131 H   0  0  0  0  0  0  0  0  0  0  0  0  # atno 6909 bound_to 6896
  144.7399  139.8862  143.6400 H   0  0  0  0  0  0  0  0  0  0  0  0  # atno 7974 bound_to 7965
  155.0721  140.0393  157.2612 H   0  0  0  0  0  0  0  0  0  0  0  0  # atno 8008 bound_to 7997
  154.6974  140.2666  155.6728 H   0  0  0  0  0  0  0  0  0  0  0  0  # atno 8009 bound_to 7997
  156.2749  140.2747  156.1573 H   0  0  0  0  0  0  0  0  0  0  0  0  # atno 8010 bound_to 7997
  139.7964  143.7894  152.2654 H   0  0  0  0  0  0  0  0  0  0  0  0  # atno 10167 bound_to 10162
  157.0572  130.6294  149.5779 H   0  0  0  0  0  0  0  0  0  0  0  0  # atno 10718 bound_to 10713
  153.6780  135.3319  155.3171 H   0  0  0  0  0  0  0  0  0  0  0  0  # atno 10763 bound_to 10752
  154.8473  135.4402  154.1636 H   0  0  0  0  0  0  0  0  0  0  0  0  # atno 10764 bound_to 10752
  153.2644  135.6994  153.7621 H   0  0  0  0  0  0  0  0  0  0  0  0  # atno 10765 bound_to 10752
  140.8584  134.2199  157.4721 H   0  0  0  0  0  0  0  0  0  0  0  0  # atno 11005 bound_to 11000
  146.1175  139.4188  143.0249 LP  0  0  0  0  0  0  0  0  0  0  0  0  # atno 17320 bound_to 7965
  145.7353  141.0028  143.1330 LP  0  0  0  0  0  0  0  0  0  0  0  0  # atno 17321 bound_to 7965
  139.8001  144.7377  150.9837 LP  0  0  0  0  0  0  0  0  0  0  0  0  # atno 17342 bound_to 10162
  140.7820  143.4354  151.0631 LP  0  0  0  0  0  0  0  0  0  0  0  0  # atno 17343 bound_to 10162
  155.9989  130.5064  150.7589 LP  0  0  0  0  0  0  0  0  0  0  0  0  # atno 17370 bound_to 10713
  157.4983  131.0916  151.0345 LP  0  0  0  0  0  0  0  0  0  0  0  0  # atno 17371 bound_to 10713
  139.8706  134.9718  156.4749 LP  0  0  0  0  0  0  0  0  0  0  0  0  # atno 17394 bound_to 11000
  140.8710  133.7988  155.9365 LP  0  0  0  0  0  0  0  0  0  0  0  0  # atno 17395 bound_to 11000

$$$$
