#       Name:                AV-unprocessed.smi:72
#       Creating user name   scv26
#       Creation time:       Thu Mar 26 17:00:52 2020


#       File generated by GOLD software.
#

@<TRIPOS>MOLECULE
AV-unprocessed.smi:72
    41    42     1
SMALL
NO_CHARGES


@<TRIPOS>ATOM
      1 ****        -3.9750   2.7838  -1.7532 N.2            1 S1                 0.0000
      2 ****        -2.9482   2.2134  -1.2329 C.2            1 S1                 0.0000
      3 ****        -1.8400   1.7307  -1.9448 N.2            1 S1                 0.0000
      4 ****        -0.8702   1.1753  -1.2851 C.2            1 S1                 0.0000
      5 ****        -0.8967   1.0388   0.1652 N.am           1 S1                 0.0000
      6 ****         0.2362   0.3927   0.9432 C.3            1 S1                 0.0000
      7 ****         1.4103   0.4095   0.1811 O.3            1 S1                 0.0000
      8 ****         1.7298  -0.9075  -0.2608 C.3            1 S1                 0.0000
      9 ****         3.2355  -1.0088  -0.5470 C.3            1 S1                 0.0000
     10 ****         3.5164  -0.5100  -1.8373 O.3            1 S1                 0.0000
     11 ****         1.2709  -1.7504   0.9280 C.3            1 S1                 0.0000
     12 ****         1.1345  -3.1247   0.6171 O.3            1 S1                 0.0000
     13 ****        -0.0418  -1.0814   1.3246 C.3            1 S1                 0.0000
     14 ****        -1.1560  -1.6461   0.6490 O.3            1 S1                 0.0000
     15 ****        -2.0118   1.5168   0.8957 C.2            1 S1                 0.0000
     16 ****        -2.0900   1.4116   2.1197 O.2            1 S1                 0.0000
     17 ****        -2.9908   2.0875   0.1614 N.am           1 S1                 0.0000
     18 ****         0.4002   1.0369   1.8088 H              1 S1                 0.0000
     19 ****         1.1404  -1.1648  -1.1430 H              1 S1                 0.0000
     20 ****         1.9853  -1.6436   1.7459 H              1 S1                 0.0000
     21 ****        -0.2174  -1.1541   2.3985 H              1 S1                 0.0000
     22 ****        -4.6326   3.0374  -1.0297 H              1 S1                 0.0000
     23 ****         0.0174   0.7797  -1.7784 H              1 S1                 0.0000
     24 ****         3.8194  -0.4749   0.2033 H              1 S1                 0.0000
     25 ****         3.5532  -2.0515  -0.5234 H              1 S1                 0.0000
     26 ****         4.4439  -0.5954  -1.9968 H              1 S1                 0.0000
     27 ****         0.7485  -3.5630   1.3601 H              1 S1                 0.0000
     28 ****        -1.9326  -1.1732   0.9062 H              1 S1                 0.0000
     29 ****        -3.8008   2.4382   0.6513 H              1 S1                 0.0000
     30 ****        -4.1042   2.9518  -2.7305 LP             1 S1                 0.0000
     31 ****        -1.7982   1.8129  -2.9405 LP             1 S1                 0.0000
     32 ****         2.1614   0.7618   0.7394 LP             1 S1                 0.0000
     33 ****         1.2795   1.0019  -0.6138 LP             1 S1                 0.0000
     34 ****         3.2521   0.4529  -1.8915 LP             1 S1                 0.0000
     35 ****         3.0071  -1.0344  -2.5198 LP             1 S1                 0.0000
     36 ****         2.0334  -3.5176   0.4231 LP             1 S1                 0.0000
     37 ****         0.5439  -3.2328  -0.1826 LP             1 S1                 0.0000
     38 ****        -1.2494  -2.6099   0.8989 LP             1 S1                 0.0000
     39 ****        -1.0259  -1.5693  -0.3395 LP             1 S1                 0.0000
     40 ****        -1.3500   0.9763   2.6324 LP             1 S1                 0.0000
     41 ****        -2.8936   1.7613   2.6013 LP             1 S1                 0.0000
@<TRIPOS>BOND
    1    1    2 2     
    2    1   22 1     
    3    2   17 1     
    4    2    3 1     
    5    3    4 2     
    6    4    5 1     
    7    4   23 1     
    8    5    6 1     
    9    5   15 am    
   10    6   18 1     
   11    6   13 1     
   12    6    7 1     
   13    7    8 1     
   14    8   19 1     
   15    8    9 1     
   16    8   11 1     
   17    9   10 1     
   18    9   24 1     
   19    9   25 1     
   20   10   26 1     
   21   11   20 1     
   22   11   12 1     
   23   11   13 1     
   24   12   27 1     
   25   13   21 1     
   26   13   14 1     
   27   14   28 1     
   28   15   16 2     
   29   15   17 am    
   30   17   29 1     
   31    1   30 1     
   32    3   31 1     
   33    7   32 1     
   34    7   33 1     
   35   10   34 1     
   36   10   35 1     
   37   12   36 1     
   38   12   37 1     
   39   14   38 1     
   40   14   39 1     
   41   16   40 1     
   42   16   41 1     
@<TRIPOS>SUBSTRUCTURE
      1 S1             1
@<TRIPOS>SET
LONE_PAIRS      STATIC     ATOMS    <user>   **** ""
12 30 31 32 33 34 35 36 37 38 39 40 41
DONOR_HYDROGENS      STATIC     ATOMS    <user>   **** ""
5 22 26 27 28 29
ATOM$BLUE        STATIC     ATOMS    COLORGROUP SYSTEM
12 30 31 32 33 34 35 36 37 38 39 40 41
ATOM$RED        STATIC     ATOMS    COLORGROUP SYSTEM
5 22 26 27 28 29
