AV-unprocessed.smi:678|AV-procd|sdf|3313|dock9
  -GOLD-   22720 0273D 1   1.00000     0.00000
 Structure written by MMmdl.
 51 52  0  0  0  0  0  0  0  0  2 V2000
  153.9638  142.0964  160.6844 C   0  0  0  0  0  0  0  0  0  0  0  0
  152.9985  142.5472  159.6021 C   0  0  0  0  0  0  0  0  0  0  0  0
  152.9546  143.8318  159.1866 C   0  0  0  0  0  0  0  0  0  0  0  0
  152.0328  144.2519  158.1592 C   0  0  0  0  0  0  0  0  0  0  0  0
  151.2193  143.3314  157.6225 C   0  0  0  0  0  0  0  0  0  0  0  0
  151.2471  141.9862  158.0349 N   0  0  0  0  0  0  0  0  0  0  0  0
  150.3055  141.0637  157.3776 C   0  0  0  0  0  0  0  0  0  0  0  0
  150.8012  140.5888  156.0052 C   0  0  0  0  0  0  0  0  0  0  0  0
  150.7171  141.3244  155.0210 O   0  0  0  0  0  0  0  0  0  0  0  0
  151.3200  139.3527  155.9584 N   0  0  0  0  0  0  0  0  0  0  0  0
  151.7783  138.6809  154.7473 C   0  0  0  0  0  0  0  0  0  0  0  0
  150.8288  137.5367  154.3472 C   0  0  2  0  0  0  0  0  0  0  0  0
  149.3632  137.8520  154.7042 C   0  0  0  0  0  0  0  0  0  0  0  0
  148.4829  136.7093  154.3532 N   0  3  2  0  0  0  0  0  0  0  0  0
  147.0433  136.9587  154.6228 C   0  0  0  0  0  0  0  0  0  0  0  0
  146.5541  138.3280  154.1026 C   0  0  0  0  0  0  0  0  0  0  0  0
  145.1922  138.6831  154.7176 C   0  0  0  0  0  0  0  0  0  0  0  0
  146.4748  138.3647  152.5672 C   0  0  0  0  0  0  0  0  0  0  0  0
  148.9700  135.4658  154.9958 C   0  0  0  0  0  0  0  0  0  0  0  0
  150.4471  135.2225  154.6473 C   0  0  0  0  0  0  0  0  0  0  0  0
  151.2138  136.3526  155.0389 O   0  0  0  0  0  0  0  0  0  0  0  0
  152.1004  141.5391  159.0088 C   0  0  0  0  0  0  0  0  0  0  0  0
  152.1083  140.3583  159.3645 O   0  0  0  0  0  0  0  0  0  0  0  0
  154.5708  142.9264  161.0473 H   0  0  0  0  0  0  0  0  0  0  0  0
  154.6373  141.3298  160.2997 H   0  0  0  0  0  0  0  0  0  0  0  0
  153.4190  141.6816  161.5330 H   0  0  0  0  0  0  0  0  0  0  0  0
  153.6162  144.5631  159.6273 H   0  0  0  0  0  0  0  0  0  0  0  0
  151.9965  145.2812  157.8342 H   0  0  0  0  0  0  0  0  0  0  0  0
  150.4967  143.5655  156.8544 H   0  0  0  0  0  0  0  0  0  0  0  0
  150.1252  140.1827  157.9948 H   0  0  0  0  0  0  0  0  0  0  0  0
  149.3313  141.5457  157.2745 H   0  0  0  0  0  0  0  0  0  0  0  0
  151.3637  138.8247  156.8182 H   0  0  0  0  0  0  0  0  0  0  0  0
  151.8978  139.3911  153.9272 H   0  0  0  0  0  0  0  0  0  0  0  0
  152.7708  138.2793  154.9537 H   0  0  0  0  0  0  0  0  0  0  0  0
  150.9116  137.3720  153.2710 H   0  0  0  0  0  0  0  0  0  0  0  0
  149.2746  138.0675  155.7703 H   0  0  0  0  0  0  0  0  0  0  0  0
  149.0502  138.7486  154.1707 H   0  0  0  0  0  0  0  0  0  0  0  0
  146.4467  136.1797  154.1454 H   0  0  0  0  0  0  0  0  0  0  0  0
  146.8595  136.8661  155.6943 H   0  0  0  0  0  0  0  0  0  0  0  0
  147.2507  139.1024  154.4217 H   0  0  0  0  0  0  0  0  0  0  0  0
  144.4243  137.9660  154.4256 H   0  0  0  0  0  0  0  0  0  0  0  0
  144.8621  139.6720  154.3974 H   0  0  0  0  0  0  0  0  0  0  0  0
  145.2419  138.6929  155.8069 H   0  0  0  0  0  0  0  0  0  0  0  0
  145.7920  137.6043  152.1866 H   0  0  0  0  0  0  0  0  0  0  0  0
  147.4508  138.1943  152.1121 H   0  0  0  0  0  0  0  0  0  0  0  0
  146.1195  139.3340  152.2162 H   0  0  0  0  0  0  0  0  0  0  0  0
  148.8496  135.5415  156.0778 H   0  0  0  0  0  0  0  0  0  0  0  0
  148.3716  134.6165  154.6640 H   0  0  0  0  0  0  0  0  0  0  0  0
  150.8187  134.3438  155.1745 H   0  0  0  0  0  0  0  0  0  0  0  0
  150.5735  135.0315  153.5802 H   0  0  0  0  0  0  0  0  0  0  0  0
  148.5684  136.5633  153.3572 H   0  0  0  0  0  0  0  0  0  0  0  0
  1  2  1  0  0  0  0
  1 24  1  0  0  0  0
  1 25  1  0  0  0  0
  1 26  1  0  0  0  0
  2 22  1  0  0  0  0
  2  3  2  0  0  0  0
  3  4  1  0  0  0  0
  3 27  1  0  0  0  0
  4  5  2  0  0  0  0
  4 28  1  0  0  0  0
  5  6  1  0  0  0  0
  5 29  1  0  0  0  0
  6  7  1  0  0  0  0
  6 22  1  0  0  0  0
  7  8  1  0  0  0  0
  7 30  1  0  0  0  0
  7 31  1  0  0  0  0
  8  9  2  0  0  0  0
  8 10  1  0  0  0  0
 10 11  1  0  0  0  0
 10 32  1  0  0  0  0
 11 12  1  0  0  0  0
 11 33  1  0  0  0  0
 11 34  1  0  0  0  0
 12 21  1  0  0  0  0
 12 13  1  0  0  0  0
 12 35  1  0  0  0  0
 13 14  1  0  0  0  0
 13 36  1  0  0  0  0
 13 37  1  0  0  0  0
 14 15  1  0  0  0  0
 14 19  1  0  0  0  0
 14 51  1  0  0  0  0
 15 16  1  0  0  0  0
 15 38  1  0  0  0  0
 15 39  1  0  0  0  0
 16 17  1  0  0  0  0
 16 18  1  0  0  0  0
 16 40  1  0  0  0  0
 17 41  1  0  0  0  0
 17 42  1  0  0  0  0
 17 43  1  0  0  0  0
 18 44  1  0  0  0  0
 18 45  1  0  0  0  0
 18 46  1  0  0  0  0
 19 20  1  0  0  0  0
 19 47  1  0  0  0  0
 19 48  1  0  0  0  0
 20 21  1  0  0  0  0
 20 49  1  0  0  0  0
 20 50  1  0  0  0  0
 22 23  2  0  0  0  0
M  CHG  1  14   1
M  END
> <s_m_source_file>
AV-unprocessed.smi

> <i_m_source_file_index>
678

> <i_lp_mmshare_version>
43012

> <i_f3d_flags>
0

> <s_epik_input>
W0NIM11jMVtjSF1bY0hdW2NIXW4oYzE9TylbQ0gyXUMoPU8pW05IXVtDSDJdW0NAQEhdMltDSDJdTihbQ0gyXVtDSDJdTzIpW0NIMl1bQ0hdKFtDSDNdKVtDSDNd

> <s_epik_cmdline>
J2VwaWtfcHl0aG9uJywgJy1waCcsICc3LjAnLCAnLXRuJywgJzgnLCAnLW1hJywgJzIwMCcsICctbWV0YWxfYmluZGluZycsICctaW1hZScsICc8aW5maWxlLm1hZT4nLCAnLW9tYWUnLCAnPG91dGZpbGUubWFlPic=

> <r_lp_tautomer_probability>
1

> <r_epik_Ionization_Penalty>
0.0975937

> <r_epik_Ionization_Penalty_Charging>
0.0975937

> <r_epik_Ionization_Penalty_Neutral>
6.27044e-08

> <r_epik_State_Penalty>
0.0877056

> <r_epik_Charging_Adjusted_Penalty>
0.185299

> <i_epik_Tot_Q>
1

> <i_epik_Tot_abs_Q>
1

> <r_epik_Metal_State_Penalty>
0.0877109

> <b_epik_Metal_Only>
0

> <s_lp_Force_Field>
OPLS_2005

> <r_lp_Energy>
27.0363

> <b_lp_Chiralities_Consistent>
1

> <s_lp_Variant>
AV-unprocessed.smi:678-1

> <Gold.Version>
5.8.1

> <Gold.Id.Protein>
6NUR|6NUR_protein|mol2

> <Gold.PLP.Fitness>
53.4198

> <Gold.PLP.PLP>
-41.6846

> <Gold.PLP.part.hbond>
-3.0000

> <Gold.PLP.part.metal>
0.0000

> <Gold.PLP.part.buried>
-1.9209

> <Gold.PLP.part.nonpolar>
-37.1676

> <Gold.PLP.part.repulsive>
0.3383

> <Gold.PLP.ligand.clash>
0.0000

> <Gold.PLP.ligand.torsion>
1.0272

> <Gold.PLP.Chemscore.Hbond>
3.5600

> <Gold.PLP.Chemscore.CHOScore>
1.0000

> <Gold.PLP.Chemscore.Metal>
0.0000

> <Gold.Chemscore.Hbonds>
donor molecule, donor type, donor heavy atom, donor atom, acceptor molecule, acceptor atom, score
      L1  H    14    51       P1  7948  2.00
      P1  H  7989  7998       L1     9  0.51
      P1  H 10752 10765       L1    21  0.90
      L1  C     5    29       P1  8028  1.00

> <Gold.PLP.Chemscore.Internal.Correction>
0.1097

> <Gold.Rescore>
     Score         DG    S(hbond)    S(metal)    S(lipo)     H(rot)  DE(clash)    DE(int)     intcor
     19.13     -20.20       2.12        0.00     106.62       1.89       0.32       0.74       ----

> <Gold.Chemscore.Fitness>
19.1315

> <Gold.Chemscore.DG>
-20.1961

> <Gold.Chemscore.ZeroCoef>
-5.4800

> <Gold.Chemscore.Hbond>
2.1176

> <Gold.Chemscore.Metal>
0.0000

> <Gold.Chemscore.Lipo>
106.6187

> <Gold.Chemscore.Internal_Hbond>
0.0000

> <Gold.Chemscore.DEClash>
0.3201

> <Gold.Chemscore.DEInternal>
0.7446

> <Gold.Chemscore.Rot>
1.8871

> <Gold.Chemscore.Internal.Correction>
   9.000000E+99

> <Gold.Chemscore.Hbonds>
donor molecule, donor type, donor heavy atom, donor atom, acceptor molecule, acceptor atom, score
      L1  H    14    51       P1  7948  0.97
      P1  H  7989  7998       L1     9  0.51
      P1  H 10752 10765       L1    21  0.16

> <Gold.Chemscore.Hbond.Weighted>
-7.0726

> <Gold.Chemscore.Metal.Weighted>
-0.0000

> <Gold.Chemscore.Lipo.Weighted>
-12.4744

> <Gold.Chemscore.Internal_Hbond.Weighted>
0.0000

> <Gold.Chemscore.DEClash.Weighted>
0.3201

> <Gold.Chemscore.DEInternal.Weighted>
0.7446

> <Gold.Chemscore.Rot.Weighted>
4.8309

> <Gold.Chemscore.Internal.Correction.Weighted>
   9.000000E+99

> <Gold.Protein.RotatedTorsions>
[ 6907 6896 6895 6894 ] final  -58.92 input  -60.11 | X-H torsion
[ 7974 7965 7964 7962 ] final -101.91 input  175.53 | X-H torsion
[ 8008 7997 7996 7995 ] final  -63.99 input   59.86 | X-H torsion
[ 10167 10162 10161 10158 ] final -160.94 input  -65.29 | X-H torsion
[ 10718 10713 10712 10709 ] final   91.05 input   66.30 | X-H torsion
[ 10763 10752 10751 10750 ] final -159.69 input  -60.55 | X-H torsion
[ 11005 11000 10999 10996 ] final   52.15 input  -57.11 | X-H torsion

> <Gold.Protein.ActiveResidues>
 VAL166  LYS551  ARG553  GLY616  TRP617  ASP618  TYR619  PRO620  LYS621  CYS622 
 ASP623  PHE694  ASN695  SER759  ASP760  ASP761  ALA762  ILE779  LEU786  VAL792 
 PHE793  MET794  SER795  GLU796  ALA797  LYS798  CYS799  TRP800  GLU811  SER814 

> <Gold.Protein.RotatedAtoms>
  150.7970  134.7036  159.6563 H   0  0  0  0  0  0  0  0  0  0  0  0  # atno 6907 bound_to 6896
  152.4083  134.6166  160.0049 H   0  0  0  0  0  0  0  0  0  0  0  0  # atno 6908 bound_to 6896
  151.6416  133.3289  159.3167 H   0  0  0  0  0  0  0  0  0  0  0  0  # atno 6909 bound_to 6896
  145.2755  140.9311  143.2962 H   0  0  0  0  0  0  0  0  0  0  0  0  # atno 7974 bound_to 7965
  154.4586  140.0963  156.6828 H   0  0  0  0  0  0  0  0  0  0  0  0  # atno 8008 bound_to 7997
  155.5063  140.3475  155.4362 H   0  0  0  0  0  0  0  0  0  0  0  0  # atno 8009 bound_to 7997
  156.0826  140.1377  156.9682 H   0  0  0  0  0  0  0  0  0  0  0  0  # atno 8010 bound_to 7997
  139.6502  144.0098  152.2156 H   0  0  0  0  0  0  0  0  0  0  0  0  # atno 10167 bound_to 10162
  157.6960  131.0393  150.3671 H   0  0  0  0  0  0  0  0  0  0  0  0  # atno 10718 bound_to 10713
  154.7454  135.3079  154.8655 H   0  0  0  0  0  0  0  0  0  0  0  0  # atno 10763 bound_to 10752
  153.9457  135.6769  153.4748 H   0  0  0  0  0  0  0  0  0  0  0  0  # atno 10764 bound_to 10752
  153.1050  135.4893  154.8862 H   0  0  0  0  0  0  0  0  0  0  0  0  # atno 10765 bound_to 10752
  140.0873  134.5256  155.8886 H   0  0  0  0  0  0  0  0  0  0  0  0  # atno 11005 bound_to 11000
  144.9298  139.4312  143.6500 LP  0  0  0  0  0  0  0  0  0  0  0  0  # atno 17320 bound_to 7965
  146.3233  139.8203  142.8928 LP  0  0  0  0  0  0  0  0  0  0  0  0  # atno 17321 bound_to 7965
  139.9810  144.6428  150.7900 LP  0  0  0  0  0  0  0  0  0  0  0  0  # atno 17342 bound_to 10162
  140.7534  143.3007  151.3087 LP  0  0  0  0  0  0  0  0  0  0  0  0  # atno 17343 bound_to 10162
  156.4100  130.3932  149.6898 LP  0  0  0  0  0  0  0  0  0  0  0  0  # atno 17370 bound_to 10713
  156.4186  130.7757  151.2773 LP  0  0  0  0  0  0  0  0  0  0  0  0  # atno 17371 bound_to 10713
  141.2067  133.6657  156.6257 LP  0  0  0  0  0  0  0  0  0  0  0  0  # atno 17394 bound_to 11000
  140.3402  134.7856  157.4392 LP  0  0  0  0  0  0  0  0  0  0  0  0  # atno 17395 bound_to 11000

$$$$
