AV-unprocessed.smi:113|AV-procd|sdf|1106|dock9
  -GOLD-   2262018223D 1   1.00000     0.00000
 Structure written by MMmdl.
 53 56  0  0  0  0  0  0  0  0  2 V2000
  153.4742  138.9591  159.8270 C   0  0  0  0  0  0  0  0  0  0  0  0
  152.8942  140.2973  159.4207 C   0  0  0  0  0  0  0  0  0  0  0  0
  152.2600  140.4942  158.1788 C   0  0  0  0  0  0  0  0  0  0  0  0
  151.7325  141.7672  157.8479 C   0  0  0  0  0  0  0  0  0  0  0  0
  151.0417  142.0128  156.5022 C   0  0  0  0  0  0  0  0  0  0  0  0
  149.6796  141.5180  156.3605 N   0  0  0  0  0  0  0  0  0  0  0  0
  149.3848  140.6983  155.2442 C   0  0  0  0  0  0  0  0  0  0  0  0
  150.2454  140.4154  154.4079 O   0  0  0  0  0  0  0  0  0  0  0  0
  147.9949  140.2444  155.1558 C   0  0  0  0  0  0  0  0  0  0  0  0
  147.6062  139.3509  153.9885 C   0  0  0  0  0  0  0  0  0  0  0  0
  147.0998  140.6278  156.0977 C   0  0  0  0  0  0  0  0  0  0  0  0
  147.4118  141.4471  157.1719 N   0  0  0  0  0  0  0  0  0  0  0  0
  146.3722  141.8727  158.1915 C   0  0  1  0  0  0  0  0  0  0  0  0
  145.0946  142.3375  157.4919 C   0  0  0  0  0  0  0  0  0  0  0  0
  144.3152  141.0430  157.3954 C   0  0  2  0  0  0  0  0  0  0  0  0
  142.9305  141.2825  157.2417 O   0  0  0  0  0  0  0  0  0  0  0  0
  144.7109  140.3101  158.6906 C   0  0  2  0  0  0  0  0  0  0  0  0
  143.8279  140.5983  159.9216 C   0  0  0  0  0  0  0  0  0  0  0  0
  144.4052  140.0544  161.0901 O   0  0  0  0  0  0  0  0  0  0  0  0
  146.0240  140.7862  159.0000 O   0  0  0  0  0  0  0  0  0  0  0  0
  148.7293  141.9258  157.3225 C   0  0  0  0  0  0  0  0  0  0  0  0
  149.0259  142.6862  158.2474 O   0  0  0  0  0  0  0  0  0  0  0  0
  151.8589  142.8170  158.7987 C   0  0  0  0  0  0  0  0  0  0  0  0
  151.3580  144.1185  158.5559 C   0  0  0  0  0  0  0  0  0  0  0  0
  151.4998  145.1319  159.5241 C   0  0  0  0  0  0  0  0  0  0  0  0
  152.1439  144.8614  160.7458 C   0  0  0  0  0  0  0  0  0  0  0  0
  152.6494  143.5737  161.0030 C   0  0  0  0  0  0  0  0  0  0  0  0
  152.5074  142.5581  160.0366 C   0  0  0  0  0  0  0  0  0  0  0  0
  152.9920  141.3238  160.2899 N   0  3  0  0  0  0  0  0  0  0  0  0
  153.5765  138.2995  158.9647 H   0  0  0  0  0  0  0  0  0  0  0  0
  152.8252  138.4718  160.5550 H   0  0  0  0  0  0  0  0  0  0  0  0
  154.4606  139.0867  160.2740 H   0  0  0  0  0  0  0  0  0  0  0  0
  152.1859  139.6628  157.4938 H   0  0  0  0  0  0  0  0  0  0  0  0
  151.0271  143.0803  156.2763 H   0  0  0  0  0  0  0  0  0  0  0  0
  151.6286  141.5755  155.6929 H   0  0  0  0  0  0  0  0  0  0  0  0
  146.5555  139.0625  154.0291 H   0  0  0  0  0  0  0  0  0  0  0  0
  148.2018  138.4373  153.9922 H   0  0  0  0  0  0  0  0  0  0  0  0
  147.7736  139.8660  153.0420 H   0  0  0  0  0  0  0  0  0  0  0  0
  146.0867  140.2729  155.9874 H   0  0  0  0  0  0  0  0  0  0  0  0
  146.8496  142.6410  158.8020 H   0  0  0  0  0  0  0  0  0  0  0  0
  144.5887  143.0530  158.1419 H   0  0  0  0  0  0  0  0  0  0  0  0
  145.2918  142.8126  156.5301 H   0  0  0  0  0  0  0  0  0  0  0  0
  144.6684  140.4728  156.5354 H   0  0  0  0  0  0  0  0  0  0  0  0
  142.4558  140.5893  157.6751 H   0  0  0  0  0  0  0  0  0  0  0  0
  144.7613  139.2332  158.5240 H   0  0  0  0  0  0  0  0  0  0  0  0
  143.7440  141.6747  160.0733 H   0  0  0  0  0  0  0  0  0  0  0  0
  142.8156  140.2159  159.7880 H   0  0  0  0  0  0  0  0  0  0  0  0
  143.8551  140.2738  161.8266 H   0  0  0  0  0  0  0  0  0  0  0  0
  150.8575  144.3636  157.6314 H   0  0  0  0  0  0  0  0  0  0  0  0
  151.1117  146.1210  159.3280 H   0  0  0  0  0  0  0  0  0  0  0  0
  152.2490  145.6419  161.4852 H   0  0  0  0  0  0  0  0  0  0  0  0
  153.1430  143.3721  161.9428 H   0  0  0  0  0  0  0  0  0  0  0  0
  153.4542  141.1589  161.1839 H   0  0  0  0  0  0  0  0  0  0  0  0
  1  2  1  0  0  0  0
  1 30  1  0  0  0  0
  1 31  1  0  0  0  0
  1 32  1  0  0  0  0
  2 29  1  0  0  0  0
  2  3  2  0  0  0  0
  3  4  1  0  0  0  0
  3 33  1  0  0  0  0
  4  5  1  0  0  0  0
  4 23  2  0  0  0  0
  5  6  1  0  0  0  0
  5 34  1  0  0  0  0
  5 35  1  0  0  0  0
  6 21  1  0  0  0  0
  6  7  1  0  0  0  0
  7  8  2  0  0  0  0
  7  9  1  0  0  0  0
  9 10  1  0  0  0  0
  9 11  2  0  0  0  0
 10 36  1  0  0  0  0
 10 37  1  0  0  0  0
 10 38  1  0  0  0  0
 11 12  1  0  0  0  0
 11 39  1  0  0  0  0
 12 13  1  0  0  0  0
 12 21  1  0  0  0  0
 13 20  1  0  0  0  0
 13 14  1  0  0  0  0
 13 40  1  0  0  0  0
 14 15  1  0  0  0  0
 14 41  1  0  0  0  0
 14 42  1  0  0  0  0
 15 16  1  0  0  0  0
 15 17  1  0  0  0  0
 15 43  1  0  0  0  0
 16 44  1  0  0  0  0
 17 18  1  0  0  0  0
 17 20  1  0  0  0  0
 17 45  1  0  0  0  0
 18 19  1  0  0  0  0
 18 46  1  0  0  0  0
 18 47  1  0  0  0  0
 19 48  1  0  0  0  0
 21 22  2  0  0  0  0
 23 28  1  0  0  0  0
 23 24  1  0  0  0  0
 24 25  2  0  0  0  0
 24 49  1  0  0  0  0
 25 26  1  0  0  0  0
 25 50  1  0  0  0  0
 26 27  2  0  0  0  0
 26 51  1  0  0  0  0
 27 28  1  0  0  0  0
 27 52  1  0  0  0  0
 28 29  2  0  0  0  0
 29 53  1  0  0  0  0
M  CHG  1  29   1
M  END
> <s_m_source_file>
AV-unprocessed.smi

> <i_m_source_file_index>
113

> <i_lp_mmshare_version>
43012

> <i_f3d_flags>
0

> <s_epik_input>
W2NIXTFbY0hdW2NIXVtjSF1jKGMxMiluYyhbQ0gzXSlbY0hdYzJbQ0gyXW4zYyg9TyljKFtDSDNdKVtjSF1uKGMzPU8pW0NAQEhdNFtDSDJdW0NAQEhdKFtPSF0pW0NASF0oTzQpW0NIMl1bT0hd

> <s_epik_cmdline>
J2VwaWtfcHl0aG9uJywgJy1waCcsICc3LjAnLCAnLXRuJywgJzgnLCAnLW1hJywgJzIwMCcsICctbWV0YWxfYmluZGluZycsICctaW1hZScsICc8aW5maWxlLm1hZT4nLCAnLW9tYWUnLCAnPG91dGZpbGUubWFlPic=

> <r_lp_tautomer_probability>
1

> <r_epik_Ionization_Penalty>
0.705471

> <r_epik_Ionization_Penalty_Charging>
0.70547

> <r_epik_Ionization_Penalty_Neutral>
1.19947e-07

> <r_epik_State_Penalty>
0.728574

> <r_epik_Charging_Adjusted_Penalty>
1.43404

> <i_epik_Tot_Q>
1

> <i_epik_Tot_abs_Q>
1

> <r_epik_Metal_State_Penalty>
4.61665

> <b_epik_Metal_Only>
0

> <s_epik_Chemistry_Notes>
This compound contains an acetal/aminal-like group ( X-CH(R)-Y where X, Y are N, S, or O) that may be acid/base labile, releasing an aldehyde.

> <s_lp_Force_Field>
OPLS_2005

> <r_lp_Energy>
45.4749

> <b_lp_Chiralities_Consistent>
1

> <s_lp_Variant>
AV-unprocessed.smi:113-16

> <Gold.Version>
5.8.1

> <Gold.Id.Protein>
6NUR|6NUR_protein|mol2

> <Gold.PLP.Fitness>
48.9581

> <Gold.PLP.PLP>
-45.5872

> <Gold.PLP.part.hbond>
-3.5714

> <Gold.PLP.part.metal>
0.0000

> <Gold.PLP.part.buried>
-8.7071

> <Gold.PLP.part.nonpolar>
-33.8567

> <Gold.PLP.part.repulsive>
0.3936

> <Gold.PLP.ligand.clash>
0.0000

> <Gold.PLP.ligand.torsion>
0.5784

> <Gold.PLP.Chemscore.Hbond>
1.5040

> <Gold.PLP.Chemscore.CHOScore>
0.0000

> <Gold.PLP.Chemscore.Metal>
0.0000

> <Gold.Chemscore.Hbonds>
donor molecule, donor type, donor heavy atom, donor atom, acceptor molecule, acceptor atom, score
      P1  H  6934  6946       L1    20  0.45
      P1  H  7989  7998       L1     8  0.96

> <Gold.PLP.Chemscore.Internal.Correction>
0.0156

> <Gold.Rescore>
     Score         DG    S(hbond)    S(metal)    S(lipo)     H(rot)  DE(clash)    DE(int)     intcor
     13.48     -15.34       1.23        0.00     115.13       3.01       0.26       1.61       ----

> <Gold.Chemscore.Fitness>
13.4767

> <Gold.Chemscore.DG>
-15.3447

> <Gold.Chemscore.ZeroCoef>
-5.4800

> <Gold.Chemscore.Hbond>
1.2291

> <Gold.Chemscore.Metal>
0.0000

> <Gold.Chemscore.Lipo>
115.1321

> <Gold.Chemscore.Internal_Hbond>
0.0000

> <Gold.Chemscore.DEClash>
0.2577

> <Gold.Chemscore.DEInternal>
1.6104

> <Gold.Chemscore.Rot>
3.0120

> <Gold.Chemscore.Internal.Correction>
   9.000000E+99

> <Gold.Chemscore.Hbonds>
donor molecule, donor type, donor heavy atom, donor atom, acceptor molecule, acceptor atom, score
      P1  H  6934  6946       L1    20  0.39
      P1  H  7989  7998       L1     8  0.92

> <Gold.Chemscore.Hbond.Weighted>
-4.1051

> <Gold.Chemscore.Metal.Weighted>
-0.0000

> <Gold.Chemscore.Lipo.Weighted>
-13.4705

> <Gold.Chemscore.Internal_Hbond.Weighted>
0.0000

> <Gold.Chemscore.DEClash.Weighted>
0.2577

> <Gold.Chemscore.DEInternal.Weighted>
1.6104

> <Gold.Chemscore.Rot.Weighted>
7.7108

> <Gold.Chemscore.Internal.Correction.Weighted>
   9.000000E+99

> <Gold.Protein.RotatedTorsions>
[ 6907 6896 6895 6894 ] final  -54.81 input  -60.11 | X-H torsion
[ 7974 7965 7964 7962 ] final  -56.90 input  175.53 | X-H torsion
[ 8008 7997 7996 7995 ] final  -85.13 input   59.86 | X-H torsion
[ 10167 10162 10161 10158 ] final  112.13 input  -65.29 | X-H torsion
[ 10718 10713 10712 10709 ] final  137.32 input   66.30 | X-H torsion
[ 10763 10752 10751 10750 ] final  -45.93 input  -60.55 | X-H torsion
[ 11005 11000 10999 10996 ] final  161.79 input  -57.11 | X-H torsion

> <Gold.Protein.ActiveResidues>
 VAL166  LYS551  ARG553  GLY616  TRP617  ASP618  TYR619  PRO620  LYS621  CYS622 
 ASP623  PHE694  ASN695  SER759  ASP760  ASP761  ALA762  ILE779  LEU786  VAL792 
 PHE793  MET794  SER795  GLU796  ALA797  LYS798  CYS799  TRP800  GLU811  SER814 

> <Gold.Protein.RotatedAtoms>
  150.8305  134.7556  159.6849 H   0  0  0  0  0  0  0  0  0  0  0  0  # atno 6907 bound_to 6896
  152.4410  134.5587  159.9897 H   0  0  0  0  0  0  0  0  0  0  0  0  # atno 6908 bound_to 6896
  151.5749  133.3347  159.3033 H   0  0  0  0  0  0  0  0  0  0  0  0  # atno 6909 bound_to 6896
  145.8573  140.8310  142.9955 H   0  0  0  0  0  0  0  0  0  0  0  0  # atno 7974 bound_to 7965
  154.6373  140.0595  156.9804 H   0  0  0  0  0  0  0  0  0  0  0  0  # atno 8008 bound_to 7997
  155.1571  140.3279  155.4400 H   0  0  0  0  0  0  0  0  0  0  0  0  # atno 8009 bound_to 7997
  156.2513  140.1937  156.6680 H   0  0  0  0  0  0  0  0  0  0  0  0  # atno 8010 bound_to 7997
  139.6559  144.7129  151.1958 H   0  0  0  0  0  0  0  0  0  0  0  0  # atno 10167 bound_to 10162
  157.4374  131.1054  151.0182 H   0  0  0  0  0  0  0  0  0  0  0  0  # atno 10718 bound_to 10713
  154.0366  135.6649  153.4786 H   0  0  0  0  0  0  0  0  0  0  0  0  # atno 10763 bound_to 10752
  153.0518  135.5080  154.7882 H   0  0  0  0  0  0  0  0  0  0  0  0  # atno 10764 bound_to 10752
  154.6844  135.3050  154.9533 H   0  0  0  0  0  0  0  0  0  0  0  0  # atno 10765 bound_to 10752
  140.2193  134.8208  157.3204 H   0  0  0  0  0  0  0  0  0  0  0  0  # atno 11005 bound_to 11000
  144.6727  140.1042  143.7459 LP  0  0  0  0  0  0  0  0  0  0  0  0  # atno 17320 bound_to 7965
  145.9289  139.2593  143.1337 LP  0  0  0  0  0  0  0  0  0  0  0  0  # atno 17321 bound_to 7965
  140.7559  143.6073  150.8640 LP  0  0  0  0  0  0  0  0  0  0  0  0  # atno 17342 bound_to 10162
  139.9726  143.6040  152.2969 LP  0  0  0  0  0  0  0  0  0  0  0  0  # atno 17343 bound_to 10162
  157.1058  130.6001  149.5470 LP  0  0  0  0  0  0  0  0  0  0  0  0  # atno 17370 bound_to 10713
  155.9935  130.4997  150.7385 LP  0  0  0  0  0  0  0  0  0  0  0  0  # atno 17371 bound_to 10713
  140.1866  134.4423  155.7740 LP  0  0  0  0  0  0  0  0  0  0  0  0  # atno 17394 bound_to 11000
  141.2223  133.7008  156.7958 LP  0  0  0  0  0  0  0  0  0  0  0  0  # atno 17395 bound_to 11000

$$$$
