#       Name:                AV-unprocessed.smi:1721
#       Creating user name   scv26
#       Creation time:       Fri Mar 27 08:15:02 2020


#       File generated by GOLD software.
#

@<TRIPOS>MOLECULE
AV-unprocessed.smi:1721
    49    51     1
SMALL
NO_CHARGES


@<TRIPOS>ATOM
      1 ****        -2.0817   5.6929   0.2054 C.3            1 S1                 0.0000
      2 ****        -1.3269   4.4899   0.3035 O.3            1 S1                 0.0000
      3 ****         0.0446   4.5556   0.1441 C.ar           1 S1                 0.0000
      4 ****         0.6065   5.7663  -0.0983 N.ar           1 S1                 0.0000
      5 ****         1.9441   5.8349  -0.2525 C.ar           1 S1                 0.0000
      6 ****         2.7858   4.7112  -0.1730 C.ar           1 S1                 0.0000
      7 ****         2.2061   3.4539   0.0780 C.ar           1 S1                 0.0000
      8 ****         0.8009   3.3631   0.2406 C.ar           1 S1                 0.0000
      9 ****         0.0927   2.1541   0.4989 N.am           1 S1                 0.0000
     10 ****         0.5471   0.8934   0.6043 C.2            1 S1                 0.0000
     11 ****         1.7196   0.5387   0.4923 O.2            1 S1                 0.0000
     12 ****        -0.4575   0.0403   0.8491 N.am           1 S1                 0.0000
     13 ****        -0.3129  -1.4022   1.0251 C.3            1 S1                 0.0000
     14 ****        -1.3901  -2.0070   1.9175 C.3            1 S1                 0.0000
     15 ****        -1.3206  -3.4896   1.5478 C.3            1 S1                 0.0000
     16 ****        -0.9594  -3.5363   0.1120 N.4            1 S1                 1.0000
     17 ****        -0.0740  -4.6659  -0.2632 C.3            1 S1                 0.0000
     18 ****         0.2260  -4.6471  -1.7738 C.3            1 S1                 0.0000
     19 ****         0.6812  -3.2637  -2.2839 C.3            1 S1                 0.0000
     20 ****         0.8062  -2.2337  -1.1508 C.3            1 S1                 0.0000
     21 ****        -0.4768  -2.1840  -0.2896 C.3            1 S1                 0.0000
     22 ****        -3.1373   5.4693   0.3597 H              1 S1                 0.0000
     23 ****        -1.9808   6.1477  -0.7809 H              1 S1                 0.0000
     24 ****        -1.7829   6.4156   0.9661 H              1 S1                 0.0000
     25 ****         2.3557   6.8148  -0.4439 H              1 S1                 0.0000
     26 ****         3.8535   4.8113  -0.3011 H              1 S1                 0.0000
     27 ****         2.8580   2.5981   0.1402 H              1 S1                 0.0000
     28 ****        -0.9041   2.2695   0.6124 H              1 S1                 0.0000
     29 ****        -1.3906   0.4181   0.9266 H              1 S1                 0.0000
     30 ****         0.6564  -1.6325   1.4731 H              1 S1                 0.0000
     31 ****        -1.2149  -1.8272   2.9788 H              1 S1                 0.0000
     32 ****        -2.3713  -1.6041   1.6613 H              1 S1                 0.0000
     33 ****        -0.5431  -3.9708   2.1438 H              1 S1                 0.0000
     34 ****        -2.2578  -4.0123   1.7401 H              1 S1                 0.0000
     35 ****         0.8560  -4.6076   0.3047 H              1 S1                 0.0000
     36 ****        -0.5496  -5.6082   0.0110 H              1 S1                 0.0000
     37 ****         0.9861  -5.3954  -2.0005 H              1 S1                 0.0000
     38 ****        -0.6660  -4.9521  -2.3225 H              1 S1                 0.0000
     39 ****         1.6313  -3.3514  -2.8120 H              1 S1                 0.0000
     40 ****        -0.0390  -2.8991  -3.0175 H              1 S1                 0.0000
     41 ****         1.6664  -2.4861  -0.5291 H              1 S1                 0.0000
     42 ****         1.0166  -1.2491  -1.5691 H              1 S1                 0.0000
     43 ****        -1.2824  -1.7398  -0.8768 H              1 S1                 0.0000
     44 ****        -1.8211  -3.6749  -0.3965 H              1 S1                 0.0000
     45 ****        -1.6755   3.8652  -0.3952 LP             1 S1                 0.0000
     46 ****        -1.5004   4.1060   1.2104 LP             1 S1                 0.0000
     47 ****         0.0415   6.5890  -0.1612 LP             1 S1                 0.0000
     48 ****         2.4313   1.2161   0.3060 LP             1 S1                 0.0000
     49 ****         1.9611  -0.4270   0.5875 LP             1 S1                 0.0000
@<TRIPOS>BOND
    1    1    2 1     
    2    1   22 1     
    3    1   23 1     
    4    1   24 1     
    5    2    3 1     
    6    3    8 ar    
    7    3    4 ar    
    8    4    5 ar    
    9    5    6 ar    
   10    5   25 1     
   11    6    7 ar    
   12    6   26 1     
   13    7    8 ar    
   14    7   27 1     
   15    8    9 1     
   16    9   10 am    
   17    9   28 1     
   18   10   11 2     
   19   10   12 am    
   20   12   13 1     
   21   12   29 1     
   22   13   21 1     
   23   13   14 1     
   24   13   30 1     
   25   14   15 1     
   26   14   31 1     
   27   14   32 1     
   28   15   16 1     
   29   15   33 1     
   30   15   34 1     
   31   16   21 1     
   32   16   17 1     
   33   16   44 1     
   34   17   18 1     
   35   17   35 1     
   36   17   36 1     
   37   18   19 1     
   38   18   37 1     
   39   18   38 1     
   40   19   20 1     
   41   19   39 1     
   42   19   40 1     
   43   20   21 1     
   44   20   41 1     
   45   20   42 1     
   46   21   43 1     
   47    2   45 1     
   48    2   46 1     
   49    4   47 1     
   50   11   48 1     
   51   11   49 1     
@<TRIPOS>SUBSTRUCTURE
      1 S1             1
@<TRIPOS>SET
LONE_PAIRS      STATIC     ATOMS    <user>   **** ""
5 45 46 47 48 49
DONOR_HYDROGENS      STATIC     ATOMS    <user>   **** ""
3 28 29 44
ATOM$BLUE        STATIC     ATOMS    COLORGROUP SYSTEM
5 45 46 47 48 49
ATOM$RED        STATIC     ATOMS    COLORGROUP SYSTEM
3 28 29 44
