AV-unprocessed.smi:2126|AV-procd|sdf|8677|dock7
  -GOLD-   2272011433D 1   1.00000     0.00000
 Structure written by MMmdl.
 41 43  0  0  0  0  0  0  0  0  2 V2000
  144.7896  137.0836  154.0932 C   0  0  0  0  0  0  0  0  0  0  0  0
  145.1299  138.4398  154.3407 O   0  0  0  0  0  0  0  0  0  0  0  0
  146.4631  138.7885  154.3165 C   0  0  0  0  0  0  0  0  0  0  0  0
  146.9448  140.0760  153.9750 C   0  0  0  0  0  0  0  0  0  0  0  0
  148.3275  140.3425  153.9771 C   0  0  0  0  0  0  0  0  0  0  0  0
  149.2587  139.3416  154.3177 C   0  0  0  0  0  0  0  0  0  0  0  0
  150.5919  139.6908  154.2940 O   0  0  0  0  0  0  0  0  0  0  0  0
  151.5451  138.7421  154.7548 C   0  0  0  0  0  0  0  0  0  0  0  0
  152.4144  139.3947  155.8400 C   0  0  2  0  0  0  0  0  0  0  0  0
  153.4464  138.4935  156.1890 O   0  0  0  0  0  0  0  0  0  0  0  0
  151.6019  139.7803  157.0926 C   0  0  0  0  0  0  0  0  0  0  0  0
  151.3327  141.2230  157.1743 N   0  0  0  0  0  0  0  0  0  0  0  0
  150.6323  142.0229  156.3253 C   0  0  0  0  0  0  0  0  0  0  0  0
  150.6632  143.2872  156.8302 N   0  3  0  0  0  0  0  0  0  0  0  0
  151.3942  143.2964  158.0199 C   0  0  0  0  0  0  0  0  0  0  0  0
  151.7009  144.3366  158.8919 C   0  0  0  0  0  0  0  0  0  0  0  0
  152.4736  144.0064  160.0246 C   0  0  0  0  0  0  0  0  0  0  0  0
  152.9134  142.6866  160.2540 C   0  0  0  0  0  0  0  0  0  0  0  0
  152.5979  141.6401  159.3624 C   0  0  0  0  0  0  0  0  0  0  0  0
  151.8296  141.9733  158.2470 C   0  0  0  0  0  0  0  0  0  0  0  0
  148.7768  138.0539  154.6583 C   0  0  0  0  0  0  0  0  0  0  0  0
  147.3943  137.7872  154.6554 C   0  0  0  0  0  0  0  0  0  0  0  0
  143.7072  136.9695  154.1482 H   0  0  0  0  0  0  0  0  0  0  0  0
  145.2292  136.4194  154.8385 H   0  0  0  0  0  0  0  0  0  0  0  0
  145.1044  136.7687  153.0975 H   0  0  0  0  0  0  0  0  0  0  0  0
  146.2738  140.8780  153.7073 H   0  0  0  0  0  0  0  0  0  0  0  0
  148.6774  141.3298  153.7138 H   0  0  0  0  0  0  0  0  0  0  0  0
  151.0488  137.8561  155.1546 H   0  0  0  0  0  0  0  0  0  0  0  0
  152.1750  138.4302  153.9198 H   0  0  0  0  0  0  0  0  0  0  0  0
  152.8873  140.2863  155.4259 H   0  0  0  0  0  0  0  0  0  0  0  0
  153.0632  137.7624  156.6495 H   0  0  0  0  0  0  0  0  0  0  0  0
  150.6340  139.2778  157.0766 H   0  0  0  0  0  0  0  0  0  0  0  0
  152.0984  139.4516  158.0057 H   0  0  0  0  0  0  0  0  0  0  0  0
  150.1403  141.7105  155.4153 H   0  0  0  0  0  0  0  0  0  0  0  0
  151.3679  145.3491  158.7167 H   0  0  0  0  0  0  0  0  0  0  0  0
  152.7358  144.7814  160.7305 H   0  0  0  0  0  0  0  0  0  0  0  0
  153.5066  142.4720  161.1313 H   0  0  0  0  0  0  0  0  0  0  0  0
  152.9463  140.6344  159.5449 H   0  0  0  0  0  0  0  0  0  0  0  0
  149.4467  137.2511  154.9256 H   0  0  0  0  0  0  0  0  0  0  0  0
  147.0440  136.7995  154.9174 H   0  0  0  0  0  0  0  0  0  0  0  0
  150.2165  144.0830  156.3928 H   0  0  0  0  0  0  0  0  0  0  0  0
  1  2  1  0  0  0  0
  1 23  1  0  0  0  0
  1 24  1  0  0  0  0
  1 25  1  0  0  0  0
  2  3  1  0  0  0  0
  3 22  1  0  0  0  0
  3  4  2  0  0  0  0
  4  5  1  0  0  0  0
  4 26  1  0  0  0  0
  5  6  2  0  0  0  0
  5 27  1  0  0  0  0
  6  7  1  0  0  0  0
  6 21  1  0  0  0  0
  7  8  1  0  0  0  0
  8  9  1  0  0  0  0
  8 28  1  0  0  0  0
  8 29  1  0  0  0  0
  9 10  1  0  0  0  0
  9 11  1  0  0  0  0
  9 30  1  0  0  0  0
 10 31  1  0  0  0  0
 11 12  1  0  0  0  0
 11 32  1  0  0  0  0
 11 33  1  0  0  0  0
 12 20  1  0  0  0  0
 12 13  1  0  0  0  0
 13 14  2  0  0  0  0
 13 34  1  0  0  0  0
 14 15  1  0  0  0  0
 14 41  1  0  0  0  0
 15 20  2  0  0  0  0
 15 16  1  0  0  0  0
 16 17  2  0  0  0  0
 16 35  1  0  0  0  0
 17 18  1  0  0  0  0
 17 36  1  0  0  0  0
 18 19  2  0  0  0  0
 18 37  1  0  0  0  0
 19 20  1  0  0  0  0
 19 38  1  0  0  0  0
 21 22  2  0  0  0  0
 21 39  1  0  0  0  0
 22 40  1  0  0  0  0
M  CHG  1  14   1
M  END
> <s_m_source_file>
AV-unprocessed.smi

> <i_m_source_file_index>
2126

> <i_lp_mmshare_version>
43012

> <i_f3d_flags>
0

> <s_epik_input>
W0NIM11PYzFbY0hdW2NIXWMoW2NIXVtjSF0xKU9bQ0gyXVtDQEhdKFtPSF0pW0NIMl1uKFtjSF1uMiljKGMyMylbY0hdW2NIXVtjSF1bY0hdMw==

> <s_epik_cmdline>
J2VwaWtfcHl0aG9uJywgJy1waCcsICc3LjAnLCAnLXRuJywgJzgnLCAnLW1hJywgJzIwMCcsICctbWV0YWxfYmluZGluZycsICctaW1hZScsICc8aW5maWxlLm1hZT4nLCAnLW9tYWUnLCAnPG91dGZpbGUubWFlPic=

> <r_lp_tautomer_probability>
1

> <r_epik_Ionization_Penalty>
1.37822

> <r_epik_Ionization_Penalty_Charging>
1.37822

> <r_epik_Ionization_Penalty_Neutral>
2.3993e-06

> <r_epik_State_Penalty>
1.45852

> <r_epik_Charging_Adjusted_Penalty>
2.83674

> <i_epik_Tot_Q>
1

> <i_epik_Tot_abs_Q>
1

> <r_epik_Metal_State_Penalty>
5.4985

> <b_epik_Metal_Only>
0

> <s_lp_Force_Field>
OPLS_2005

> <r_lp_Energy>
23.2038

> <b_lp_Chiralities_Consistent>
1

> <s_lp_Variant>
AV-unprocessed.smi:2126-3

> <Gold.Version>
5.8.1

> <Gold.Id.Protein>
6NUR|6NUR_protein|mol2

> <Gold.PLP.Fitness>
49.5527

> <Gold.PLP.PLP>
-42.4906

> <Gold.PLP.part.hbond>
-3.0000

> <Gold.PLP.part.metal>
0.0000

> <Gold.PLP.part.buried>
-5.3222

> <Gold.PLP.part.nonpolar>
-35.9505

> <Gold.PLP.part.repulsive>
0.2763

> <Gold.PLP.ligand.clash>
0.0000

> <Gold.PLP.ligand.torsion>
1.4233

> <Gold.PLP.Chemscore.Hbond>
3.2800

> <Gold.PLP.Chemscore.CHOScore>
0.0000

> <Gold.PLP.Chemscore.Metal>
0.0000

> <Gold.Chemscore.Hbonds>
donor molecule, donor type, donor heavy atom, donor atom, acceptor molecule, acceptor atom, score
      L1  H    14    41       P1  8028  2.00
      P1  H  7989  7998       L1     7  1.00
      P1  H  7997  8010       L1    10  0.27

> <Gold.PLP.Chemscore.Internal.Correction>
0.0688

> <Gold.Rescore>
     Score         DG    S(hbond)    S(metal)    S(lipo)     H(rot)  DE(clash)    DE(int)     intcor
     16.50     -18.05       1.81        0.00     112.75       2.60       0.21       1.34       ----

> <Gold.Chemscore.Fitness>
16.4992

> <Gold.Chemscore.DG>
-18.0487

> <Gold.Chemscore.ZeroCoef>
-5.4800

> <Gold.Chemscore.Hbond>
1.8096

> <Gold.Chemscore.Metal>
0.0000

> <Gold.Chemscore.Lipo>
112.7485

> <Gold.Chemscore.Internal_Hbond>
0.0000

> <Gold.Chemscore.DEClash>
0.2067

> <Gold.Chemscore.DEInternal>
1.3427

> <Gold.Chemscore.Rot>
2.6043

> <Gold.Chemscore.Internal.Correction>
   9.000000E+99

> <Gold.Chemscore.Hbonds>
donor molecule, donor type, donor heavy atom, donor atom, acceptor molecule, acceptor atom, score
      L1  H    14    41       P1  8028  0.94
      P1  H  7989  7998       L1     7  0.35
      P1  H  7997  8010       L1    10  0.01

> <Gold.Chemscore.Hbond.Weighted>
-6.0441

> <Gold.Chemscore.Metal.Weighted>
-0.0000

> <Gold.Chemscore.Lipo.Weighted>
-13.1916

> <Gold.Chemscore.Internal_Hbond.Weighted>
0.0000

> <Gold.Chemscore.DEClash.Weighted>
0.2067

> <Gold.Chemscore.DEInternal.Weighted>
1.3427

> <Gold.Chemscore.Rot.Weighted>
6.6670

> <Gold.Chemscore.Internal.Correction.Weighted>
   9.000000E+99

> <Gold.Protein.RotatedTorsions>
[ 6907 6896 6895 6894 ] final   29.56 input  -60.11 | X-H torsion
[ 7974 7965 7964 7962 ] final   56.21 input  175.53 | X-H torsion
[ 8008 7997 7996 7995 ] final   42.13 input   59.86 | X-H torsion
[ 10167 10162 10161 10158 ] final    2.18 input  -65.29 | X-H torsion
[ 10718 10713 10712 10709 ] final  166.61 input   66.30 | X-H torsion
[ 10763 10752 10751 10750 ] final   60.86 input  -60.55 | X-H torsion
[ 11005 11000 10999 10996 ] final  -61.68 input  -57.11 | X-H torsion

> <Gold.Protein.ActiveResidues>
 VAL166  LYS551  ARG553  GLY616  TRP617  ASP618  TYR619  PRO620  LYS621  CYS622 
 ASP623  PHE694  ASN695  SER759  ASP760  ASP761  ALA762  ILE779  LEU786  VAL792 
 PHE793  MET794  SER795  GLU796  ALA797  LYS798  CYS799  TRP800  GLU811  SER814 

> <Gold.Protein.RotatedAtoms>
  152.0333  134.9755  160.0572 H   0  0  0  0  0  0  0  0  0  0  0  0  # atno 6907 bound_to 6896
  152.1222  133.4355  159.4689 H   0  0  0  0  0  0  0  0  0  0  0  0  # atno 6908 bound_to 6896
  150.6850  134.2439  159.4527 H   0  0  0  0  0  0  0  0  0  0  0  0  # atno 6909 bound_to 6896
  145.9422  139.3898  143.0357 H   0  0  0  0  0  0  0  0  0  0  0  0  # atno 7974 bound_to 7965
  155.2811  140.3372  155.4258 H   0  0  0  0  0  0  0  0  0  0  0  0  # atno 8008 bound_to 7997
  156.2089  140.1762  156.7779 H   0  0  0  0  0  0  0  0  0  0  0  0  # atno 8009 bound_to 7997
  154.5659  140.0679  156.8875 H   0  0  0  0  0  0  0  0  0  0  0  0  # atno 8010 bound_to 7997
  140.6647  143.7210  150.7805 H   0  0  0  0  0  0  0  0  0  0  0  0  # atno 10167 bound_to 10162
  157.0633  131.0346  151.2639 H   0  0  0  0  0  0  0  0  0  0  0  0  # atno 10718 bound_to 10713
  152.9933  135.5521  154.5942 H   0  0  0  0  0  0  0  0  0  0  0  0  # atno 10763 bound_to 10752
  154.5297  135.2813  155.1193 H   0  0  0  0  0  0  0  0  0  0  0  0  # atno 10764 bound_to 10752
  154.2513  135.6398  153.5294 H   0  0  0  0  0  0  0  0  0  0  0  0  # atno 10765 bound_to 10752
  141.1333  133.6632  156.5412 H   0  0  0  0  0  0  0  0  0  0  0  0  # atno 11005 bound_to 11000
  145.8285  140.9643  143.0861 LP  0  0  0  0  0  0  0  0  0  0  0  0  # atno 17320 bound_to 7965
  144.6781  140.0132  143.7484 LP  0  0  0  0  0  0  0  0  0  0  0  0  # atno 17321 bound_to 7965
  140.0885  143.4900  152.2492 LP  0  0  0  0  0  0  0  0  0  0  0  0  # atno 17342 bound_to 10162
  139.5892  144.7543  151.3442 LP  0  0  0  0  0  0  0  0  0  0  0  0  # atno 17343 bound_to 10162
  157.4937  130.7837  149.7533 LP  0  0  0  0  0  0  0  0  0  0  0  0  # atno 17370 bound_to 10713
  155.9972  130.3901  150.2750 LP  0  0  0  0  0  0  0  0  0  0  0  0  # atno 17371 bound_to 10713
  140.4138  134.7248  157.4851 LP  0  0  0  0  0  0  0  0  0  0  0  0  # atno 17394 bound_to 11000
  140.0408  134.6270  155.8983 LP  0  0  0  0  0  0  0  0  0  0  0  0  # atno 17395 bound_to 11000

$$$$
