#       Name:                AV-unprocessed.smi:2902
#       Creating user name   scv26
#       Creation time:       Fri Mar 27 16:03:08 2020


#       File generated by GOLD software.
#

@<TRIPOS>MOLECULE
AV-unprocessed.smi:2902
    53    54     1
SMALL
NO_CHARGES


@<TRIPOS>ATOM
      1 ****        -3.5557  -2.3276   2.3568 C.3            1 S1                 0.0000
      2 ****        -2.0281  -2.3489   2.2204 C.3            1 S1                 0.0000
      3 ****        -1.5132  -1.3760   1.1431 C.3            1 S1                 0.0000
      4 ****        -1.9396  -1.8689  -0.1289 O.3            1 S1                 0.0000
      5 ****        -1.7151  -1.0322  -1.2621 C.3            1 S1                 0.0000
      6 ****        -2.5098   0.2766  -1.2309 C.3            1 S1                 0.0000
      7 ****        -2.6216   0.7026  -2.6992 C.3            1 S1                 0.0000
      8 ****        -2.4185  -0.5719  -3.5343 C.3            1 S1                 0.0000
      9 ****        -2.2234  -1.7135  -2.5308 C.3            1 S1                 0.0000
     10 ****         0.0186  -1.2500   1.1854 C.2            1 S1                 0.0000
     11 ****         0.7262  -2.2564   1.2310 O.2            1 S1                 0.0000
     12 ****         0.5102  -0.0017   1.1447 N.am           1 S1                 0.0000
     13 ****         1.9259   0.3561   1.0993 C.3            1 S1                 0.0000
     14 ****         2.4742   0.4670   2.5351 C.3            1 S1                 0.0000
     15 ****         2.1180   1.6501   0.2672 C.3            1 S1                 0.0000
     16 ****         1.5882   1.5275  -1.1741 C.3            1 S1                 0.0000
     17 ****         3.5111   2.0738   0.2482 N.pl3          1 S1                 0.0000
     18 ****         4.6030   1.4610  -0.2158 C.2            1 S1                 0.0000
     19 ****         5.7178   2.1618  -0.0636 N.2            1 S1                 0.0000
     20 ****         5.2056   3.2755   0.5392 C.2            1 S1                 0.0000
     21 ****         3.8888   3.2749   0.7467 N.2            1 S1                 0.0000
     22 ****        -3.8854  -3.0231   3.1287 H              1 S1                 0.0000
     23 ****        -4.0405  -2.6137   1.4230 H              1 S1                 0.0000
     24 ****        -3.9127  -1.3342   2.6295 H              1 S1                 0.0000
     25 ****        -1.5901  -2.0953   3.1869 H              1 S1                 0.0000
     26 ****        -1.7015  -3.3645   1.9928 H              1 S1                 0.0000
     27 ****        -1.9572  -0.3969   1.3298 H              1 S1                 0.0000
     28 ****        -0.6540  -0.8195  -1.3963 H              1 S1                 0.0000
     29 ****        -3.5072   0.0895  -0.8303 H              1 S1                 0.0000
     30 ****        -2.0413   1.0413  -0.6107 H              1 S1                 0.0000
     31 ****        -3.5832   1.1742  -2.9026 H              1 S1                 0.0000
     32 ****        -1.8444   1.4288  -2.9406 H              1 S1                 0.0000
     33 ****        -3.2603  -0.7646  -4.1999 H              1 S1                 0.0000
     34 ****        -1.5288  -0.4653  -4.1562 H              1 S1                 0.0000
     35 ****        -1.5426  -2.4829  -2.8956 H              1 S1                 0.0000
     36 ****        -3.1844  -2.1899  -2.3322 H              1 S1                 0.0000
     37 ****        -0.1501   0.7613   1.1097 H              1 S1                 0.0000
     38 ****         2.4711  -0.4443   0.5953 H              1 S1                 0.0000
     39 ****         3.5483   0.6518   2.5447 H              1 S1                 0.0000
     40 ****         2.3044  -0.4539   3.0940 H              1 S1                 0.0000
     41 ****         1.9923   1.2795   3.0797 H              1 S1                 0.0000
     42 ****         1.5457   2.4435   0.7523 H              1 S1                 0.0000
     43 ****         0.5122   1.3561  -1.1939 H              1 S1                 0.0000
     44 ****         2.0663   0.7041  -1.7054 H              1 S1                 0.0000
     45 ****         1.7765   2.4414  -1.7385 H              1 S1                 0.0000
     46 ****         4.5815   0.4826  -0.6726 H              1 S1                 0.0000
     47 ****         5.8219   4.1125   0.8327 H              1 S1                 0.0000
     48 ****        -2.9233  -2.0390  -0.0710 LP             1 S1                 0.0000
     49 ****        -1.4612  -2.7316  -0.2928 LP             1 S1                 0.0000
     50 ****         0.3054  -3.1634   1.2407 LP             1 S1                 0.0000
     51 ****         1.7218  -2.1668   1.2583 LP             1 S1                 0.0000
     52 ****         6.6595   1.9399  -0.3165 LP             1 S1                 0.0000
     53 ****         3.3218   3.9841   1.1656 LP             1 S1                 0.0000
@<TRIPOS>BOND
    1    1    2 1     
    2    1   22 1     
    3    1   23 1     
    4    1   24 1     
    5    2    3 1     
    6    2   25 1     
    7    2   26 1     
    8    3    4 1     
    9    3   10 1     
   10    3   27 1     
   11    4    5 1     
   12    5    9 1     
   13    5    6 1     
   14    5   28 1     
   15    6    7 1     
   16    6   29 1     
   17    6   30 1     
   18    7    8 1     
   19    7   31 1     
   20    7   32 1     
   21    8    9 1     
   22    8   33 1     
   23    8   34 1     
   24    9   35 1     
   25    9   36 1     
   26   10   11 2     
   27   10   12 am    
   28   12   13 1     
   29   12   37 1     
   30   13   14 1     
   31   13   15 1     
   32   13   38 1     
   33   14   39 1     
   34   14   40 1     
   35   14   41 1     
   36   15   16 1     
   37   15   17 1     
   38   15   42 1     
   39   16   43 1     
   40   16   44 1     
   41   16   45 1     
   42   17   21 1     
   43   17   18 1     
   44   18   19 2     
   45   18   46 1     
   46   19   20 1     
   47   20   21 2     
   48   20   47 1     
   49    4   48 1     
   50    4   49 1     
   51   11   50 1     
   52   11   51 1     
   53   19   52 1     
   54   21   53 1     
@<TRIPOS>SUBSTRUCTURE
      1 S1             1
@<TRIPOS>SET
LONE_PAIRS      STATIC     ATOMS    <user>   **** ""
6 48 49 50 51 52 53
DONOR_HYDROGENS      STATIC     ATOMS    <user>   **** ""
1 37
ATOM$BLUE        STATIC     ATOMS    COLORGROUP SYSTEM
6 48 49 50 51 52 53
ATOM$RED        STATIC     ATOMS    COLORGROUP SYSTEM
1 37
