AV-unprocessed.smi:3116|AV-procd|sdf|11863|dock10
  -GOLD-   2272017243D 1   1.00000     0.00000
 Structure written by MMmdl.
 34 34  0  0  0  0  0  0  0  0  2 V2000
  153.0678  138.9283  154.7893 C   0  0  0  0  0  0  0  0  0  0  0  0
  152.0499  138.2121  155.6897 C   0  0  1  0  0  0  0  0  0  0  0  0
  151.2010  139.2137  156.3785 N   0  3  0  0  0  0  0  0  0  0  0  0
  151.9212  140.2352  157.1763 C   0  0  2  0  0  0  0  0  0  0  0  0
  152.5930  139.5410  158.3754 C   0  0  0  0  0  0  0  0  0  0  0  0
  150.9573  141.3764  157.6026 C   0  0  2  0  0  0  0  0  0  0  0  0
  149.9779  141.7911  156.4880 C   0  0  0  0  0  0  0  0  0  0  0  0
  151.6784  142.5457  158.0895 N   0  0  0  0  0  0  0  0  0  0  0  0
  151.6162  143.8434  157.6245 C   0  0  0  0  0  0  0  0  0  0  0  0
  152.4638  144.5926  158.3891 C   0  0  0  0  0  0  0  0  0  0  0  0
  153.0107  143.6536  159.3072 C   0  0  0  0  0  0  0  0  0  0  0  0
  152.5403  142.4304  159.1254 N   0  0  0  0  0  0  0  0  0  0  0  0
  151.2095  137.2331  154.8573 C   0  0  0  0  0  0  0  0  0  0  0  0
  150.4774  137.7494  153.8669 N   0  0  0  0  0  0  0  0  0  0  0  0
  151.2103  136.0297  155.1108 O   0  0  0  0  0  0  0  0  0  0  0  0
  153.7302  138.2171  154.2943 H   0  0  0  0  0  0  0  0  0  0  0  0
  153.6948  139.6053  155.3704 H   0  0  0  0  0  0  0  0  0  0  0  0
  152.5740  139.5174  154.0150 H   0  0  0  0  0  0  0  0  0  0  0  0
  152.6041  137.6488  156.4419 H   0  0  0  0  0  0  0  0  0  0  0  0
  150.6491  139.6986  155.6860 H   0  0  0  0  0  0  0  0  0  0  0  0
  152.7220  140.6641  156.5713 H   0  0  0  0  0  0  0  0  0  0  0  0
  153.2244  140.2264  158.9410 H   0  0  0  0  0  0  0  0  0  0  0  0
  153.2323  138.7215  158.0454 H   0  0  0  0  0  0  0  0  0  0  0  0
  151.8521  139.1284  159.0613 H   0  0  0  0  0  0  0  0  0  0  0  0
  150.3598  141.0117  158.4399 H   0  0  0  0  0  0  0  0  0  0  0  0
  149.3119  140.9725  156.2154 H   0  0  0  0  0  0  0  0  0  0  0  0
  150.5055  142.1060  155.5870 H   0  0  0  0  0  0  0  0  0  0  0  0
  149.3482  142.6211  156.8103 H   0  0  0  0  0  0  0  0  0  0  0  0
  150.9799  144.1245  156.7980 H   0  0  0  0  0  0  0  0  0  0  0  0
  152.6636  145.6505  158.3050 H   0  0  0  0  0  0  0  0  0  0  0  0
  153.7301  143.8232  160.0948 H   0  0  0  0  0  0  0  0  0  0  0  0
  149.9092  137.1486  153.2871 H   0  0  0  0  0  0  0  0  0  0  0  0
  150.4968  138.7450  153.6975 H   0  0  0  0  0  0  0  0  0  0  0  0
  150.5743  138.7102  156.9904 H   0  0  0  0  0  0  0  0  0  0  0  0
  1  2  1  0  0  0  0
  1 16  1  0  0  0  0
  1 17  1  0  0  0  0
  1 18  1  0  0  0  0
  2  3  1  0  0  0  0
  2 13  1  0  0  0  0
  2 19  1  0  0  0  0
  3  4  1  0  0  0  0
  3 20  1  0  0  0  0
  3 34  1  0  0  0  0
  4  5  1  0  0  0  0
  4  6  1  0  0  0  0
  4 21  1  0  0  0  0
  5 22  1  0  0  0  0
  5 23  1  0  0  0  0
  5 24  1  0  0  0  0
  6  7  1  0  0  0  0
  6  8  1  0  0  0  0
  6 25  1  0  0  0  0
  7 26  1  0  0  0  0
  7 27  1  0  0  0  0
  7 28  1  0  0  0  0
  8 12  1  0  0  0  0
  8  9  1  0  0  0  0
  9 10  2  0  0  0  0
  9 29  1  0  0  0  0
 10 11  1  0  0  0  0
 10 30  1  0  0  0  0
 11 12  2  0  0  0  0
 11 31  1  0  0  0  0
 13 14  1  0  0  0  0
 13 15  2  0  0  0  0
 14 32  1  0  0  0  0
 14 33  1  0  0  0  0
M  CHG  1   3   1
M  END
> <s_m_source_file>
AV-unprocessed.smi

> <i_m_source_file_index>
3116

> <i_lp_mmshare_version>
43012

> <i_f3d_flags>
0

> <s_epik_input>
W05IMl1DKD1PKVtDQEhdKFtDSDNdKVtOSF1bQ0BIXShbQ0gzXSlbQ0BIXShbQ0gzXSluMVtjSF1bY0hdW2NIXW4x

> <s_epik_cmdline>
J2VwaWtfcHl0aG9uJywgJy1waCcsICc3LjAnLCAnLXRuJywgJzgnLCAnLW1hJywgJzIwMCcsICctbWV0YWxfYmluZGluZycsICctaW1hZScsICc8aW5maWxlLm1hZT4nLCAnLW9tYWUnLCAnPG91dGZpbGUubWFlPic=

> <r_lp_tautomer_probability>
1

> <r_epik_Ionization_Penalty>
0.15658

> <r_epik_Ionization_Penalty_Charging>
0.156568

> <r_epik_Ionization_Penalty_Neutral>
1.19778e-05

> <r_epik_State_Penalty>
0.145866

> <r_epik_Charging_Adjusted_Penalty>
0.302434

> <i_epik_Tot_Q>
1

> <i_epik_Tot_abs_Q>
1

> <r_epik_Metal_State_Penalty>
0.146064

> <b_epik_Metal_Only>
0

> <s_lp_Force_Field>
OPLS_2005

> <r_lp_Energy>
10.4239

> <b_lp_Chiralities_Consistent>
1

> <s_lp_Variant>
AV-unprocessed.smi:3116-2

> <Gold.Version>
5.8.1

> <Gold.Id.Protein>
6NUR|6NUR_protein|mol2

> <Gold.PLP.Fitness>
41.7129

> <Gold.PLP.PLP>
-33.2576

> <Gold.PLP.part.hbond>
-3.0000

> <Gold.PLP.part.metal>
0.0000

> <Gold.PLP.part.buried>
-2.9079

> <Gold.PLP.part.nonpolar>
-28.1166

> <Gold.PLP.part.repulsive>
0.2949

> <Gold.PLP.ligand.clash>
0.0000

> <Gold.PLP.ligand.torsion>
0.3212

> <Gold.PLP.Chemscore.Hbond>
2.0000

> <Gold.PLP.Chemscore.CHOScore>
1.0000

> <Gold.PLP.Chemscore.Metal>
0.0000

> <Gold.Chemscore.Hbonds>
donor molecule, donor type, donor heavy atom, donor atom, acceptor molecule, acceptor atom, score
      L1  H    14    32       P1  7948  1.00
      P1  H 10752 10764       L1    15  1.00
      L1  C     9    29       P1  8028  1.00

> <Gold.PLP.Chemscore.Internal.Correction>
0.0978

> <Gold.Rescore>
     Score         DG    S(hbond)    S(metal)    S(lipo)     H(rot)  DE(clash)    DE(int)     intcor
     12.90     -14.44       1.86        0.00      76.94       2.45       0.06       1.48       ----

> <Gold.Chemscore.Fitness>
12.9035

> <Gold.Chemscore.DG>
-14.4391

> <Gold.Chemscore.ZeroCoef>
-5.4800

> <Gold.Chemscore.Hbond>
1.8623

> <Gold.Chemscore.Metal>
0.0000

> <Gold.Chemscore.Lipo>
76.9416

> <Gold.Chemscore.Internal_Hbond>
0.0000

> <Gold.Chemscore.DEClash>
0.0564

> <Gold.Chemscore.DEInternal>
1.4792

> <Gold.Chemscore.Rot>
2.4465

> <Gold.Chemscore.Internal.Correction>
   9.000000E+99

> <Gold.Chemscore.Hbonds>
donor molecule, donor type, donor heavy atom, donor atom, acceptor molecule, acceptor atom, score
      L1  H    14    32       P1  7948  0.35
      P1  H 10752 10764       L1    15  0.26

> <Gold.Chemscore.Hbond.Weighted>
-6.2200

> <Gold.Chemscore.Metal.Weighted>
-0.0000

> <Gold.Chemscore.Lipo.Weighted>
-9.0022

> <Gold.Chemscore.Internal_Hbond.Weighted>
0.0000

> <Gold.Chemscore.DEClash.Weighted>
0.0564

> <Gold.Chemscore.DEInternal.Weighted>
1.4792

> <Gold.Chemscore.Rot.Weighted>
6.2631

> <Gold.Chemscore.Internal.Correction.Weighted>
   9.000000E+99

> <Gold.Protein.RotatedTorsions>
[ 6907 6896 6895 6894 ] final -141.54 input  -60.11 | X-H torsion
[ 7974 7965 7964 7962 ] final   41.44 input  175.53 | X-H torsion
[ 8008 7997 7996 7995 ] final -123.15 input   59.86 | X-H torsion
[ 10167 10162 10161 10158 ] final  -89.13 input  -65.29 | X-H torsion
[ 10718 10713 10712 10709 ] final -173.94 input   66.30 | X-H torsion
[ 10763 10752 10751 10750 ] final  -61.01 input  -60.55 | X-H torsion
[ 11005 11000 10999 10996 ] final -128.98 input  -57.11 | X-H torsion

> <Gold.Protein.ActiveResidues>
 VAL166  LYS551  ARG553  GLY616  TRP617  ASP618  TYR619  PRO620  LYS621  CYS622 
 ASP623  PHE694  ASN695  SER759  ASP760  ASP761  ALA762  ILE779  LEU786  VAL792 
 PHE793  MET794  SER795  GLU796  ALA797  LYS798  CYS799  TRP800  GLU811  SER814 

> <Gold.Protein.RotatedAtoms>
  151.0751  133.5435  159.2624 H   0  0  0  0  0  0  0  0  0  0  0  0  # atno 6907 bound_to 6896
  151.2359  135.0571  159.9016 H   0  0  0  0  0  0  0  0  0  0  0  0  # atno 6908 bound_to 6896
  152.5416  134.0533  159.8173 H   0  0  0  0  0  0  0  0  0  0  0  0  # atno 6909 bound_to 6896
  146.0823  139.5415  142.9529 H   0  0  0  0  0  0  0  0  0  0  0  0  # atno 7974 bound_to 7965
  155.1758  140.0409  157.2872 H   0  0  0  0  0  0  0  0  0  0  0  0  # atno 8008 bound_to 7997
  154.6238  140.2507  155.7489 H   0  0  0  0  0  0  0  0  0  0  0  0  # atno 8009 bound_to 7997
  156.2448  140.2889  156.0558 H   0  0  0  0  0  0  0  0  0  0  0  0  # atno 8010 bound_to 7997
  140.3678  143.2809  151.9537 H   0  0  0  0  0  0  0  0  0  0  0  0  # atno 10167 bound_to 10162
  156.7777  130.9472  151.3120 H   0  0  0  0  0  0  0  0  0  0  0  0  # atno 10718 bound_to 10713
  154.2780  135.6277  153.5336 H   0  0  0  0  0  0  0  0  0  0  0  0  # atno 10763 bound_to 10752
  152.9870  135.5626  154.5527 H   0  0  0  0  0  0  0  0  0  0  0  0  # atno 10764 bound_to 10752
  154.5111  135.2877  155.1317 H   0  0  0  0  0  0  0  0  0  0  0  0  # atno 10765 bound_to 10752
  140.9470  134.1116  157.4097 H   0  0  0  0  0  0  0  0  0  0  0  0  # atno 11005 bound_to 11000
  145.6194  141.0325  143.1923 LP  0  0  0  0  0  0  0  0  0  0  0  0  # atno 17320 bound_to 7965
  144.7302  139.7750  143.7350 LP  0  0  0  0  0  0  0  0  0  0  0  0  # atno 17321 bound_to 7965
  139.4807  144.5934  151.7732 LP  0  0  0  0  0  0  0  0  0  0  0  0  # atno 17342 bound_to 10162
  140.5063  144.1093  150.5983 LP  0  0  0  0  0  0  0  0  0  0  0  0  # atno 17343 bound_to 10162
  157.6661  130.9009  149.9935 LP  0  0  0  0  0  0  0  0  0  0  0  0  # atno 17370 bound_to 10713
  156.1237  130.3645  149.9844 LP  0  0  0  0  0  0  0  0  0  0  0  0  # atno 17371 bound_to 10713
  139.8836  135.0054  156.6314 LP  0  0  0  0  0  0  0  0  0  0  0  0  # atno 17394 bound_to 11000
  140.7655  133.8782  155.8451 LP  0  0  0  0  0  0  0  0  0  0  0  0  # atno 17395 bound_to 11000

$$$$
