AV-unprocessed.smi:712|AV-procd|sdf|3471|dock1
  -GOLD-   22720 0463D 1   1.00000     0.00000
 Structure written by MMmdl.
 51 52  0  0  0  0  0  0  0  0  2 V2000
  152.1903  144.9848  160.5587 C   0  0  0  0  0  0  0  0  0  0  0  0
  151.9096  144.1103  159.3544 C   0  0  0  0  0  0  0  0  0  0  0  0
  151.6360  144.6975  158.0590 C   0  0  0  0  0  0  0  0  0  0  0  0
  151.3816  143.8917  157.0162 C   0  0  0  0  0  0  0  0  0  0  0  0
  151.3739  142.4908  157.1440 N   0  0  0  0  0  0  0  0  0  0  0  0
  151.0474  141.7029  155.9433 C   0  0  0  0  0  0  0  0  0  0  0  0
  149.5397  141.7060  155.6661 C   0  0  0  0  0  0  0  0  0  0  0  0
  148.7698  142.2756  156.4399 O   0  0  0  0  0  0  0  0  0  0  0  0
  149.1305  141.0402  154.5753 N   0  0  0  0  0  0  0  0  0  0  0  0
  147.7380  140.7762  154.2246 C   0  0  0  0  0  0  0  0  0  0  0  0
  147.6159  139.6025  153.2312 C   0  0  1  0  0  0  0  0  0  0  0  0
  146.6943  138.4656  153.7250 C   0  0  0  0  0  0  0  0  0  0  0  0
  146.5796  137.3965  152.7048 N   0  3  1  0  0  0  0  0  0  0  0  0
  145.7425  136.2439  153.1308 C   0  0  0  0  0  0  0  0  0  0  0  0
  145.8479  135.0148  152.1985 C   0  0  0  0  0  0  0  0  0  0  0  0
  145.0715  135.2125  150.8859 C   0  0  0  0  0  0  0  0  0  0  0  0
  145.3704  133.7455  152.9185 C   0  0  0  0  0  0  0  0  0  0  0  0
  146.1353  137.9678  151.4119 C   0  0  0  0  0  0  0  0  0  0  0  0
  147.0587  139.1210  150.9856 C   0  0  0  0  0  0  0  0  0  0  0  0
  147.0950  140.1101  152.0077 O   0  0  0  0  0  0  0  0  0  0  0  0
  151.6294  141.8738  158.3380 C   0  0  0  0  0  0  0  0  0  0  0  0
  151.6172  140.6479  158.4592 O   0  0  0  0  0  0  0  0  0  0  0  0
  151.9045  142.7644  159.4709 C   0  0  0  0  0  0  0  0  0  0  0  0
  152.2443  146.0371  160.2780 H   0  0  0  0  0  0  0  0  0  0  0  0
  153.1390  144.7065  161.0183 H   0  0  0  0  0  0  0  0  0  0  0  0
  151.4004  144.8698  161.3018 H   0  0  0  0  0  0  0  0  0  0  0  0
  151.6309  145.7702  157.9301 H   0  0  0  0  0  0  0  0  0  0  0  0
  151.1611  144.2660  156.0269 H   0  0  0  0  0  0  0  0  0  0  0  0
  151.5584  142.0980  155.0641 H   0  0  0  0  0  0  0  0  0  0  0  0
  151.4129  140.6801  156.0552 H   0  0  0  0  0  0  0  0  0  0  0  0
  149.8352  140.6184  153.9876 H   0  0  0  0  0  0  0  0  0  0  0  0
  147.1351  140.5902  155.1153 H   0  0  0  0  0  0  0  0  0  0  0  0
  147.3360  141.6815  153.7689 H   0  0  0  0  0  0  0  0  0  0  0  0
  148.6156  139.2036  153.0473 H   0  0  0  0  0  0  0  0  0  0  0  0
  147.1056  138.0442  154.6383 H   0  0  0  0  0  0  0  0  0  0  0  0
  145.7042  138.8561  153.9658 H   0  0  0  0  0  0  0  0  0  0  0  0
  146.0114  135.9671  154.1514 H   0  0  0  0  0  0  0  0  0  0  0  0
  144.6993  136.5615  153.1652 H   0  0  0  0  0  0  0  0  0  0  0  0
  146.8936  134.8427  151.9490 H   0  0  0  0  0  0  0  0  0  0  0  0
  144.0137  135.3985  151.0738 H   0  0  0  0  0  0  0  0  0  0  0  0
  145.1454  134.3296  150.2503 H   0  0  0  0  0  0  0  0  0  0  0  0
  145.4630  136.0536  150.3134 H   0  0  0  0  0  0  0  0  0  0  0  0
  144.3192  133.8188  153.1993 H   0  0  0  0  0  0  0  0  0  0  0  0
  145.9469  133.5676  153.8269 H   0  0  0  0  0  0  0  0  0  0  0  0
  145.4846  132.8669  152.2822 H   0  0  0  0  0  0  0  0  0  0  0  0
  146.1371  137.1937  150.6435 H   0  0  0  0  0  0  0  0  0  0  0  0
  145.1088  138.3269  151.5042 H   0  0  0  0  0  0  0  0  0  0  0  0
  148.0659  138.7570  150.7768 H   0  0  0  0  0  0  0  0  0  0  0  0
  146.6888  139.5770  150.0672 H   0  0  0  0  0  0  0  0  0  0  0  0
  152.1052  142.3212  160.4354 H   0  0  0  0  0  0  0  0  0  0  0  0
  147.5106  137.0350  152.5529 H   0  0  0  0  0  0  0  0  0  0  0  0
  1  2  1  0  0  0  0
  1 24  1  0  0  0  0
  1 25  1  0  0  0  0
  1 26  1  0  0  0  0
  2 23  2  0  0  0  0
  2  3  1  0  0  0  0
  3  4  2  0  0  0  0
  3 27  1  0  0  0  0
  4  5  1  0  0  0  0
  4 28  1  0  0  0  0
  5  6  1  0  0  0  0
  5 21  1  0  0  0  0
  6  7  1  0  0  0  0
  6 29  1  0  0  0  0
  6 30  1  0  0  0  0
  7  8  2  0  0  0  0
  7  9  1  0  0  0  0
  9 10  1  0  0  0  0
  9 31  1  0  0  0  0
 10 11  1  0  0  0  0
 10 32  1  0  0  0  0
 10 33  1  0  0  0  0
 11 20  1  0  0  0  0
 11 12  1  0  0  0  0
 11 34  1  0  0  0  0
 12 13  1  0  0  0  0
 12 35  1  0  0  0  0
 12 36  1  0  0  0  0
 13 14  1  0  0  0  0
 13 18  1  0  0  0  0
 13 51  1  0  0  0  0
 14 15  1  0  0  0  0
 14 37  1  0  0  0  0
 14 38  1  0  0  0  0
 15 16  1  0  0  0  0
 15 17  1  0  0  0  0
 15 39  1  0  0  0  0
 16 40  1  0  0  0  0
 16 41  1  0  0  0  0
 16 42  1  0  0  0  0
 17 43  1  0  0  0  0
 17 44  1  0  0  0  0
 17 45  1  0  0  0  0
 18 19  1  0  0  0  0
 18 46  1  0  0  0  0
 18 47  1  0  0  0  0
 19 20  1  0  0  0  0
 19 48  1  0  0  0  0
 19 49  1  0  0  0  0
 21 22  2  0  0  0  0
 21 23  1  0  0  0  0
 23 50  1  0  0  0  0
M  CHG  1  13   1
M  END
> <s_m_source_file>
AV-unprocessed.smi

> <i_m_source_file_index>
712

> <i_lp_mmshare_version>
43012

> <i_f3d_flags>
0

> <s_epik_input>
W0NIM11jMVtjSF1bY0hdbihjKD1PKVtjSF0xKVtDSDJdQyg9TylbTkhdW0NIMl1bQ0BASF0yW0NIMl1OKFtDSDJdW0NIMl1PMilbQ0gyXVtDSF0oW0NIM10pW0NIM10=

> <s_epik_cmdline>
J2VwaWtfcHl0aG9uJywgJy1waCcsICc3LjAnLCAnLXRuJywgJzgnLCAnLW1hJywgJzIwMCcsICctbWV0YWxfYmluZGluZycsICctaW1hZScsICc8aW5maWxlLm1hZT4nLCAnLW9tYWUnLCAnPG91dGZpbGUubWFlPic=

> <r_lp_tautomer_probability>
1

> <r_epik_Ionization_Penalty>
0.0975935

> <r_epik_Ionization_Penalty_Charging>
0.0975934

> <r_epik_Ionization_Penalty_Neutral>
6.27044e-08

> <r_epik_State_Penalty>
0.0877056

> <r_epik_Charging_Adjusted_Penalty>
0.185299

> <i_epik_Tot_Q>
1

> <i_epik_Tot_abs_Q>
1

> <r_epik_Metal_State_Penalty>
0.0877109

> <b_epik_Metal_Only>
0

> <s_lp_Force_Field>
OPLS_2005

> <r_lp_Energy>
25.8349

> <b_lp_Chiralities_Consistent>
1

> <s_lp_Variant>
AV-unprocessed.smi:712-4

> <Gold.Version>
5.8.1

> <Gold.Id.Protein>
6NUR|6NUR_protein|mol2

> <Gold.PLP.Fitness>
46.5618

> <Gold.PLP.PLP>
-39.8280

> <Gold.PLP.part.hbond>
-1.0000

> <Gold.PLP.part.metal>
0.0000

> <Gold.PLP.part.buried>
-1.0499

> <Gold.PLP.part.nonpolar>
-39.6054

> <Gold.PLP.part.repulsive>
1.2963

> <Gold.PLP.ligand.clash>
0.0000

> <Gold.PLP.ligand.torsion>
1.3200

> <Gold.PLP.Chemscore.Hbond>
2.0000

> <Gold.PLP.Chemscore.CHOScore>
1.0000

> <Gold.PLP.Chemscore.Metal>
0.0000

> <Gold.Chemscore.Hbonds>
donor molecule, donor type, donor heavy atom, donor atom, acceptor molecule, acceptor atom, score
      L1  H    13    51       P1  7948  2.00
      L1  C     4    28       P1  8028  0.70

> <Gold.PLP.Chemscore.Internal.Correction>
0.3739

> <Gold.Rescore>
     Score         DG    S(hbond)    S(metal)    S(lipo)     H(rot)  DE(clash)    DE(int)     intcor
     14.58     -16.29       1.00        0.00     105.23       1.89       0.11       1.60       ----

> <Gold.Chemscore.Fitness>
14.5846

> <Gold.Chemscore.DG>
-16.2936

> <Gold.Chemscore.ZeroCoef>
-5.4800

> <Gold.Chemscore.Hbond>
0.9978

> <Gold.Chemscore.Metal>
0.0000

> <Gold.Chemscore.Lipo>
105.2291

> <Gold.Chemscore.Internal_Hbond>
0.0000

> <Gold.Chemscore.DEClash>
0.1074

> <Gold.Chemscore.DEInternal>
1.6017

> <Gold.Chemscore.Rot>
1.8871

> <Gold.Chemscore.Internal.Correction>
   9.000000E+99

> <Gold.Chemscore.Hbonds>
donor molecule, donor type, donor heavy atom, donor atom, acceptor molecule, acceptor atom, score
      L1  H    13    51       P1  7948  1.00

> <Gold.Chemscore.Hbond.Weighted>
-3.3327

> <Gold.Chemscore.Metal.Weighted>
-0.0000

> <Gold.Chemscore.Lipo.Weighted>
-12.3118

> <Gold.Chemscore.Internal_Hbond.Weighted>
0.0000

> <Gold.Chemscore.DEClash.Weighted>
0.1074

> <Gold.Chemscore.DEInternal.Weighted>
1.6017

> <Gold.Chemscore.Rot.Weighted>
4.8309

> <Gold.Chemscore.Internal.Correction.Weighted>
   9.000000E+99

> <Gold.Protein.RotatedTorsions>
[ 6907 6896 6895 6894 ] final  -84.81 input  -60.11 | X-H torsion
[ 7974 7965 7964 7962 ] final -172.60 input  175.53 | X-H torsion
[ 8008 7997 7996 7995 ] final  -21.86 input   59.86 | X-H torsion
[ 10167 10162 10161 10158 ] final  101.98 input  -65.29 | X-H torsion
[ 10718 10713 10712 10709 ] final   80.25 input   66.30 | X-H torsion
[ 10763 10752 10751 10750 ] final -132.12 input  -60.55 | X-H torsion
[ 11005 11000 10999 10996 ] final -115.35 input  -57.11 | X-H torsion

> <Gold.Protein.ActiveResidues>
 VAL166  LYS551  ARG553  GLY616  TRP617  ASP618  TYR619  PRO620  LYS621  CYS622 
 ASP623  PHE694  ASN695  SER759  ASP760  ASP761  ALA762  ILE779  LEU786  VAL792 
 PHE793  MET794  SER795  GLU796  ALA797  LYS798  CYS799  TRP800  GLU811  SER814 

> <Gold.Protein.RotatedAtoms>
  150.6874  134.3301  159.4823 H   0  0  0  0  0  0  0  0  0  0  0  0  # atno 6907 bound_to 6896
  152.1167  134.9233  160.0574 H   0  0  0  0  0  0  0  0  0  0  0  0  # atno 6908 bound_to 6896
  152.0455  133.3961  159.4391 H   0  0  0  0  0  0  0  0  0  0  0  0  # atno 6909 bound_to 6896
  144.7145  140.1747  143.6364 H   0  0  0  0  0  0  0  0  0  0  0  0  # atno 7974 bound_to 7965
  154.4679  140.2023  156.0069 H   0  0  0  0  0  0  0  0  0  0  0  0  # atno 8008 bound_to 7997
  156.0960  140.3251  155.7849 H   0  0  0  0  0  0  0  0  0  0  0  0  # atno 8009 bound_to 7997
  155.4877  140.0543  157.2949 H   0  0  0  0  0  0  0  0  0  0  0  0  # atno 8010 bound_to 7997
  139.7390  144.7016  151.0604 H   0  0  0  0  0  0  0  0  0  0  0  0  # atno 10167 bound_to 10162
  157.6801  130.9951  150.2052 H   0  0  0  0  0  0  0  0  0  0  0  0  # atno 10718 bound_to 10713
  154.8746  135.3808  154.4358 H   0  0  0  0  0  0  0  0  0  0  0  0  # atno 10763 bound_to 10752
  153.5047  135.7030  153.5818 H   0  0  0  0  0  0  0  0  0  0  0  0  # atno 10764 bound_to 10752
  153.4133  135.3919  155.2031 H   0  0  0  0  0  0  0  0  0  0  0  0  # atno 10765 bound_to 10752
  141.0493  133.9712  157.2863 H   0  0  0  0  0  0  0  0  0  0  0  0  # atno 11005 bound_to 11000
  145.8911  139.2376  143.1549 LP  0  0  0  0  0  0  0  0  0  0  0  0  # atno 17320 bound_to 7965
  145.9902  140.8609  143.0070 LP  0  0  0  0  0  0  0  0  0  0  0  0  # atno 17321 bound_to 7965
  140.7783  143.4948  150.9847 LP  0  0  0  0  0  0  0  0  0  0  0  0  # atno 17342 bound_to 10162
  139.8636  143.7283  152.3171 LP  0  0  0  0  0  0  0  0  0  0  0  0  # atno 17343 bound_to 10162
  156.2734  130.3724  149.8008 LP  0  0  0  0  0  0  0  0  0  0  0  0  # atno 17370 bound_to 10713
  156.5718  130.8428  151.3358 LP  0  0  0  0  0  0  0  0  0  0  0  0  # atno 17371 bound_to 10713
  139.9338  135.0198  156.8487 LP  0  0  0  0  0  0  0  0  0  0  0  0  # atno 17394 bound_to 11000
  140.6085  134.0105  155.7567 LP  0  0  0  0  0  0  0  0  0  0  0  0  # atno 17395 bound_to 11000

$$$$
