AV-unprocessed.smi:2448|AV-procd|sdf|9651|dock1
  -GOLD-   2272013283D 1   1.00000     0.00000
 Structure written by MMmdl.
 37 38  0  0  0  0  0  0  0  0  1 V2000
  146.5676  140.0679  152.1952 O   0  0  0  0  0  0  0  0  0  0  0  0
  146.7789  139.5756  153.5070 C   0  0  1  0  0  0  0  0  0  0  0  0
  146.4592  138.0668  153.5107 C   0  0  0  0  0  0  0  0  0  0  0  0
  145.5641  137.6902  152.4150 N   0  0  0  0  0  0  0  0  0  0  0  0
  144.9827  136.3403  152.4772 C   0  0  2  0  0  0  0  0  0  0  0  0
  144.7740  135.7006  151.0786 C   0  0  0  0  0  0  0  0  0  0  0  0
  144.8559  134.1826  151.0374 C   0  0  0  0  0  0  0  0  0  0  0  0
  143.7541  133.4152  150.6037 C   0  0  0  0  0  0  0  0  0  0  0  0
  143.8766  132.0115  150.5831 C   0  0  0  0  0  0  0  0  0  0  0  0
  144.9956  131.3591  150.9639 N   0  0  0  0  0  0  0  0  0  0  0  0
  146.0426  132.0978  151.3894 C   0  0  0  0  0  0  0  0  0  0  0  0
  146.0239  133.5057  151.4480 C   0  0  0  0  0  0  0  0  0  0  0  0
  143.6581  136.3895  153.2682 C   0  0  0  0  0  0  0  0  0  0  0  0
  142.8172  137.2495  152.6920 F   0  0  0  0  0  0  0  0  0  0  0  0
  143.0850  135.1857  153.3051 F   0  0  0  0  0  0  0  0  0  0  0  0
  143.8793  136.8023  154.5163 F   0  0  0  0  0  0  0  0  0  0  0  0
  148.2501  139.8416  153.8664 C   0  0  0  0  0  0  0  0  0  0  0  0
  148.4016  141.3396  154.1464 C   0  0  0  0  0  0  0  0  0  0  0  0
  146.8672  141.9057  154.9212 S   0  0  0  0  0  0  0  0  0  0  0  0
  145.9520  140.3931  154.5169 C   0  0  0  0  0  0  0  0  0  0  0  0
  145.6828  140.3943  152.1362 H   0  0  0  0  0  0  0  0  0  0  0  0
  147.3911  137.5072  153.4580 H   0  0  0  0  0  0  0  0  0  0  0  0
  145.9916  137.8073  154.4614 H   0  0  0  0  0  0  0  0  0  0  0  0
  144.8172  138.3733  152.3378 H   0  0  0  0  0  0  0  0  0  0  0  0
  145.6483  135.7006  153.0572 H   0  0  0  0  0  0  0  0  0  0  0  0
  143.7832  135.9563  150.7032 H   0  0  0  0  0  0  0  0  0  0  0  0
  145.4781  136.1314  150.3655 H   0  0  0  0  0  0  0  0  0  0  0  0
  142.8356  133.8875  150.2872 H   0  0  0  0  0  0  0  0  0  0  0  0
  143.0534  131.3964  150.2509 H   0  0  0  0  0  0  0  0  0  0  0  0
  146.9224  131.5503  151.6935 H   0  0  0  0  0  0  0  0  0  0  0  0
  146.8890  134.0477  151.8008 H   0  0  0  0  0  0  0  0  0  0  0  0
  148.5065  139.2904  154.7723 H   0  0  0  0  0  0  0  0  0  0  0  0
  148.9364  139.5044  153.0885 H   0  0  0  0  0  0  0  0  0  0  0  0
  149.2639  141.5550  154.7776 H   0  0  0  0  0  0  0  0  0  0  0  0
  148.5308  141.8850  153.2111 H   0  0  0  0  0  0  0  0  0  0  0  0
  144.9524  140.6282  154.1491 H   0  0  0  0  0  0  0  0  0  0  0  0
  145.8338  139.8307  155.4437 H   0  0  0  0  0  0  0  0  0  0  0  0
  1  2  1  0  0  0  0
  1 21  1  0  0  0  0
  2 20  1  0  0  0  0
  2  3  1  0  0  0  0
  2 17  1  0  0  0  0
  3  4  1  0  0  0  0
  3 22  1  0  0  0  0
  3 23  1  0  0  0  0
  4  5  1  0  0  0  0
  4 24  1  0  0  0  0
  5  6  1  0  0  0  0
  5 13  1  0  0  0  0
  5 25  1  0  0  0  0
  6  7  1  0  0  0  0
  6 26  1  0  0  0  0
  6 27  1  0  0  0  0
  7 12  1  0  0  0  0
  7  8  2  0  0  0  0
  8  9  1  0  0  0  0
  8 28  1  0  0  0  0
  9 10  2  0  0  0  0
  9 29  1  0  0  0  0
 10 11  1  0  0  0  0
 11 12  2  0  0  0  0
 11 30  1  0  0  0  0
 12 31  1  0  0  0  0
 13 14  1  0  0  0  0
 13 15  1  0  0  0  0
 13 16  1  0  0  0  0
 17 18  1  0  0  0  0
 17 32  1  0  0  0  0
 17 33  1  0  0  0  0
 18 19  1  0  0  0  0
 18 34  1  0  0  0  0
 18 35  1  0  0  0  0
 19 20  1  0  0  0  0
 20 36  1  0  0  0  0
 20 37  1  0  0  0  0
M  END
> <s_m_source_file>
AV-unprocessed.smi

> <i_m_source_file_index>
2448

> <i_lp_mmshare_version>
43012

> <i_f3d_flags>
0

> <s_epik_input>
W0NIMl0xU1tDSDJdW0NIMl1bQ0BAXTEoW09IXSlbQ0gyXVtOSF1bQ0BASF0oQyhGKShGKUYpW0NIMl1jMltjSF1bY0hdbltjSF1bY0hdMg==

> <s_epik_cmdline>
J2VwaWtfcHl0aG9uJywgJy1waCcsICc3LjAnLCAnLXRuJywgJzgnLCAnLW1hJywgJzIwMCcsICctbWV0YWxfYmluZGluZycsICctaW1hZScsICc8aW5maWxlLm1hZT4nLCAnLW9tYWUnLCAnPG91dGZpbGUubWFlPic=

> <r_epik_Ionization_Penalty>
0.187708

> <r_epik_Ionization_Penalty_Charging>
0

> <r_epik_Ionization_Penalty_Neutral>
0.187708

> <r_epik_State_Penalty>
0.22769

> <r_epik_Charging_Adjusted_Penalty>
0.22769

> <i_epik_Tot_Q>
0

> <i_epik_Tot_abs_Q>
0

> <r_epik_Metal_State_Penalty>
0.176206

> <b_epik_Metal_Only>
0

> <s_lp_Force_Field>
OPLS_2005

> <r_lp_Energy>
32.3304

> <b_lp_Chiralities_Consistent>
1

> <s_lp_Variant>
AV-unprocessed.smi:2448-1

> <Gold.Version>
5.8.1

> <Gold.Id.Protein>
6NUR|6NUR_protein|mol2

> <Gold.PLP.Fitness>
39.9374

> <Gold.PLP.PLP>
-33.0972

> <Gold.PLP.part.hbond>
-2.0034

> <Gold.PLP.part.metal>
0.0000

> <Gold.PLP.part.buried>
-2.6715

> <Gold.PLP.part.nonpolar>
-29.7859

> <Gold.PLP.part.repulsive>
0.1188

> <Gold.PLP.ligand.clash>
0.0000

> <Gold.PLP.ligand.torsion>
1.6163

> <Gold.PLP.Chemscore.Hbond>
1.1300

> <Gold.PLP.Chemscore.CHOScore>
1.9944

> <Gold.PLP.Chemscore.Metal>
0.0000

> <Gold.Chemscore.Hbonds>
donor molecule, donor type, donor heavy atom, donor atom, acceptor molecule, acceptor atom, score
      L1  H     1    21       P1 10175  1.00
      L1  H     4    24       P1 10175  0.15
      L1  C     9    29       P1 10952  0.93
      L1  C    11    30       P1 10747  0.83

> <Gold.PLP.Chemscore.Internal.Correction>
0.6996

> <Gold.Rescore>
     Score         DG    S(hbond)    S(metal)    S(lipo)     H(rot)  DE(clash)    DE(int)     intcor
     10.08     -12.04       0.94        0.00      79.72       2.31       0.09       1.87       ----

> <Gold.Chemscore.Fitness>
10.0845

> <Gold.Chemscore.DG>
-12.0420

> <Gold.Chemscore.ZeroCoef>
-5.4800

> <Gold.Chemscore.Hbond>
0.9435

> <Gold.Chemscore.Metal>
0.0000

> <Gold.Chemscore.Lipo>
79.7180

> <Gold.Chemscore.Internal_Hbond>
0.0000

> <Gold.Chemscore.DEClash>
0.0863

> <Gold.Chemscore.DEInternal>
1.8712

> <Gold.Chemscore.Rot>
2.3111

> <Gold.Chemscore.Internal.Correction>
   9.000000E+99

> <Gold.Chemscore.Hbonds>
donor molecule, donor type, donor heavy atom, donor atom, acceptor molecule, acceptor atom, score
      L1  H     1    21       P1 10175  0.28
      L1  H     4    24       P1 10175  0.16

> <Gold.Chemscore.Hbond.Weighted>
-3.1513

> <Gold.Chemscore.Metal.Weighted>
-0.0000

> <Gold.Chemscore.Lipo.Weighted>
-9.3270

> <Gold.Chemscore.Internal_Hbond.Weighted>
0.0000

> <Gold.Chemscore.DEClash.Weighted>
0.0863

> <Gold.Chemscore.DEInternal.Weighted>
1.8712

> <Gold.Chemscore.Rot.Weighted>
5.9164

> <Gold.Chemscore.Internal.Correction.Weighted>
   9.000000E+99

> <Gold.Protein.RotatedTorsions>
[ 6907 6896 6895 6894 ] final -166.21 input  -60.11 | X-H torsion
[ 7974 7965 7964 7962 ] final -143.05 input  175.53 | X-H torsion
[ 8008 7997 7996 7995 ] final  114.61 input   59.86 | X-H torsion
[ 10167 10162 10161 10158 ] final  156.96 input  -65.29 | X-H torsion
[ 10718 10713 10712 10709 ] final  179.25 input   66.30 | X-H torsion
[ 10763 10752 10751 10750 ] final   85.88 input  -60.55 | X-H torsion
[ 11005 11000 10999 10996 ] final  -74.98 input  -57.11 | X-H torsion

> <Gold.Protein.ActiveResidues>
 VAL166  LYS551  ARG553  GLY616  TRP617  ASP618  TYR619  PRO620  LYS621  CYS622 
 ASP623  PHE694  ASN695  SER759  ASP760  ASP761  ALA762  ILE779  LEU786  VAL792 
 PHE793  MET794  SER795  GLU796  ALA797  LYS798  CYS799  TRP800  GLU811  SER814 

> <Gold.Protein.RotatedAtoms>
  151.4399  133.3646  159.2780 H   0  0  0  0  0  0  0  0  0  0  0  0  # atno 6907 bound_to 6896
  150.9165  134.8584  159.7471 H   0  0  0  0  0  0  0  0  0  0  0  0  # atno 6908 bound_to 6896
  152.4960  134.4333  159.9571 H   0  0  0  0  0  0  0  0  0  0  0  0  # atno 6909 bound_to 6896
  144.8398  140.5882  143.5460 H   0  0  0  0  0  0  0  0  0  0  0  0  # atno 7974 bound_to 7965
  156.2332  140.2955  156.0242 H   0  0  0  0  0  0  0  0  0  0  0  0  # atno 8008 bound_to 7997
  155.2167  140.0414  157.2959 H   0  0  0  0  0  0  0  0  0  0  0  0  # atno 8009 bound_to 7997
  154.6031  140.2432  155.7773 H   0  0  0  0  0  0  0  0  0  0  0  0  # atno 8010 bound_to 7997
  139.4822  144.4961  151.8237 H   0  0  0  0  0  0  0  0  0  0  0  0  # atno 10167 bound_to 10162
  156.8786  130.9808  151.3065 H   0  0  0  0  0  0  0  0  0  0  0  0  # atno 10718 bound_to 10713
  153.1517  135.4601  154.9645 H   0  0  0  0  0  0  0  0  0  0  0  0  # atno 10763 bound_to 10752
  154.7829  135.3194  154.7952 H   0  0  0  0  0  0  0  0  0  0  0  0  # atno 10764 bound_to 10752
  153.8456  135.6926  153.4852 H   0  0  0  0  0  0  0  0  0  0  0  0  # atno 10765 bound_to 10752
  141.1641  133.6930  156.7448 H   0  0  0  0  0  0  0  0  0  0  0  0  # atno 11005 bound_to 11000
  145.4718  139.1503  143.3810 LP  0  0  0  0  0  0  0  0  0  0  0  0  # atno 17320 bound_to 7965
  146.2692  140.4852  142.8821 LP  0  0  0  0  0  0  0  0  0  0  0  0  # atno 17321 bound_to 7965
  140.4450  144.1934  150.5893 LP  0  0  0  0  0  0  0  0  0  0  0  0  # atno 17342 bound_to 10162
  140.4644  143.2436  151.9175 LP  0  0  0  0  0  0  0  0  0  0  0  0  # atno 17343 bound_to 10162
  157.6154  130.8614  149.9019 LP  0  0  0  0  0  0  0  0  0  0  0  0  # atno 17370 bound_to 10713
  156.0689  130.3688  150.0818 LP  0  0  0  0  0  0  0  0  0  0  0  0  # atno 17371 bound_to 10713
  140.2648  134.8438  157.3792 LP  0  0  0  0  0  0  0  0  0  0  0  0  # atno 17394 bound_to 11000
  140.1577  134.4768  155.7916 LP  0  0  0  0  0  0  0  0  0  0  0  0  # atno 17395 bound_to 11000

$$$$
