AV-unprocessed.smi:261|AV-procd|sdf|1991|dock10
  -GOLD-   2262021173D 1   1.00000     0.00000
 Structure written by MMmdl.
 51 54  0  0  0  0  0  0  0  0  1 V2000
  152.0198  129.5840  156.8391 C   0  0  0  0  0  0  0  0  0  0  0  0
  151.7288  130.8238  157.4629 O   0  0  0  0  0  0  0  0  0  0  0  0
  151.7521  131.9284  156.5703 C   0  0  1  0  0  0  0  0  0  0  0  0
  150.6155  131.9097  155.5495 C   0  0  0  0  0  0  0  0  0  0  0  0
  150.4522  133.3863  155.1567 C   0  0  1  0  0  0  0  0  0  0  0  0
  149.0249  133.6610  154.6430 C   0  0  0  0  0  0  0  0  0  0  0  0
  148.6113  133.0491  153.5285 N   0  0  0  0  0  0  0  0  0  0  0  0
  148.2933  134.4284  155.2642 O   0  0  0  0  0  0  0  0  0  0  0  0
  150.8283  134.1153  156.3761 N   0  0  0  0  0  0  0  0  0  0  0  0
  151.1280  135.4434  156.3714 C   0  0  0  0  0  0  0  0  0  0  0  0
  151.6147  136.0126  155.2364 N   0  0  0  0  0  0  0  0  0  0  0  0
  151.9085  137.3152  155.1995 C   0  0  0  0  0  0  0  0  0  0  0  0
  151.7897  138.2242  156.1679 N   0  0  0  0  0  0  0  0  0  0  0  0
  151.2957  137.6656  157.3089 C   0  0  0  0  0  0  0  0  0  0  0  0
  150.9409  136.2989  157.4973 C   0  0  0  0  0  0  0  0  0  0  0  0
  150.4598  136.1164  158.7900 N   0  0  0  0  0  0  0  0  0  0  0  0
  150.5381  137.2997  159.3347 C   0  0  0  0  0  0  0  0  0  0  0  0
  151.0270  138.2894  158.5136 N   0  0  0  0  0  0  0  0  0  0  0  0
  151.2078  139.6919  158.8456 C   0  0  0  0  0  0  0  0  0  0  0  0
  152.4813  140.2900  158.2155 C   0  0  2  0  0  0  0  0  0  0  0  0
  153.6167  139.6666  158.7857 O   0  0  0  0  0  0  0  0  0  0  0  0
  152.5832  141.8107  158.4366 C   0  0  1  0  0  0  0  0  0  0  0  0
  151.3294  142.5934  158.0448 C   0  0  0  0  0  0  0  0  0  0  0  0
  151.4920  143.8567  158.8588 C   0  0  0  0  0  0  0  0  0  0  0  0
  152.0914  143.3234  160.1574 C   0  0  0  0  0  0  0  0  0  0  0  0
  152.7501  142.1040  159.8215 O   0  0  0  0  0  0  0  0  0  0  0  0
  151.5062  133.2360  157.3223 C   0  0  0  0  0  0  0  0  0  0  0  0
  152.7124  131.9929  156.0546 H   0  0  0  0  0  0  0  0  0  0  0  0
  151.1666  133.6174  154.3647 H   0  0  0  0  0  0  0  0  0  0  0  0
  152.0077  128.7899  157.5857 H   0  0  0  0  0  0  0  0  0  0  0  0
  153.0087  129.5962  156.3794 H   0  0  0  0  0  0  0  0  0  0  0  0
  151.2817  129.3355  156.0761 H   0  0  0  0  0  0  0  0  0  0  0  0
  150.8336  131.2731  154.6915 H   0  0  0  0  0  0  0  0  0  0  0  0
  149.7074  131.5319  156.0235 H   0  0  0  0  0  0  0  0  0  0  0  0
  147.6804  133.2212  153.1773 H   0  0  0  0  0  0  0  0  0  0  0  0
  149.2327  132.4202  153.0411 H   0  0  0  0  0  0  0  0  0  0  0  0
  152.2919  137.6811  154.2584 H   0  0  0  0  0  0  0  0  0  0  0  0
  150.2363  137.4843  160.3554 H   0  0  0  0  0  0  0  0  0  0  0  0
  150.3251  140.2321  158.5016 H   0  0  0  0  0  0  0  0  0  0  0  0
  151.2317  139.7960  159.9312 H   0  0  0  0  0  0  0  0  0  0  0  0
  152.4859  140.0831  157.1445 H   0  0  0  0  0  0  0  0  0  0  0  0
  153.5501  139.7253  159.7265 H   0  0  0  0  0  0  0  0  0  0  0  0
  153.4441  142.2168  157.9025 H   0  0  0  0  0  0  0  0  0  0  0  0
  151.2618  142.7830  156.9733 H   0  0  0  0  0  0  0  0  0  0  0  0
  150.4293  142.0614  158.3567 H   0  0  0  0  0  0  0  0  0  0  0  0
  152.1978  144.5280  158.3675 H   0  0  0  0  0  0  0  0  0  0  0  0
  150.5562  144.3953  159.0102 H   0  0  0  0  0  0  0  0  0  0  0  0
  152.7820  144.0344  160.6116 H   0  0  0  0  0  0  0  0  0  0  0  0
  151.3070  143.1039  160.8821 H   0  0  0  0  0  0  0  0  0  0  0  0
  150.8447  133.0760  158.1748 H   0  0  0  0  0  0  0  0  0  0  0  0
  152.4464  133.6458  157.6943 H   0  0  0  0  0  0  0  0  0  0  0  0
  1  2  1  0  0  0  0
  1 30  1  0  0  0  0
  1 31  1  0  0  0  0
  1 32  1  0  0  0  0
  2  3  1  0  0  0  0
  3 28  1  0  0  0  0
  3 27  1  0  0  0  0
  3  4  1  0  0  0  0
  4  5  1  0  0  0  0
  4 33  1  0  0  0  0
  4 34  1  0  0  0  0
  5 29  1  0  0  0  0
  5  6  1  0  0  0  0
  5  9  1  0  0  0  0
  6  7  1  0  0  0  0
  6  8  2  0  0  0  0
  7 35  1  0  0  0  0
  7 36  1  0  0  0  0
  9 10  1  0  0  0  0
  9 27  1  0  0  0  0
 10 15  1  0  0  0  0
 10 11  2  0  0  0  0
 11 12  1  0  0  0  0
 12 13  2  0  0  0  0
 12 37  1  0  0  0  0
 13 14  1  0  0  0  0
 14 18  1  0  0  0  0
 14 15  2  0  0  0  0
 15 16  1  0  0  0  0
 16 17  2  0  0  0  0
 17 18  1  0  0  0  0
 17 38  1  0  0  0  0
 18 19  1  0  0  0  0
 19 20  1  0  0  0  0
 19 39  1  0  0  0  0
 19 40  1  0  0  0  0
 20 21  1  0  0  0  0
 20 22  1  0  0  0  0
 20 41  1  0  0  0  0
 21 42  1  0  0  0  0
 22 26  1  0  0  0  0
 22 23  1  0  0  0  0
 22 43  1  0  0  0  0
 23 24  1  0  0  0  0
 23 44  1  0  0  0  0
 23 45  1  0  0  0  0
 24 25  1  0  0  0  0
 24 46  1  0  0  0  0
 24 47  1  0  0  0  0
 25 26  1  0  0  0  0
 25 48  1  0  0  0  0
 25 49  1  0  0  0  0
 27 50  1  0  0  0  0
 27 51  1  0  0  0  0
M  END
> <s_m_source_file>
AV-unprocessed.smi

> <i_m_source_file_index>
261

> <i_lp_mmshare_version>
43012

> <i_f3d_flags>
0

> <s_epik_input>
W0NIM11PW0NASF0xW0NIMl1bQ0BASF0oQyg9TylbTkgyXSlOKFtDSDJdMSljKG5bY0hdbjIpYyhjMjMpbltjSF1uM1tDSDJdW0NASF0oW09IXSlbQ0BASF00W0NIMl1bQ0gyXVtDSDJdTzQ=

> <s_epik_cmdline>
J2VwaWtfcHl0aG9uJywgJy1waCcsICc3LjAnLCAnLXRuJywgJzgnLCAnLW1hJywgJzIwMCcsICctbWV0YWxfYmluZGluZycsICctaW1hZScsICc8aW5maWxlLm1hZT4nLCAnLW9tYWUnLCAnPG91dGZpbGUubWFlPic=

> <r_lp_tautomer_probability>
1

> <r_epik_Ionization_Penalty>
0.000713824

> <r_epik_Ionization_Penalty_Charging>
0

> <r_epik_Ionization_Penalty_Neutral>
0.000713824

> <r_epik_State_Penalty>
0.000402132

> <r_epik_Charging_Adjusted_Penalty>
0.000402132

> <i_epik_Tot_Q>
0

> <i_epik_Tot_abs_Q>
0

> <r_epik_Metal_State_Penalty>
-0

> <b_epik_Metal_Only>
0

> <s_lp_Force_Field>
OPLS_2005

> <r_lp_Energy>
46.441

> <b_lp_Chiralities_Consistent>
1

> <s_lp_Variant>
AV-unprocessed.smi:261-9

> <Gold.Version>
5.8.1

> <Gold.Id.Protein>
6NUR|6NUR_protein|mol2

> <Gold.PLP.Fitness>
45.8351

> <Gold.PLP.PLP>
-38.8777

> <Gold.PLP.part.hbond>
-4.0000

> <Gold.PLP.part.metal>
0.0000

> <Gold.PLP.part.buried>
-5.7873

> <Gold.PLP.part.nonpolar>
-28.6688

> <Gold.PLP.part.repulsive>
0.2454

> <Gold.PLP.ligand.clash>
0.0000

> <Gold.PLP.ligand.torsion>
1.1396

> <Gold.PLP.Chemscore.Hbond>
2.9513

> <Gold.PLP.Chemscore.CHOScore>
0.0000

> <Gold.PLP.Chemscore.Metal>
0.0000

> <Gold.Chemscore.Hbonds>
donor molecule, donor type, donor heavy atom, donor atom, acceptor molecule, acceptor atom, score
      P1  H  6896  6908       L1    16  0.91
      P1  H  7997  8009       L1    21  0.90
      P1  H 10752 10764       L1    11  0.52

> <Gold.PLP.Chemscore.Internal.Correction>
0.3828

> <Gold.Rescore>
     Score         DG    S(hbond)    S(metal)    S(lipo)     H(rot)  DE(clash)    DE(int)     intcor
     10.23     -12.54       1.74        0.00      80.26       3.18       0.02       2.29       ----

> <Gold.Chemscore.Fitness>
10.2272

> <Gold.Chemscore.DG>
-12.5423

> <Gold.Chemscore.ZeroCoef>
-5.4800

> <Gold.Chemscore.Hbond>
1.7426

> <Gold.Chemscore.Metal>
0.0000

> <Gold.Chemscore.Lipo>
80.2627

> <Gold.Chemscore.Internal_Hbond>
0.0000

> <Gold.Chemscore.DEClash>
0.0247

> <Gold.Chemscore.DEInternal>
2.2904

> <Gold.Chemscore.Rot>
3.1831

> <Gold.Chemscore.Internal.Correction>
   9.000000E+99

> <Gold.Chemscore.Hbonds>
donor molecule, donor type, donor heavy atom, donor atom, acceptor molecule, acceptor atom, score
      P1  H  6896  6908       L1    16  0.86
      P1  H  7997  8009       L1    21  0.16
      P1  H 10752 10764       L1    11  0.04

> <Gold.Chemscore.Hbond.Weighted>
-5.8202

> <Gold.Chemscore.Metal.Weighted>
-0.0000

> <Gold.Chemscore.Lipo.Weighted>
-9.3907

> <Gold.Chemscore.Internal_Hbond.Weighted>
0.0000

> <Gold.Chemscore.DEClash.Weighted>
0.0247

> <Gold.Chemscore.DEInternal.Weighted>
2.2904

> <Gold.Chemscore.Rot.Weighted>
8.1486

> <Gold.Chemscore.Internal.Correction.Weighted>
   9.000000E+99

> <Gold.Protein.RotatedTorsions>
[ 6907 6896 6895 6894 ] final -176.21 input  -60.11 | X-H torsion
[ 7974 7965 7964 7962 ] final  -87.69 input  175.53 | X-H torsion
[ 8008 7997 7996 7995 ] final  130.58 input   59.86 | X-H torsion
[ 10167 10162 10161 10158 ] final  165.76 input  -65.29 | X-H torsion
[ 10718 10713 10712 10709 ] final -141.81 input   66.30 | X-H torsion
[ 10763 10752 10751 10750 ] final  -76.34 input  -60.55 | X-H torsion
[ 11005 11000 10999 10996 ] final -165.07 input  -57.11 | X-H torsion

> <Gold.Protein.ActiveResidues>
 VAL166  LYS551  ARG553  GLY616  TRP617  ASP618  TYR619  PRO620  LYS621  CYS622 
 ASP623  PHE694  ASN695  SER759  ASP760  ASP761  ALA762  ILE779  LEU786  VAL792 
 PHE793  MET794  SER795  GLU796  ALA797  LYS798  CYS799  TRP800  GLU811  SER814 

> <Gold.Protein.RotatedAtoms>
  151.6010  133.3356  159.3047 H   0  0  0  0  0  0  0  0  0  0  0  0  # atno 6907 bound_to 6896
  150.8207  134.7417  159.6781 H   0  0  0  0  0  0  0  0  0  0  0  0  # atno 6908 bound_to 6896
  152.4301  134.5799  159.9996 H   0  0  0  0  0  0  0  0  0  0  0  0  # atno 6909 bound_to 6896
  145.4632  140.9560  143.1958 H   0  0  0  0  0  0  0  0  0  0  0  0  # atno 7974 bound_to 7965
  156.2957  140.2592  156.2786 H   0  0  0  0  0  0  0  0  0  0  0  0  # atno 8008 bound_to 7997
  154.9625  140.0392  157.2215 H   0  0  0  0  0  0  0  0  0  0  0  0  # atno 8009 bound_to 7997
  154.7934  140.2815  155.5979 H   0  0  0  0  0  0  0  0  0  0  0  0  # atno 8010 bound_to 7997
  139.4912  144.4098  151.9313 H   0  0  0  0  0  0  0  0  0  0  0  0  # atno 10167 bound_to 10162
  156.3385  130.7624  151.1756 H   0  0  0  0  0  0  0  0  0  0  0  0  # atno 10718 bound_to 10713
  154.4985  135.5801  153.6513 H   0  0  0  0  0  0  0  0  0  0  0  0  # atno 10763 bound_to 10752
  152.9874  135.6130  154.3033 H   0  0  0  0  0  0  0  0  0  0  0  0  # atno 10764 bound_to 10752
  154.2938  135.2848  155.2622 H   0  0  0  0  0  0  0  0  0  0  0  0  # atno 10765 bound_to 10752
  140.5798  134.5153  157.5176 H   0  0  0  0  0  0  0  0  0  0  0  0  # atno 11005 bound_to 11000
  144.7990  139.6178  143.7080 LP  0  0  0  0  0  0  0  0  0  0  0  0  # atno 17320 bound_to 7965
  146.2439  139.6058  142.9473 LP  0  0  0  0  0  0  0  0  0  0  0  0  # atno 17321 bound_to 7965
  140.3539  144.3055  150.5944 LP  0  0  0  0  0  0  0  0  0  0  0  0  # atno 17342 bound_to 10162
  140.5461  143.2214  151.8004 LP  0  0  0  0  0  0  0  0  0  0  0  0  # atno 17343 bound_to 10162
  157.7443  131.0461  150.4878 LP  0  0  0  0  0  0  0  0  0  0  0  0  # atno 17370 bound_to 10713
  156.5054  130.4127  149.6330 LP  0  0  0  0  0  0  0  0  0  0  0  0  # atno 17371 bound_to 10713
  139.9322  134.7941  156.0898 LP  0  0  0  0  0  0  0  0  0  0  0  0  # atno 17394 bound_to 11000
  141.1003  133.6679  156.2740 LP  0  0  0  0  0  0  0  0  0  0  0  0  # atno 17395 bound_to 11000

$$$$
