#       Name:                AV-unprocessed.smi:102
#       Creating user name   scv26
#       Creation time:       Thu Mar 26 17:50:43 2020


#       File generated by GOLD software.
#

@<TRIPOS>MOLECULE
AV-unprocessed.smi:102
    56    57     1
SMALL
NO_CHARGES


@<TRIPOS>ATOM
      1 ****        -4.0212   3.4042  -1.5158 C.3            1 S1                 0.0000
      2 ****        -3.4720   2.0013  -1.2893 C.2            1 S1                 0.0000
      3 ****        -4.2218   1.0342  -1.1543 O.2            1 S1                 0.0000
      4 ****        -2.1314   1.9693  -1.2611 O.3            1 S1                 0.0000
      5 ****        -1.4659   0.7328  -1.0669 C.3            1 S1                 0.0000
      6 ****         0.0555   0.9720  -1.0226 C.3            1 S1                 0.0000
      7 ****         0.4001   1.5510   0.2312 O.3            1 S1                 0.0000
      8 ****         0.5890   0.5381   1.1732 C.3            1 S1                 0.0000
      9 ****         1.6749   0.9560   2.1389 N.am           1 S1                 0.0000
     10 ****         1.3521   1.1360   3.4723 C.2            1 S1                 0.0000
     11 ****         2.2741   1.5402   4.3697 C.2            1 S1                 0.0000
     12 ****         1.9288   1.7000   5.6589 F              1 S1                 0.0000
     13 ****         3.6427   1.8036   3.9302 C.2            1 S1                 0.0000
     14 ****         4.4837   2.1582   4.7550 O.2            1 S1                 0.0000
     15 ****         3.9280   1.6437   2.6056 N.pl3          1 S1                -1.0000
     16 ****         2.9955   1.2442   1.6918 C.2            1 S1                 0.0000
     17 ****         3.2451   1.1249   0.4936 O.2            1 S1                 0.0000
     18 ****         0.9100  -0.7665   0.4203 C.3            1 S1                 0.0000
     19 ****        -0.1156  -1.7144   0.7042 O.3            1 S1                 0.0000
     20 ****         0.1644  -3.0279   0.7684 C.2            1 S1                 0.0000
     21 ****        -1.0638  -3.8655   1.0980 C.3            1 S1                 0.0000
     22 ****         1.2642  -3.5475   0.5803 O.2            1 S1                 0.0000
     23 ****         0.9001  -0.3101  -1.0393 C.3            1 S1                 0.0000
     24 ****         0.4281  -1.3136  -1.9334 O.3            1 S1                 0.0000
     25 ****         0.7279  -1.2554  -3.2419 C.2            1 S1                 0.0000
     26 ****         0.1308  -2.4167  -4.0253 C.3            1 S1                 0.0000
     27 ****         1.3936  -0.3808  -3.7961 O.2            1 S1                 0.0000
     28 ****        -3.2173   4.1405  -1.5315 H              1 S1                 0.0000
     29 ****        -4.7163   3.6703  -0.7194 H              1 S1                 0.0000
     30 ****        -4.5512   3.4516  -2.4672 H              1 S1                 0.0000
     31 ****        -1.8157   0.2480  -0.1549 H              1 S1                 0.0000
     32 ****        -1.7182   0.0765  -1.9006 H              1 S1                 0.0000
     33 ****         0.3495   1.6301  -1.8410 H              1 S1                 0.0000
     34 ****        -0.3181   0.4522   1.7735 H              1 S1                 0.0000
     35 ****         0.3440   0.9474   3.8112 H              1 S1                 0.0000
     36 ****         1.8907  -1.1416   0.7160 H              1 S1                 0.0000
     37 ****        -1.6331  -3.4055   1.9060 H              1 S1                 0.0000
     38 ****        -0.7707  -4.8680   1.4105 H              1 S1                 0.0000
     39 ****        -1.7081  -3.9501   0.2228 H              1 S1                 0.0000
     40 ****         1.9235  -0.0436  -1.3059 H              1 S1                 0.0000
     41 ****         0.1741  -3.3358  -3.4405 H              1 S1                 0.0000
     42 ****         0.6793  -2.5723  -4.9544 H              1 S1                 0.0000
     43 ****        -0.9112  -2.2092  -4.2690 H              1 S1                 0.0000
     44 ****        -5.2130   1.1608  -1.1924 LP             1 S1                 0.0000
     45 ****        -3.8396   0.1220  -1.0066 LP             1 S1                 0.0000
     46 ****        -0.3373   2.1548   0.5338 LP             1 S1                 0.0000
     47 ****         1.2443   2.0783   0.1344 LP             1 S1                 0.0000
     48 ****         4.2281   2.2637   5.7160 LP             1 S1                 0.0000
     49 ****         5.4230   2.3409   4.4644 LP             1 S1                 0.0000
     50 ****         4.8594   1.8268   2.2907 LP             1 S1                 0.0000
     51 ****         2.5288   0.8319  -0.1396 LP             1 S1                 0.0000
     52 ****         4.1645   1.3208   0.1524 LP             1 S1                 0.0000
     53 ****         2.0546  -2.9776   0.3556 LP             1 S1                 0.0000
     54 ****         1.3674  -4.5396   0.6521 LP             1 S1                 0.0000
     55 ****         1.7669   0.3775  -3.2616 LP             1 S1                 0.0000
     56 ****         1.5612  -0.4286  -4.7808 LP             1 S1                 0.0000
@<TRIPOS>BOND
    1    1    2 1     
    2    1   28 1     
    3    1   29 1     
    4    1   30 1     
    5    2    3 2     
    6    2    4 1     
    7    4    5 1     
    8    5    6 1     
    9    5   31 1     
   10    5   32 1     
   11    6   23 1     
   12    6    7 1     
   13    6   33 1     
   14    7    8 1     
   15    8    9 1     
   16    8   18 1     
   17    8   34 1     
   18    9   16 am    
   19    9   10 1     
   20   10   11 2     
   21   10   35 1     
   22   11   12 1     
   23   11   13 1     
   24   13   14 2     
   25   13   15 1     
   26   15   16 1     
   27   16   17 2     
   28   18   19 1     
   29   18   23 1     
   30   18   36 1     
   31   19   20 1     
   32   20   21 1     
   33   20   22 2     
   34   21   37 1     
   35   21   38 1     
   36   21   39 1     
   37   23   24 1     
   38   23   40 1     
   39   24   25 1     
   40   25   26 1     
   41   25   27 2     
   42   26   41 1     
   43   26   42 1     
   44   26   43 1     
   45    3   44 1     
   46    3   45 1     
   47    7   46 1     
   48    7   47 1     
   49   14   48 1     
   50   14   49 1     
   51   15   50 1     
   52   17   51 1     
   53   17   52 1     
   54   22   53 1     
   55   22   54 1     
   56   27   55 1     
   57   27   56 1     
@<TRIPOS>SUBSTRUCTURE
      1 S1             1
@<TRIPOS>SET
LONE_PAIRS      STATIC     ATOMS    <user>   **** ""
13 44 45 46 47 48 49 50 51 52 53 54 55 56
ATOM$BLUE        STATIC     ATOMS    COLORGROUP SYSTEM
13 44 45 46 47 48 49 50 51 52 53 54 55 56
