#       Name:                AV-unprocessed.smi:219
#       Creating user name   scv26
#       Creation time:       Thu Mar 26 20:11:19 2020


#       File generated by GOLD software.
#

@<TRIPOS>MOLECULE
AV-unprocessed.smi:219
    60    63     1
SMALL
NO_CHARGES


@<TRIPOS>ATOM
      1 ****        -0.0167  -3.2212   1.5034 N.am           1 S1                 0.0000
      2 ****        -0.9538  -2.6219   2.2420 C.2            1 S1                 0.0000
      3 ****        -0.7638  -2.3164   3.4172 O.2            1 S1                 0.0000
      4 ****        -2.2960  -2.3276   1.5587 C.3            1 S1                 0.0000
      5 ****        -2.9242  -0.9406   1.8854 C.3            1 S1                 0.0000
      6 ****        -4.4560  -1.0287   1.6935 C.3            1 S1                 0.0000
      7 ****        -5.1534   0.3090   1.9750 C.3            1 S1                 0.0000
      8 ****        -4.5370   1.4110   1.1074 C.3            1 S1                 0.0000
      9 ****        -3.0214   1.4784   1.3347 C.3            1 S1                 0.0000
     10 ****        -2.3887   0.1808   1.0881 N.3            1 S1                 0.0000
     11 ****        -1.0422   0.2904   1.0255 C.ar           1 S1                 0.0000
     12 ****        -0.3483   0.7820   2.0861 N.ar           1 S1                 0.0000
     13 ****         0.9845   0.8643   2.0288 C.ar           1 S1                 0.0000
     14 ****         1.8005   0.5214   1.0291 N.ar           1 S1                 0.0000
     15 ****         1.1027   0.0340  -0.0371 C.ar           1 S1                 0.0000
     16 ****        -0.3093  -0.1147  -0.1201 C.ar           1 S1                 0.0000
     17 ****        -0.6632  -0.6566  -1.3484 N.2            1 S1                 0.0000
     18 ****         0.4780  -0.8159  -1.9614 C.2            1 S1                 0.0000
     19 ****         1.5894  -0.4180  -1.2517 N.pl3          1 S1                 0.0000
     20 ****         2.9742  -0.4822  -1.6945 C.3            1 S1                 0.0000
     21 ****         3.3762   0.6724  -2.6442 C.3            1 S1                 0.0000
     22 ****         2.6224   0.5655  -3.8388 O.3            1 S1                 0.0000
     23 ****         4.8659   0.6502  -2.9936 C.3            1 S1                 0.0000
     24 ****         5.4284   1.8529  -2.2455 C.3            1 S1                 0.0000
     25 ****         4.3656   2.7862  -2.3161 O.3            1 S1                 0.0000
     26 ****         3.1687   2.0748  -2.0371 C.3            1 S1                 0.0000
     27 ****         0.8823  -3.4327   1.9119 H              1 S1                 0.0000
     28 ****        -0.2079  -3.4595   0.5412 H              1 S1                 0.0000
     29 ****        -2.2140  -2.4574   0.4784 H              1 S1                 0.0000
     30 ****        -2.9680  -3.1163   1.8989 H              1 S1                 0.0000
     31 ****        -2.7413  -0.7064   2.9354 H              1 S1                 0.0000
     32 ****        -4.6786  -1.3416   0.6721 H              1 S1                 0.0000
     33 ****        -4.8734  -1.7949   2.3478 H              1 S1                 0.0000
     34 ****        -6.2222   0.2264   1.7764 H              1 S1                 0.0000
     35 ****        -5.0482   0.5657   3.0298 H              1 S1                 0.0000
     36 ****        -4.7428   1.2124   0.0547 H              1 S1                 0.0000
     37 ****        -4.9941   2.3730   1.3399 H              1 S1                 0.0000
     38 ****        -2.5879   2.2341   0.6776 H              1 S1                 0.0000
     39 ****        -2.8208   1.7940   2.3598 H              1 S1                 0.0000
     40 ****         1.4656   1.2595   2.9113 H              1 S1                 0.0000
     41 ****         0.5408  -1.2271  -2.9586 H              1 S1                 0.0000
     42 ****         3.6163  -0.4797  -0.8126 H              1 S1                 0.0000
     43 ****         3.1313  -1.4455  -2.1819 H              1 S1                 0.0000
     44 ****         2.8633   1.2805  -4.4080 H              1 S1                 0.0000
     45 ****         5.3643  -0.2796  -2.7169 H              1 S1                 0.0000
     46 ****         5.0203   0.7962  -4.0641 H              1 S1                 0.0000
     47 ****         5.6349   1.6061  -1.2028 H              1 S1                 0.0000
     48 ****         6.3404   2.2430  -2.6976 H              1 S1                 0.0000
     49 ****         2.2929   2.5961  -2.4259 H              1 S1                 0.0000
     50 ****         3.0660   2.0234  -0.9530 H              1 S1                 0.0000
     51 ****         0.1154  -2.5159   3.8498 LP             1 S1                 0.0000
     52 ****        -1.4885  -1.8683   3.9408 LP             1 S1                 0.0000
     53 ****        -2.6669  -0.1065   0.1715 LP             1 S1                 0.0000
     54 ****        -0.8340   1.0814   2.9074 LP             1 S1                 0.0000
     55 ****         2.7961   0.6105   1.0582 LP             1 S1                 0.0000
     56 ****        -1.5794  -0.8742  -1.6851 LP             1 S1                 0.0000
     57 ****         1.6461   0.6157  -3.6279 LP             1 S1                 0.0000
     58 ****         2.8221  -0.3056  -4.2875 LP             1 S1                 0.0000
     59 ****         4.3212   3.1875  -3.2310 LP             1 S1                 0.0000
     60 ****         4.4996   3.5111  -1.6404 LP             1 S1                 0.0000
@<TRIPOS>BOND
    1    1    2 am    
    2    1   27 1     
    3    1   28 1     
    4    2    3 2     
    5    2    4 1     
    6    4    5 1     
    7    4   29 1     
    8    4   30 1     
    9    5   10 1     
   10    5    6 1     
   11    5   31 1     
   12    6    7 1     
   13    6   32 1     
   14    6   33 1     
   15    7    8 1     
   16    7   34 1     
   17    7   35 1     
   18    8    9 1     
   19    8   36 1     
   20    8   37 1     
   21    9   10 1     
   22    9   38 1     
   23    9   39 1     
   24   10   11 1     
   25   11   16 ar    
   26   11   12 ar    
   27   12   13 ar    
   28   13   14 ar    
   29   13   40 1     
   30   14   15 ar    
   31   15   19 1     
   32   15   16 ar    
   33   16   17 1     
   34   17   18 2     
   35   18   19 1     
   36   18   41 1     
   37   19   20 1     
   38   20   21 1     
   39   20   42 1     
   40   20   43 1     
   41   21   26 1     
   42   21   22 1     
   43   21   23 1     
   44   22   44 1     
   45   23   24 1     
   46   23   45 1     
   47   23   46 1     
   48   24   25 1     
   49   24   47 1     
   50   24   48 1     
   51   25   26 1     
   52   26   49 1     
   53   26   50 1     
   54    3   51 1     
   55    3   52 1     
   56   10   53 1     
   57   12   54 1     
   58   14   55 1     
   59   17   56 1     
   60   22   57 1     
   61   22   58 1     
   62   25   59 1     
   63   25   60 1     
@<TRIPOS>SUBSTRUCTURE
      1 S1             1
@<TRIPOS>SET
LONE_PAIRS      STATIC     ATOMS    <user>   **** ""
10 51 52 53 54 55 56 57 58 59 60
DONOR_HYDROGENS      STATIC     ATOMS    <user>   **** ""
3 27 28 44
ATOM$BLUE        STATIC     ATOMS    COLORGROUP SYSTEM
10 51 52 53 54 55 56 57 58 59 60
ATOM$RED        STATIC     ATOMS    COLORGROUP SYSTEM
3 27 28 44
