#       Name:                AV-unprocessed.smi:1536
#       Creating user name   scv26
#       Creation time:       Fri Mar 27 06:34:53 2020


#       File generated by GOLD software.
#

@<TRIPOS>MOLECULE
AV-unprocessed.smi:1536
    53    54     1
SMALL
NO_CHARGES


@<TRIPOS>ATOM
      1 ****        -1.9871  -3.7623   3.6897 C.3            1 S1                 0.0000
      2 ****        -1.1686  -3.1356   2.5523 C.3            1 S1                 0.0000
      3 ****        -0.5017  -1.8203   2.9889 C.3            1 S1                 0.0000
      4 ****         0.2929  -1.1932   1.8327 C.3            1 S1                 0.0000
      5 ****        -0.5866  -0.9512   0.6547 N.4            1 S1                 1.0000
      6 ****        -0.0008  -0.1297  -0.4519 C.3            1 S1                 0.0000
      7 ****         1.5232  -0.3525  -0.6569 C.3            1 S1                 0.0000
      8 ****         2.0168   0.3573  -1.8326 N.am           1 S1                 0.0000
      9 ****         2.8038   1.4450  -1.8196 C.2            1 S1                 0.0000
     10 ****         3.3079   1.9131  -0.7996 O.2            1 S1                 0.0000
     11 ****         3.0143   2.1398  -3.1637 C.3            1 S1                 0.0000
     12 ****         1.8381   2.9135  -3.5138 N.pl3          1 S1                 0.0000
     13 ****         1.4789   4.1574  -3.1906 C.2            1 S1                 0.0000
     14 ****         0.2911   4.4671  -3.6874 N.2            1 S1                 0.0000
     15 ****        -0.0798   3.3149  -4.3598 N.2            1 S1                 0.0000
     16 ****         0.8337   2.3892  -4.2601 N.2            1 S1                 0.0000
     17 ****        -0.4415   1.3597  -0.3408 C.3            1 S1                 0.0000
     18 ****         0.0811   2.0921   0.9068 C.3            1 S1                 0.0000
     19 ****        -1.9667   1.5164  -0.4671 C.3            1 S1                 0.0000
     20 ****        -1.2146  -2.2132   0.1818 C.3            1 S1                 0.0000
     21 ****        -2.0300  -2.8785   1.3042 C.3            1 S1                 0.0000
     22 ****        -2.7940  -3.1023   4.0095 H              1 S1                 0.0000
     23 ****        -1.3602  -3.9662   4.5582 H              1 S1                 0.0000
     24 ****        -2.4336  -4.7070   3.3780 H              1 S1                 0.0000
     25 ****        -0.3824  -3.8424   2.2819 H              1 S1                 0.0000
     26 ****        -1.2579  -1.1150   3.3372 H              1 S1                 0.0000
     27 ****         0.1637  -2.0021   3.8337 H              1 S1                 0.0000
     28 ****         0.7435  -0.2631   2.1752 H              1 S1                 0.0000
     29 ****         1.1122  -1.8588   1.5573 H              1 S1                 0.0000
     30 ****        -0.4577  -0.4752  -1.3807 H              1 S1                 0.0000
     31 ****         2.0920  -0.0623   0.2268 H              1 S1                 0.0000
     32 ****         1.7220  -1.4135  -0.8116 H              1 S1                 0.0000
     33 ****         1.6631   0.0491  -2.7273 H              1 S1                 0.0000
     34 ****         3.8744   2.8086  -3.1121 H              1 S1                 0.0000
     35 ****         3.2168   1.4066  -3.9459 H              1 S1                 0.0000
     36 ****         2.0759   4.8243  -2.5863 H              1 S1                 0.0000
     37 ****        -0.0300   1.8885  -1.2004 H              1 S1                 0.0000
     38 ****        -0.3818   1.7151   1.8186 H              1 S1                 0.0000
     39 ****        -0.1441   3.1575   0.8497 H              1 S1                 0.0000
     40 ****         1.1616   1.9975   1.0099 H              1 S1                 0.0000
     41 ****        -2.4911   1.0540   0.3695 H              1 S1                 0.0000
     42 ****        -2.3359   1.0602  -1.3862 H              1 S1                 0.0000
     43 ****        -2.2502   2.5690  -0.4911 H              1 S1                 0.0000
     44 ****        -1.8829  -2.0076  -0.6553 H              1 S1                 0.0000
     45 ****        -0.4428  -2.8918  -0.1845 H              1 S1                 0.0000
     46 ****        -2.4536  -3.8162   0.9428 H              1 S1                 0.0000
     47 ****        -2.8750  -2.2392   1.5645 H              1 S1                 0.0000
     48 ****        -1.3571  -0.3961   0.9993 H              1 S1                 0.0000
     49 ****         3.1395   1.4796   0.0857 LP             1 S1                 0.0000
     50 ****         3.8861   2.7271  -0.8558 LP             1 S1                 0.0000
     51 ****        -0.2151   5.3249  -3.5985 LP             1 S1                 0.0000
     52 ****        -0.9395   3.2062  -4.8588 LP             1 S1                 0.0000
     53 ****         0.8003   1.4717  -4.6565 LP             1 S1                 0.0000
@<TRIPOS>BOND
    1    1    2 1     
    2    1   22 1     
    3    1   23 1     
    4    1   24 1     
    5    2   21 1     
    6    2    3 1     
    7    2   25 1     
    8    3    4 1     
    9    3   26 1     
   10    3   27 1     
   11    4    5 1     
   12    4   28 1     
   13    4   29 1     
   14    5    6 1     
   15    5   20 1     
   16    5   48 1     
   17    6    7 1     
   18    6   17 1     
   19    6   30 1     
   20    7    8 1     
   21    7   31 1     
   22    7   32 1     
   23    8    9 am    
   24    8   33 1     
   25    9   10 2     
   26    9   11 1     
   27   11   12 1     
   28   11   34 1     
   29   11   35 1     
   30   12   16 1     
   31   12   13 1     
   32   13   14 2     
   33   13   36 1     
   34   14   15 1     
   35   15   16 2     
   36   17   18 1     
   37   17   19 1     
   38   17   37 1     
   39   18   38 1     
   40   18   39 1     
   41   18   40 1     
   42   19   41 1     
   43   19   42 1     
   44   19   43 1     
   45   20   21 1     
   46   20   44 1     
   47   20   45 1     
   48   21   46 1     
   49   21   47 1     
   50   10   49 1     
   51   10   50 1     
   52   14   51 1     
   53   15   52 1     
   54   16   53 1     
@<TRIPOS>SUBSTRUCTURE
      1 S1             1
@<TRIPOS>SET
LONE_PAIRS      STATIC     ATOMS    <user>   **** ""
5 49 50 51 52 53
DONOR_HYDROGENS      STATIC     ATOMS    <user>   **** ""
2 48 33
ATOM$BLUE        STATIC     ATOMS    COLORGROUP SYSTEM
5 49 50 51 52 53
ATOM$RED        STATIC     ATOMS    COLORGROUP SYSTEM
2 48 33
