AV-unprocessed.smi:2528|AV-procd|sdf|9958|dock2
  -GOLD-   2272013593D 1   1.00000     0.00000
 Structure written by MMmdl.
 43 45  0  0  0  0  0  0  0  0  1 V2000
  144.5822  136.6427  152.8801 O   0  0  0  0  0  0  0  0  0  0  0  0
  145.7544  136.5679  152.5102 C   0  0  0  0  0  0  0  0  0  0  0  0
  146.6753  137.5031  152.7835 N   0  0  0  0  0  0  0  0  0  0  0  0
  146.4317  138.7159  153.5568 C   0  0  0  0  0  0  0  0  0  0  0  0
  147.2427  139.9119  153.0123 C   0  0  2  0  0  0  0  0  0  0  0  0
  148.7622  139.7538  153.2118 C   0  0  0  0  0  0  0  0  0  0  0  0
  149.1715  139.9262  154.6006 N   0  0  0  0  0  0  0  0  0  0  0  0
  150.6211  139.7953  154.7405 C   0  0  0  0  0  0  0  0  0  0  0  0
  151.0869  139.9400  156.1976 C   0  0  0  0  0  0  0  0  0  0  0  0
  150.6192  141.2838  156.7733 C   0  0  0  0  0  0  0  0  0  0  0  0
  149.1032  141.4388  156.5797 C   0  0  0  0  0  0  0  0  0  0  0  0
  148.7078  141.2224  155.1036 C   0  0  2  0  0  0  0  0  0  0  0  0
  147.1831  141.3688  154.9292 C   0  0  0  0  0  0  0  0  0  0  0  0
  146.8130  141.1559  153.5695 O   0  0  0  0  0  0  0  0  0  0  0  0
  146.2825  135.5591  151.7951 N   0  0  0  0  0  0  0  0  0  0  0  0
  145.6318  134.3949  151.3057 C   0  0  0  0  0  0  0  0  0  0  0  0
  146.4952  133.3717  150.8523 C   0  0  0  0  0  0  0  0  0  0  0  0
  145.9479  132.1763  150.3469 C   0  0  0  0  0  0  0  0  0  0  0  0
  144.5494  132.0347  150.3067 C   0  0  0  0  0  0  0  0  0  0  0  0
  143.7614  133.1010  150.7774 C   0  0  0  0  0  0  0  0  0  0  0  0
  144.2838  134.2472  151.2623 N   0  0  0  0  0  0  0  0  0  0  0  0
  147.6155  137.3617  152.4450 H   0  0  0  0  0  0  0  0  0  0  0  0
  145.3628  138.9256  153.5377 H   0  0  0  0  0  0  0  0  0  0  0  0
  146.6816  138.5409  154.6047 H   0  0  0  0  0  0  0  0  0  0  0  0
  147.0600  139.9742  151.9389 H   0  0  0  0  0  0  0  0  0  0  0  0
  149.0792  138.7756  152.8482 H   0  0  0  0  0  0  0  0  0  0  0  0
  149.2737  140.4909  152.5907 H   0  0  0  0  0  0  0  0  0  0  0  0
  150.9391  138.8237  154.3606 H   0  0  0  0  0  0  0  0  0  0  0  0
  151.1215  140.5451  154.1256 H   0  0  0  0  0  0  0  0  0  0  0  0
  150.6822  139.1218  156.7947 H   0  0  0  0  0  0  0  0  0  0  0  0
  152.1729  139.8629  156.2553 H   0  0  0  0  0  0  0  0  0  0  0  0
  150.8766  141.3553  157.8304 H   0  0  0  0  0  0  0  0  0  0  0  0
  151.1382  142.0991  156.2677 H   0  0  0  0  0  0  0  0  0  0  0  0
  148.5820  140.7175  157.2108 H   0  0  0  0  0  0  0  0  0  0  0  0
  148.7890  142.4278  156.9141 H   0  0  0  0  0  0  0  0  0  0  0  0
  149.1818  142.0096  154.5145 H   0  0  0  0  0  0  0  0  0  0  0  0
  146.6471  140.6750  155.5772 H   0  0  0  0  0  0  0  0  0  0  0  0
  146.8649  142.3708  155.2180 H   0  0  0  0  0  0  0  0  0  0  0  0
  147.2643  135.6334  151.5739 H   0  0  0  0  0  0  0  0  0  0  0  0
  147.5677  133.4972  150.8903 H   0  0  0  0  0  0  0  0  0  0  0  0
  146.5908  131.3825  149.9962 H   0  0  0  0  0  0  0  0  0  0  0  0
  144.0922  131.1335  149.9254 H   0  0  0  0  0  0  0  0  0  0  0  0
  142.6837  133.0329  150.7641 H   0  0  0  0  0  0  0  0  0  0  0  0
  1  2  2  0  0  0  0
  2  3  1  0  0  0  0
  2 15  1  0  0  0  0
  3  4  1  0  0  0  0
  3 22  1  0  0  0  0
  4  5  1  0  0  0  0
  4 23  1  0  0  0  0
  4 24  1  0  0  0  0
  5 14  1  0  0  0  0
  5  6  1  0  0  0  0
  5 25  1  0  0  0  0
  6  7  1  0  0  0  0
  6 26  1  0  0  0  0
  6 27  1  0  0  0  0
  7 12  1  0  0  0  0
  7  8  1  0  0  0  0
  8  9  1  0  0  0  0
  8 28  1  0  0  0  0
  8 29  1  0  0  0  0
  9 10  1  0  0  0  0
  9 30  1  0  0  0  0
  9 31  1  0  0  0  0
 10 11  1  0  0  0  0
 10 32  1  0  0  0  0
 10 33  1  0  0  0  0
 11 12  1  0  0  0  0
 11 34  1  0  0  0  0
 11 35  1  0  0  0  0
 12 13  1  0  0  0  0
 12 36  1  0  0  0  0
 13 14  1  0  0  0  0
 13 37  1  0  0  0  0
 13 38  1  0  0  0  0
 15 16  1  0  0  0  0
 15 39  1  0  0  0  0
 16 21  1  0  0  0  0
 16 17  2  0  0  0  0
 17 18  1  0  0  0  0
 17 40  1  0  0  0  0
 18 19  2  0  0  0  0
 18 41  1  0  0  0  0
 19 20  1  0  0  0  0
 19 42  1  0  0  0  0
 20 21  2  0  0  0  0
 20 43  1  0  0  0  0
M  END
> <s_m_source_file>
AV-unprocessed.smi

> <i_m_source_file_index>
2528

> <i_lp_mmshare_version>
43012

> <i_f3d_flags>
0

> <s_epik_input>
bjFbY0hdW2NIXVtjSF1bY0hdYzFbTkhdQyg9TylbTkhdW0NIMl1bQ0BIXShbQ0gyXTIpT1tDSDJdW0NAQEhdKE4yMylbQ0gyXVtDSDJdW0NIMl1bQ0gyXTM=

> <s_epik_cmdline>
J2VwaWtfcHl0aG9uJywgJy1waCcsICc3LjAnLCAnLXRuJywgJzgnLCAnLW1hJywgJzIwMCcsICctbWV0YWxfYmluZGluZycsICctaW1hZScsICc8aW5maWxlLm1hZT4nLCAnLW9tYWUnLCAnPG91dGZpbGUubWFlPic=

> <r_epik_Ionization_Penalty>
1.14192

> <r_epik_Ionization_Penalty_Charging>
0

> <r_epik_Ionization_Penalty_Neutral>
1.14192

> <r_epik_State_Penalty>
1.20248

> <r_epik_Charging_Adjusted_Penalty>
1.20248

> <i_epik_Tot_Q>
0

> <i_epik_Tot_abs_Q>
0

> <r_epik_Metal_State_Penalty>
1.20248

> <b_epik_Metal_Only>
0

> <s_lp_Force_Field>
OPLS_2005

> <r_lp_Energy>
38.2617

> <b_lp_Chiralities_Consistent>
1

> <s_lp_Variant>
AV-unprocessed.smi:2528-11

> <Gold.Version>
5.8.1

> <Gold.Id.Protein>
6NUR|6NUR_protein|mol2

> <Gold.PLP.Fitness>
39.3080

> <Gold.PLP.PLP>
-30.8545

> <Gold.PLP.part.hbond>
-2.0000

> <Gold.PLP.part.metal>
0.0000

> <Gold.PLP.part.buried>
2.3981

> <Gold.PLP.part.nonpolar>
-32.2963

> <Gold.PLP.part.repulsive>
0.6838

> <Gold.PLP.ligand.clash>
0.0000

> <Gold.PLP.ligand.torsion>
0.2638

> <Gold.PLP.Chemscore.Hbond>
2.0000

> <Gold.PLP.Chemscore.CHOScore>
0.9913

> <Gold.PLP.Chemscore.Metal>
0.0000

> <Gold.Chemscore.Hbonds>
donor molecule, donor type, donor heavy atom, donor atom, acceptor molecule, acceptor atom, score
      L1  H     3    22       P1  7948  1.00
      L1  H    15    39       P1  7948  1.00
      L1  C    20    43       P1 10186  1.00

> <Gold.PLP.Chemscore.Internal.Correction>
0.0074

> <Gold.Rescore>
     Score         DG    S(hbond)    S(metal)    S(lipo)     H(rot)  DE(clash)    DE(int)     intcor
     15.63     -18.76       1.96        0.00      85.51       1.27       1.65       1.48       ----

> <Gold.Chemscore.Fitness>
15.6293

> <Gold.Chemscore.DG>
-18.7648

> <Gold.Chemscore.ZeroCoef>
-5.4800

> <Gold.Chemscore.Hbond>
1.9551

> <Gold.Chemscore.Metal>
0.0000

> <Gold.Chemscore.Lipo>
85.5118

> <Gold.Chemscore.Internal_Hbond>
0.0000

> <Gold.Chemscore.DEClash>
1.6508

> <Gold.Chemscore.DEInternal>
1.4846

> <Gold.Chemscore.Rot>
1.2696

> <Gold.Chemscore.Internal.Correction>
   9.000000E+99

> <Gold.Chemscore.Hbonds>
donor molecule, donor type, donor heavy atom, donor atom, acceptor molecule, acceptor atom, score
      L1  H     3    22       P1  7948  0.95
      L1  H    15    39       P1  7948  0.97

> <Gold.Chemscore.Hbond.Weighted>
-6.5301

> <Gold.Chemscore.Metal.Weighted>
-0.0000

> <Gold.Chemscore.Lipo.Weighted>
-10.0049

> <Gold.Chemscore.Internal_Hbond.Weighted>
0.0000

> <Gold.Chemscore.DEClash.Weighted>
1.6508

> <Gold.Chemscore.DEInternal.Weighted>
1.4846

> <Gold.Chemscore.Rot.Weighted>
3.2502

> <Gold.Chemscore.Internal.Correction.Weighted>
   9.000000E+99

> <Gold.Protein.RotatedTorsions>
[ 6907 6896 6895 6894 ] final   13.16 input  -60.11 | X-H torsion
[ 7974 7965 7964 7962 ] final  -22.13 input  175.53 | X-H torsion
[ 8008 7997 7996 7995 ] final   33.04 input   59.86 | X-H torsion
[ 10167 10162 10161 10158 ] final  -49.54 input  -65.29 | X-H torsion
[ 10718 10713 10712 10709 ] final   39.99 input   66.30 | X-H torsion
[ 10763 10752 10751 10750 ] final  122.62 input  -60.55 | X-H torsion
[ 11005 11000 10999 10996 ] final -171.70 input  -57.11 | X-H torsion

> <Gold.Protein.ActiveResidues>
 VAL166  LYS551  ARG553  GLY616  TRP617  ASP618  TYR619  PRO620  LYS621  CYS622 
 ASP623  PHE694  ASN695  SER759  ASP760  ASP761  ALA762  ILE779  LEU786  VAL792 
 PHE793  MET794  SER795  GLU796  ALA797  LYS798  CYS799  TRP800  GLU811  SER814 

> <Gold.Protein.RotatedAtoms>
  151.7819  135.0759  160.0374 H   0  0  0  0  0  0  0  0  0  0  0  0  # atno 6907 bound_to 6896
  152.3217  133.5856  159.5757 H   0  0  0  0  0  0  0  0  0  0  0  0  # atno 6908 bound_to 6896
  150.7373  133.9917  159.3651 H   0  0  0  0  0  0  0  0  0  0  0  0  # atno 6909 bound_to 6896
  146.1693  140.4436  142.8539 H   0  0  0  0  0  0  0  0  0  0  0  0  # atno 7974 bound_to 7965
  155.1322  140.3258  155.4471 H   0  0  0  0  0  0  0  0  0  0  0  0  # atno 8008 bound_to 7997
  156.2631  140.2008  156.6389 H   0  0  0  0  0  0  0  0  0  0  0  0  # atno 8009 bound_to 7997
  154.6604  140.0548  157.0043 H   0  0  0  0  0  0  0  0  0  0  0  0  # atno 8010 bound_to 7997
  140.6680  143.2693  151.4230 H   0  0  0  0  0  0  0  0  0  0  0  0  # atno 10167 bound_to 10162
  157.3770  130.7732  149.7163 H   0  0  0  0  0  0  0  0  0  0  0  0  # atno 10718 bound_to 10713
  153.6326  135.3393  155.3046 H   0  0  0  0  0  0  0  0  0  0  0  0  # atno 10763 bound_to 10752
  154.8577  135.4299  154.2089 H   0  0  0  0  0  0  0  0  0  0  0  0  # atno 10764 bound_to 10752
  153.2989  135.7023  153.7295 H   0  0  0  0  0  0  0  0  0  0  0  0  # atno 10765 bound_to 10752
  140.5053  134.5854  157.5001 H   0  0  0  0  0  0  0  0  0  0  0  0  # atno 11005 bound_to 11000
  144.8139  140.6434  143.6397 LP  0  0  0  0  0  0  0  0  0  0  0  0  # atno 17320 bound_to 7965
  145.4382  139.1539  143.3985 LP  0  0  0  0  0  0  0  0  0  0  0  0  # atno 17321 bound_to 7965
  139.5936  144.1445  152.2118 LP  0  0  0  0  0  0  0  0  0  0  0  0  # atno 17342 bound_to 10162
  140.0807  144.5703  150.7124 LP  0  0  0  0  0  0  0  0  0  0  0  0  # atno 17343 bound_to 10162
  155.9767  130.4072  150.3759 LP  0  0  0  0  0  0  0  0  0  0  0  0  # atno 17370 bound_to 10713
  157.1857  131.0403  151.2726 LP  0  0  0  0  0  0  0  0  0  0  0  0  # atno 17371 bound_to 10713
  139.9690  134.7325  156.0080 LP  0  0  0  0  0  0  0  0  0  0  0  0  # atno 17394 bound_to 11000
  141.1414  133.6564  156.3741 LP  0  0  0  0  0  0  0  0  0  0  0  0  # atno 17395 bound_to 11000

$$$$
