AV-unprocessed.smi:633|AV-procd|sdf|3131|dock2
  -GOLD-   22720 0 53D 1   1.00000     0.00000
 Structure written by MMmdl.
 53 56  0  0  0  0  0  0  0  0  1 V2000
  151.2471  144.6134  158.7888 C   0  0  0  0  0  0  0  0  0  0  0  0
  152.0854  143.3646  158.4964 C   0  0  2  0  0  0  0  0  0  0  0  0
  151.2564  142.2544  157.8236 C   0  0  0  0  0  0  0  0  0  0  0  0
  152.0597  141.0442  157.6637 N   0  0  0  0  0  0  0  0  0  0  0  0
  151.5483  140.0126  156.8472 C   0  0  0  0  0  0  0  0  0  0  0  0
  150.8942  140.3284  155.6339 C   0  0  0  0  0  0  0  0  0  0  0  0
  150.3962  139.2884  154.8262 C   0  0  0  0  0  0  0  0  0  0  0  0
  150.5685  137.9488  155.2483 C   0  0  0  0  0  0  0  0  0  0  0  0
  150.1131  136.8047  154.5352 N   0  0  0  0  0  0  0  0  0  0  0  0
  150.0625  135.5197  154.9281 C   0  0  0  0  0  0  0  0  0  0  0  0
  150.4088  135.0943  156.0293 O   0  0  0  0  0  0  0  0  0  0  0  0
  149.5710  134.7381  153.9558 N   0  0  0  0  0  0  0  0  0  0  0  0
  149.3955  133.2912  154.0354 C   0  0  0  0  0  0  0  0  0  0  0  0
  150.6942  132.5699  154.3553 C   0  0  0  0  0  0  0  0  0  0  0  0
  150.7005  131.1502  154.8718 C   0  0  0  0  0  0  0  0  0  0  0  0
  151.1051  132.2881  155.7813 C   0  0  0  0  0  0  0  0  0  0  0  0
  148.7768  132.7319  152.7674 C   0  0  0  0  0  0  0  0  0  0  0  0
  147.3278  132.9887  152.4301 C   0  0  0  0  0  0  0  0  0  0  0  0
  147.7809  131.5969  152.8108 C   0  0  0  0  0  0  0  0  0  0  0  0
  151.2200  137.7355  156.4798 C   0  0  0  0  0  0  0  0  0  0  0  0
  151.6965  138.7296  157.2584 N   0  0  0  0  0  0  0  0  0  0  0  0
  152.6911  140.6037  158.9046 C   0  0  0  0  0  0  0  0  0  0  0  0
  153.4745  141.7615  159.5519 C   0  0  2  0  0  0  0  0  0  0  0  0
  154.0458  141.3755  160.9205 C   0  0  0  0  0  0  0  0  0  0  0  0
  152.6049  142.8763  159.7302 O   0  0  0  0  0  0  0  0  0  0  0  0
  150.8349  145.0330  157.8710 H   0  0  0  0  0  0  0  0  0  0  0  0
  151.8519  145.3856  159.2649 H   0  0  0  0  0  0  0  0  0  0  0  0
  150.4155  144.3830  159.4554 H   0  0  0  0  0  0  0  0  0  0  0  0
  152.9150  143.6493  157.8464 H   0  0  0  0  0  0  0  0  0  0  0  0
  150.3757  142.0248  158.4252 H   0  0  0  0  0  0  0  0  0  0  0  0
  150.9058  142.6022  156.8509 H   0  0  0  0  0  0  0  0  0  0  0  0
  150.7553  141.3529  155.3219 H   0  0  0  0  0  0  0  0  0  0  0  0
  149.8880  139.5493  153.9122 H   0  0  0  0  0  0  0  0  0  0  0  0
  149.7521  136.9941  153.6116 H   0  0  0  0  0  0  0  0  0  0  0  0
  149.3077  135.1762  153.0853 H   0  0  0  0  0  0  0  0  0  0  0  0
  148.6951  133.0738  154.8446 H   0  0  0  0  0  0  0  0  0  0  0  0
  151.5054  132.8218  153.6742 H   0  0  0  0  0  0  0  0  0  0  0  0
  149.7432  130.6725  155.0694 H   0  0  0  0  0  0  0  0  0  0  0  0
  151.4862  130.4891  154.5123 H   0  0  0  0  0  0  0  0  0  0  0  0
  152.1603  132.3873  156.0277 H   0  0  0  0  0  0  0  0  0  0  0  0
  150.4136  132.5643  156.5746 H   0  0  0  0  0  0  0  0  0  0  0  0
  149.4609  132.7217  151.9206 H   0  0  0  0  0  0  0  0  0  0  0  0
  146.7295  133.5384  153.1542 H   0  0  0  0  0  0  0  0  0  0  0  0
  147.0803  133.1709  151.3864 H   0  0  0  0  0  0  0  0  0  0  0  0
  147.8351  130.8511  152.0206 H   0  0  0  0  0  0  0  0  0  0  0  0
  147.4748  131.2218  153.7854 H   0  0  0  0  0  0  0  0  0  0  0  0
  151.3687  136.7331  156.8548 H   0  0  0  0  0  0  0  0  0  0  0  0
  151.9147  140.2489  159.5838 H   0  0  0  0  0  0  0  0  0  0  0  0
  153.3680  139.7674  158.7345 H   0  0  0  0  0  0  0  0  0  0  0  0
  154.3012  142.0534  158.9018 H   0  0  0  0  0  0  0  0  0  0  0  0
  154.7305  140.5311  160.8363 H   0  0  0  0  0  0  0  0  0  0  0  0
  153.2524  141.0959  161.6142 H   0  0  0  0  0  0  0  0  0  0  0  0
  154.5958  142.2071  161.3612 H   0  0  0  0  0  0  0  0  0  0  0  0
  1  2  1  0  0  0  0
  1 26  1  0  0  0  0
  1 27  1  0  0  0  0
  1 28  1  0  0  0  0
  2 25  1  0  0  0  0
  2  3  1  0  0  0  0
  2 29  1  0  0  0  0
  3  4  1  0  0  0  0
  3 30  1  0  0  0  0
  3 31  1  0  0  0  0
  4  5  1  0  0  0  0
  4 22  1  0  0  0  0
  5 21  1  0  0  0  0
  5  6  2  0  0  0  0
  6  7  1  0  0  0  0
  6 32  1  0  0  0  0
  7  8  2  0  0  0  0
  7 33  1  0  0  0  0
  8  9  1  0  0  0  0
  8 20  1  0  0  0  0
  9 10  1  0  0  0  0
  9 34  1  0  0  0  0
 10 11  2  0  0  0  0
 10 12  1  0  0  0  0
 12 13  1  0  0  0  0
 12 35  1  0  0  0  0
 13 14  1  0  0  0  0
 13 17  1  0  0  0  0
 13 36  1  0  0  0  0
 14 16  1  0  0  0  0
 14 15  1  0  0  0  0
 14 37  1  0  0  0  0
 15 16  1  0  0  0  0
 15 38  1  0  0  0  0
 15 39  1  0  0  0  0
 16 40  1  0  0  0  0
 16 41  1  0  0  0  0
 17 19  1  0  0  0  0
 17 18  1  0  0  0  0
 17 42  1  0  0  0  0
 18 19  1  0  0  0  0
 18 43  1  0  0  0  0
 18 44  1  0  0  0  0
 19 45  1  0  0  0  0
 19 46  1  0  0  0  0
 20 21  2  0  0  0  0
 20 47  1  0  0  0  0
 22 23  1  0  0  0  0
 22 48  1  0  0  0  0
 22 49  1  0  0  0  0
 23 24  1  0  0  0  0
 23 25  1  0  0  0  0
 23 50  1  0  0  0  0
 24 51  1  0  0  0  0
 24 52  1  0  0  0  0
 24 53  1  0  0  0  0
M  END
> <s_m_source_file>
AV-unprocessed.smi

> <i_m_source_file_index>
633

> <i_lp_mmshare_version>
43012

> <i_f3d_flags>
0

> <s_epik_input>
W0NIM11bQ0BASF0xW0NIMl1OKFtDSDJdW0NASF0oTzEpW0NIM10pYzJbY0hdW2NIXWMoW2NIXW4yKVtOSF1DKD1PKVtOSF1bQ0hdKFtDSF0zW0NIMl1bQ0gyXTMpW0NIXTRbQ0gyXVtDSDJdNA==

> <s_epik_cmdline>
J2VwaWtfcHl0aG9uJywgJy1waCcsICc3LjAnLCAnLXRuJywgJzgnLCAnLW1hJywgJzIwMCcsICctbWV0YWxfYmluZGluZycsICctaW1hZScsICc8aW5maWxlLm1hZT4nLCAnLW9tYWUnLCAnPG91dGZpbGUubWFlPic=

> <r_lp_tautomer_probability>
1

> <r_epik_Ionization_Penalty>
0.00291159

> <r_epik_Ionization_Penalty_Charging>
0

> <r_epik_Ionization_Penalty_Neutral>
0.00291159

> <r_epik_State_Penalty>
0.00200877

> <r_epik_Charging_Adjusted_Penalty>
0.00200877

> <i_epik_Tot_Q>
0

> <i_epik_Tot_abs_Q>
0

> <r_epik_Metal_State_Penalty>
-0

> <b_epik_Metal_Only>
0

> <s_lp_Force_Field>
OPLS_2005

> <r_lp_Energy>
40.0006

> <b_lp_Chiralities_Consistent>
1

> <s_lp_Variant>
AV-unprocessed.smi:633-2

> <Gold.Version>
5.8.1

> <Gold.Id.Protein>
6NUR|6NUR_protein|mol2

> <Gold.PLP.Fitness>
52.8147

> <Gold.PLP.PLP>
-47.2919

> <Gold.PLP.part.hbond>
-2.0000

> <Gold.PLP.part.metal>
0.0000

> <Gold.PLP.part.buried>
-4.8167

> <Gold.PLP.part.nonpolar>
-40.6046

> <Gold.PLP.part.repulsive>
0.0765

> <Gold.PLP.ligand.clash>
0.0000

> <Gold.PLP.ligand.torsion>
1.4011

> <Gold.PLP.Chemscore.Hbond>
1.9516

> <Gold.PLP.Chemscore.CHOScore>
0.0000

> <Gold.PLP.Chemscore.Metal>
0.0000

> <Gold.Chemscore.Hbonds>
donor molecule, donor type, donor heavy atom, donor atom, acceptor molecule, acceptor atom, score
      L1  H     9    34       P1  7948  0.94
      L1  H    12    35       P1  7948  0.55

> <Gold.PLP.Chemscore.Internal.Correction>
2.4701

> <Gold.Rescore>
     Score         DG    S(hbond)    S(metal)    S(lipo)     H(rot)  DE(clash)    DE(int)     intcor
     17.47     -20.84       1.75        0.00     111.94       1.40       0.01       3.36       ----

> <Gold.Chemscore.Fitness>
17.4664

> <Gold.Chemscore.DG>
-20.8415

> <Gold.Chemscore.ZeroCoef>
-5.4800

> <Gold.Chemscore.Hbond>
1.7529

> <Gold.Chemscore.Metal>
0.0000

> <Gold.Chemscore.Lipo>
111.9365

> <Gold.Chemscore.Internal_Hbond>
0.0000

> <Gold.Chemscore.DEClash>
0.0146

> <Gold.Chemscore.DEInternal>
3.3606

> <Gold.Chemscore.Rot>
1.4022

> <Gold.Chemscore.Internal.Correction>
   9.000000E+99

> <Gold.Chemscore.Hbonds>
donor molecule, donor type, donor heavy atom, donor atom, acceptor molecule, acceptor atom, score
      L1  H     9    34       P1  7948  0.55
      L1  H    12    35       P1  7948  0.03

> <Gold.Chemscore.Hbond.Weighted>
-5.8547

> <Gold.Chemscore.Metal.Weighted>
-0.0000

> <Gold.Chemscore.Lipo.Weighted>
-13.0966

> <Gold.Chemscore.Internal_Hbond.Weighted>
0.0000

> <Gold.Chemscore.DEClash.Weighted>
0.0146

> <Gold.Chemscore.DEInternal.Weighted>
3.3606

> <Gold.Chemscore.Rot.Weighted>
3.5897

> <Gold.Chemscore.Internal.Correction.Weighted>
   9.000000E+99

> <Gold.Protein.RotatedTorsions>
[ 6907 6896 6895 6894 ] final -138.02 input  -60.11 | X-H torsion
[ 7974 7965 7964 7962 ] final  -76.53 input  175.53 | X-H torsion
[ 8008 7997 7996 7995 ] final  151.72 input   59.86 | X-H torsion
[ 10167 10162 10161 10158 ] final  101.84 input  -65.29 | X-H torsion
[ 10718 10713 10712 10709 ] final  165.99 input   66.30 | X-H torsion
[ 10763 10752 10751 10750 ] final  -77.18 input  -60.55 | X-H torsion
[ 11005 11000 10999 10996 ] final   10.94 input  -57.11 | X-H torsion

> <Gold.Protein.ActiveResidues>
 VAL166  LYS551  ARG553  GLY616  TRP617  ASP618  TYR619  PRO620  LYS621  CYS622 
 ASP623  PHE694  ASN695  SER759  ASP760  ASP761  ALA762  ILE779  LEU786  VAL792 
 PHE793  MET794  SER795  GLU796  ALA797  LYS798  CYS799  TRP800  GLU811  SER814 

> <Gold.Protein.RotatedAtoms>
  151.0298  133.5801  159.2661 H   0  0  0  0  0  0  0  0  0  0  0  0  # atno 6907 bound_to 6896
  151.2887  135.0734  159.9206 H   0  0  0  0  0  0  0  0  0  0  0  0  # atno 6908 bound_to 6896
  152.5342  134.0000  159.7944 H   0  0  0  0  0  0  0  0  0  0  0  0  # atno 6909 bound_to 6896
  145.6117  140.9385  143.1186 H   0  0  0  0  0  0  0  0  0  0  0  0  # atno 7974 bound_to 7965
  156.2661  140.2040  156.6220 H   0  0  0  0  0  0  0  0  0  0  0  0  # atno 8008 bound_to 7997
  154.6749  140.0546  157.0229 H   0  0  0  0  0  0  0  0  0  0  0  0  # atno 8009 bound_to 7997
  155.1083  140.3213  155.4531 H   0  0  0  0  0  0  0  0  0  0  0  0  # atno 8010 bound_to 7997
  139.7402  144.7013  151.0587 H   0  0  0  0  0  0  0  0  0  0  0  0  # atno 10167 bound_to 10162
  157.0722  131.0369  151.2607 H   0  0  0  0  0  0  0  0  0  0  0  0  # atno 10718 bound_to 10713
  154.5096  135.5772  153.6594 H   0  0  0  0  0  0  0  0  0  0  0  0  # atno 10763 bound_to 10752
  152.9894  135.6155  154.2896 H   0  0  0  0  0  0  0  0  0  0  0  0  # atno 10764 bound_to 10752
  154.2810  135.2851  155.2676 H   0  0  0  0  0  0  0  0  0  0  0  0  # atno 10765 bound_to 10752
  140.5089  134.0672  155.7813 H   0  0  0  0  0  0  0  0  0  0  0  0  # atno 11005 bound_to 11000
  144.7267  139.7853  143.7362 LP  0  0  0  0  0  0  0  0  0  0  0  0  # atno 17320 bound_to 7965
  146.1499  139.4580  143.0055 LP  0  0  0  0  0  0  0  0  0  0  0  0  # atno 17321 bound_to 7965
  140.7785  143.4933  150.9864 LP  0  0  0  0  0  0  0  0  0  0  0  0  # atno 17342 bound_to 10162
  139.8622  143.7300  152.3172 LP  0  0  0  0  0  0  0  0  0  0  0  0  # atno 17343 bound_to 10162
  157.4868  130.7798  149.7468 LP  0  0  0  0  0  0  0  0  0  0  0  0  # atno 17370 bound_to 10713
  155.9947  130.3916  150.2848 LP  0  0  0  0  0  0  0  0  0  0  0  0  # atno 17371 bound_to 10713
  141.1396  133.9161  157.2355 LP  0  0  0  0  0  0  0  0  0  0  0  0  # atno 17394 bound_to 11000
  139.9670  135.0139  156.9414 LP  0  0  0  0  0  0  0  0  0  0  0  0  # atno 17395 bound_to 11000

$$$$
