AV-unprocessed.smi:926|AV-procd|sdf|4185|dock10
  -GOLD-   22720 2 93D 1   1.00000     0.00000
 Structure written by MMmdl.
 37 39  0  0  0  0  0  0  0  0  1 V2000
  150.6214  140.3302  154.7189 O   0  0  0  0  0  0  0  0  0  0  0  0
  151.2205  139.4684  155.3618 C   0  0  0  0  0  0  0  0  0  0  0  0
  151.8275  138.2643  154.6414 C   0  0  0  0  0  0  0  0  0  0  0  0
  151.3063  137.0227  155.1795 N   0  0  0  0  0  0  0  0  0  0  0  0
  150.1426  136.4000  154.9800 C   0  0  0  0  0  0  0  0  0  0  0  0
  150.0630  135.2775  155.6784 N   0  0  0  0  0  0  0  0  0  0  0  0
  151.2764  135.2349  156.3447 N   0  0  0  0  0  0  0  0  0  0  0  0
  152.0180  136.2683  156.0536 N   0  0  0  0  0  0  0  0  0  0  0  0
  151.3778  139.5131  156.6938 N   0  0  0  0  0  0  0  0  0  0  0  0
  150.8762  140.5722  157.5615 C   0  0  0  0  0  0  0  0  0  0  0  0
  152.0252  141.3791  158.1907 C   0  0  0  0  0  0  0  0  0  0  0  0
  151.5304  142.5520  159.0600 C   0  0  2  0  0  0  0  0  0  0  0  0
  150.5862  143.5266  158.3171 C   0  0  0  0  0  0  0  0  0  0  0  0
  151.2677  144.8929  158.5132 C   0  0  1  0  0  0  0  0  0  0  0  0
  151.1625  145.3153  159.9904 C   0  0  0  0  0  0  0  0  0  0  0  0
  152.1547  144.3641  160.6858 C   0  0  0  0  0  0  0  0  0  0  0  0
  152.6660  143.4957  159.5201 C   0  0  2  0  0  0  0  0  0  0  0  0
  152.7395  144.5207  158.3921 C   0  0  0  0  0  0  0  0  0  0  0  0
  151.5871  138.3146  153.5785 H   0  0  0  0  0  0  0  0  0  0  0  0
  152.9157  138.2674  154.7257 H   0  0  0  0  0  0  0  0  0  0  0  0
  149.3612  136.7670  154.3308 H   0  0  0  0  0  0  0  0  0  0  0  0
  151.8807  138.7589  157.1389 H   0  0  0  0  0  0  0  0  0  0  0  0
  150.2434  141.2239  156.9591 H   0  0  0  0  0  0  0  0  0  0  0  0
  150.2342  140.1513  158.3373 H   0  0  0  0  0  0  0  0  0  0  0  0
  152.6268  140.7139  158.8115 H   0  0  0  0  0  0  0  0  0  0  0  0
  152.6901  141.7442  157.4074 H   0  0  0  0  0  0  0  0  0  0  0  0
  151.0283  142.1363  159.9350 H   0  0  0  0  0  0  0  0  0  0  0  0
  150.5249  143.2907  157.2539 H   0  0  0  0  0  0  0  0  0  0  0  0
  149.5722  143.5074  158.7180 H   0  0  0  0  0  0  0  0  0  0  0  0
  150.9259  145.6561  157.8137 H   0  0  0  0  0  0  0  0  0  0  0  0
  151.4696  146.3536  160.1222 H   0  0  0  0  0  0  0  0  0  0  0  0
  150.1476  145.2136  160.3765 H   0  0  0  0  0  0  0  0  0  0  0  0
  152.9736  144.9277  161.1348 H   0  0  0  0  0  0  0  0  0  0  0  0
  151.6863  143.7742  161.4745 H   0  0  0  0  0  0  0  0  0  0  0  0
  153.6045  142.9867  159.7429 H   0  0  0  0  0  0  0  0  0  0  0  0
  152.9999  144.0903  157.4241 H   0  0  0  0  0  0  0  0  0  0  0  0
  153.4142  145.3519  158.6051 H   0  0  0  0  0  0  0  0  0  0  0  0
  1  2  2  0  0  0  0
  2  3  1  0  0  0  0
  2  9  1  0  0  0  0
  3  4  1  0  0  0  0
  3 19  1  0  0  0  0
  3 20  1  0  0  0  0
  4  8  1  0  0  0  0
  4  5  1  0  0  0  0
  5  6  2  0  0  0  0
  5 21  1  0  0  0  0
  6  7  1  0  0  0  0
  7  8  2  0  0  0  0
  9 10  1  0  0  0  0
  9 22  1  0  0  0  0
 10 11  1  0  0  0  0
 10 23  1  0  0  0  0
 10 24  1  0  0  0  0
 11 12  1  0  0  0  0
 11 25  1  0  0  0  0
 11 26  1  0  0  0  0
 12 17  1  0  0  0  0
 12 13  1  0  0  0  0
 12 27  1  0  0  0  0
 13 14  1  0  0  0  0
 13 28  1  0  0  0  0
 13 29  1  0  0  0  0
 14 18  1  0  0  0  0
 14 15  1  0  0  0  0
 14 30  1  0  0  0  0
 15 16  1  0  0  0  0
 15 31  1  0  0  0  0
 15 32  1  0  0  0  0
 16 17  1  0  0  0  0
 16 33  1  0  0  0  0
 16 34  1  0  0  0  0
 17 18  1  0  0  0  0
 17 35  1  0  0  0  0
 18 36  1  0  0  0  0
 18 37  1  0  0  0  0
M  END
> <s_m_source_file>
AV-unprocessed.smi

> <i_m_source_file_index>
926

> <i_lp_mmshare_version>
43012

> <i_f3d_flags>
0

> <s_epik_input>
bjFubltjSF1uMVtDSDJdQyg9TylbTkhdW0NIMl1bQ0gyXVtDQEhdKFtDSDJdW0NASF0yMylbQ0BIXShbQ0gyXTMpW0NIMl1bQ0gyXTI=

> <s_epik_cmdline>
J2VwaWtfcHl0aG9uJywgJy1waCcsICc3LjAnLCAnLXRuJywgJzgnLCAnLW1hJywgJzIwMCcsICctbWV0YWxfYmluZGluZycsICctaW1hZScsICc8aW5maWxlLm1hZT4nLCAnLW9tYWUnLCAnPG91dGZpbGUubWFlPic=

> <r_lp_tautomer_probability>
1

> <r_epik_Ionization_Penalty>
4.22645e-07

> <r_epik_Ionization_Penalty_Charging>
0

> <r_epik_Ionization_Penalty_Neutral>
4.22645e-07

> <r_epik_State_Penalty>
-0

> <r_epik_Charging_Adjusted_Penalty>
0

> <i_epik_Tot_Q>
0

> <i_epik_Tot_abs_Q>
0

> <r_epik_Metal_State_Penalty>
-0

> <b_epik_Metal_Only>
0

> <s_lp_Force_Field>
OPLS_2005

> <r_lp_Energy>
50.9279

> <b_lp_Chiralities_Consistent>
1

> <s_lp_Variant>
AV-unprocessed.smi:926-3

> <Gold.Version>
5.8.1

> <Gold.Id.Protein>
6NUR|6NUR_protein|mol2

> <Gold.PLP.Fitness>
48.8434

> <Gold.PLP.PLP>
-40.5649

> <Gold.PLP.part.hbond>
-2.1684

> <Gold.PLP.part.metal>
0.0000

> <Gold.PLP.part.buried>
-5.8587

> <Gold.PLP.part.nonpolar>
-33.4181

> <Gold.PLP.part.repulsive>
0.2600

> <Gold.PLP.ligand.clash>
0.0000

> <Gold.PLP.ligand.torsion>
0.3139

> <Gold.PLP.Chemscore.Hbond>
2.0000

> <Gold.PLP.Chemscore.CHOScore>
0.9538

> <Gold.PLP.Chemscore.Metal>
0.0000

> <Gold.Chemscore.Hbonds>
donor molecule, donor type, donor heavy atom, donor atom, acceptor molecule, acceptor atom, score
      P1  H  7989  7998       L1     1  1.00
      P1  H 10752 10763       L1     8  0.90
      L1  C     5    21       P1  7948  0.94

> <Gold.PLP.Chemscore.Internal.Correction>
0.0449

> <Gold.Rescore>
     Score         DG    S(hbond)    S(metal)    S(lipo)     H(rot)  DE(clash)    DE(int)     intcor
     17.26     -17.50       1.85        0.00     105.66       2.54       0.14       0.10       ----

> <Gold.Chemscore.Fitness>
17.2564

> <Gold.Chemscore.DG>
-17.4960

> <Gold.Chemscore.ZeroCoef>
-5.4800

> <Gold.Chemscore.Hbond>
1.8459

> <Gold.Chemscore.Metal>
0.0000

> <Gold.Chemscore.Lipo>
105.6617

> <Gold.Chemscore.Internal_Hbond>
0.0000

> <Gold.Chemscore.DEClash>
0.1380

> <Gold.Chemscore.DEInternal>
0.1016

> <Gold.Chemscore.Rot>
2.5436

> <Gold.Chemscore.Internal.Correction>
   9.000000E+99

> <Gold.Chemscore.Hbonds>
donor molecule, donor type, donor heavy atom, donor atom, acceptor molecule, acceptor atom, score
      P1  H  7989  7998       L1     1  0.69
      P1  H 10752 10763       L1     8  0.05

> <Gold.Chemscore.Hbond.Weighted>
-6.1653

> <Gold.Chemscore.Metal.Weighted>
-0.0000

> <Gold.Chemscore.Lipo.Weighted>
-12.3624

> <Gold.Chemscore.Internal_Hbond.Weighted>
0.0000

> <Gold.Chemscore.DEClash.Weighted>
0.1380

> <Gold.Chemscore.DEInternal.Weighted>
0.1016

> <Gold.Chemscore.Rot.Weighted>
6.5117

> <Gold.Chemscore.Internal.Correction.Weighted>
   9.000000E+99

> <Gold.Protein.RotatedTorsions>
[ 6907 6896 6895 6894 ] final   30.12 input  -60.11 | X-H torsion
[ 7974 7965 7964 7962 ] final  -82.86 input  175.53 | X-H torsion
[ 8008 7997 7996 7995 ] final  150.46 input   59.86 | X-H torsion
[ 10167 10162 10161 10158 ] final  -71.36 input  -65.29 | X-H torsion
[ 10718 10713 10712 10709 ] final  169.77 input   66.30 | X-H torsion
[ 10763 10752 10751 10750 ] final   86.16 input  -60.55 | X-H torsion
[ 11005 11000 10999 10996 ] final -136.74 input  -57.11 | X-H torsion

> <Gold.Protein.ActiveResidues>
 VAL166  LYS551  ARG553  GLY616  TRP617  ASP618  TYR619  PRO620  LYS621  CYS622 
 ASP623  PHE694  ASN695  SER759  ASP760  ASP761  ALA762  ILE779  LEU786  VAL792 
 PHE793  MET794  SER795  GLU796  ALA797  LYS798  CYS799  TRP800  GLU811  SER814 

> <Gold.Protein.RotatedAtoms>
  152.0413  134.9709  160.0573 H   0  0  0  0  0  0  0  0  0  0  0  0  # atno 6907 bound_to 6896
  152.1147  133.4315  159.4655 H   0  0  0  0  0  0  0  0  0  0  0  0  # atno 6908 bound_to 6896
  150.6845  134.2525  159.4560 H   0  0  0  0  0  0  0  0  0  0  0  0  # atno 6909 bound_to 6896
  145.5276  140.9525  143.1621 H   0  0  0  0  0  0  0  0  0  0  0  0  # atno 7974 bound_to 7965
  156.2714  140.2074  156.6021 H   0  0  0  0  0  0  0  0  0  0  0  0  # atno 8008 bound_to 7997
  154.6898  140.0531  157.0375 H   0  0  0  0  0  0  0  0  0  0  0  0  # atno 8009 bound_to 7997
  155.0882  140.3194  155.4584 H   0  0  0  0  0  0  0  0  0  0  0  0  # atno 8010 bound_to 7997
  140.5279  143.2324  151.7314 H   0  0  0  0  0  0  0  0  0  0  0  0  # atno 10167 bound_to 10162
  157.0178  131.0223  151.2784 H   0  0  0  0  0  0  0  0  0  0  0  0  # atno 10718 bound_to 10713
  153.1544  135.4590  154.9683 H   0  0  0  0  0  0  0  0  0  0  0  0  # atno 10763 bound_to 10752
  154.7850  135.3201  154.7909 H   0  0  0  0  0  0  0  0  0  0  0  0  # atno 10764 bound_to 10752
  153.8409  135.6930  153.4857 H   0  0  0  0  0  0  0  0  0  0  0  0  # atno 10765 bound_to 10752
  140.8777  134.1972  157.4611 H   0  0  0  0  0  0  0  0  0  0  0  0  # atno 11005 bound_to 11000
  144.7643  139.6883  143.7221 LP  0  0  0  0  0  0  0  0  0  0  0  0  # atno 17320 bound_to 7965
  146.2065  139.5393  142.9709 LP  0  0  0  0  0  0  0  0  0  0  0  0  # atno 17321 bound_to 7965
  139.4944  144.4158  152.0032 LP  0  0  0  0  0  0  0  0  0  0  0  0  # atno 17342 bound_to 10162
  140.3258  144.3374  150.5998 LP  0  0  0  0  0  0  0  0  0  0  0  0  # atno 17343 bound_to 10162
  157.5272  130.8036  149.7876 LP  0  0  0  0  0  0  0  0  0  0  0  0  # atno 17370 bound_to 10713
  156.0113  130.3832  150.2256 LP  0  0  0  0  0  0  0  0  0  0  0  0  # atno 17371 bound_to 10713
  139.8717  134.9803  156.5070 LP  0  0  0  0  0  0  0  0  0  0  0  0  # atno 17394 bound_to 11000
  140.8499  133.8140  155.9158 LP  0  0  0  0  0  0  0  0  0  0  0  0  # atno 17395 bound_to 11000

$$$$
