AV-unprocessed.smi:149|AV-procd|sdf|1238|dock3
  -GOLD-   2262018453D 1   1.00000     0.00000
 Structure written by MMmdl.
 59 63  0  0  0  0  0  0  0  0  1 V2000
  153.7101  140.1681  159.3783 C   0  0  0  0  0  0  0  0  0  0  0  0
  152.2078  140.4159  159.1511 C   0  0  2  0  0  0  0  0  0  0  0  0
  151.6205  139.3553  158.2022 C   0  0  0  0  0  0  0  0  0  0  0  0
  151.0161  140.0748  157.0968 N   0  0  0  0  0  0  0  0  0  0  0  0
  150.1658  139.4461  156.2411 C   0  0  0  0  0  0  0  0  0  0  0  0
  150.4288  139.4993  154.9075 N   0  0  0  0  0  0  0  0  0  0  0  0
  149.6287  138.8897  154.0292 C   0  0  0  0  0  0  0  0  0  0  0  0
  148.5297  138.1720  154.2620 N   0  0  0  0  0  0  0  0  0  0  0  0
  148.2612  138.0996  155.5967 C   0  0  0  0  0  0  0  0  0  0  0  0
  149.0139  138.7053  156.6450 C   0  0  0  0  0  0  0  0  0  0  0  0
  148.4195  138.4129  157.8685 N   0  0  0  0  0  0  0  0  0  0  0  0
  147.3781  137.6899  157.5612 C   0  0  0  0  0  0  0  0  0  0  0  0
  147.2247  137.4266  156.2198 N   0  0  0  0  0  0  0  0  0  0  0  0
  146.1610  136.6890  155.6032 C   0  0  0  0  0  0  0  0  0  0  0  0
  146.3483  136.0032  154.2457 C   0  0  0  0  0  0  0  0  0  0  0  0
  144.8625  136.2798  153.9154 C   0  0  0  0  0  0  0  0  0  0  0  0
  144.5231  136.7096  152.4742 C   0  0  0  0  0  0  0  0  0  0  0  0
  145.2533  137.8467  152.0594 O   0  0  0  0  0  0  0  0  0  0  0  0
  143.8778  135.1588  154.2984 C   0  0  0  0  0  0  0  0  0  0  0  0
  144.0074  134.0402  153.4447 O   0  0  0  0  0  0  0  0  0  0  0  0
  144.9697  137.4100  154.9643 C   0  0  0  0  0  0  0  0  0  0  0  0
  150.7675  141.4403  157.5159 C   0  0  0  0  0  0  0  0  0  0  0  0
  151.8903  141.7885  158.5042 C   0  0  1  0  0  0  0  0  0  0  0  0
  151.5166  142.8723  159.4289 N   0  0  0  0  0  0  0  0  0  0  0  0
  151.3090  144.1384  158.7225 C   0  0  0  0  0  0  0  0  0  0  0  0
  150.9250  145.2842  159.6743 C   0  0  0  0  0  0  0  0  0  0  0  0
  151.9320  145.4339  160.6675 O   0  0  0  0  0  0  0  0  0  0  0  0
  152.1291  144.2438  161.4211 C   0  0  0  0  0  0  0  0  0  0  0  0
  152.5111  143.0888  160.4790 C   0  0  0  0  0  0  0  0  0  0  0  0
  154.2622  140.2087  158.4386 H   0  0  0  0  0  0  0  0  0  0  0  0
  153.8779  139.1841  159.8170 H   0  0  0  0  0  0  0  0  0  0  0  0
  154.1546  140.9008  160.0492 H   0  0  0  0  0  0  0  0  0  0  0  0
  151.6828  140.3344  160.1040 H   0  0  0  0  0  0  0  0  0  0  0  0
  152.3983  138.6916  157.8240 H   0  0  0  0  0  0  0  0  0  0  0  0
  150.8754  138.7455  158.7152 H   0  0  0  0  0  0  0  0  0  0  0  0
  149.9126  138.9872  152.9916 H   0  0  0  0  0  0  0  0  0  0  0  0
  146.6957  137.3200  158.3127 H   0  0  0  0  0  0  0  0  0  0  0  0
  145.8206  135.9721  156.3524 H   0  0  0  0  0  0  0  0  0  0  0  0
  147.0445  136.5426  153.6012 H   0  0  0  0  0  0  0  0  0  0  0  0
  146.6202  134.9494  154.3100 H   0  0  0  0  0  0  0  0  0  0  0  0
  144.7340  135.9094  151.7644 H   0  0  0  0  0  0  0  0  0  0  0  0
  143.4618  136.9420  152.3796 H   0  0  0  0  0  0  0  0  0  0  0  0
  144.8341  138.2099  151.2941 H   0  0  0  0  0  0  0  0  0  0  0  0
  144.0403  134.8177  155.3211 H   0  0  0  0  0  0  0  0  0  0  0  0
  142.8468  135.5117  154.2569 H   0  0  0  0  0  0  0  0  0  0  0  0
  143.6994  133.2742  153.9044 H   0  0  0  0  0  0  0  0  0  0  0  0
  144.1037  137.5121  155.6192 H   0  0  0  0  0  0  0  0  0  0  0  0
  145.2520  138.3769  154.5447 H   0  0  0  0  0  0  0  0  0  0  0  0
  150.7646  142.1207  156.6635 H   0  0  0  0  0  0  0  0  0  0  0  0
  149.7913  141.4915  158.0015 H   0  0  0  0  0  0  0  0  0  0  0  0
  152.7595  142.0958  157.9199 H   0  0  0  0  0  0  0  0  0  0  0  0
  152.2153  144.4110  158.1796 H   0  0  0  0  0  0  0  0  0  0  0  0
  150.5200  144.0342  157.9781 H   0  0  0  0  0  0  0  0  0  0  0  0
  150.8274  146.2191  159.1225 H   0  0  0  0  0  0  0  0  0  0  0  0
  149.9613  145.0885  160.1472 H   0  0  0  0  0  0  0  0  0  0  0  0
  152.9192  144.4122  162.1528 H   0  0  0  0  0  0  0  0  0  0  0  0
  151.2224  144.0031  161.9782 H   0  0  0  0  0  0  0  0  0  0  0  0
  152.6192  142.1894  161.0833 H   0  0  0  0  0  0  0  0  0  0  0  0
  153.4852  143.2926  160.0317 H   0  0  0  0  0  0  0  0  0  0  0  0
  1  2  1  0  0  0  0
  1 30  1  0  0  0  0
  1 31  1  0  0  0  0
  1 32  1  0  0  0  0
  2 23  1  0  0  0  0
  2  3  1  0  0  0  0
  2 33  1  0  0  0  0
  3  4  1  0  0  0  0
  3 34  1  0  0  0  0
  3 35  1  0  0  0  0
  4  5  1  0  0  0  0
  4 22  1  0  0  0  0
  5 10  1  0  0  0  0
  5  6  2  0  0  0  0
  6  7  1  0  0  0  0
  7  8  2  0  0  0  0
  7 36  1  0  0  0  0
  8  9  1  0  0  0  0
  9 13  1  0  0  0  0
  9 10  2  0  0  0  0
 10 11  1  0  0  0  0
 11 12  2  0  0  0  0
 12 13  1  0  0  0  0
 12 37  1  0  0  0  0
 13 14  1  0  0  0  0
 14 21  1  0  0  0  0
 14 15  1  0  0  0  0
 14 38  1  0  0  0  0
 15 16  1  0  0  0  0
 15 39  1  0  0  0  0
 15 40  1  0  0  0  0
 16 17  1  0  0  0  0
 16 19  1  0  0  0  0
 16 21  1  0  0  0  0
 17 18  1  0  0  0  0
 17 41  1  0  0  0  0
 17 42  1  0  0  0  0
 18 43  1  0  0  0  0
 19 20  1  0  0  0  0
 19 44  1  0  0  0  0
 19 45  1  0  0  0  0
 20 46  1  0  0  0  0
 21 47  1  0  0  0  0
 21 48  1  0  0  0  0
 22 23  1  0  0  0  0
 22 49  1  0  0  0  0
 22 50  1  0  0  0  0
 23 24  1  0  0  0  0
 23 51  1  0  0  0  0
 24 29  1  0  0  0  0
 24 25  1  0  0  0  0
 25 26  1  0  0  0  0
 25 52  1  0  0  0  0
 25 53  1  0  0  0  0
 26 27  1  0  0  0  0
 26 54  1  0  0  0  0
 26 55  1  0  0  0  0
 27 28  1  0  0  0  0
 28 29  1  0  0  0  0
 28 56  1  0  0  0  0
 28 57  1  0  0  0  0
 29 58  1  0  0  0  0
 29 59  1  0  0  0  0
M  END
> <s_m_source_file>
AV-unprocessed.smi

> <i_m_source_file_index>
149

> <i_lp_mmshare_version>
43012

> <i_f3d_flags>
0

> <s_epik_input>
W0NIMl0xW0NIMl1PW0NIMl1bQ0gyXU4xW0NAQEhdMltDSDJdTihbQ0gyXVtDQEhdMltDSDNdKWMobltjSF1uMyljKGMzNCluW2NIXW40W0NIXShbQ0gyXTUpW0NIMl1DNShbQ0gyXVtPSF0pW0NIMl1bT0hd

> <s_epik_cmdline>
J2VwaWtfcHl0aG9uJywgJy1waCcsICc3LjAnLCAnLXRuJywgJzgnLCAnLW1hJywgJzIwMCcsICctbWV0YWxfYmluZGluZycsICctaW1hZScsICc8aW5maWxlLm1hZT4nLCAnLW9tYWUnLCAnPG91dGZpbGUubWFlPic=

> <r_lp_tautomer_probability>
1

> <r_epik_Ionization_Penalty>
0.41918

> <r_epik_Ionization_Penalty_Charging>
0

> <r_epik_Ionization_Penalty_Neutral>
0.41918

> <r_epik_State_Penalty>
0.654916

> <r_epik_Charging_Adjusted_Penalty>
0.654916

> <i_epik_Tot_Q>
0

> <i_epik_Tot_abs_Q>
0

> <r_epik_Metal_State_Penalty>
0.653217

> <b_epik_Metal_Only>
0

> <s_lp_Force_Field>
OPLS_2005

> <r_lp_Energy>
75.7626

> <b_lp_Chiralities_Consistent>
1

> <s_lp_Variant>
AV-unprocessed.smi:149-5

> <Gold.Version>
5.8.1

> <Gold.Id.Protein>
6NUR|6NUR_protein|mol2

> <Gold.PLP.Fitness>
42.9267

> <Gold.PLP.PLP>
-34.3843

> <Gold.PLP.part.hbond>
-3.1126

> <Gold.PLP.part.metal>
0.0000

> <Gold.PLP.part.buried>
-5.4894

> <Gold.PLP.part.nonpolar>
-26.6769

> <Gold.PLP.part.repulsive>
0.4827

> <Gold.PLP.ligand.clash>
0.0000

> <Gold.PLP.ligand.torsion>
1.2229

> <Gold.PLP.Chemscore.Hbond>
2.3413

> <Gold.PLP.Chemscore.CHOScore>
1.0000

> <Gold.PLP.Chemscore.Metal>
0.0000

> <Gold.Chemscore.Hbonds>
donor molecule, donor type, donor heavy atom, donor atom, acceptor molecule, acceptor atom, score
      L1  H    18    43       P1 10171  1.00
      L1  H    20    46       P1 10957  1.00
      P1  H  7989  7998       L1     6  0.32
      L1  C     7    36       P1  7957  1.00

> <Gold.PLP.Chemscore.Internal.Correction>
0.9645

> <Gold.Rescore>
     Score         DG    S(hbond)    S(metal)    S(lipo)     H(rot)  DE(clash)    DE(int)     intcor
     13.69     -15.43       2.30        0.00      92.44       3.34       0.61       1.13       ----

> <Gold.Chemscore.Fitness>
13.6903

> <Gold.Chemscore.DG>
-15.4341

> <Gold.Chemscore.ZeroCoef>
-5.4800

> <Gold.Chemscore.Hbond>
2.3034

> <Gold.Chemscore.Metal>
0.0000

> <Gold.Chemscore.Lipo>
92.4384

> <Gold.Chemscore.Internal_Hbond>
0.0000

> <Gold.Chemscore.DEClash>
0.6109

> <Gold.Chemscore.DEInternal>
1.1329

> <Gold.Chemscore.Rot>
3.3416

> <Gold.Chemscore.Internal.Correction>
   9.000000E+99

> <Gold.Chemscore.Hbonds>
donor molecule, donor type, donor heavy atom, donor atom, acceptor molecule, acceptor atom, score
      L1  H    18    43       P1 10171  1.00
      L1  H    20    46       P1 10957  0.93
      P1  H  7989  7998       L1     6  0.08

> <Gold.Chemscore.Hbond.Weighted>
-7.6932

> <Gold.Chemscore.Metal.Weighted>
-0.0000

> <Gold.Chemscore.Lipo.Weighted>
-10.8153

> <Gold.Chemscore.Internal_Hbond.Weighted>
0.0000

> <Gold.Chemscore.DEClash.Weighted>
0.6109

> <Gold.Chemscore.DEInternal.Weighted>
1.1329

> <Gold.Chemscore.Rot.Weighted>
8.5545

> <Gold.Chemscore.Internal.Correction.Weighted>
   9.000000E+99

> <Gold.Protein.RotatedTorsions>
[ 6907 6896 6895 6894 ] final -153.46 input  -60.11 | X-H torsion
[ 7974 7965 7964 7962 ] final  130.50 input  175.53 | X-H torsion
[ 8008 7997 7996 7995 ] final  176.44 input   59.86 | X-H torsion
[ 10167 10162 10161 10158 ] final  -18.60 input  -65.29 | X-H torsion
[ 10718 10713 10712 10709 ] final -152.65 input   66.30 | X-H torsion
[ 10763 10752 10751 10750 ] final  -14.18 input  -60.55 | X-H torsion
[ 11005 11000 10999 10996 ] final  130.00 input  -57.11 | X-H torsion

> <Gold.Protein.ActiveResidues>
 VAL166  LYS551  ARG553  GLY616  TRP617  ASP618  TYR619  PRO620  LYS621  CYS622 
 ASP623  PHE694  ASN695  SER759  ASP760  ASP761  ALA762  ILE779  LEU786  VAL792 
 PHE793  MET794  SER795  GLU796  ALA797  LYS798  CYS799  TRP800  GLU811  SER814 

> <Gold.Protein.RotatedAtoms>
  151.2429  133.4390  159.2607 H   0  0  0  0  0  0  0  0  0  0  0  0  # atno 6907 bound_to 6896
  151.0688  134.9785  159.8308 H   0  0  0  0  0  0  0  0  0  0  0  0  # atno 6908 bound_to 6896
  152.5409  134.2376  159.8902 H   0  0  0  0  0  0  0  0  0  0  0  0  # atno 6909 bound_to 6896
  145.0172  139.4165  143.5215 H   0  0  0  0  0  0  0  0  0  0  0  0  # atno 7974 bound_to 7965
  156.0764  140.1383  156.9766 H   0  0  0  0  0  0  0  0  0  0  0  0  # atno 8008 bound_to 7997
  154.4560  140.0961  156.6808 H   0  0  0  0  0  0  0  0  0  0  0  0  # atno 8009 bound_to 7997
  155.5146  140.3454  155.4397 H   0  0  0  0  0  0  0  0  0  0  0  0  # atno 8010 bound_to 7997
  140.7260  143.4900  151.0004 H   0  0  0  0  0  0  0  0  0  0  0  0  # atno 10167 bound_to 10162
  156.4754  130.8278  151.2506 H   0  0  0  0  0  0  0  0  0  0  0  0  # atno 10718 bound_to 10713
  153.5244  135.7015  153.5715 H   0  0  0  0  0  0  0  0  0  0  0  0  # atno 10763 bound_to 10752
  153.3749  135.3935  155.1815 H   0  0  0  0  0  0  0  0  0  0  0  0  # atno 10764 bound_to 10752
  154.8691  135.3821  154.4736 H   0  0  0  0  0  0  0  0  0  0  0  0  # atno 10765 bound_to 10752
  139.9647  134.9593  156.9230 H   0  0  0  0  0  0  0  0  0  0  0  0  # atno 11005 bound_to 11000
  146.3480  139.9650  142.8713 LP  0  0  0  0  0  0  0  0  0  0  0  0  # atno 17320 bound_to 7965
  145.1943  140.9826  143.4192 LP  0  0  0  0  0  0  0  0  0  0  0  0  # atno 17321 bound_to 7965
  139.8604  143.7322  152.3173 LP  0  0  0  0  0  0  0  0  0  0  0  0  # atno 17342 bound_to 10162
  139.7535  144.7527  151.0470 LP  0  0  0  0  0  0  0  0  0  0  0  0  # atno 17343 bound_to 10162
  157.7488  131.0062  150.3145 LP  0  0  0  0  0  0  0  0  0  0  0  0  # atno 17370 bound_to 10713
  156.3576  130.3841  149.7277 LP  0  0  0  0  0  0  0  0  0  0  0  0  # atno 17371 bound_to 10713
  140.5422  134.0708  155.7345 LP  0  0  0  0  0  0  0  0  0  0  0  0  # atno 17394 bound_to 11000
  141.1326  133.9276  157.2502 LP  0  0  0  0  0  0  0  0  0  0  0  0  # atno 17395 bound_to 11000

$$$$
