#       Name:                AV-unprocessed.smi:3039
#       Creating user name   scv26
#       Creation time:       Fri Mar 27 16:56:47 2020


#       File generated by GOLD software.
#

@<TRIPOS>MOLECULE
AV-unprocessed.smi:3039
    45    46     1
SMALL
NO_CHARGES


@<TRIPOS>ATOM
      1 ****        -1.4670   1.5489  -0.2730 O.2            1 S1                 0.0000
      2 ****        -1.8061   0.3675  -0.2075 C.2            1 S1                 0.0000
      3 ****        -3.2899   0.0039  -0.1620 C.3            1 S1                 0.0000
      4 ****        -3.7610  -0.0639   1.2653 C.2            1 S1                 0.0000
      5 ****        -4.2232   0.9962   2.0940 C.2            1 S1                 0.0000
      6 ****        -4.5144   0.3750   3.2741 C.2            1 S1                 0.0000
      7 ****        -4.2609  -0.9551   3.1864 O.3            1 S1                 0.0000
      8 ****        -3.7823  -1.2266   1.8996 N.2            1 S1                 0.0000
      9 ****        -0.9396  -0.6602  -0.1725 N.am           1 S1                 0.0000
     10 ****         0.5255  -0.5939  -0.1884 C.3            1 S1                 0.0000
     11 ****         1.0417   0.1194   1.0863 C.3            1 S1                 0.0000
     12 ****         2.5201  -0.1690   1.3946 C.3            1 S1                 0.0000
     13 ****         3.5258   0.7742   0.7157 C.3            1 S1                 0.0000
     14 ****         3.1998   1.1787  -0.7308 C.3            1 S1                 0.0000
     15 ****         2.6128   0.0592  -1.6063 C.3            1 S1                 0.0000
     16 ****         1.0700  -0.0346  -1.5384 C.3            1 S1                 0.0000
     17 ****         0.5256  -0.8041  -2.7663 C.3            1 S1                 0.0000
     18 ****         0.9375  -2.1560  -2.7600 O.3            1 S1                 0.0000
     19 ****        -3.8584   0.7539  -0.7129 H              1 S1                 0.0000
     20 ****        -3.4543  -0.9454  -0.6745 H              1 S1                 0.0000
     21 ****        -4.3210   2.0458   1.8596 H              1 S1                 0.0000
     22 ****        -4.8929   0.7244   4.2233 H              1 S1                 0.0000
     23 ****        -1.3347  -1.5882  -0.1186 H              1 S1                 0.0000
     24 ****         0.8399  -1.6353  -0.1150 H              1 S1                 0.0000
     25 ****         0.8628   1.1944   1.0442 H              1 S1                 0.0000
     26 ****         0.4595  -0.2431   1.9351 H              1 S1                 0.0000
     27 ****         2.6762  -0.1028   2.4720 H              1 S1                 0.0000
     28 ****         2.7528  -1.2027   1.1360 H              1 S1                 0.0000
     29 ****         3.6223   1.6840   1.3093 H              1 S1                 0.0000
     30 ****         4.5079   0.3006   0.7436 H              1 S1                 0.0000
     31 ****         2.5251   2.0357  -0.7300 H              1 S1                 0.0000
     32 ****         4.1199   1.5418  -1.1900 H              1 S1                 0.0000
     33 ****         2.8939   0.2811  -2.6364 H              1 S1                 0.0000
     34 ****         3.0781  -0.9004  -1.3783 H              1 S1                 0.0000
     35 ****         0.6974   0.9840  -1.6481 H              1 S1                 0.0000
     36 ****        -0.5631  -0.7684  -2.8056 H              1 S1                 0.0000
     37 ****         0.8750  -0.3406  -3.6894 H              1 S1                 0.0000
     38 ****         0.5977  -2.5771  -3.5348 H              1 S1                 0.0000
     39 ****        -2.1616   2.2679  -0.2963 LP             1 S1                 0.0000
     40 ****        -0.4969   1.7897  -0.3029 LP             1 S1                 0.0000
     41 ****        -5.1015  -1.4712   3.3505 LP             1 S1                 0.0000
     42 ****        -3.5731  -1.2139   3.8647 LP             1 S1                 0.0000
     43 ****        -3.5115  -2.1170   1.5336 LP             1 S1                 0.0000
     44 ****         0.5823  -2.6130  -1.9446 LP             1 S1                 0.0000
     45 ****         1.9364  -2.2042  -2.7606 LP             1 S1                 0.0000
@<TRIPOS>BOND
    1    1    2 2     
    2    2    3 1     
    3    2    9 am    
    4    3    4 1     
    5    3   19 1     
    6    3   20 1     
    7    4    8 2     
    8    4    5 1     
    9    5    6 2     
   10    5   21 1     
   11    6    7 1     
   12    6   22 1     
   13    7    8 1     
   14    9   10 1     
   15    9   23 1     
   16   10   16 1     
   17   10   11 1     
   18   10   24 1     
   19   11   12 1     
   20   11   25 1     
   21   11   26 1     
   22   12   13 1     
   23   12   27 1     
   24   12   28 1     
   25   13   14 1     
   26   13   29 1     
   27   13   30 1     
   28   14   15 1     
   29   14   31 1     
   30   14   32 1     
   31   15   16 1     
   32   15   33 1     
   33   15   34 1     
   34   16   17 1     
   35   16   35 1     
   36   17   18 1     
   37   17   36 1     
   38   17   37 1     
   39   18   38 1     
   40    1   39 1     
   41    1   40 1     
   42    7   41 1     
   43    7   42 1     
   44    8   43 1     
   45   18   44 1     
   46   18   45 1     
@<TRIPOS>SUBSTRUCTURE
      1 S1             1
@<TRIPOS>SET
LONE_PAIRS      STATIC     ATOMS    <user>   **** ""
7 39 40 41 42 43 44 45
DONOR_HYDROGENS      STATIC     ATOMS    <user>   **** ""
2 23 38
ATOM$BLUE        STATIC     ATOMS    COLORGROUP SYSTEM
7 39 40 41 42 43 44 45
ATOM$RED        STATIC     ATOMS    COLORGROUP SYSTEM
2 23 38
