AV-unprocessed.smi:356|AV-procd|sdf|2415|dock5
  -GOLD-   2262022353D 1   1.00000     0.00000
 Structure written by MMmdl.
 43 45  0  0  0  0  0  0  0  0  3 V2000
  141.9023  135.8906  153.1423 C   0  0  0  0  0  0  0  0  0  0  0  0
  143.0305  135.1416  152.5167 C   0  0  0  0  0  0  0  0  0  0  0  0
  142.9290  134.2472  151.4938 N   0  3  0  0  0  0  0  0  0  0  0  0
  144.1930  133.7505  151.1735 C   0  0  0  0  0  0  0  0  0  0  0  0
  144.5906  132.8262  150.2122 C   0  0  0  0  0  0  0  0  0  0  0  0
  145.9684  132.5332  150.1475 C   0  0  0  0  0  0  0  0  0  0  0  0
  146.8913  133.1511  151.0160 C   0  0  0  0  0  0  0  0  0  0  0  0
  146.4768  134.0885  151.9852 C   0  0  0  0  0  0  0  0  0  0  0  0
  145.1120  134.3725  152.0443 C   0  0  0  0  0  0  0  0  0  0  0  0
  144.3489  135.2215  152.8568 N   0  0  0  0  0  0  0  0  0  0  0  0
  145.0059  136.0310  153.8963 C   0  0  0  0  0  0  0  0  0  0  0  0
  145.2688  137.4822  153.4462 C   0  0  1  0  0  0  0  0  0  0  0  0
  144.2412  137.9005  152.5684 O   0  0  0  0  0  0  0  0  0  0  0  0
  145.3251  138.4535  154.6422 C   0  0  0  0  0  0  0  0  0  0  0  0
  145.7371  139.8246  154.2451 N   0  3  0  0  0  0  0  0  0  0  0  0
  145.6340  140.7948  155.3609 C   0  0  0  0  0  0  0  0  0  0  0  0
  146.0062  142.2080  154.8811 C   0  0  0  0  0  0  0  0  0  0  0  0
  147.3167  142.1947  154.3292 O   0  0  0  0  0  0  0  0  0  0  0  0
  147.4112  141.3317  153.2029 C   0  0  0  0  0  0  0  0  0  0  0  0
  147.0852  139.8893  153.6278 C   0  0  0  0  0  0  0  0  0  0  0  0
  140.9519  135.5942  152.6979 H   0  0  0  0  0  0  0  0  0  0  0  0
  142.0352  136.9623  152.9940 H   0  0  0  0  0  0  0  0  0  0  0  0
  141.8618  135.6886  154.2126 H   0  0  0  0  0  0  0  0  0  0  0  0
  143.8848  132.3519  149.5457 H   0  0  0  0  0  0  0  0  0  0  0  0
  146.3241  131.8201  149.4177 H   0  0  0  0  0  0  0  0  0  0  0  0
  147.9394  132.9002  150.9375 H   0  0  0  0  0  0  0  0  0  0  0  0
  147.1953  134.5517  152.6441 H   0  0  0  0  0  0  0  0  0  0  0  0
  144.4131  135.9983  154.8106 H   0  0  0  0  0  0  0  0  0  0  0  0
  145.9509  135.5407  154.1330 H   0  0  0  0  0  0  0  0  0  0  0  0
  146.2097  137.5063  152.8978 H   0  0  0  0  0  0  0  0  0  0  0  0
  144.3195  138.8324  152.4318 H   0  0  0  0  0  0  0  0  0  0  0  0
  144.3382  138.4866  155.1069 H   0  0  0  0  0  0  0  0  0  0  0  0
  146.0075  138.0811  155.4080 H   0  0  0  0  0  0  0  0  0  0  0  0
  144.6175  140.8003  155.7560 H   0  0  0  0  0  0  0  0  0  0  0  0
  146.2945  140.4887  156.1741 H   0  0  0  0  0  0  0  0  0  0  0  0
  145.2897  142.5712  154.1424 H   0  0  0  0  0  0  0  0  0  0  0  0
  145.9827  142.9067  155.7176 H   0  0  0  0  0  0  0  0  0  0  0  0
  146.7377  141.6680  152.4130 H   0  0  0  0  0  0  0  0  0  0  0  0
  148.4234  141.3854  152.8020 H   0  0  0  0  0  0  0  0  0  0  0  0
  147.8321  139.5348  154.3399 H   0  0  0  0  0  0  0  0  0  0  0  0
  147.1409  139.2378  152.7566 H   0  0  0  0  0  0  0  0  0  0  0  0
  145.0753  140.1293  153.5448 H   0  0  0  0  0  0  0  0  0  0  0  0
  142.0560  133.9949  151.0482 H   0  0  0  0  0  0  0  0  0  0  0  0
  1  2  1  0  0  0  0
  1 21  1  0  0  0  0
  1 22  1  0  0  0  0
  1 23  1  0  0  0  0
  2 10  1  0  0  0  0
  2  3  2  0  0  0  0
  3  4  1  0  0  0  0
  3 43  1  0  0  0  0
  4  9  2  0  0  0  0
  4  5  1  0  0  0  0
  5  6  2  0  0  0  0
  5 24  1  0  0  0  0
  6  7  1  0  0  0  0
  6 25  1  0  0  0  0
  7  8  2  0  0  0  0
  7 26  1  0  0  0  0
  8  9  1  0  0  0  0
  8 27  1  0  0  0  0
  9 10  1  0  0  0  0
 10 11  1  0  0  0  0
 11 12  1  0  0  0  0
 11 28  1  0  0  0  0
 11 29  1  0  0  0  0
 12 13  1  0  0  0  0
 12 14  1  0  0  0  0
 12 30  1  0  0  0  0
 13 31  1  0  0  0  0
 14 15  1  0  0  0  0
 14 32  1  0  0  0  0
 14 33  1  0  0  0  0
 15 20  1  0  0  0  0
 15 16  1  0  0  0  0
 15 42  1  0  0  0  0
 16 17  1  0  0  0  0
 16 34  1  0  0  0  0
 16 35  1  0  0  0  0
 17 18  1  0  0  0  0
 17 36  1  0  0  0  0
 17 37  1  0  0  0  0
 18 19  1  0  0  0  0
 19 20  1  0  0  0  0
 19 38  1  0  0  0  0
 19 39  1  0  0  0  0
 20 40  1  0  0  0  0
 20 41  1  0  0  0  0
M  CHG  1   3   1
M  CHG  1  15   1
M  END
> <s_m_source_file>
AV-unprocessed.smi

> <i_m_source_file_index>
356

> <i_lp_mmshare_version>
43012

> <i_f3d_flags>
0

> <s_epik_input>
W2NIXTFbY0hdW2NIXVtjSF1jKGMxMiluKGMobjIpW0NIM10pW0NIMl1bQ0BIXShbT0hdKVtDSDJdTjNbQ0gyXVtDSDJdT1tDSDJdW0NIMl0z

> <s_epik_cmdline>
J2VwaWtfcHl0aG9uJywgJy1waCcsICc3LjAnLCAnLXRuJywgJzgnLCAnLW1hJywgJzIwMCcsICctbWV0YWxfYmluZGluZycsICctaW1hZScsICc8aW5maWxlLm1hZT4nLCAnLW9tYWUnLCAnPG91dGZpbGUubWFlPic=

> <r_epik_Ionization_Penalty>
1.81899

> <r_epik_Ionization_Penalty_Charging>
1.81898

> <r_epik_Ionization_Penalty_Neutral>
1.42224e-05

> <r_epik_State_Penalty>
1.87399

> <r_epik_Charging_Adjusted_Penalty>
3.69296

> <i_epik_Tot_Q>
2

> <i_epik_Tot_abs_Q>
2

> <r_epik_Metal_State_Penalty>
5.87601

> <b_epik_Metal_Only>
0

> <s_lp_Force_Field>
OPLS_2005

> <r_lp_Energy>
27.965

> <b_lp_Chiralities_Consistent>
1

> <s_lp_Variant>
AV-unprocessed.smi:356-8

> <Gold.Version>
5.8.1

> <Gold.Id.Protein>
6NUR|6NUR_protein|mol2

> <Gold.PLP.Fitness>
42.9547

> <Gold.PLP.PLP>
-30.0496

> <Gold.PLP.part.hbond>
-4.0000

> <Gold.PLP.part.metal>
0.0000

> <Gold.PLP.part.buried>
-5.4172

> <Gold.PLP.part.nonpolar>
-20.5666

> <Gold.PLP.part.repulsive>
0.1606

> <Gold.PLP.ligand.clash>
0.0000

> <Gold.PLP.ligand.torsion>
0.6522

> <Gold.PLP.Chemscore.Hbond>
4.7280

> <Gold.PLP.Chemscore.CHOScore>
0.0000

> <Gold.PLP.Chemscore.Metal>
0.0000

> <Gold.Chemscore.Hbonds>
donor molecule, donor type, donor heavy atom, donor atom, acceptor molecule, acceptor atom, score
      L1  H     3    43       P1 10186  1.50
      L1  H    13    31       P1 10175  1.00
      L1  H    15    42       P1 10175  2.00

> <Gold.PLP.Chemscore.Internal.Correction>
0.0255

> <Gold.Rescore>
     Score         DG    S(hbond)    S(metal)    S(lipo)     H(rot)  DE(clash)    DE(int)     intcor
     15.05     -16.83       2.44        0.00      74.06       2.13       0.14       1.64       ----

> <Gold.Chemscore.Fitness>
15.0464

> <Gold.Chemscore.DG>
-16.8333

> <Gold.Chemscore.ZeroCoef>
-5.4800

> <Gold.Chemscore.Hbond>
2.4394

> <Gold.Chemscore.Metal>
0.0000

> <Gold.Chemscore.Lipo>
74.0634

> <Gold.Chemscore.Internal_Hbond>
0.0000

> <Gold.Chemscore.DEClash>
0.1427

> <Gold.Chemscore.DEInternal>
1.6442

> <Gold.Chemscore.Rot>
2.1327

> <Gold.Chemscore.Internal.Correction>
   9.000000E+99

> <Gold.Chemscore.Hbonds>
donor molecule, donor type, donor heavy atom, donor atom, acceptor molecule, acceptor atom, score
      L1  H     3    43       P1 10186  0.15
      L1  H    13    31       P1 10175  0.95
      L1  H    15    42       P1 10175  1.00

> <Gold.Chemscore.Hbond.Weighted>
-8.1475

> <Gold.Chemscore.Metal.Weighted>
-0.0000

> <Gold.Chemscore.Lipo.Weighted>
-8.6654

> <Gold.Chemscore.Internal_Hbond.Weighted>
0.0000

> <Gold.Chemscore.DEClash.Weighted>
0.1427

> <Gold.Chemscore.DEInternal.Weighted>
1.6442

> <Gold.Chemscore.Rot.Weighted>
5.4596

> <Gold.Chemscore.Internal.Correction.Weighted>
   9.000000E+99

> <Gold.Protein.RotatedTorsions>
[ 6907 6896 6895 6894 ] final -166.63 input  -60.11 | X-H torsion
[ 7974 7965 7964 7962 ] final  134.69 input  175.53 | X-H torsion
[ 8008 7997 7996 7995 ] final   71.94 input   59.86 | X-H torsion
[ 10167 10162 10161 10158 ] final  -65.34 input  -65.29 | X-H torsion
[ 10718 10713 10712 10709 ] final   77.73 input   66.30 | X-H torsion
[ 10763 10752 10751 10750 ] final  172.90 input  -60.55 | X-H torsion
[ 11005 11000 10999 10996 ] final   52.49 input  -57.11 | X-H torsion

> <Gold.Protein.ActiveResidues>
 VAL166  LYS551  ARG553  GLY616  TRP617  ASP618  TYR619  PRO620  LYS621  CYS622 
 ASP623  PHE694  ASN695  SER759  ASP760  ASP761  ALA762  ILE779  LEU786  VAL792 
 PHE793  MET794  SER795  GLU796  ALA797  LYS798  CYS799  TRP800  GLU811  SER814 

> <Gold.Protein.RotatedAtoms>
  151.4467  133.3628  159.2789 H   0  0  0  0  0  0  0  0  0  0  0  0  # atno 6907 bound_to 6896
  150.9119  134.8538  159.7442 H   0  0  0  0  0  0  0  0  0  0  0  0  # atno 6908 bound_to 6896
  152.4937  134.4398  159.9591 H   0  0  0  0  0  0  0  0  0  0  0  0  # atno 6909 bound_to 6896
  144.9738  139.4576  143.5420 H   0  0  0  0  0  0  0  0  0  0  0  0  # atno 7974 bound_to 7965
  155.7615  140.3486  155.5200 H   0  0  0  0  0  0  0  0  0  0  0  0  # atno 8008 bound_to 7997
  155.8909  140.1018  157.1440 H   0  0  0  0  0  0  0  0  0  0  0  0  # atno 8009 bound_to 7997
  154.4033  140.1304  156.4302 H   0  0  0  0  0  0  0  0  0  0  0  0  # atno 8010 bound_to 7997
  140.5736  143.2320  151.6488 H   0  0  0  0  0  0  0  0  0  0  0  0  # atno 10167 bound_to 10162
  157.6720  130.9835  150.1683 H   0  0  0  0  0  0  0  0  0  0  0  0  # atno 10718 bound_to 10713
  154.4326  135.2760  155.1902 H   0  0  0  0  0  0  0  0  0  0  0  0  # atno 10763 bound_to 10752
  154.3802  135.6089  153.5790 H   0  0  0  0  0  0  0  0  0  0  0  0  # atno 10764 bound_to 10752
  152.9837  135.5878  154.4640 H   0  0  0  0  0  0  0  0  0  0  0  0  # atno 10765 bound_to 10752
  140.0845  134.5293  155.8913 H   0  0  0  0  0  0  0  0  0  0  0  0  # atno 11005 bound_to 11000
  146.3389  139.8968  142.8800 LP  0  0  0  0  0  0  0  0  0  0  0  0  # atno 17320 bound_to 7965
  145.2519  141.0047  143.3876 LP  0  0  0  0  0  0  0  0  0  0  0  0  # atno 17321 bound_to 7965
  139.5131  144.3455  152.0700 LP  0  0  0  0  0  0  0  0  0  0  0  0  # atno 17342 bound_to 10162
  140.2596  144.4081  150.6190 LP  0  0  0  0  0  0  0  0  0  0  0  0  # atno 17343 bound_to 10162
  156.2443  130.3694  149.8302 LP  0  0  0  0  0  0  0  0  0  0  0  0  # atno 17370 bound_to 10713
  156.6093  130.8580  151.3450 LP  0  0  0  0  0  0  0  0  0  0  0  0  # atno 17371 bound_to 10713
  141.2058  133.6650  156.6202 LP  0  0  0  0  0  0  0  0  0  0  0  0  # atno 17394 bound_to 11000
  140.3440  134.7825  157.4419 LP  0  0  0  0  0  0  0  0  0  0  0  0  # atno 17395 bound_to 11000

$$$$
