AV-unprocessed.smi:1864|AV-procd|sdf|7552|dock6
  -GOLD-   22720 9263D 1   1.00000     0.00000
 Structure written by MMmdl.
 34 35  0  0  0  0  0  0  0  0  1 V2000
  144.8513  144.7363  153.0601 C   0  0  0  0  0  0  0  0  0  0  0  0
  145.5018  143.6681  153.8704 C   0  0  0  0  0  0  0  0  0  0  0  0
  145.1274  143.4342  155.1220 N   0  0  0  0  0  0  0  0  0  0  0  0
  145.9581  142.3749  155.5151 O   0  0  0  0  0  0  0  0  0  0  0  0
  146.7501  142.1106  154.4482 C   0  0  0  0  0  0  0  0  0  0  0  0
  147.7249  140.9843  154.5346 C   0  0  0  0  0  0  0  0  0  0  0  0
  149.1657  141.4351  154.2473 C   0  0  0  0  0  0  0  0  0  0  0  0
  149.7993  142.0046  155.4310 N   0  0  0  0  0  0  0  0  0  0  0  0
  150.7422  141.3963  156.1736 C   0  0  0  0  0  0  0  0  0  0  0  0
  151.1668  140.2682  155.9218 O   0  0  0  0  0  0  0  0  0  0  0  0
  151.2569  142.1693  157.3358 C   0  0  0  0  0  0  0  0  0  0  0  0
  151.8485  141.5560  158.3130 N   0  0  0  0  0  0  0  0  0  0  0  0
  152.3512  142.2333  159.4055 N   0  0  0  0  0  0  0  0  0  0  0  0
  153.2178  141.4391  160.2742 C   0  0  0  0  0  0  0  0  0  0  0  0
  152.0658  143.5238  159.7113 C   0  0  0  0  0  0  0  0  0  0  0  0
  152.5314  144.1154  160.6851 O   0  0  0  0  0  0  0  0  0  0  0  0
  151.0793  144.2419  158.7860 C   0  0  0  0  0  0  0  0  0  0  0  0
  151.1084  143.6777  157.3515 C   0  0  0  0  0  0  0  0  0  0  0  0
  146.4974  142.8746  153.3881 N   0  0  0  0  0  0  0  0  0  0  0  0
  144.9863  145.7072  153.5372 H   0  0  0  0  0  0  0  0  0  0  0  0
  143.7830  144.5406  152.9650 H   0  0  0  0  0  0  0  0  0  0  0  0
  145.2841  144.7804  152.0602 H   0  0  0  0  0  0  0  0  0  0  0  0
  147.6605  140.5438  155.5304 H   0  0  0  0  0  0  0  0  0  0  0  0
  147.4197  140.2099  153.8298 H   0  0  0  0  0  0  0  0  0  0  0  0
  149.7597  140.6011  153.8694 H   0  0  0  0  0  0  0  0  0  0  0  0
  149.1667  142.1959  153.4660 H   0  0  0  0  0  0  0  0  0  0  0  0
  149.5064  142.9313  155.7062 H   0  0  0  0  0  0  0  0  0  0  0  0
  154.2059  141.8952  160.3526 H   0  0  0  0  0  0  0  0  0  0  0  0
  153.3534  140.4231  159.8993 H   0  0  0  0  0  0  0  0  0  0  0  0
  152.7939  141.3657  161.2769 H   0  0  0  0  0  0  0  0  0  0  0  0
  150.0824  144.1158  159.2100 H   0  0  0  0  0  0  0  0  0  0  0  0
  151.2839  145.3131  158.7769 H   0  0  0  0  0  0  0  0  0  0  0  0
  151.9311  144.1250  156.7925 H   0  0  0  0  0  0  0  0  0  0  0  0
  150.1916  143.9799  156.8436 H   0  0  0  0  0  0  0  0  0  0  0  0
  1  2  1  0  0  0  0
  1 20  1  0  0  0  0
  1 21  1  0  0  0  0
  1 22  1  0  0  0  0
  2 19  1  0  0  0  0
  2  3  2  0  0  0  0
  3  4  1  0  0  0  0
  4  5  1  0  0  0  0
  5  6  1  0  0  0  0
  5 19  2  0  0  0  0
  6  7  1  0  0  0  0
  6 23  1  0  0  0  0
  6 24  1  0  0  0  0
  7  8  1  0  0  0  0
  7 25  1  0  0  0  0
  7 26  1  0  0  0  0
  8  9  1  0  0  0  0
  8 27  1  0  0  0  0
  9 10  2  0  0  0  0
  9 11  1  0  0  0  0
 11 18  1  0  0  0  0
 11 12  2  0  0  0  0
 12 13  1  0  0  0  0
 13 14  1  0  0  0  0
 13 15  1  0  0  0  0
 14 28  1  0  0  0  0
 14 29  1  0  0  0  0
 14 30  1  0  0  0  0
 15 16  2  0  0  0  0
 15 17  1  0  0  0  0
 17 18  1  0  0  0  0
 17 31  1  0  0  0  0
 17 32  1  0  0  0  0
 18 33  1  0  0  0  0
 18 34  1  0  0  0  0
M  END
> <s_m_source_file>
AV-unprocessed.smi

> <i_m_source_file_index>
1864

> <i_lp_mmshare_version>
43012

> <i_f3d_flags>
0

> <s_epik_input>
W0NIM11jMW5vYyhuMSlbQ0gyXVtDSDJdW05IXUMoPU8pQzI9Tk4oW0NIM10pQyg9TylbQ0gyXVtDSDJdMg==

> <s_epik_cmdline>
J2VwaWtfcHl0aG9uJywgJy1waCcsICc3LjAnLCAnLXRuJywgJzgnLCAnLW1hJywgJzIwMCcsICctbWV0YWxfYmluZGluZycsICctaW1hZScsICc8aW5maWxlLm1hZT4nLCAnLW9tYWUnLCAnPG91dGZpbGUubWFlPic=

> <r_lp_tautomer_probability>
1

> <r_epik_Ionization_Penalty>
0.00011851

> <r_epik_Ionization_Penalty_Charging>
0

> <r_epik_Ionization_Penalty_Neutral>
0.00011851

> <r_epik_State_Penalty>
-0

> <r_epik_Charging_Adjusted_Penalty>
0

> <i_epik_Tot_Q>
0

> <i_epik_Tot_abs_Q>
0

> <r_epik_Metal_State_Penalty>
0.091363

> <b_epik_Metal_Only>
0

> <s_epik_Chemistry_Notes>
This compound has an imine and may undergo hydrolysis.

> <s_lp_Force_Field>
OPLS_2005

> <r_lp_Energy>
12.468

> <b_lp_Chiralities_Consistent>
1

> <s_lp_Variant>
AV-unprocessed.smi:1864-1

> <Gold.Version>
5.8.1

> <Gold.Id.Protein>
6NUR|6NUR_protein|mol2

> <Gold.PLP.Fitness>
38.4317

> <Gold.PLP.PLP>
-36.2280

> <Gold.PLP.part.hbond>
-1.4860

> <Gold.PLP.part.metal>
0.0000

> <Gold.PLP.part.buried>
1.1294

> <Gold.PLP.part.nonpolar>
-35.7855

> <Gold.PLP.part.repulsive>
0.8247

> <Gold.PLP.ligand.clash>
0.0000

> <Gold.PLP.ligand.torsion>
0.4049

> <Gold.PLP.Chemscore.Hbond>
1.0000

> <Gold.PLP.Chemscore.CHOScore>
0.0000

> <Gold.PLP.Chemscore.Metal>
0.0000

> <Gold.Chemscore.Hbonds>
donor molecule, donor type, donor heavy atom, donor atom, acceptor molecule, acceptor atom, score
      L1  H     8    27       P1  8028  1.00

> <Gold.PLP.Chemscore.Internal.Correction>
0.0135

> <Gold.Rescore>
     Score         DG    S(hbond)    S(metal)    S(lipo)     H(rot)  DE(clash)    DE(int)     intcor
     10.53     -11.37       1.00        0.00      61.35       1.80       0.50       0.34       ----

> <Gold.Chemscore.Fitness>
10.5317

> <Gold.Chemscore.DG>
-11.3722

> <Gold.Chemscore.ZeroCoef>
-5.4800

> <Gold.Chemscore.Hbond>
0.9974

> <Gold.Chemscore.Metal>
0.0000

> <Gold.Chemscore.Lipo>
61.3483

> <Gold.Chemscore.Internal_Hbond>
0.0000

> <Gold.Chemscore.DEClash>
0.5017

> <Gold.Chemscore.DEInternal>
0.3387

> <Gold.Chemscore.Rot>
1.8034

> <Gold.Chemscore.Internal.Correction>
   9.000000E+99

> <Gold.Chemscore.Hbonds>
donor molecule, donor type, donor heavy atom, donor atom, acceptor molecule, acceptor atom, score
      L1  H     8    27       P1  8028  1.00

> <Gold.Chemscore.Hbond.Weighted>
-3.3312

> <Gold.Chemscore.Metal.Weighted>
-0.0000

> <Gold.Chemscore.Lipo.Weighted>
-7.1778

> <Gold.Chemscore.Internal_Hbond.Weighted>
0.0000

> <Gold.Chemscore.DEClash.Weighted>
0.5017

> <Gold.Chemscore.DEInternal.Weighted>
0.3387

> <Gold.Chemscore.Rot.Weighted>
4.6167

> <Gold.Chemscore.Internal.Correction.Weighted>
   9.000000E+99

> <Gold.Protein.RotatedTorsions>
[ 6907 6896 6895 6894 ] final   84.20 input  -60.11 | X-H torsion
[ 7974 7965 7964 7962 ] final  159.69 input  175.53 | X-H torsion
[ 8008 7997 7996 7995 ] final -161.61 input   59.86 | X-H torsion
[ 10167 10162 10161 10158 ] final   34.75 input  -65.29 | X-H torsion
[ 10718 10713 10712 10709 ] final -143.52 input   66.30 | X-H torsion
[ 10763 10752 10751 10750 ] final  158.59 input  -60.55 | X-H torsion
[ 11005 11000 10999 10996 ] final   47.65 input  -57.11 | X-H torsion

> <Gold.Protein.ActiveResidues>
 VAL166  LYS551  ARG553  GLY616  TRP617  ASP618  TYR619  PRO620  LYS621  CYS622 
 ASP623  PHE694  ASN695  SER759  ASP760  ASP761  ALA762  ILE779  LEU786  VAL792 
 PHE793  MET794  SER795  GLU796  ALA797  LYS798  CYS799  TRP800  GLU811  SER814 

> <Gold.Protein.RotatedAtoms>
  152.5346  134.2778  159.8995 H   0  0  0  0  0  0  0  0  0  0  0  0  # atno 6907 bound_to 6896
  151.2733  133.4238  159.2630 H   0  0  0  0  0  0  0  0  0  0  0  0  # atno 6908 bound_to 6896
  151.0348  134.9580  159.8187 H   0  0  0  0  0  0  0  0  0  0  0  0  # atno 6909 bound_to 6896
  144.7777  139.7652  143.6272 H   0  0  0  0  0  0  0  0  0  0  0  0  # atno 7974 bound_to 7965
  155.7947  140.0883  157.1990 H   0  0  0  0  0  0  0  0  0  0  0  0  # atno 8008 bound_to 7997
  154.3984  140.1483  156.3262 H   0  0  0  0  0  0  0  0  0  0  0  0  # atno 8009 bound_to 7997
  155.8523  140.3434  155.5704 H   0  0  0  0  0  0  0  0  0  0  0  0  # atno 8010 bound_to 7997
  140.4286  144.1358  150.6156 H   0  0  0  0  0  0  0  0  0  0  0  0  # atno 10167 bound_to 10162
  156.3590  130.7728  151.1893 H   0  0  0  0  0  0  0  0  0  0  0  0  # atno 10718 bound_to 10713
  154.2185  135.2783  155.2933 H   0  0  0  0  0  0  0  0  0  0  0  0  # atno 10763 bound_to 10752
  154.5721  135.5615  153.7108 H   0  0  0  0  0  0  0  0  0  0  0  0  # atno 10764 bound_to 10752
  153.0047  135.6324  154.2324 H   0  0  0  0  0  0  0  0  0  0  0  0  # atno 10765 bound_to 10752
  140.1260  134.4767  155.8559 H   0  0  0  0  0  0  0  0  0  0  0  0  # atno 11005 bound_to 11000
  146.1966  139.5236  142.9770 LP  0  0  0  0  0  0  0  0  0  0  0  0  # atno 17320 bound_to 7965
  145.6140  141.0334  143.1951 LP  0  0  0  0  0  0  0  0  0  0  0  0  # atno 17321 bound_to 7965
  140.4453  143.2509  151.9419 LP  0  0  0  0  0  0  0  0  0  0  0  0  # atno 17342 bound_to 10162
  139.4784  144.5615  151.8232 LP  0  0  0  0  0  0  0  0  0  0  0  0  # atno 17343 bound_to 10162
  157.7471  131.0405  150.4603 LP  0  0  0  0  0  0  0  0  0  0  0  0  # atno 17370 bound_to 10713
  156.4811  130.4074  149.6461 LP  0  0  0  0  0  0  0  0  0  0  0  0  # atno 17371 bound_to 10713
  141.2161  133.6778  156.6980 LP  0  0  0  0  0  0  0  0  0  0  0  0  # atno 17394 bound_to 11000
  140.2903  134.8246  157.4011 LP  0  0  0  0  0  0  0  0  0  0  0  0  # atno 17395 bound_to 11000

$$$$
