AV-unprocessed.smi:599|AV-procd|sdf|3029|dock5
  -GOLD-   2262023543D 1   1.00000     0.00000
 Structure written by MMmdl.
 36 37  0  0  0  0  0  0  0  0  1 V2000
  146.2541  141.9213  159.2507 N   0  0  0  0  0  0  0  0  0  0  0  0
  146.5351  141.8833  158.1288 C   0  0  0  0  0  0  0  0  0  0  0  0
  146.8945  141.8347  156.6981 C   0  0  0  0  0  0  0  0  0  0  0  0
  148.3428  141.8823  156.4979 N   0  0  0  0  0  0  0  0  0  0  0  0
  149.2205  140.9384  156.8728 C   0  0  0  0  0  0  0  0  0  0  0  0
  148.8882  139.8930  157.4320 O   0  0  0  0  0  0  0  0  0  0  0  0
  150.6940  141.2184  156.5470 C   0  0  0  0  0  0  0  0  0  0  0  0
  151.4902  141.5665  157.7357 N   0  0  0  0  0  0  0  0  0  0  0  0
  151.1610  142.7627  158.4031 C   0  0  0  0  0  0  0  0  0  0  0  0
  151.8058  143.1876  159.5068 C   0  0  0  0  0  0  0  0  0  0  0  0
  151.4710  144.5149  160.1692 C   0  0  0  0  0  0  0  0  0  0  0  0
  150.1813  144.5729  160.5015 F   0  0  0  0  0  0  0  0  0  0  0  0
  152.1967  144.7006  161.2725 F   0  0  0  0  0  0  0  0  0  0  0  0
  151.7283  145.5169  159.3299 F   0  0  0  0  0  0  0  0  0  0  0  0
  152.8993  142.3584  159.9744 C   0  0  0  0  0  0  0  0  0  0  0  0
  153.2364  141.2189  159.3394 C   0  0  0  0  0  0  0  0  0  0  0  0
  152.5154  140.7626  158.1490 C   0  0  0  0  0  0  0  0  0  0  0  0
  152.8138  139.7232  157.5600 O   0  0  0  0  0  0  0  0  0  0  0  0
  146.3327  140.5558  156.0629 C   0  0  0  0  0  0  0  0  0  0  0  0
  144.8662  140.8718  155.7725 C   0  0  0  0  0  0  0  0  0  0  0  0
  144.8373  142.3623  155.4233 C   0  0  0  0  0  0  0  0  0  0  0  0
  146.1712  142.9480  155.9111 C   0  0  0  0  0  0  0  0  0  0  0  0
  148.7065  142.7046  156.0385 H   0  0  0  0  0  0  0  0  0  0  0  0
  151.1055  140.3368  156.0541 H   0  0  0  0  0  0  0  0  0  0  0  0
  150.7608  142.0167  155.8051 H   0  0  0  0  0  0  0  0  0  0  0  0
  150.3543  143.3215  157.9511 H   0  0  0  0  0  0  0  0  0  0  0  0
  153.4566  142.6537  160.8512 H   0  0  0  0  0  0  0  0  0  0  0  0
  154.0563  140.6255  159.7168 H   0  0  0  0  0  0  0  0  0  0  0  0
  146.8420  140.3445  155.1209 H   0  0  0  0  0  0  0  0  0  0  0  0
  146.4509  139.6794  156.7013 H   0  0  0  0  0  0  0  0  0  0  0  0
  144.4545  140.2481  154.9784 H   0  0  0  0  0  0  0  0  0  0  0  0
  144.2716  140.6963  156.6700 H   0  0  0  0  0  0  0  0  0  0  0  0
  144.7366  142.5050  154.3466 H   0  0  0  0  0  0  0  0  0  0  0  0
  143.9874  142.8540  155.8977 H   0  0  0  0  0  0  0  0  0  0  0  0
  146.0255  143.8458  156.5133 H   0  0  0  0  0  0  0  0  0  0  0  0
  146.7597  143.2439  155.0408 H   0  0  0  0  0  0  0  0  0  0  0  0
  1  2  3  0  0  0  0
  2  3  1  0  0  0  0
  3 22  1  0  0  0  0
  3  4  1  0  0  0  0
  3 19  1  0  0  0  0
  4  5  1  0  0  0  0
  4 23  1  0  0  0  0
  5  6  2  0  0  0  0
  5  7  1  0  0  0  0
  7  8  1  0  0  0  0
  7 24  1  0  0  0  0
  7 25  1  0  0  0  0
  8 17  1  0  0  0  0
  8  9  1  0  0  0  0
  9 10  2  0  0  0  0
  9 26  1  0  0  0  0
 10 11  1  0  0  0  0
 10 15  1  0  0  0  0
 11 12  1  0  0  0  0
 11 13  1  0  0  0  0
 11 14  1  0  0  0  0
 15 16  2  0  0  0  0
 15 27  1  0  0  0  0
 16 17  1  0  0  0  0
 16 28  1  0  0  0  0
 17 18  2  0  0  0  0
 19 20  1  0  0  0  0
 19 29  1  0  0  0  0
 19 30  1  0  0  0  0
 20 21  1  0  0  0  0
 20 31  1  0  0  0  0
 20 32  1  0  0  0  0
 21 22  1  0  0  0  0
 21 33  1  0  0  0  0
 21 34  1  0  0  0  0
 22 35  1  0  0  0  0
 22 36  1  0  0  0  0
M  END
> <s_m_source_file>
AV-unprocessed.smi

> <i_m_source_file_index>
599

> <i_lp_mmshare_version>
43012

> <i_f3d_flags>
0

> <s_epik_input>
W0NIMl0xW0NIMl1bQ0gyXVtDSDJdQzEoQyNOKVtOSF1DKD1PKVtDSDJdbjJbY0hdYyhDKEYpKEYpRilbY0hdW2NIXWMyPU8=

> <s_epik_cmdline>
J2VwaWtfcHl0aG9uJywgJy1waCcsICc3LjAnLCAnLXRuJywgJzgnLCAnLW1hJywgJzIwMCcsICctbWV0YWxfYmluZGluZycsICctaW1hZScsICc8aW5maWxlLm1hZT4nLCAnLW9tYWUnLCAnPG91dGZpbGUubWFlPic=

> <r_lp_tautomer_probability>
1

> <r_epik_Ionization_Penalty>
4.74739e-07

> <r_epik_Ionization_Penalty_Charging>
1.48482e-08

> <r_epik_Ionization_Penalty_Neutral>
4.59891e-07

> <r_epik_State_Penalty>
-0

> <r_epik_Charging_Adjusted_Penalty>
1.48482e-08

> <i_epik_Tot_Q>
0

> <i_epik_Tot_abs_Q>
0

> <r_epik_Metal_State_Penalty>
-0

> <b_epik_Metal_Only>
0

> <s_lp_Force_Field>
OPLS_2005

> <r_lp_Energy>
29.4695

> <b_lp_Chiralities_Consistent>
1

> <s_lp_Variant>
AV-unprocessed.smi:599-1

> <Gold.Version>
5.8.1

> <Gold.Id.Protein>
6NUR|6NUR_protein|mol2

> <Gold.PLP.Fitness>
46.3420

> <Gold.PLP.PLP>
-38.0359

> <Gold.PLP.part.hbond>
-3.0000

> <Gold.PLP.part.metal>
0.0000

> <Gold.PLP.part.buried>
-3.3906

> <Gold.PLP.part.nonpolar>
-30.1351

> <Gold.PLP.part.repulsive>
0.0189

> <Gold.PLP.ligand.clash>
0.0000

> <Gold.PLP.ligand.torsion>
0.3525

> <Gold.PLP.Chemscore.Hbond>
2.9825

> <Gold.PLP.Chemscore.CHOScore>
0.0000

> <Gold.PLP.Chemscore.Metal>
0.0000

> <Gold.Chemscore.Hbonds>
donor molecule, donor type, donor heavy atom, donor atom, acceptor molecule, acceptor atom, score
      L1  H     4    23       P1  8028  0.94
      P1  H  6934  6946       L1     1  0.99
      P1  H  7997  8010       L1    18  1.00

> <Gold.PLP.Chemscore.Internal.Correction>
0.0636

> <Gold.Rescore>
     Score         DG    S(hbond)    S(metal)    S(lipo)     H(rot)  DE(clash)    DE(int)     intcor
     16.88     -18.72       2.87        0.00      67.65       1.66       0.41       1.43       ----

> <Gold.Chemscore.Fitness>
16.8783

> <Gold.Chemscore.DG>
-18.7224

> <Gold.Chemscore.ZeroCoef>
-5.4800

> <Gold.Chemscore.Hbond>
2.8673

> <Gold.Chemscore.Metal>
0.0000

> <Gold.Chemscore.Lipo>
67.6465

> <Gold.Chemscore.Internal_Hbond>
0.0000

> <Gold.Chemscore.DEClash>
0.4096

> <Gold.Chemscore.DEInternal>
1.4345

> <Gold.Chemscore.Rot>
1.6599

> <Gold.Chemscore.Internal.Correction>
   9.000000E+99

> <Gold.Chemscore.Hbonds>
donor molecule, donor type, donor heavy atom, donor atom, acceptor molecule, acceptor atom, score
      L1  H     4    23       P1  8028  0.88
      P1  H  6934  6946       L1     1  0.94
      P1  H  7997  8010       L1    18  0.55

> <Gold.Chemscore.Hbond.Weighted>
-9.5769

> <Gold.Chemscore.Metal.Weighted>
-0.0000

> <Gold.Chemscore.Lipo.Weighted>
-7.9146

> <Gold.Chemscore.Internal_Hbond.Weighted>
0.0000

> <Gold.Chemscore.DEClash.Weighted>
0.4096

> <Gold.Chemscore.DEInternal.Weighted>
1.4345

> <Gold.Chemscore.Rot.Weighted>
4.2492

> <Gold.Chemscore.Internal.Correction.Weighted>
   9.000000E+99

> <Gold.Protein.RotatedTorsions>
[ 6907 6896 6895 6894 ] final  -16.60 input  -60.11 | X-H torsion
[ 7974 7965 7964 7962 ] final   73.47 input  175.53 | X-H torsion
[ 8008 7997 7996 7995 ] final   56.97 input   59.86 | X-H torsion
[ 10167 10162 10161 10158 ] final   63.85 input  -65.29 | X-H torsion
[ 10718 10713 10712 10709 ] final   25.13 input   66.30 | X-H torsion
[ 10763 10752 10751 10750 ] final  -76.49 input  -60.55 | X-H torsion
[ 11005 11000 10999 10996 ] final    0.54 input  -57.11 | X-H torsion

> <Gold.Protein.ActiveResidues>
 VAL166  LYS551  ARG553  GLY616  TRP617  ASP618  TYR619  PRO620  LYS621  CYS622 
 ASP623  PHE694  ASN695  SER759  ASP760  ASP761  ALA762  ILE779  LEU786  VAL792 
 PHE793  MET794  SER795  GLU796  ALA797  LYS798  CYS799  TRP800  GLU811  SER814 

> <Gold.Protein.RotatedAtoms>
  151.3061  135.0782  159.9255 H   0  0  0  0  0  0  0  0  0  0  0  0  # atno 6907 bound_to 6896
  152.5287  133.9783  159.7805 H   0  0  0  0  0  0  0  0  0  0  0  0  # atno 6908 bound_to 6896
  151.0078  133.5942  159.2717 H   0  0  0  0  0  0  0  0  0  0  0  0  # atno 6909 bound_to 6896
  145.7404  139.2719  143.1489 H   0  0  0  0  0  0  0  0  0  0  0  0  # atno 7974 bound_to 7965
  155.5262  140.3481  155.4417 H   0  0  0  0  0  0  0  0  0  0  0  0  # atno 8008 bound_to 7997
  156.0750  140.1372  156.9809 H   0  0  0  0  0  0  0  0  0  0  0  0  # atno 8009 bound_to 7997
  154.4548  140.0958  156.6701 H   0  0  0  0  0  0  0  0  0  0  0  0  # atno 8010 bound_to 7997
  140.1285  144.4665  150.6878 H   0  0  0  0  0  0  0  0  0  0  0  0  # atno 10167 bound_to 10162
  157.1891  130.6838  149.6143 H   0  0  0  0  0  0  0  0  0  0  0  0  # atno 10718 bound_to 10713
  154.5005  135.5796  153.6527 H   0  0  0  0  0  0  0  0  0  0  0  0  # atno 10763 bound_to 10752
  152.9878  135.6134  154.3009 H   0  0  0  0  0  0  0  0  0  0  0  0  # atno 10764 bound_to 10752
  154.2916  135.2848  155.2631 H   0  0  0  0  0  0  0  0  0  0  0  0  # atno 10765 bound_to 10752
  140.6254  133.9623  155.8246 H   0  0  0  0  0  0  0  0  0  0  0  0  # atno 11005 bound_to 11000
  146.0453  140.8124  142.9808 LP  0  0  0  0  0  0  0  0  0  0  0  0  # atno 17320 bound_to 7965
  144.6872  140.2971  143.7269 LP  0  0  0  0  0  0  0  0  0  0  0  0  # atno 17321 bound_to 7965
  140.6831  143.2336  151.5333 LP  0  0  0  0  0  0  0  0  0  0  0  0  # atno 17342 bound_to 10162
  139.5532  144.2343  152.1566 LP  0  0  0  0  0  0  0  0  0  0  0  0  # atno 17343 bound_to 10162
  155.9714  130.4620  150.6132 LP  0  0  0  0  0  0  0  0  0  0  0  0  # atno 17370 bound_to 10713
  157.3878  131.0791  151.1421 LP  0  0  0  0  0  0  0  0  0  0  0  0  # atno 17371 bound_to 10713
  141.0713  134.0201  157.3522 LP  0  0  0  0  0  0  0  0  0  0  0  0  # atno 17394 bound_to 11000
  139.9137  135.0194  156.7794 LP  0  0  0  0  0  0  0  0  0  0  0  0  # atno 17395 bound_to 11000

$$$$
