#       Name:                AV-unprocessed.smi:1871
#       Creating user name   scv26
#       Creation time:       Fri Mar 27 09:31:40 2020


#       File generated by GOLD software.
#

@<TRIPOS>MOLECULE
AV-unprocessed.smi:1871
    47    49     1
SMALL
NO_CHARGES


@<TRIPOS>ATOM
      1 ****        -3.5556   0.7094  -2.4981 O.3            1 S1                 0.0000
      2 ****        -2.4280   1.5488  -2.6225 C.3            1 S1                 0.0000
      3 ****        -2.0796   2.2379  -1.3389 C.2            1 S1                 0.0000
      4 ****        -2.4309   3.5021  -1.1007 N.2            1 S1                 0.0000
      5 ****        -1.9272   3.7249   0.1659 C.ar           1 S1                 0.0000
      6 ****        -1.9685   4.8782   0.9818 C.ar           1 S1                 0.0000
      7 ****        -1.3754   4.8688   2.2615 C.ar           1 S1                 0.0000
      8 ****        -0.7342   3.7090   2.7428 C.ar           1 S1                 0.0000
      9 ****        -0.6813   2.5494   1.9456 C.ar           1 S1                 0.0000
     10 ****        -1.2742   2.5644   0.6690 C.ar           1 S1                 0.0000
     11 ****        -1.3939   1.6189  -0.3441 N.pl3          1 S1                 0.0000
     12 ****        -0.8757   0.2578  -0.3051 C.3            1 S1                 0.0000
     13 ****         0.6435   0.1977  -0.5622 C.3            1 S1                 0.0000
     14 ****         0.9444   0.7606  -1.8245 O.3            1 S1                 0.0000
     15 ****         1.1724  -1.2213  -0.4259 C.ar           1 S1                 0.0000
     16 ****         0.9649  -2.1677  -1.4520 C.ar           1 S1                 0.0000
     17 ****         1.4537  -3.4811  -1.3155 C.ar           1 S1                 0.0000
     18 ****         2.1460  -3.8725  -0.1520 C.ar           1 S1                 0.0000
     19 ****         2.6099  -5.1669  -0.0855 O.3            1 S1                 0.0000
     20 ****         2.7406  -5.7678   1.1272 C.3            1 S1                 0.0000
     21 ****         2.5575  -7.1040   0.9984 F              1 S1                 0.0000
     22 ****         3.9877  -5.5719   1.6209 F              1 S1                 0.0000
     23 ****         2.3599  -2.9195   0.8728 C.ar           1 S1                 0.0000
     24 ****         1.8715  -1.6055   0.7372 C.ar           1 S1                 0.0000
     25 ****        -3.3556   0.0317  -1.8710 H              1 S1                 0.0000
     26 ****        -1.5778   0.9677  -2.9790 H              1 S1                 0.0000
     27 ****        -2.6357   2.2979  -3.3874 H              1 S1                 0.0000
     28 ****        -2.4570   5.7716   0.6221 H              1 S1                 0.0000
     29 ****        -1.4128   5.7556   2.8771 H              1 S1                 0.0000
     30 ****        -0.2823   3.7105   3.7239 H              1 S1                 0.0000
     31 ****        -0.1906   1.6594   2.3105 H              1 S1                 0.0000
     32 ****        -1.1002  -0.1565   0.6786 H              1 S1                 0.0000
     33 ****        -1.4139  -0.3627  -1.0215 H              1 S1                 0.0000
     34 ****         1.1477   0.8196   0.1788 H              1 S1                 0.0000
     35 ****         1.8840   0.8138  -1.9120 H              1 S1                 0.0000
     36 ****         0.4292  -1.8897  -2.3480 H              1 S1                 0.0000
     37 ****         1.2918  -4.1958  -2.1092 H              1 S1                 0.0000
     38 ****         2.0045  -5.3986   1.8417 H              1 S1                 0.0000
     39 ****         2.9034  -3.1814   1.7684 H              1 S1                 0.0000
     40 ****         2.0392  -0.8925   1.5311 H              1 S1                 0.0000
     41 ****        -3.7692   0.2974  -3.3839 LP             1 S1                 0.0000
     42 ****        -4.3399   1.2424  -2.1806 LP             1 S1                 0.0000
     43 ****        -2.9340   4.1322  -1.6922 LP             1 S1                 0.0000
     44 ****         0.5470   1.6760  -1.8893 LP             1 S1                 0.0000
     45 ****         0.5700   0.1827  -2.5497 LP             1 S1                 0.0000
     46 ****         3.5137  -5.1747  -0.5134 LP             1 S1                 0.0000
     47 ****         1.9817  -5.7294  -0.6231 LP             1 S1                 0.0000
@<TRIPOS>BOND
    1    1    2 1     
    2    1   25 1     
    3    2    3 1     
    4    2   26 1     
    5    2   27 1     
    6    3   11 1     
    7    3    4 2     
    8    4    5 1     
    9    5   10 ar    
   10    5    6 ar    
   11    6    7 ar    
   12    6   28 1     
   13    7    8 ar    
   14    7   29 1     
   15    8    9 ar    
   16    8   30 1     
   17    9   10 ar    
   18    9   31 1     
   19   10   11 1     
   20   11   12 1     
   21   12   13 1     
   22   12   32 1     
   23   12   33 1     
   24   13   14 1     
   25   13   15 1     
   26   13   34 1     
   27   14   35 1     
   28   15   24 ar    
   29   15   16 ar    
   30   16   17 ar    
   31   16   36 1     
   32   17   18 ar    
   33   17   37 1     
   34   18   19 1     
   35   18   23 ar    
   36   19   20 1     
   37   20   21 1     
   38   20   22 1     
   39   20   38 1     
   40   23   24 ar    
   41   23   39 1     
   42   24   40 1     
   43    1   41 1     
   44    1   42 1     
   45    4   43 1     
   46   14   44 1     
   47   14   45 1     
   48   19   46 1     
   49   19   47 1     
@<TRIPOS>SUBSTRUCTURE
      1 S1             1
@<TRIPOS>SET
LONE_PAIRS      STATIC     ATOMS    <user>   **** ""
7 41 42 43 44 45 46 47
DONOR_HYDROGENS      STATIC     ATOMS    <user>   **** ""
2 25 35
ATOM$BLUE        STATIC     ATOMS    COLORGROUP SYSTEM
7 41 42 43 44 45 46 47
ATOM$RED        STATIC     ATOMS    COLORGROUP SYSTEM
2 25 35
