#       Name:                AV-unprocessed.smi:1277
#       Creating user name   scv26
#       Creation time:       Fri Mar 27 04:47:50 2020


#       File generated by GOLD software.
#

@<TRIPOS>MOLECULE
AV-unprocessed.smi:1277
    52    53     1
SMALL
NO_CHARGES


@<TRIPOS>ATOM
      1 ****        -2.7447   7.7647   1.3166 C.3            1 S1                 0.0000
      2 ****        -2.4669   6.3941   1.0900 O.3            1 S1                 0.0000
      3 ****        -2.3609   6.0817  -0.2893 C.3            1 S1                 0.0000
      4 ****        -2.0408   4.5920  -0.4445 C.3            1 S1                 0.0000
      5 ****        -0.6867   4.3746  -0.0602 O.3            1 S1                 0.0000
      6 ****        -0.1831   3.0913  -0.1127 C.ar           1 S1                 0.0000
      7 ****         1.1464   2.8741   0.2991 C.ar           1 S1                 0.0000
      8 ****         1.6660   1.5671   0.2509 C.ar           1 S1                 0.0000
      9 ****         0.8433   0.5151  -0.1993 C.ar           1 S1                 0.0000
     10 ****         1.4041  -0.7898  -0.2499 N.am           1 S1                 0.0000
     11 ****         0.7739  -1.9785  -0.2767 C.2            1 S1                 0.0000
     12 ****        -0.4494  -2.1207  -0.2668 O.2            1 S1                 0.0000
     13 ****         1.6981  -3.2115  -0.3207 C.3            1 S1                 0.0000
     14 ****         1.9191  -3.6783  -1.7672 C.3            1 S1                 0.0000
     15 ****         0.8242  -4.7069  -2.0081 C.3            1 S1                 0.0000
     16 ****         0.6095  -5.3507  -0.6369 C.3            1 S1                 0.0000
     17 ****         1.1009  -4.3789   0.3437 N.am           1 S1                 0.0000
     18 ****         1.0585  -4.5476   1.6838 C.2            1 S1                 0.0000
     19 ****         0.4188  -5.8215   2.2391 C.3            1 S1                 0.0000
     20 ****         1.5134  -3.7182   2.4716 O.2            1 S1                 0.0000
     21 ****        -0.4748   0.8378  -0.6055 C.ar           1 S1                 0.0000
     22 ****        -0.9790   2.0897  -0.5620 N.ar           1 S1                 0.0000
     23 ****         2.6581  -2.9631   0.1368 H              1 S1                 0.0000
     24 ****        -2.8124   7.9523   2.3882 H              1 S1                 0.0000
     25 ****        -3.6929   8.0557   0.8630 H              1 S1                 0.0000
     26 ****        -1.9542   8.3990   0.9138 H              1 S1                 0.0000
     27 ****        -3.3093   6.3033  -0.7809 H              1 S1                 0.0000
     28 ****        -1.5921   6.6883  -0.7706 H              1 S1                 0.0000
     29 ****        -2.7262   3.9940   0.1588 H              1 S1                 0.0000
     30 ****        -2.1734   4.3047  -1.4887 H              1 S1                 0.0000
     31 ****         1.7556   3.6952   0.6469 H              1 S1                 0.0000
     32 ****         2.6832   1.3772   0.5608 H              1 S1                 0.0000
     33 ****         2.4113  -0.8290  -0.1921 H              1 S1                 0.0000
     34 ****         1.9016  -2.8694  -2.4993 H              1 S1                 0.0000
     35 ****         2.8934  -4.1628  -1.8447 H              1 S1                 0.0000
     36 ****        -0.0891  -4.1996  -2.3217 H              1 S1                 0.0000
     37 ****         1.0836  -5.4316  -2.7803 H              1 S1                 0.0000
     38 ****        -0.4416  -5.5954  -0.4786 H              1 S1                 0.0000
     39 ****         1.1917  -6.2700  -0.5571 H              1 S1                 0.0000
     40 ****         0.9465  -6.7064   1.8828 H              1 S1                 0.0000
     41 ****        -0.6268  -5.8905   1.9380 H              1 S1                 0.0000
     42 ****         0.4540  -5.8260   3.3291 H              1 S1                 0.0000
     43 ****        -1.1519   0.0953  -0.9976 H              1 S1                 0.0000
     44 ****        -3.2044   5.8476   1.4867 LP             1 S1                 0.0000
     45 ****        -1.6032   6.1637   1.5382 LP             1 S1                 0.0000
     46 ****        -0.5943   4.6890   0.8845 LP             1 S1                 0.0000
     47 ****        -0.1166   4.9395  -0.6568 LP             1 S1                 0.0000
     48 ****        -1.0458  -1.3186  -0.2371 LP             1 S1                 0.0000
     49 ****        -0.8463  -3.0383  -0.2885 LP             1 S1                 0.0000
     50 ****         1.9352  -2.8797   2.1266 LP             1 S1                 0.0000
     51 ****         1.4612  -3.8830   3.4565 LP             1 S1                 0.0000
     52 ****        -1.9174   2.2738  -0.8543 LP             1 S1                 0.0000
@<TRIPOS>BOND
    1    1    2 1     
    2    1   24 1     
    3    1   25 1     
    4    1   26 1     
    5    2    3 1     
    6    3    4 1     
    7    3   27 1     
    8    3   28 1     
    9    4    5 1     
   10    4   29 1     
   11    4   30 1     
   12    5    6 1     
   13    6   22 ar    
   14    6    7 ar    
   15    7    8 ar    
   16    7   31 1     
   17    8    9 ar    
   18    8   32 1     
   19    9   10 1     
   20    9   21 ar    
   21   10   11 am    
   22   10   33 1     
   23   11   12 2     
   24   11   13 1     
   25   13   23 1     
   26   13   17 1     
   27   13   14 1     
   28   14   15 1     
   29   14   34 1     
   30   14   35 1     
   31   15   16 1     
   32   15   36 1     
   33   15   37 1     
   34   16   17 1     
   35   16   38 1     
   36   16   39 1     
   37   17   18 am    
   38   18   19 1     
   39   18   20 2     
   40   19   40 1     
   41   19   41 1     
   42   19   42 1     
   43   21   22 ar    
   44   21   43 1     
   45    2   44 1     
   46    2   45 1     
   47    5   46 1     
   48    5   47 1     
   49   12   48 1     
   50   12   49 1     
   51   20   50 1     
   52   20   51 1     
   53   22   52 1     
@<TRIPOS>SUBSTRUCTURE
      1 S1             1
@<TRIPOS>SET
LONE_PAIRS      STATIC     ATOMS    <user>   **** ""
9 44 45 46 47 48 49 50 51 52
DONOR_HYDROGENS      STATIC     ATOMS    <user>   **** ""
1 33
ATOM$BLUE        STATIC     ATOMS    COLORGROUP SYSTEM
9 44 45 46 47 48 49 50 51 52
ATOM$RED        STATIC     ATOMS    COLORGROUP SYSTEM
1 33
