#       Name:                AV-unprocessed.smi:2822
#       Creating user name   scv26
#       Creation time:       Fri Mar 27 15:31:26 2020


#       File generated by GOLD software.
#

@<TRIPOS>MOLECULE
AV-unprocessed.smi:2822
    43    45     1
SMALL
NO_CHARGES


@<TRIPOS>ATOM
      1 ****        -3.4593   1.7341  -0.5191 Cl             1 S1                 0.0000
      2 ****        -2.5136   3.1820  -0.4982 C.ar           1 S1                 0.0000
      3 ****        -3.1550   4.4374  -0.4728 C.ar           1 S1                 0.0000
      4 ****        -2.4902   5.6117  -0.4542 N.ar           1 S1                 0.0000
      5 ****        -1.1415   5.5707  -0.4603 C.ar           1 S1                 0.0000
      6 ****        -0.4017   4.3715  -0.4841 C.ar           1 S1                 0.0000
      7 ****        -1.1004   3.1417  -0.5041 C.ar           1 S1                 0.0000
      8 ****        -0.4468   1.9009  -0.5289 N.pl3          1 S1                 0.0000
      9 ****         1.0054   1.8016  -0.4934 C.3            1 S1                 0.0000
     10 ****         1.4863   0.3416  -0.4436 C.3            1 S1                 0.0000
     11 ****         0.9910  -0.4267   0.7989 C.3            1 S1                 0.0000
     12 ****         1.4399  -1.8402   0.7513 N.4            1 S1                 1.0000
     13 ****         1.0300  -2.6402   1.9350 C.3            1 S1                 0.0000
     14 ****        -0.4660  -3.0094   1.9002 C.3            1 S1                 0.0000
     15 ****        -0.8331  -3.7095   0.5844 C.3            1 S1                 0.0000
     16 ****        -0.4038  -2.8549  -0.6168 C.3            1 S1                 0.0000
     17 ****         1.0981  -2.5040  -0.5372 C.3            1 S1                 0.0000
     18 ****         1.5734  -1.6438  -1.7245 C.3            1 S1                 0.0000
     19 ****         1.0527  -0.3241  -1.6250 O.3            1 S1                 0.0000
     20 ****        -4.2332   4.5009  -0.4665 H              1 S1                 0.0000
     21 ****        -0.6344   6.5240  -0.4461 H              1 S1                 0.0000
     22 ****         0.6769   4.4167  -0.4894 H              1 S1                 0.0000
     23 ****        -0.9935   1.0529  -0.5802 H              1 S1                 0.0000
     24 ****         1.4184   2.2939  -1.3745 H              1 S1                 0.0000
     25 ****         1.3796   2.3371   0.3798 H              1 S1                 0.0000
     26 ****         2.5777   0.3564  -0.4370 H              1 S1                 0.0000
     27 ****         1.3757   0.0460   1.7034 H              1 S1                 0.0000
     28 ****        -0.0962  -0.3848   0.8608 H              1 S1                 0.0000
     29 ****         1.6267  -3.5532   1.9528 H              1 S1                 0.0000
     30 ****         1.2695  -2.0995   2.8514 H              1 S1                 0.0000
     31 ****        -0.7054  -3.6584   2.7431 H              1 S1                 0.0000
     32 ****        -1.0782  -2.1159   2.0248 H              1 S1                 0.0000
     33 ****        -0.3411  -4.6819   0.5375 H              1 S1                 0.0000
     34 ****        -1.9059  -3.9006   0.5460 H              1 S1                 0.0000
     35 ****        -0.6102  -3.3963  -1.5407 H              1 S1                 0.0000
     36 ****        -1.0065  -1.9468  -0.6569 H              1 S1                 0.0000
     37 ****         1.6546  -3.4420  -0.5715 H              1 S1                 0.0000
     38 ****         2.6633  -1.6065  -1.7585 H              1 S1                 0.0000
     39 ****         1.2484  -2.0841  -2.6675 H              1 S1                 0.0000
     40 ****         2.4487  -1.7981   0.7816 H              1 S1                 0.0000
     41 ****        -2.9807   6.4830  -0.4365 LP             1 S1                 0.0000
     42 ****         1.3558   0.2017  -2.4198 LP             1 S1                 0.0000
     43 ****         0.0539  -0.3724  -1.6185 LP             1 S1                 0.0000
@<TRIPOS>BOND
    1    1    2 1     
    2    2    7 ar    
    3    2    3 ar    
    4    3    4 ar    
    5    3   20 1     
    6    4    5 ar    
    7    5    6 ar    
    8    5   21 1     
    9    6    7 ar    
   10    6   22 1     
   11    7    8 1     
   12    8    9 1     
   13    8   23 1     
   14    9   10 1     
   15    9   24 1     
   16    9   25 1     
   17   10   19 1     
   18   10   11 1     
   19   10   26 1     
   20   11   12 1     
   21   11   27 1     
   22   11   28 1     
   23   12   17 1     
   24   12   13 1     
   25   12   40 1     
   26   13   14 1     
   27   13   29 1     
   28   13   30 1     
   29   14   15 1     
   30   14   31 1     
   31   14   32 1     
   32   15   16 1     
   33   15   33 1     
   34   15   34 1     
   35   16   17 1     
   36   16   35 1     
   37   16   36 1     
   38   17   18 1     
   39   17   37 1     
   40   18   19 1     
   41   18   38 1     
   42   18   39 1     
   43    4   41 1     
   44   19   42 1     
   45   19   43 1     
@<TRIPOS>SUBSTRUCTURE
      1 S1             1
@<TRIPOS>SET
LONE_PAIRS      STATIC     ATOMS    <user>   **** ""
3 41 42 43
DONOR_HYDROGENS      STATIC     ATOMS    <user>   **** ""
2 23 40
ATOM$BLUE        STATIC     ATOMS    COLORGROUP SYSTEM
3 41 42 43
ATOM$RED        STATIC     ATOMS    COLORGROUP SYSTEM
2 23 40
