AV-unprocessed.smi:2345|AV-procd|sdf|9361|dock10
  -GOLD-   2272012583D 1   1.00000     0.00000
 Structure written by MMmdl.
 37 38  0  0  0  0  0  0  0  0  1 V2000
  151.4201  140.2997  155.8617 C   0  0  0  0  0  0  0  0  0  0  0  0
  151.0826  141.7462  156.2312 C   0  0  0  0  0  0  0  0  0  0  0  0
  150.5542  141.8840  157.9614 S   0  0  0  0  0  0  0  0  0  0  0  0
  150.6676  143.6819  158.2031 C   0  0  2  0  0  0  0  0  0  0  0  0
  152.1141  144.1807  158.1559 C   0  0  0  0  0  0  0  0  0  0  0  0
  152.0875  145.4776  158.9573 C   0  0  0  0  0  0  0  0  0  0  0  0
  151.1210  145.1868  160.1058 C   0  0  0  0  0  0  0  0  0  0  0  0
  150.1133  144.1524  159.5652 C   0  0  1  0  0  0  0  0  0  0  0  0
  148.7852  144.7392  159.4048 N   0  0  0  0  0  0  0  0  0  0  0  0
  147.6848  144.3456  160.0606 C   0  0  0  0  0  0  0  0  0  0  0  0
  147.6823  143.4488  160.9036 O   0  0  0  0  0  0  0  0  0  0  0  0
  146.6074  145.0401  159.6578 N   0  0  0  0  0  0  0  0  0  0  0  0
  145.2586  144.9131  160.0878 C   0  0  0  0  0  0  0  0  0  0  0  0
  144.8297  144.0212  161.1004 C   0  0  0  0  0  0  0  0  0  0  0  0
  143.4641  144.0022  161.4485 C   0  0  0  0  0  0  0  0  0  0  0  0
  142.5382  144.7979  160.8724 N   0  0  0  0  0  0  0  0  0  0  0  0
  142.9533  145.6574  159.9180 C   0  0  0  0  0  0  0  0  0  0  0  0
  144.2944  145.7564  159.4962 C   0  0  0  0  0  0  0  0  0  0  0  0
  144.6451  146.6448  158.5349 F   0  0  0  0  0  0  0  0  0  0  0  0
  151.7269  140.2269  154.8183 H   0  0  0  0  0  0  0  0  0  0  0  0
  150.5583  139.6469  156.0021 H   0  0  0  0  0  0  0  0  0  0  0  0
  152.2353  139.9176  156.4766 H   0  0  0  0  0  0  0  0  0  0  0  0
  151.9532  142.3828  156.0733 H   0  0  0  0  0  0  0  0  0  0  0  0
  150.2886  142.1183  155.5839 H   0  0  0  0  0  0  0  0  0  0  0  0
  150.1244  144.1679  157.3906 H   0  0  0  0  0  0  0  0  0  0  0  0
  152.7764  143.4658  158.6464 H   0  0  0  0  0  0  0  0  0  0  0  0
  152.4749  144.3242  157.1369 H   0  0  0  0  0  0  0  0  0  0  0  0
  153.0760  145.7775  159.3063 H   0  0  0  0  0  0  0  0  0  0  0  0
  151.6920  146.2839  158.3381 H   0  0  0  0  0  0  0  0  0  0  0  0
  151.6726  144.7470  160.9378 H   0  0  0  0  0  0  0  0  0  0  0  0
  150.6515  146.0972  160.4817 H   0  0  0  0  0  0  0  0  0  0  0  0
  150.0653  143.3106  160.2590 H   0  0  0  0  0  0  0  0  0  0  0  0
  148.6964  145.4832  158.7281 H   0  0  0  0  0  0  0  0  0  0  0  0
  146.7560  145.6887  158.8985 H   0  0  0  0  0  0  0  0  0  0  0  0
  145.5134  143.3677  161.6200 H   0  0  0  0  0  0  0  0  0  0  0  0
  143.1072  143.3327  162.2169 H   0  0  0  0  0  0  0  0  0  0  0  0
  142.1938  146.2865  159.4778 H   0  0  0  0  0  0  0  0  0  0  0  0
  1  2  1  0  0  0  0
  1 20  1  0  0  0  0
  1 21  1  0  0  0  0
  1 22  1  0  0  0  0
  2  3  1  0  0  0  0
  2 23  1  0  0  0  0
  2 24  1  0  0  0  0
  3  4  1  0  0  0  0
  4  8  1  0  0  0  0
  4  5  1  0  0  0  0
  4 25  1  0  0  0  0
  5  6  1  0  0  0  0
  5 26  1  0  0  0  0
  5 27  1  0  0  0  0
  6  7  1  0  0  0  0
  6 28  1  0  0  0  0
  6 29  1  0  0  0  0
  7  8  1  0  0  0  0
  7 30  1  0  0  0  0
  7 31  1  0  0  0  0
  8  9  1  0  0  0  0
  8 32  1  0  0  0  0
  9 10  1  0  0  0  0
  9 33  1  0  0  0  0
 10 11  2  0  0  0  0
 10 12  1  0  0  0  0
 12 13  1  0  0  0  0
 12 34  1  0  0  0  0
 13 18  1  0  0  0  0
 13 14  2  0  0  0  0
 14 15  1  0  0  0  0
 14 35  1  0  0  0  0
 15 16  2  0  0  0  0
 15 36  1  0  0  0  0
 16 17  1  0  0  0  0
 17 18  2  0  0  0  0
 17 37  1  0  0  0  0
 18 19  1  0  0  0  0
M  END
> <s_m_source_file>
AV-unprocessed.smi

> <i_m_source_file_index>
2345

> <i_lp_mmshare_version>
43012

> <i_f3d_flags>
0

> <s_epik_input>
W0NIM11bQ0gyXVNbQ0BASF0xW0NIMl1bQ0gyXVtDSDJdW0NASF0xW05IXUMoPU8pW05IXWMyW2NIXVtjSF1uW2NIXWMyRg==

> <s_epik_cmdline>
J2VwaWtfcHl0aG9uJywgJy1waCcsICc3LjAnLCAnLXRuJywgJzgnLCAnLW1hJywgJzIwMCcsICctbWV0YWxfYmluZGluZycsICctaW1hZScsICc8aW5maWxlLm1hZT4nLCAnLW9tYWUnLCAnPG91dGZpbGUubWFlPic=

> <r_epik_Ionization_Penalty>
0.00333745

> <r_epik_Ionization_Penalty_Charging>
0

> <r_epik_Ionization_Penalty_Neutral>
0.00333745

> <r_epik_State_Penalty>
0.00233401

> <r_epik_Charging_Adjusted_Penalty>
0.00233401

> <i_epik_Tot_Q>
0

> <i_epik_Tot_abs_Q>
0

> <r_epik_Metal_State_Penalty>
-0

> <b_epik_Metal_Only>
0

> <s_lp_Force_Field>
OPLS_2005

> <r_lp_Energy>
20.2563

> <b_lp_Chiralities_Consistent>
1

> <s_lp_Variant>
AV-unprocessed.smi:2345-1

> <Gold.Version>
5.8.1

> <Gold.Id.Protein>
6NUR|6NUR_protein|mol2

> <Gold.PLP.Fitness>
46.0811

> <Gold.PLP.PLP>
-38.3899

> <Gold.PLP.part.hbond>
-2.8601

> <Gold.PLP.part.metal>
0.0000

> <Gold.PLP.part.buried>
-5.9295

> <Gold.PLP.part.nonpolar>
-30.2205

> <Gold.PLP.part.repulsive>
0.4186

> <Gold.PLP.ligand.clash>
0.0000

> <Gold.PLP.ligand.torsion>
0.0901

> <Gold.PLP.Chemscore.Hbond>
2.6215

> <Gold.PLP.Chemscore.CHOScore>
0.0000

> <Gold.PLP.Chemscore.Metal>
0.0000

> <Gold.Chemscore.Hbonds>
donor molecule, donor type, donor heavy atom, donor atom, acceptor molecule, acceptor atom, score
      L1  H     9    33       P1  8029  0.88
      L1  H    12    34       P1  8029  0.85
      P1  H  6933  6944       L1    11  0.83

> <Gold.PLP.Chemscore.Internal.Correction>
0.0069

> <Gold.Rescore>
     Score         DG    S(hbond)    S(metal)    S(lipo)     H(rot)  DE(clash)    DE(int)     intcor
     21.81     -23.12       2.82        0.00      99.71       1.35       0.00       1.31       ----

> <Gold.Chemscore.Fitness>
21.8132

> <Gold.Chemscore.DG>
-23.1234

> <Gold.Chemscore.ZeroCoef>
-5.4800

> <Gold.Chemscore.Hbond>
2.8225

> <Gold.Chemscore.Metal>
0.0000

> <Gold.Chemscore.Lipo>
99.7075

> <Gold.Chemscore.Internal_Hbond>
0.0000

> <Gold.Chemscore.DEClash>
0.0021

> <Gold.Chemscore.DEInternal>
1.3081

> <Gold.Chemscore.Rot>
1.3475

> <Gold.Chemscore.Internal.Correction>
   9.000000E+99

> <Gold.Chemscore.Hbonds>
donor molecule, donor type, donor heavy atom, donor atom, acceptor molecule, acceptor atom, score
      L1  H     9    33       P1  8029  0.87
      L1  H    12    34       P1  8029  0.83
      P1  H  6933  6944       L1    11  0.82

> <Gold.Chemscore.Hbond.Weighted>
-9.4273

> <Gold.Chemscore.Metal.Weighted>
-0.0000

> <Gold.Chemscore.Lipo.Weighted>
-11.6658

> <Gold.Chemscore.Internal_Hbond.Weighted>
0.0000

> <Gold.Chemscore.DEClash.Weighted>
0.0021

> <Gold.Chemscore.DEInternal.Weighted>
1.3081

> <Gold.Chemscore.Rot.Weighted>
3.4496

> <Gold.Chemscore.Internal.Correction.Weighted>
   9.000000E+99

> <Gold.Protein.RotatedTorsions>
[ 6907 6896 6895 6894 ] final -139.53 input  -60.11 | X-H torsion
[ 7974 7965 7964 7962 ] final -167.15 input  175.53 | X-H torsion
[ 8008 7997 7996 7995 ] final  130.61 input   59.86 | X-H torsion
[ 10167 10162 10161 10158 ] final -146.91 input  -65.29 | X-H torsion
[ 10718 10713 10712 10709 ] final   91.36 input   66.30 | X-H torsion
[ 10763 10752 10751 10750 ] final  -77.00 input  -60.55 | X-H torsion
[ 11005 11000 10999 10996 ] final  -21.50 input  -57.11 | X-H torsion

> <Gold.Protein.ActiveResidues>
 VAL166  LYS551  ARG553  GLY616  TRP617  ASP618  TYR619  PRO620  LYS621  CYS622 
 ASP623  PHE694  ASN695  SER759  ASP760  ASP761  ALA762  ILE779  LEU786  VAL792 
 PHE793  MET794  SER795  GLU796  ALA797  LYS798  CYS799  TRP800  GLU811  SER814 

> <Gold.Protein.RotatedAtoms>
  151.0490  133.5641  159.2643 H   0  0  0  0  0  0  0  0  0  0  0  0  # atno 6907 bound_to 6896
  151.2659  135.0668  159.9125 H   0  0  0  0  0  0  0  0  0  0  0  0  # atno 6908 bound_to 6896
  152.5378  134.0228  159.8043 H   0  0  0  0  0  0  0  0  0  0  0  0  # atno 6909 bound_to 6896
  144.7229  140.2561  143.6271 H   0  0  0  0  0  0  0  0  0  0  0  0  # atno 7974 bound_to 7965
  156.2957  140.2592  156.2790 H   0  0  0  0  0  0  0  0  0  0  0  0  # atno 8008 bound_to 7997
  154.9621  140.0392  157.2213 H   0  0  0  0  0  0  0  0  0  0  0  0  # atno 8009 bound_to 7997
  154.7937  140.2816  155.5977 H   0  0  0  0  0  0  0  0  0  0  0  0  # atno 8010 bound_to 7997
  139.7670  143.8294  152.2618 H   0  0  0  0  0  0  0  0  0  0  0  0  # atno 10167 bound_to 10162
  157.6960  131.0404  150.3718 H   0  0  0  0  0  0  0  0  0  0  0  0  # atno 10718 bound_to 10713
  154.5072  135.5778  153.6577 H   0  0  0  0  0  0  0  0  0  0  0  0  # atno 10763 bound_to 10752
  152.9890  135.6150  154.2925 H   0  0  0  0  0  0  0  0  0  0  0  0  # atno 10764 bound_to 10752
  154.2837  135.2850  155.2665 H   0  0  0  0  0  0  0  0  0  0  0  0  # atno 10765 bound_to 10752
  140.8567  133.7818  156.0027 H   0  0  0  0  0  0  0  0  0  0  0  0  # atno 11005 bound_to 11000
  145.8181  139.2031  143.1954 LP  0  0  0  0  0  0  0  0  0  0  0  0  # atno 17320 bound_to 7965
  146.0538  140.8042  142.9768 LP  0  0  0  0  0  0  0  0  0  0  0  0  # atno 17321 bound_to 7965
  139.8316  144.7251  150.9443 LP  0  0  0  0  0  0  0  0  0  0  0  0  # atno 17342 bound_to 10162
  140.7811  143.4064  151.1064 LP  0  0  0  0  0  0  0  0  0  0  0  0  # atno 17343 bound_to 10162
  156.4142  130.3940  149.6870 LP  0  0  0  0  0  0  0  0  0  0  0  0  # atno 17370 bound_to 10713
  156.4144  130.7738  151.2752 LP  0  0  0  0  0  0  0  0  0  0  0  0  # atno 17371 bound_to 10713
  140.8729  134.2704  157.5182 LP  0  0  0  0  0  0  0  0  0  0  0  0  # atno 17394 bound_to 11000
  139.8705  134.9576  156.4275 LP  0  0  0  0  0  0  0  0  0  0  0  0  # atno 17395 bound_to 11000

$$$$
