#       Name:                AV-unprocessed.smi:1809
#       Creating user name   scv26
#       Creation time:       Fri Mar 27 08:58:55 2020


#       File generated by GOLD software.
#

@<TRIPOS>MOLECULE
AV-unprocessed.smi:1809
    46    48     1
SMALL
NO_CHARGES


@<TRIPOS>ATOM
      1 ****        -7.5893   2.7581  -1.5635 C.3            1 S1                 0.0000
      2 ****        -6.2071   2.6206  -1.0232 C.2            1 S1                 0.0000
      3 ****        -5.9463   2.5434   0.2841 N.2            1 S1                 0.0000
      4 ****        -4.5884   2.4186   0.5395 N.2            1 S1                 0.0000
      5 ****        -3.8438   2.3898  -0.5751 C.2            1 S1                 0.0000
      6 ****        -2.5056   2.2771  -0.5446 N.pl3          1 S1                -1.0000
      7 ****        -1.9238   1.0710  -0.7354 C.2            1 S1                 0.0000
      8 ****        -2.5046   0.0048  -0.9515 O.2            1 S1                 0.0000
      9 ****        -0.5863   1.1002  -0.6739 N.am           1 S1                 0.0000
     10 ****         0.2856  -0.0552  -0.8388 C.3            1 S1                 0.0000
     11 ****         1.7667   0.3599  -0.7483 C.3            1 S1                 0.0000
     12 ****         2.7360  -0.8199  -0.9993 C.3            1 S1                 0.0000
     13 ****         2.7837  -1.6997   0.1538 N.3            1 S1                 0.0000
     14 ****         3.7219  -2.7964   0.0975 C.3            1 S1                 0.0000
     15 ****         3.8404  -3.2702   1.5565 C.3            1 S1                 0.0000
     16 ****         3.3516  -2.0670   2.3929 C.3            1 S1                 0.0000
     17 ****         3.1574  -0.9760   1.3382 C.3            1 S1                 0.0000
     18 ****         2.1386   0.1299   1.6442 C.3            1 S1                 0.0000
     19 ****         2.0611   0.9950   0.5069 O.3            1 S1                 0.0000
     20 ****        -4.7898   2.5407  -2.0559 S.3            1 S1                 0.0000
     21 ****        -8.0622   1.7781  -1.6285 H              1 S1                 0.0000
     22 ****        -7.5632   3.2016  -2.5589 H              1 S1                 0.0000
     23 ****        -8.1889   3.3964  -0.9139 H              1 S1                 0.0000
     24 ****        -0.1433   1.9885  -0.4906 H              1 S1                 0.0000
     25 ****         0.0407  -0.8077  -0.0885 H              1 S1                 0.0000
     26 ****         0.0918  -0.5074  -1.8124 H              1 S1                 0.0000
     27 ****         1.9434   1.1049  -1.5249 H              1 S1                 0.0000
     28 ****         2.4376  -1.3776  -1.8875 H              1 S1                 0.0000
     29 ****         3.7337  -0.4263  -1.1989 H              1 S1                 0.0000
     30 ****         3.3808  -3.5842  -0.5746 H              1 S1                 0.0000
     31 ****         4.6919  -2.4442  -0.2573 H              1 S1                 0.0000
     32 ****         3.2071  -4.1395   1.7374 H              1 S1                 0.0000
     33 ****         4.8674  -3.5465   1.7974 H              1 S1                 0.0000
     34 ****         2.4051  -2.3071   2.8792 H              1 S1                 0.0000
     35 ****         4.0642  -1.7716   3.1633 H              1 S1                 0.0000
     36 ****         4.1273  -0.5029   1.1697 H              1 S1                 0.0000
     37 ****         1.1575  -0.2872   1.8732 H              1 S1                 0.0000
     38 ****         2.4504   0.7092   2.5133 H              1 S1                 0.0000
     39 ****        -6.6479   2.5722   0.9960 LP             1 S1                 0.0000
     40 ****        -4.2043   2.3564   1.4606 LP             1 S1                 0.0000
     41 ****        -1.9394   3.0849  -0.3809 LP             1 S1                 0.0000
     42 ****        -3.5031  -0.0199  -0.9992 LP             1 S1                 0.0000
     43 ****        -1.9770  -0.8351  -1.0791 LP             1 S1                 0.0000
     44 ****         1.8552  -2.0709   0.1639 LP             1 S1                 0.0000
     45 ****         1.3447   1.6698   0.6839 LP             1 S1                 0.0000
     46 ****         2.9417   1.4600   0.4155 LP             1 S1                 0.0000
@<TRIPOS>BOND
    1    1    2 1     
    2    1   21 1     
    3    1   22 1     
    4    1   23 1     
    5    2   20 1     
    6    2    3 2     
    7    3    4 1     
    8    4    5 2     
    9    5    6 1     
   10    5   20 1     
   11    6    7 1     
   12    7    8 2     
   13    7    9 am    
   14    9   10 1     
   15    9   24 1     
   16   10   11 1     
   17   10   25 1     
   18   10   26 1     
   19   11   19 1     
   20   11   12 1     
   21   11   27 1     
   22   12   13 1     
   23   12   28 1     
   24   12   29 1     
   25   13   17 1     
   26   13   14 1     
   27   14   15 1     
   28   14   30 1     
   29   14   31 1     
   30   15   16 1     
   31   15   32 1     
   32   15   33 1     
   33   16   17 1     
   34   16   34 1     
   35   16   35 1     
   36   17   18 1     
   37   17   36 1     
   38   18   19 1     
   39   18   37 1     
   40   18   38 1     
   41    3   39 1     
   42    4   40 1     
   43    6   41 1     
   44    8   42 1     
   45    8   43 1     
   46   13   44 1     
   47   19   45 1     
   48   19   46 1     
@<TRIPOS>SUBSTRUCTURE
      1 S1             1
@<TRIPOS>SET
LONE_PAIRS      STATIC     ATOMS    <user>   **** ""
8 39 40 41 42 43 44 45 46
DONOR_HYDROGENS      STATIC     ATOMS    <user>   **** ""
1 24
ATOM$BLUE        STATIC     ATOMS    COLORGROUP SYSTEM
8 39 40 41 42 43 44 45 46
ATOM$RED        STATIC     ATOMS    COLORGROUP SYSTEM
1 24
