AV-unprocessed.smi:1986|AV-procd|sdf|8050|dock4
  -GOLD-   2272010253D 1   1.00000     0.00000
 Structure written by MMmdl.
 47 48  0  0  0  0  0  0  0  0  1 V2000
  151.6917  139.7953  156.3137 C   0  0  0  0  0  0  0  0  0  0  0  0
  150.6740  138.6851  156.6331 C   0  0  0  0  0  0  0  0  0  0  0  0
  149.8697  138.1341  155.4122 C   0  0  1  0  0  0  0  0  0  0  0  0
  150.9089  137.8474  154.2944 C   0  0  0  0  0  0  0  0  0  0  0  0
  149.2161  136.7799  155.8317 C   0  0  0  0  0  0  0  0  0  0  0  0
  148.2425  136.9312  156.9113 N   0  0  0  0  0  0  0  0  0  0  0  0
  148.2788  136.2984  158.0925 C   0  0  0  0  0  0  0  0  0  0  0  0
  149.1850  135.5341  158.4263 O   0  0  0  0  0  0  0  0  0  0  0  0
  147.1149  136.5950  159.0488 C   0  0  0  0  0  0  0  0  0  0  0  0
  147.1030  135.7214  160.2307 N   0  0  0  0  0  0  0  0  0  0  0  0
  146.9739  134.3721  159.9388 N   0  0  0  0  0  0  0  0  0  0  0  0
  146.9445  133.5061  160.8945 C   0  0  0  0  0  0  0  0  0  0  0  0
  146.8131  132.1807  160.5608 O   0  0  0  0  0  0  0  0  0  0  0  0
  147.0472  133.9141  162.2784 C   0  0  0  0  0  0  0  0  0  0  0  0
  147.1780  135.2304  162.5525 C   0  0  0  0  0  0  0  0  0  0  0  0
  147.2171  136.2394  161.4925 C   0  0  0  0  0  0  0  0  0  0  0  0
  147.3418  137.4443  161.7125 O   0  0  0  0  0  0  0  0  0  0  0  0
  148.8597  139.1246  154.9424 N   0  0  0  0  0  0  0  0  0  0  0  0
  149.4099  140.3959  154.4571 C   0  0  0  0  0  0  0  0  0  0  0  0
  148.3048  141.4147  154.1298 C   0  0  0  0  0  0  0  0  0  0  0  0
  147.4079  140.8600  153.1750 O   0  0  0  0  0  0  0  0  0  0  0  0
  146.8086  139.6529  153.6304 C   0  0  0  0  0  0  0  0  0  0  0  0
  147.9030  138.6207  153.9493 C   0  0  0  0  0  0  0  0  0  0  0  0
  147.5065  131.7361  161.0238 H   0  0  0  0  0  0  0  0  0  0  0  0
  152.1961  140.1213  157.2234 H   0  0  0  0  0  0  0  0  0  0  0  0
  151.2136  140.6716  155.8764 H   0  0  0  0  0  0  0  0  0  0  0  0
  152.4614  139.4523  155.6230 H   0  0  0  0  0  0  0  0  0  0  0  0
  151.2211  137.8751  157.1166 H   0  0  0  0  0  0  0  0  0  0  0  0
  149.9917  139.0446  157.4033 H   0  0  0  0  0  0  0  0  0  0  0  0
  151.7888  137.3270  154.6742 H   0  0  0  0  0  0  0  0  0  0  0  0
  151.2597  138.7675  153.8261 H   0  0  0  0  0  0  0  0  0  0  0  0
  150.4967  137.2184  153.5051 H   0  0  0  0  0  0  0  0  0  0  0  0
  148.7361  136.3141  154.9706 H   0  0  0  0  0  0  0  0  0  0  0  0
  149.9679  136.0741  156.1837 H   0  0  0  0  0  0  0  0  0  0  0  0
  147.4628  137.5468  156.7310 H   0  0  0  0  0  0  0  0  0  0  0  0
  147.1853  137.6419  159.3496 H   0  0  0  0  0  0  0  0  0  0  0  0
  146.1654  136.5064  158.5171 H   0  0  0  0  0  0  0  0  0  0  0  0
  147.0193  133.1763  163.0666 H   0  0  0  0  0  0  0  0  0  0  0  0
  147.2556  135.5493  163.5815 H   0  0  0  0  0  0  0  0  0  0  0  0
  150.0668  140.8461  155.1992 H   0  0  0  0  0  0  0  0  0  0  0  0
  150.0084  140.2321  153.5612 H   0  0  0  0  0  0  0  0  0  0  0  0
  147.7594  141.6965  155.0319 H   0  0  0  0  0  0  0  0  0  0  0  0
  148.7397  142.3266  153.7207 H   0  0  0  0  0  0  0  0  0  0  0  0
  146.1961  139.8506  154.5115 H   0  0  0  0  0  0  0  0  0  0  0  0
  146.1427  139.2720  152.8561 H   0  0  0  0  0  0  0  0  0  0  0  0
  148.4181  138.3623  153.0241 H   0  0  0  0  0  0  0  0  0  0  0  0
  147.4128  137.7150  154.3014 H   0  0  0  0  0  0  0  0  0  0  0  0
  1  2  1  0  0  0  0
  1 25  1  0  0  0  0
  1 26  1  0  0  0  0
  1 27  1  0  0  0  0
  2  3  1  0  0  0  0
  2 28  1  0  0  0  0
  2 29  1  0  0  0  0
  3  4  1  0  0  0  0
  3  5  1  0  0  0  0
  3 18  1  0  0  0  0
  4 30  1  0  0  0  0
  4 31  1  0  0  0  0
  4 32  1  0  0  0  0
  5  6  1  0  0  0  0
  5 33  1  0  0  0  0
  5 34  1  0  0  0  0
  6  7  1  0  0  0  0
  6 35  1  0  0  0  0
  7  8  2  0  0  0  0
  7  9  1  0  0  0  0
  9 36  1  0  0  0  0
  9 37  1  0  0  0  0
  9 10  1  0  0  0  0
 10 11  1  0  0  0  0
 10 16  1  0  0  0  0
 11 12  2  0  0  0  0
 12 13  1  0  0  0  0
 12 14  1  0  0  0  0
 13 24  1  0  0  0  0
 14 38  1  0  0  0  0
 14 15  2  0  0  0  0
 15 39  1  0  0  0  0
 15 16  1  0  0  0  0
 16 17  2  0  0  0  0
 18 23  1  0  0  0  0
 18 19  1  0  0  0  0
 19 20  1  0  0  0  0
 19 40  1  0  0  0  0
 19 41  1  0  0  0  0
 20 21  1  0  0  0  0
 20 42  1  0  0  0  0
 20 43  1  0  0  0  0
 21 22  1  0  0  0  0
 22 23  1  0  0  0  0
 22 44  1  0  0  0  0
 22 45  1  0  0  0  0
 23 46  1  0  0  0  0
 23 47  1  0  0  0  0
M  END
> <s_m_source_file>
AV-unprocessed.smi

> <i_m_source_file_index>
1986

> <i_lp_mmshare_version>
43012

> <i_f3d_flags>
0

> <s_epik_input>
W0NIMl0xW0NIMl1PW0NIMl1bQ0gyXU4xW0NAQF0oW0NIM10pKFtDSDJdW0NIM10pW0NIMl1bTkhdQyg9TylbQ0gyXW4yW25IXWMoPU8pW2NIXVtjSF1jMj1P

> <s_epik_cmdline>
J2VwaWtfcHl0aG9uJywgJy1waCcsICc3LjAnLCAnLXRuJywgJzgnLCAnLW1hJywgJzIwMCcsICctbWV0YWxfYmluZGluZycsICctaW1hZScsICc8aW5maWxlLm1hZT4nLCAnLW9tYWUnLCAnPG91dGZpbGUubWFlPic=

> <r_epik_Ionization_Penalty>
2.44436

> <r_epik_Ionization_Penalty_Charging>
3.63754e-08

> <r_epik_Ionization_Penalty_Neutral>
2.44436

> <r_epik_State_Penalty>
2.04701

> <r_epik_Charging_Adjusted_Penalty>
2.04701

> <i_epik_Tot_Q>
0

> <i_epik_Tot_abs_Q>
0

> <r_epik_Metal_State_Penalty>
2.04701

> <b_epik_Metal_Only>
0

> <s_lp_Force_Field>
OPLS_2005

> <r_lp_Energy>
55.4417

> <b_lp_Chiralities_Consistent>
1

> <s_lp_Variant>
AV-unprocessed.smi:1986-5

> <Gold.Version>
5.8.1

> <Gold.Id.Protein>
6NUR|6NUR_protein|mol2

> <Gold.PLP.Fitness>
43.6599

> <Gold.PLP.PLP>
-36.6247

> <Gold.PLP.part.hbond>
-3.0000

> <Gold.PLP.part.metal>
0.0000

> <Gold.PLP.part.buried>
-5.8961

> <Gold.PLP.part.nonpolar>
-28.4919

> <Gold.PLP.part.repulsive>
0.6330

> <Gold.PLP.ligand.clash>
0.0000

> <Gold.PLP.ligand.torsion>
0.3274

> <Gold.PLP.Chemscore.Hbond>
2.5200

> <Gold.PLP.Chemscore.CHOScore>
0.0000

> <Gold.PLP.Chemscore.Metal>
0.0000

> <Gold.Chemscore.Hbonds>
donor molecule, donor type, donor heavy atom, donor atom, acceptor molecule, acceptor atom, score
      P1  H  6896  6908       L1     8  0.83
      P1  H  6931  6943       L1    17  0.77
      P1  H  6934  6947       L1    17  0.78

> <Gold.PLP.Chemscore.Internal.Correction>
0.1300

> <Gold.Rescore>
     Score         DG    S(hbond)    S(metal)    S(lipo)     H(rot)  DE(clash)    DE(int)     intcor
     14.09     -14.90       2.71        0.00      70.19       3.06       0.01       0.80       ----

> <Gold.Chemscore.Fitness>
14.0876

> <Gold.Chemscore.DG>
-14.8988

> <Gold.Chemscore.ZeroCoef>
-5.4800

> <Gold.Chemscore.Hbond>
2.7082

> <Gold.Chemscore.Metal>
0.0000

> <Gold.Chemscore.Lipo>
70.1876

> <Gold.Chemscore.Internal_Hbond>
0.0000

> <Gold.Chemscore.DEClash>
0.0126

> <Gold.Chemscore.DEInternal>
0.7986

> <Gold.Chemscore.Rot>
3.0620

> <Gold.Chemscore.Internal.Correction>
   9.000000E+99

> <Gold.Chemscore.Hbonds>
donor molecule, donor type, donor heavy atom, donor atom, acceptor molecule, acceptor atom, score
      P1  H  6896  6908       L1     8  0.82
      P1  H  6931  6943       L1    17  0.77
      P1  H  6934  6947       L1    17  0.78

> <Gold.Chemscore.Hbond.Weighted>
-9.0455

> <Gold.Chemscore.Metal.Weighted>
-0.0000

> <Gold.Chemscore.Lipo.Weighted>
-8.2120

> <Gold.Chemscore.Internal_Hbond.Weighted>
0.0000

> <Gold.Chemscore.DEClash.Weighted>
0.0126

> <Gold.Chemscore.DEInternal.Weighted>
0.7986

> <Gold.Chemscore.Rot.Weighted>
7.8387

> <Gold.Chemscore.Internal.Correction.Weighted>
   9.000000E+99

> <Gold.Protein.RotatedTorsions>
[ 6907 6896 6895 6894 ] final  173.75 input  -60.11 | X-H torsion
[ 7974 7965 7964 7962 ] final   65.76 input  175.53 | X-H torsion
[ 8008 7997 7996 7995 ] final -170.85 input   59.86 | X-H torsion
[ 10167 10162 10161 10158 ] final   54.13 input  -65.29 | X-H torsion
[ 10718 10713 10712 10709 ] final -136.40 input   66.30 | X-H torsion
[ 10763 10752 10751 10750 ] final   83.90 input  -60.55 | X-H torsion
[ 11005 11000 10999 10996 ] final   42.61 input  -57.11 | X-H torsion

> <Gold.Protein.ActiveResidues>
 VAL166  LYS551  ARG553  GLY616  TRP617  ASP618  TYR619  PRO620  LYS621  CYS622 
 ASP623  PHE694  ASN695  SER759  ASP760  ASP761  ALA762  ILE779  LEU786  VAL792 
 PHE793  MET794  SER795  GLU796  ALA797  LYS798  CYS799  TRP800  GLU811  SER814 

> <Gold.Protein.RotatedAtoms>
  151.7633  133.3335  159.3423 H   0  0  0  0  0  0  0  0  0  0  0  0  # atno 6907 bound_to 6896
  150.7489  134.6086  159.6083 H   0  0  0  0  0  0  0  0  0  0  0  0  # atno 6908 bound_to 6896
  152.3391  134.7161  160.0320 H   0  0  0  0  0  0  0  0  0  0  0  0  # atno 6909 bound_to 6896
  145.8346  139.3159  143.0967 H   0  0  0  0  0  0  0  0  0  0  0  0  # atno 7974 bound_to 7965
  155.9238  140.1079  157.1186 H   0  0  0  0  0  0  0  0  0  0  0  0  # atno 8008 bound_to 7997
  154.4058  140.1251  156.4778 H   0  0  0  0  0  0  0  0  0  0  0  0  # atno 8009 bound_to 7997
  155.7164  140.3470  155.4999 H   0  0  0  0  0  0  0  0  0  0  0  0  # atno 8010 bound_to 7997
  140.2334  144.3662  150.6406 H   0  0  0  0  0  0  0  0  0  0  0  0  # atno 10167 bound_to 10162
  156.2767  130.7297  151.1281 H   0  0  0  0  0  0  0  0  0  0  0  0  # atno 10718 bound_to 10713
  153.1333  135.4674  154.9383 H   0  0  0  0  0  0  0  0  0  0  0  0  # atno 10763 bound_to 10752
  154.7683  135.3151  154.8243 H   0  0  0  0  0  0  0  0  0  0  0  0  # atno 10764 bound_to 10752
  153.8781  135.6897  153.4823 H   0  0  0  0  0  0  0  0  0  0  0  0  # atno 10765 bound_to 10752
  140.1722  134.4207  155.8250 H   0  0  0  0  0  0  0  0  0  0  0  0  # atno 11005 bound_to 11000
  145.9533  140.8892  143.0248 LP  0  0  0  0  0  0  0  0  0  0  0  0  # atno 17320 bound_to 7965
  144.6737  140.1710  143.7414 LP  0  0  0  0  0  0  0  0  0  0  0  0  # atno 17321 bound_to 7965
  140.6168  143.2173  151.6776 LP  0  0  0  0  0  0  0  0  0  0  0  0  # atno 17342 bound_to 10162
  139.5102  144.3551  152.0615 LP  0  0  0  0  0  0  0  0  0  0  0  0  # atno 17343 bound_to 10162
  157.7301  131.0619  150.5741 LP  0  0  0  0  0  0  0  0  0  0  0  0  # atno 17370 bound_to 10713
  156.5842  130.4312  149.5964 LP  0  0  0  0  0  0  0  0  0  0  0  0  # atno 17371 bound_to 10713
  141.2218  133.6961  156.7784 LP  0  0  0  0  0  0  0  0  0  0  0  0  # atno 17394 bound_to 11000
  140.2364  134.8647  157.3529 LP  0  0  0  0  0  0  0  0  0  0  0  0  # atno 17395 bound_to 11000

$$$$
