#       Name:                AV-unprocessed.smi:2599
#       Creating user name   scv26
#       Creation time:       Fri Mar 27 14:19:18 2020


#       File generated by GOLD software.
#

@<TRIPOS>MOLECULE
AV-unprocessed.smi:2599
    48    49     1
SMALL
NO_CHARGES


@<TRIPOS>ATOM
      1 ****        -7.1799   2.8920  -0.3723 C.3            1 S1                 0.0000
      2 ****        -6.6572   1.5696  -0.3081 O.3            1 S1                 0.0000
      3 ****        -5.2873   1.4080  -0.3340 C.ar           1 S1                 0.0000
      4 ****        -4.7519   0.1109  -0.2586 C.ar           1 S1                 0.0000
      5 ****        -3.3533  -0.0199  -0.2813 C.ar           1 S1                 0.0000
      6 ****        -2.5716   1.1564  -0.3894 C.ar           1 S1                 0.0000
      7 ****        -1.1530   1.0949  -0.3799 N.am           1 S1                 0.0000
      8 ****        -0.3552   0.1159  -0.8403 C.2            1 S1                 0.0000
      9 ****        -0.7425  -0.9096  -1.4009 O.2            1 S1                 0.0000
     10 ****         0.9368   0.4039  -0.6223 N.am           1 S1                 0.0000
     11 ****         2.0780  -0.4431  -0.9708 C.3            1 S1                 0.0000
     12 ****         2.8665   0.2511  -2.0948 C.3            1 S1                 0.0000
     13 ****         2.9320  -0.7399   0.2904 C.3            1 S1                 0.0000
     14 ****         4.1239  -1.6729  -0.0058 C.3            1 S1                 0.0000
     15 ****         4.8999  -2.0149   1.2766 C.3            1 S1                 0.0000
     16 ****         4.0277  -2.6041   2.2327 O.3            1 S1                 0.0000
     17 ****         2.9846  -1.7260   2.6360 C.3            1 S1                 0.0000
     18 ****         2.1016  -1.3702   1.4297 C.3            1 S1                 0.0000
     19 ****        -3.1628   2.3740  -0.4423 N.ar           1 S1                 0.0000
     20 ****        -4.4931   2.5043  -0.4230 N.ar           1 S1                 0.0000
     21 ****        -8.2681   2.8535  -0.3279 H              1 S1                 0.0000
     22 ****        -6.9041   3.3843  -1.3060 H              1 S1                 0.0000
     23 ****        -6.8366   3.4980   0.4675 H              1 S1                 0.0000
     24 ****        -5.3924  -0.7546  -0.1777 H              1 S1                 0.0000
     25 ****        -2.9124  -1.0016  -0.2001 H              1 S1                 0.0000
     26 ****        -0.6887   1.9271  -0.0471 H              1 S1                 0.0000
     27 ****         1.1514   1.2759  -0.1613 H              1 S1                 0.0000
     28 ****         1.7220  -1.3976  -1.3624 H              1 S1                 0.0000
     29 ****         3.6533  -0.3894  -2.4920 H              1 S1                 0.0000
     30 ****         3.3289   1.1749  -1.7459 H              1 S1                 0.0000
     31 ****         2.2136   0.5024  -2.9314 H              1 S1                 0.0000
     32 ****         3.3332   0.2062   0.6579 H              1 S1                 0.0000
     33 ****         3.7667  -2.5939  -0.4686 H              1 S1                 0.0000
     34 ****         4.8093  -1.2113  -0.7159 H              1 S1                 0.0000
     35 ****         5.7005  -2.7199   1.0520 H              1 S1                 0.0000
     36 ****         5.3698  -1.1242   1.6966 H              1 S1                 0.0000
     37 ****         2.3878  -2.2192   3.4033 H              1 S1                 0.0000
     38 ****         3.4050  -0.8274   3.0902 H              1 S1                 0.0000
     39 ****         1.3133  -0.6927   1.7582 H              1 S1                 0.0000
     40 ****         1.6048  -2.2713   1.0675 H              1 S1                 0.0000
     41 ****        -7.0300   1.0653  -1.0870 LP             1 S1                 0.0000
     42 ****        -6.9879   1.1611   0.5427 LP             1 S1                 0.0000
     43 ****        -1.7204  -1.0626  -1.5435 LP             1 S1                 0.0000
     44 ****        -0.0792  -1.5895  -1.7136 LP             1 S1                 0.0000
     45 ****         4.5615  -2.8588   3.0390 LP             1 S1                 0.0000
     46 ****         3.6190  -3.4236   1.8311 LP             1 S1                 0.0000
     47 ****        -2.5918   3.1931  -0.4969 LP             1 S1                 0.0000
     48 ****        -4.9048   3.4142  -0.4744 LP             1 S1                 0.0000
@<TRIPOS>BOND
    1    1    2 1     
    2    1   21 1     
    3    1   22 1     
    4    1   23 1     
    5    2    3 1     
    6    3   20 ar    
    7    3    4 ar    
    8    4    5 ar    
    9    4   24 1     
   10    5    6 ar    
   11    5   25 1     
   12    6    7 1     
   13    6   19 ar    
   14    7    8 am    
   15    7   26 1     
   16    8    9 2     
   17    8   10 am    
   18   10   11 1     
   19   10   27 1     
   20   11   12 1     
   21   11   13 1     
   22   11   28 1     
   23   12   29 1     
   24   12   30 1     
   25   12   31 1     
   26   13   18 1     
   27   13   14 1     
   28   13   32 1     
   29   14   15 1     
   30   14   33 1     
   31   14   34 1     
   32   15   16 1     
   33   15   35 1     
   34   15   36 1     
   35   16   17 1     
   36   17   18 1     
   37   17   37 1     
   38   17   38 1     
   39   18   39 1     
   40   18   40 1     
   41   19   20 ar    
   42    2   41 1     
   43    2   42 1     
   44    9   43 1     
   45    9   44 1     
   46   16   45 1     
   47   16   46 1     
   48   19   47 1     
   49   20   48 1     
@<TRIPOS>SUBSTRUCTURE
      1 S1             1
@<TRIPOS>SET
LONE_PAIRS      STATIC     ATOMS    <user>   **** ""
8 41 42 43 44 45 46 47 48
DONOR_HYDROGENS      STATIC     ATOMS    <user>   **** ""
2 26 27
ATOM$BLUE        STATIC     ATOMS    COLORGROUP SYSTEM
8 41 42 43 44 45 46 47 48
ATOM$RED        STATIC     ATOMS    COLORGROUP SYSTEM
2 26 27
