AV-unprocessed.smi:1377|AV-procd|sdf|5595|dock10
  -GOLD-   22720 5203D 1   1.00000     0.00000
 Structure written by MMmdl.
 28 29  0  0  0  0  0  0  0  0  2 V2000
  150.2417  138.5492  153.2677 N   0  0  0  0  0  0  0  0  0  0  0  0
  150.8938  138.6368  154.4298 C   0  0  0  0  0  0  0  0  0  0  0  0
  151.4273  139.6831  154.7964 O   0  0  0  0  0  0  0  0  0  0  0  0
  150.9443  137.3600  155.2799 C   0  0  0  0  0  0  0  0  0  0  0  0
  150.0914  137.4588  156.5144 C   0  0  0  0  0  0  0  0  0  0  0  0
  149.3339  138.5305  156.9131 C   0  0  0  0  0  0  0  0  0  0  0  0
  148.4995  138.2102  158.4061 S   0  0  0  0  0  0  0  0  0  0  0  0
  149.1971  136.5894  158.4351 C   0  0  0  0  0  0  0  0  0  0  0  0
  148.9766  135.6737  159.3912 N   0  5  0  0  0  0  0  0  0  0  0  0
  148.0768  135.9319  160.3699 C   0  0  0  0  0  0  0  0  0  0  0  0
  147.6677  137.0231  160.7712 O   0  0  0  0  0  0  0  0  0  0  0  0
  147.5438  134.6306  160.9900 C   0  0  0  0  0  0  0  0  0  0  0  0
  146.0443  134.3447  160.7780 C   0  0  0  0  0  0  0  0  0  0  0  0
  145.9672  133.9116  162.2454 C   0  0  0  0  0  0  0  0  0  0  0  0
  147.2455  134.7167  162.4971 C   0  0  0  0  0  0  0  0  0  0  0  0
  150.0000  136.3711  157.3880 N   0  0  0  0  0  0  0  0  0  0  0  0
  150.1808  139.3583  152.6669 H   0  0  0  0  0  0  0  0  0  0  0  0
  149.8162  137.6763  152.9924 H   0  0  0  0  0  0  0  0  0  0  0  0
  150.6188  136.5160  154.6706 H   0  0  0  0  0  0  0  0  0  0  0  0
  151.9839  137.1645  155.5454 H   0  0  0  0  0  0  0  0  0  0  0  0
  149.2225  139.4872  156.4257 H   0  0  0  0  0  0  0  0  0  0  0  0
  148.1599  133.7640  160.7421 H   0  0  0  0  0  0  0  0  0  0  0  0
  145.4369  135.2288  160.5769 H   0  0  0  0  0  0  0  0  0  0  0  0
  145.8340  133.5459  160.0667 H   0  0  0  0  0  0  0  0  0  0  0  0
  145.0892  134.2716  162.7821 H   0  0  0  0  0  0  0  0  0  0  0  0
  146.1122  132.8382  162.3763 H   0  0  0  0  0  0  0  0  0  0  0  0
  147.9748  134.2112  163.1303 H   0  0  0  0  0  0  0  0  0  0  0  0
  147.0463  135.7314  162.8473 H   0  0  0  0  0  0  0  0  0  0  0  0
  1  2  1  0  0  0  0
  1 17  1  0  0  0  0
  1 18  1  0  0  0  0
  2  3  2  0  0  0  0
  2  4  1  0  0  0  0
  4  5  1  0  0  0  0
  4 19  1  0  0  0  0
  4 20  1  0  0  0  0
  5 16  1  0  0  0  0
  5  6  2  0  0  0  0
  6  7  1  0  0  0  0
  6 21  1  0  0  0  0
  7  8  1  0  0  0  0
  8  9  1  0  0  0  0
  8 16  2  0  0  0  0
  9 10  1  0  0  0  0
 10 11  2  0  0  0  0
 10 12  1  0  0  0  0
 12 15  1  0  0  0  0
 12 13  1  0  0  0  0
 12 22  1  0  0  0  0
 13 14  1  0  0  0  0
 13 23  1  0  0  0  0
 13 24  1  0  0  0  0
 14 15  1  0  0  0  0
 14 25  1  0  0  0  0
 14 26  1  0  0  0  0
 15 27  1  0  0  0  0
 15 28  1  0  0  0  0
M  CHG  1   9  -1
M  END
> <s_m_source_file>
AV-unprocessed.smi

> <i_m_source_file_index>
1377

> <i_lp_mmshare_version>
43012

> <i_f3d_flags>
0

> <s_epik_input>
W05IMl1DKD1PKVtDSDJdYzFbY0hdc2MobjEpW05IXUMoPU8pW0NIXTJbQ0gyXVtDSDJdW0NIMl0y

> <s_epik_cmdline>
J2VwaWtfcHl0aG9uJywgJy1waCcsICc3LjAnLCAnLXRuJywgJzgnLCAnLW1hJywgJzIwMCcsICctbWV0YWxfYmluZGluZycsICctaW1hZScsICc8aW5maWxlLm1hZT4nLCAnLW9tYWUnLCAnPG91dGZpbGUubWFlPic=

> <r_lp_tautomer_probability>
1

> <r_epik_Ionization_Penalty>
5.13356

> <r_epik_Ionization_Penalty_Charging>
4.74096

> <r_epik_Ionization_Penalty_Neutral>
0.392596

> <r_epik_State_Penalty>
4.74076

> <r_epik_Charging_Adjusted_Penalty>
9.48173

> <i_epik_Tot_Q>
-1

> <i_epik_Tot_abs_Q>
1

> <r_epik_Metal_State_Penalty>
0.951691

> <b_epik_Metal_Only>
1

> <s_lp_Force_Field>
OPLS_2005

> <r_lp_Energy>
7.89776

> <b_lp_Chiralities_Consistent>
1

> <s_lp_Variant>
AV-unprocessed.smi:1377-2

> <Gold.Version>
5.8.1

> <Gold.Id.Protein>
6NUR|6NUR_protein|mol2

> <Gold.PLP.Fitness>
46.6842

> <Gold.PLP.PLP>
-27.2120

> <Gold.PLP.part.hbond>
-6.7732

> <Gold.PLP.part.metal>
0.0000

> <Gold.PLP.part.buried>
-1.9023

> <Gold.PLP.part.nonpolar>
-17.8346

> <Gold.PLP.part.repulsive>
0.1716

> <Gold.PLP.ligand.clash>
0.0000

> <Gold.PLP.ligand.torsion>
0.6039

> <Gold.PLP.Chemscore.Hbond>
6.7600

> <Gold.PLP.Chemscore.CHOScore>
0.0000

> <Gold.PLP.Chemscore.Metal>
0.0000

> <Gold.Chemscore.Hbonds>
donor molecule, donor type, donor heavy atom, donor atom, acceptor molecule, acceptor atom, score
      L1  H     1    17       P1  7957  0.94
      L1  H     1    18       P1  7948  1.00
      P1  H  6896  6907       L1     9  2.00
      P1  H  6931  6943       L1    11  0.61
      P1  H  6934  6947       L1    11  0.89
      P1  H  7989  7998       L1     3  1.00

> <Gold.PLP.Chemscore.Internal.Correction>
0.4000

> <Gold.Rescore>
     Score         DG    S(hbond)    S(metal)    S(lipo)     H(rot)  DE(clash)    DE(int)     intcor
     21.31     -23.32       5.38        0.00      40.41       1.89       0.01       2.00       ----

> <Gold.Chemscore.Fitness>
21.3057

> <Gold.Chemscore.DG>
-23.3180

> <Gold.Chemscore.ZeroCoef>
-5.4800

> <Gold.Chemscore.Hbond>
5.3764

> <Gold.Chemscore.Metal>
0.0000

> <Gold.Chemscore.Lipo>
40.4121

> <Gold.Chemscore.Internal_Hbond>
0.0000

> <Gold.Chemscore.DEClash>
0.0088

> <Gold.Chemscore.DEInternal>
2.0035

> <Gold.Chemscore.Rot>
1.8935

> <Gold.Chemscore.Internal.Correction>
   9.000000E+99

> <Gold.Chemscore.Hbonds>
donor molecule, donor type, donor heavy atom, donor atom, acceptor molecule, acceptor atom, score
      L1  H     1    17       P1  7957  0.75
      L1  H     1    18       P1  7948  0.43
      P1  H  6896  6907       L1     9  0.46
      P1  H  6931  6943       L1    11  0.58
      P1  H  6934  6947       L1    11  0.82
      P1  H  7989  7998       L1     3  0.88

> <Gold.Chemscore.Hbond.Weighted>
-17.9573

> <Gold.Chemscore.Metal.Weighted>
-0.0000

> <Gold.Chemscore.Lipo.Weighted>
-4.7282

> <Gold.Chemscore.Internal_Hbond.Weighted>
0.0000

> <Gold.Chemscore.DEClash.Weighted>
0.0088

> <Gold.Chemscore.DEInternal.Weighted>
2.0035

> <Gold.Chemscore.Rot.Weighted>
4.8475

> <Gold.Chemscore.Internal.Correction.Weighted>
   9.000000E+99

> <Gold.Protein.RotatedTorsions>
[ 6907 6896 6895 6894 ] final  -53.79 input  -60.11 | X-H torsion
[ 7974 7965 7964 7962 ] final -102.11 input  175.53 | X-H torsion
[ 8008 7997 7996 7995 ] final   29.76 input   59.86 | X-H torsion
[ 10167 10162 10161 10158 ] final  -21.95 input  -65.29 | X-H torsion
[ 10718 10713 10712 10709 ] final  -11.82 input   66.30 | X-H torsion
[ 10763 10752 10751 10750 ] final   58.42 input  -60.55 | X-H torsion
[ 11005 11000 10999 10996 ] final -145.75 input  -57.11 | X-H torsion

> <Gold.Protein.ActiveResidues>
 VAL166  LYS551  ARG553  GLY616  TRP617  ASP618  TYR619  PRO620  LYS621  CYS622 
 ASP623  PHE694  ASN695  SER759  ASP760  ASP761  ALA762  ILE779  LEU786  VAL792 
 PHE793  MET794  SER795  GLU796  ALA797  LYS798  CYS799  TRP800  GLU811  SER814 

> <Gold.Protein.RotatedAtoms>
  150.8395  134.7682  159.6920 H   0  0  0  0  0  0  0  0  0  0  0  0  # atno 6907 bound_to 6896
  152.4485  134.5440  159.9857 H   0  0  0  0  0  0  0  0  0  0  0  0  # atno 6908 bound_to 6896
  151.5583  133.3369  159.3002 H   0  0  0  0  0  0  0  0  0  0  0  0  # atno 6909 bound_to 6896
  145.2730  140.9304  143.2975 H   0  0  0  0  0  0  0  0  0  0  0  0  # atno 7974 bound_to 7965
  155.0796  140.3209  155.4605 H   0  0  0  0  0  0  0  0  0  0  0  0  # atno 8008 bound_to 7997
  156.2770  140.2097  156.5869 H   0  0  0  0  0  0  0  0  0  0  0  0  # atno 8009 bound_to 7997
  154.6989  140.0509  157.0426 H   0  0  0  0  0  0  0  0  0  0  0  0  # atno 8010 bound_to 7997
  140.7284  143.4580  151.0420 H   0  0  0  0  0  0  0  0  0  0  0  0  # atno 10167 bound_to 10162
  156.6535  130.4961  149.6054 H   0  0  0  0  0  0  0  0  0  0  0  0  # atno 10718 bound_to 10713
  152.9870  135.5607  154.5550 H   0  0  0  0  0  0  0  0  0  0  0  0  # atno 10763 bound_to 10752
  154.4979  135.2796  155.1446 H   0  0  0  0  0  0  0  0  0  0  0  0  # atno 10764 bound_to 10752
  154.2888  135.6330  153.5430 H   0  0  0  0  0  0  0  0  0  0  0  0  # atno 10765 bound_to 10752
  140.7891  134.2990  157.5020 H   0  0  0  0  0  0  0  0  0  0  0  0  # atno 11005 bound_to 11000
  144.9319  139.4289  143.6491 LP  0  0  0  0  0  0  0  0  0  0  0  0  # atno 17320 bound_to 7965
  146.3240  139.8234  142.8922 LP  0  0  0  0  0  0  0  0  0  0  0  0  # atno 17321 bound_to 7965
  139.8262  143.7753  152.3178 LP  0  0  0  0  0  0  0  0  0  0  0  0  # atno 17342 bound_to 10162
  139.7852  144.7430  151.0031 LP  0  0  0  0  0  0  0  0  0  0  0  0  # atno 17343 bound_to 10162
  156.2066  130.6653  151.1224 LP  0  0  0  0  0  0  0  0  0  0  0  0  # atno 17370 bound_to 10713
  157.7133  131.0723  150.6421 LP  0  0  0  0  0  0  0  0  0  0  0  0  # atno 17371 bound_to 10713
  139.8733  134.9364  156.3658 LP  0  0  0  0  0  0  0  0  0  0  0  0  # atno 17394 bound_to 11000
  140.9408  133.7516  156.0143 LP  0  0  0  0  0  0  0  0  0  0  0  0  # atno 17395 bound_to 11000

$$$$
