AV-unprocessed.smi:2747|AV-procd|sdf|10578|dock4
  -GOLD-   2272015 33D 1   1.00000     0.00000
 Structure written by MMmdl.
 24 25  0  0  0  0  0  0  0  0  1 V2000
  149.7165  140.7694  153.3867 O   0  0  0  0  0  0  0  0  0  0  0  0
  149.2311  140.7573  154.7166 C   0  0  1  0  0  0  0  0  0  0  0  0
  149.9606  141.8355  155.5432 C   0  0  0  0  0  0  0  0  0  0  0  0
  150.6322  141.2830  156.7060 N   0  0  0  0  0  0  0  0  0  0  0  0
  150.8335  139.9373  156.7846 N   0  0  0  0  0  0  0  0  0  0  0  0
  151.4516  139.6734  157.8969 N   0  0  0  0  0  0  0  0  0  0  0  0
  151.6625  140.8684  158.5642 C   0  0  0  0  0  0  0  0  0  0  0  0
  152.2811  141.1613  159.7999 C   0  0  0  0  0  0  0  0  0  0  0  0
  152.3689  142.4948  160.2565 C   0  0  0  0  0  0  0  0  0  0  0  0
  153.1348  142.8127  161.7722 Cl  0  0  0  0  0  0  0  0  0  0  0  0
  151.8369  143.5523  159.4796 C   0  0  0  0  0  0  0  0  0  0  0  0
  151.9382  145.1897  160.0216 Cl  0  0  0  0  0  0  0  0  0  0  0  0
  151.2155  143.2746  158.2457 C   0  0  0  0  0  0  0  0  0  0  0  0
  151.1384  141.9408  157.8103 C   0  0  0  0  0  0  0  0  0  0  0  0
  147.7026  140.9479  154.7013 C   0  0  0  0  0  0  0  0  0  0  0  0
  147.2269  140.9475  155.9468 F   0  0  0  0  0  0  0  0  0  0  0  0
  147.4091  142.1253  154.1496 F   0  0  0  0  0  0  0  0  0  0  0  0
  147.1072  139.9860  153.9949 F   0  0  0  0  0  0  0  0  0  0  0  0
  149.2040  140.1632  152.8739 H   0  0  0  0  0  0  0  0  0  0  0  0
  149.4545  139.7757  155.1368 H   0  0  0  0  0  0  0  0  0  0  0  0
  150.7002  142.3509  154.9294 H   0  0  0  0  0  0  0  0  0  0  0  0
  149.2559  142.5962  155.8818 H   0  0  0  0  0  0  0  0  0  0  0  0
  152.6896  140.3592  160.3970 H   0  0  0  0  0  0  0  0  0  0  0  0
  150.8066  144.0723  157.6431 H   0  0  0  0  0  0  0  0  0  0  0  0
  1  2  1  0  0  0  0
  1 19  1  0  0  0  0
  2  3  1  0  0  0  0
  2 15  1  0  0  0  0
  2 20  1  0  0  0  0
  3  4  1  0  0  0  0
  3 21  1  0  0  0  0
  3 22  1  0  0  0  0
  4 14  1  0  0  0  0
  4  5  1  0  0  0  0
  5  6  2  0  0  0  0
  6  7  1  0  0  0  0
  7 14  2  0  0  0  0
  7  8  1  0  0  0  0
  8  9  2  0  0  0  0
  8 23  1  0  0  0  0
  9 10  1  0  0  0  0
  9 11  1  0  0  0  0
 11 12  1  0  0  0  0
 11 13  2  0  0  0  0
 13 14  1  0  0  0  0
 13 24  1  0  0  0  0
 15 16  1  0  0  0  0
 15 17  1  0  0  0  0
 15 18  1  0  0  0  0
M  END
> <s_m_source_file>
AV-unprocessed.smi

> <i_m_source_file_index>
2747

> <i_lp_mmshare_version>
43012

> <i_f3d_flags>
0

> <s_epik_input>
RkMoRikoRilbQ0BIXShbT0hdKVtDSDJdbihubjEpYyhjMTIpW2NIXWMoQ2wpYyhDbClbY0hdMg==

> <s_epik_cmdline>
J2VwaWtfcHl0aG9uJywgJy1waCcsICc3LjAnLCAnLXRuJywgJzgnLCAnLW1hJywgJzIwMCcsICctbWV0YWxfYmluZGluZycsICctaW1hZScsICc8aW5maWxlLm1hZT4nLCAnLW9tYWUnLCAnPG91dGZpbGUubWFlPic=

> <r_lp_tautomer_probability>
1

> <r_epik_Ionization_Penalty>
0.0735676

> <r_epik_Ionization_Penalty_Charging>
0

> <r_epik_Ionization_Penalty_Neutral>
0.0735676

> <r_epik_State_Penalty>
0.0647209

> <r_epik_Charging_Adjusted_Penalty>
0.0647209

> <i_epik_Tot_Q>
0

> <i_epik_Tot_abs_Q>
0

> <r_epik_Metal_State_Penalty>
0.0647209

> <b_epik_Metal_Only>
0

> <s_lp_Force_Field>
OPLS_2005

> <r_lp_Energy>
9.1287

> <b_lp_Chiralities_Consistent>
1

> <s_lp_Variant>
AV-unprocessed.smi:2747-2

> <Gold.Version>
5.8.1

> <Gold.Id.Protein>
6NUR|6NUR_protein|mol2

> <Gold.PLP.Fitness>
43.9202

> <Gold.PLP.PLP>
-40.7240

> <Gold.PLP.part.hbond>
-1.8572

> <Gold.PLP.part.metal>
0.0000

> <Gold.PLP.part.buried>
-3.4797

> <Gold.PLP.part.nonpolar>
-33.9404

> <Gold.PLP.part.repulsive>
0.0000

> <Gold.PLP.ligand.clash>
0.0000

> <Gold.PLP.ligand.torsion>
0.9377

> <Gold.PLP.Chemscore.Hbond>
1.6880

> <Gold.PLP.Chemscore.CHOScore>
0.0000

> <Gold.PLP.Chemscore.Metal>
0.0000

> <Gold.Chemscore.Hbonds>
donor molecule, donor type, donor heavy atom, donor atom, acceptor molecule, acceptor atom, score
      L1  H     1    19       P1  7957  0.34
      P1  H  7989  7998       L1     1  0.32
      P1  H  8011  8017       L1     1  1.00

> <Gold.PLP.Chemscore.Internal.Correction>
0.0076

> <Gold.Rescore>
     Score         DG    S(hbond)    S(metal)    S(lipo)     H(rot)  DE(clash)    DE(int)     intcor
     15.58     -16.66       1.36        0.00      98.70       1.92       0.12       0.96       ----

> <Gold.Chemscore.Fitness>
15.5775

> <Gold.Chemscore.DG>
-16.6554

> <Gold.Chemscore.ZeroCoef>
-5.4800

> <Gold.Chemscore.Hbond>
1.3628

> <Gold.Chemscore.Metal>
0.0000

> <Gold.Chemscore.Lipo>
98.6980

> <Gold.Chemscore.Internal_Hbond>
0.0000

> <Gold.Chemscore.DEClash>
0.1184

> <Gold.Chemscore.DEInternal>
0.9594

> <Gold.Chemscore.Rot>
1.9235

> <Gold.Chemscore.Internal.Correction>
   9.000000E+99

> <Gold.Chemscore.Hbonds>
donor molecule, donor type, donor heavy atom, donor atom, acceptor molecule, acceptor atom, score
      L1  H     1    19       P1  7957  0.32
      P1  H  7989  7998       L1     1  0.21
      P1  H  8011  8017       L1     1  0.54

> <Gold.Chemscore.Hbond.Weighted>
-4.5519

> <Gold.Chemscore.Metal.Weighted>
-0.0000

> <Gold.Chemscore.Lipo.Weighted>
-11.5477

> <Gold.Chemscore.Internal_Hbond.Weighted>
0.0000

> <Gold.Chemscore.DEClash.Weighted>
0.1184

> <Gold.Chemscore.DEInternal.Weighted>
0.9594

> <Gold.Chemscore.Rot.Weighted>
4.9242

> <Gold.Chemscore.Internal.Correction.Weighted>
   9.000000E+99

> <Gold.Protein.RotatedTorsions>
[ 6907 6896 6895 6894 ] final   -2.55 input  -60.11 | X-H torsion
[ 7974 7965 7964 7962 ] final   34.06 input  175.53 | X-H torsion
[ 8008 7997 7996 7995 ] final  -14.38 input   59.86 | X-H torsion
[ 10167 10162 10161 10158 ] final  169.56 input  -65.29 | X-H torsion
[ 10718 10713 10712 10709 ] final  -44.52 input   66.30 | X-H torsion
[ 10763 10752 10751 10750 ] final   51.41 input  -60.55 | X-H torsion
[ 11005 11000 10999 10996 ] final  143.96 input  -57.11 | X-H torsion

> <Gold.Protein.ActiveResidues>
 VAL166  LYS551  ARG553  GLY616  TRP617  ASP618  TYR619  PRO620  LYS621  CYS622 
 ASP623  PHE694  ASN695  SER759  ASP760  ASP761  ALA762  ILE779  LEU786  VAL792 
 PHE793  MET794  SER795  GLU796  ALA797  LYS798  CYS799  TRP800  GLU811  SER814 

> <Gold.Protein.RotatedAtoms>
  151.5280  135.1068  159.9895 H   0  0  0  0  0  0  0  0  0  0  0  0  # atno 6907 bound_to 6896
  152.4591  133.7780  159.6846 H   0  0  0  0  0  0  0  0  0  0  0  0  # atno 6908 bound_to 6896
  150.8546  133.7670  159.3038 H   0  0  0  0  0  0  0  0  0  0  0  0  # atno 6909 bound_to 6896
  146.1379  139.6317  142.9183 H   0  0  0  0  0  0  0  0  0  0  0  0  # atno 7974 bound_to 7965
  154.5215  140.2224  155.8967 H   0  0  0  0  0  0  0  0  0  0  0  0  # atno 8008 bound_to 7997
  156.1667  140.3130  155.8866 H   0  0  0  0  0  0  0  0  0  0  0  0  # atno 8009 bound_to 7997
  155.3642  140.0463  157.3037 H   0  0  0  0  0  0  0  0  0  0  0  0  # atno 8010 bound_to 7997
  139.4995  144.3693  151.9742 H   0  0  0  0  0  0  0  0  0  0  0  0  # atno 10167 bound_to 10162
  156.2377  130.4177  149.8798 H   0  0  0  0  0  0  0  0  0  0  0  0  # atno 10718 bound_to 10713
  152.9785  135.5846  154.4412 H   0  0  0  0  0  0  0  0  0  0  0  0  # atno 10763 bound_to 10752
  154.4013  135.2769  155.2097 H   0  0  0  0  0  0  0  0  0  0  0  0  # atno 10764 bound_to 10752
  154.3927  135.6121  153.5906 H   0  0  0  0  0  0  0  0  0  0  0  0  # atno 10765 bound_to 10752
  140.0594  134.9213  157.1158 H   0  0  0  0  0  0  0  0  0  0  0  0  # atno 11005 bound_to 11000
  145.5115  141.0435  143.2485 LP  0  0  0  0  0  0  0  0  0  0  0  0  # atno 17320 bound_to 7965
  144.7759  139.6630  143.7175 LP  0  0  0  0  0  0  0  0  0  0  0  0  # atno 17321 bound_to 7965
  140.3129  144.3517  150.6029 LP  0  0  0  0  0  0  0  0  0  0  0  0  # atno 17342 bound_to 10162
  140.5784  143.2174  151.7472 LP  0  0  0  0  0  0  0  0  0  0  0  0  # atno 17343 bound_to 10162
  156.6390  130.8697  151.3510 LP  0  0  0  0  0  0  0  0  0  0  0  0  # atno 17370 bound_to 10713
  157.7161  130.9499  150.1263 LP  0  0  0  0  0  0  0  0  0  0  0  0  # atno 17371 bound_to 10713
  140.3793  134.2304  155.7172 LP  0  0  0  0  0  0  0  0  0  0  0  0  # atno 17394 bound_to 11000
  141.1966  133.8077  157.0662 LP  0  0  0  0  0  0  0  0  0  0  0  0  # atno 17395 bound_to 11000

$$$$
