AV-unprocessed.smi:3303|AV-procd|sdf|12667|dock9
  -GOLD-   2272019 03D 1   1.00000     0.00000
 Structure written by MMmdl.
 45 46  0  0  0  0  0  0  0  0  3 V2000
  150.6930  138.6506  154.0728 C   0  0  0  0  0  0  0  0  0  0  0  0
  149.3981  138.8683  154.8841 C   0  0  2  0  0  0  0  0  0  0  0  0
  148.1610  138.8763  153.9620 C   0  0  0  0  0  0  0  0  0  0  0  0
  148.1067  140.1094  153.1340 N   0  3  1  0  0  0  0  0  0  0  0  0
  147.0608  140.0519  152.0874 C   0  0  0  0  0  0  0  0  0  0  0  0
  148.1041  141.3682  153.9353 C   0  0  1  0  0  0  0  0  0  0  0  0
  146.7735  141.6261  154.6756 C   0  0  0  0  0  0  0  0  0  0  0  0
  149.3193  141.4046  154.8883 C   0  0  0  0  0  0  0  0  0  0  0  0
  149.4079  140.1380  155.7677 C   0  0  2  0  0  0  0  0  0  0  0  0
  150.5850  140.1536  156.6680 N   0  3  0  0  0  0  0  0  0  0  0  0
  151.0649  141.4945  157.0633 C   0  0  0  0  0  0  0  0  0  0  0  0
  152.2207  141.3876  158.0678 C   0  0  0  0  0  0  0  0  0  0  0  0
  152.2249  142.5327  159.0625 C   0  0  0  0  0  0  0  0  0  0  0  0
  152.2103  143.8729  158.6209 C   0  0  0  0  0  0  0  0  0  0  0  0
  152.2157  144.8972  159.5879 C   0  0  0  0  0  0  0  0  0  0  0  0
  152.2378  144.5433  160.9505 C   0  0  0  0  0  0  0  0  0  0  0  0
  152.2527  143.1753  161.2880 C   0  0  0  0  0  0  0  0  0  0  0  0
  152.2472  142.1853  160.3689 N   0  0  0  0  0  0  0  0  0  0  0  0
  150.8755  139.4589  153.3650 H   0  0  0  0  0  0  0  0  0  0  0  0
  150.6393  137.7246  153.4996 H   0  0  0  0  0  0  0  0  0  0  0  0
  151.5669  138.5723  154.7193 H   0  0  0  0  0  0  0  0  0  0  0  0
  149.3003  138.0072  155.5471 H   0  0  0  0  0  0  0  0  0  0  0  0
  148.1845  138.0012  153.3108 H   0  0  0  0  0  0  0  0  0  0  0  0
  147.2485  138.7883  154.5529 H   0  0  0  0  0  0  0  0  0  0  0  0
  146.0674  139.9250  152.5190 H   0  0  0  0  0  0  0  0  0  0  0  0
  147.2430  139.2115  151.4168 H   0  0  0  0  0  0  0  0  0  0  0  0
  147.0637  140.9610  151.4851 H   0  0  0  0  0  0  0  0  0  0  0  0
  148.2334  142.1899  153.2292 H   0  0  0  0  0  0  0  0  0  0  0  0
  146.8270  142.5509  155.2505 H   0  0  0  0  0  0  0  0  0  0  0  0
  146.5204  140.8272  155.3716 H   0  0  0  0  0  0  0  0  0  0  0  0
  145.9403  141.7384  153.9822 H   0  0  0  0  0  0  0  0  0  0  0  0
  150.2334  141.5097  154.3029 H   0  0  0  0  0  0  0  0  0  0  0  0
  149.2617  142.3008  155.5059 H   0  0  0  0  0  0  0  0  0  0  0  0
  148.5236  140.0948  156.4050 H   0  0  0  0  0  0  0  0  0  0  0  0
  150.3287  139.6681  157.5160 H   0  0  0  0  0  0  0  0  0  0  0  0
  151.3952  142.0429  156.1813 H   0  0  0  0  0  0  0  0  0  0  0  0
  150.2422  142.0578  157.5056 H   0  0  0  0  0  0  0  0  0  0  0  0
  152.1580  140.4425  158.6092 H   0  0  0  0  0  0  0  0  0  0  0  0
  153.1763  141.3764  157.5411 H   0  0  0  0  0  0  0  0  0  0  0  0
  152.1930  144.1148  157.5685 H   0  0  0  0  0  0  0  0  0  0  0  0
  152.2026  145.9351  159.2895 H   0  0  0  0  0  0  0  0  0  0  0  0
  152.2415  145.3021  161.7191 H   0  0  0  0  0  0  0  0  0  0  0  0
  152.2699  142.8683  162.3231 H   0  0  0  0  0  0  0  0  0  0  0  0
  151.3413  139.6478  156.2289 H   0  0  0  0  0  0  0  0  0  0  0  0
  148.9800  140.1254  152.6263 H   0  0  0  0  0  0  0  0  0  0  0  0
  1  2  1  0  0  0  0
  1 19  1  0  0  0  0
  1 20  1  0  0  0  0
  1 21  1  0  0  0  0
  2  9  1  0  0  0  0
  2  3  1  0  0  0  0
  2 22  1  0  0  0  0
  3  4  1  0  0  0  0
  3 23  1  0  0  0  0
  3 24  1  0  0  0  0
  4  5  1  0  0  0  0
  4  6  1  0  0  0  0
  4 45  1  0  0  0  0
  5 25  1  0  0  0  0
  5 26  1  0  0  0  0
  5 27  1  0  0  0  0
  6  7  1  0  0  0  0
  6  8  1  0  0  0  0
  6 28  1  0  0  0  0
  7 29  1  0  0  0  0
  7 30  1  0  0  0  0
  7 31  1  0  0  0  0
  8  9  1  0  0  0  0
  8 32  1  0  0  0  0
  8 33  1  0  0  0  0
  9 10  1  0  0  0  0
  9 34  1  0  0  0  0
 10 11  1  0  0  0  0
 10 35  1  0  0  0  0
 10 44  1  0  0  0  0
 11 12  1  0  0  0  0
 11 36  1  0  0  0  0
 11 37  1  0  0  0  0
 12 13  1  0  0  0  0
 12 38  1  0  0  0  0
 12 39  1  0  0  0  0
 13 18  1  0  0  0  0
 13 14  2  0  0  0  0
 14 15  1  0  0  0  0
 14 40  1  0  0  0  0
 15 16  2  0  0  0  0
 15 41  1  0  0  0  0
 16 17  1  0  0  0  0
 16 42  1  0  0  0  0
 17 18  2  0  0  0  0
 17 43  1  0  0  0  0
M  CHG  1   4   1
M  CHG  1  10   1
M  END
> <s_m_source_file>
AV-unprocessed.smi

> <i_m_source_file_index>
3303

> <i_lp_mmshare_version>
43012

> <i_f3d_flags>
0

> <s_epik_input>
W0NIM11bQ0BASF0xW0NIMl1OKFtDSDNdKVtDQEBIXShbQ0gzXSlbQ0gyXVtDQEhdMVtOSF1bQ0gyXVtDSDJdYzJbY0hdW2NIXVtjSF1bY0hdbjI=

> <s_epik_cmdline>
J2VwaWtfcHl0aG9uJywgJy1waCcsICc3LjAnLCAnLXRuJywgJzgnLCAnLW1hJywgJzIwMCcsICctbWV0YWxfYmluZGluZycsICctaW1hZScsICc8aW5maWxlLm1hZT4nLCAnLW9tYWUnLCAnPG91dGZpbGUubWFlPic=

> <r_epik_Ionization_Penalty>
0.0769462

> <r_epik_Ionization_Penalty_Charging>
0.0759813

> <r_epik_Ionization_Penalty_Neutral>
0.000964829

> <r_epik_State_Penalty>
0.0654373

> <r_epik_Charging_Adjusted_Penalty>
0.141419

> <i_epik_Tot_Q>
2

> <i_epik_Tot_abs_Q>
2

> <r_epik_Metal_State_Penalty>
0.0656439

> <b_epik_Metal_Only>
0

> <s_lp_Force_Field>
OPLS_2005

> <r_lp_Energy>
31.612

> <b_lp_Chiralities_Consistent>
1

> <s_lp_Variant>
AV-unprocessed.smi:3303-11

> <Gold.Version>
5.8.1

> <Gold.Id.Protein>
6NUR|6NUR_protein|mol2

> <Gold.PLP.Fitness>
42.5313

> <Gold.PLP.PLP>
-41.2447

> <Gold.PLP.part.hbond>
-0.7843

> <Gold.PLP.part.metal>
0.0000

> <Gold.PLP.part.buried>
-3.9456

> <Gold.PLP.part.nonpolar>
-36.4041

> <Gold.PLP.part.repulsive>
0.1778

> <Gold.PLP.ligand.clash>
0.0000

> <Gold.PLP.ligand.torsion>
0.6370

> <Gold.PLP.Chemscore.Hbond>
0.8480

> <Gold.PLP.Chemscore.CHOScore>
0.0000

> <Gold.PLP.Chemscore.Metal>
0.0000

> <Gold.Chemscore.Hbonds>
donor molecule, donor type, donor heavy atom, donor atom, acceptor molecule, acceptor atom, score
      L1  H     4    45       P1  7957  0.85

> <Gold.PLP.Chemscore.Internal.Correction>
0.0166

> <Gold.Rescore>
     Score         DG    S(hbond)    S(metal)    S(lipo)     H(rot)  DE(clash)    DE(int)     intcor
     18.45     -20.03       0.94        0.00     127.51       1.37       1.01       0.56       ----

> <Gold.Chemscore.Fitness>
18.4519

> <Gold.Chemscore.DG>
-20.0292

> <Gold.Chemscore.ZeroCoef>
-5.4800

> <Gold.Chemscore.Hbond>
0.9427

> <Gold.Chemscore.Metal>
0.0000

> <Gold.Chemscore.Lipo>
127.5133

> <Gold.Chemscore.Internal_Hbond>
0.0000

> <Gold.Chemscore.DEClash>
1.0125

> <Gold.Chemscore.DEInternal>
0.5648

> <Gold.Chemscore.Rot>
1.3744

> <Gold.Chemscore.Internal.Correction>
   9.000000E+99

> <Gold.Chemscore.Hbonds>
donor molecule, donor type, donor heavy atom, donor atom, acceptor molecule, acceptor atom, score
      L1  H     4    45       P1  7957  0.83

> <Gold.Chemscore.Hbond.Weighted>
-3.1486

> <Gold.Chemscore.Metal.Weighted>
-0.0000

> <Gold.Chemscore.Lipo.Weighted>
-14.9191

> <Gold.Chemscore.Internal_Hbond.Weighted>
0.0000

> <Gold.Chemscore.DEClash.Weighted>
1.0125

> <Gold.Chemscore.DEInternal.Weighted>
0.5648

> <Gold.Chemscore.Rot.Weighted>
3.5185

> <Gold.Chemscore.Internal.Correction.Weighted>
   9.000000E+99

> <Gold.Protein.RotatedTorsions>
[ 6907 6896 6895 6894 ] final   -5.74 input  -60.11 | X-H torsion
[ 7974 7965 7964 7962 ] final   77.75 input  175.53 | X-H torsion
[ 8008 7997 7996 7995 ] final -166.08 input   59.86 | X-H torsion
[ 10167 10162 10161 10158 ] final -107.69 input  -65.29 | X-H torsion
[ 10718 10713 10712 10709 ] final  101.69 input   66.30 | X-H torsion
[ 10763 10752 10751 10750 ] final  -53.13 input  -60.55 | X-H torsion
[ 11005 11000 10999 10996 ] final  151.24 input  -57.11 | X-H torsion

> <Gold.Protein.ActiveResidues>
 VAL166  LYS551  ARG553  GLY616  TRP617  ASP618  TYR619  PRO620  LYS621  CYS622 
 ASP623  PHE694  ASN695  SER759  ASP760  ASP761  ALA762  ILE779  LEU786  VAL792 
 PHE793  MET794  SER795  GLU796  ALA797  LYS798  CYS799  TRP800  GLU811  SER814 

> <Gold.Protein.RotatedAtoms>
  151.4768  135.1049  159.9766 H   0  0  0  0  0  0  0  0  0  0  0  0  # atno 6907 bound_to 6896
  152.4795  133.8215  159.7066 H   0  0  0  0  0  0  0  0  0  0  0  0  # atno 6908 bound_to 6896
  150.8856  133.7251  159.2946 H   0  0  0  0  0  0  0  0  0  0  0  0  # atno 6909 bound_to 6896
  145.6860  139.2538  143.1787 H   0  0  0  0  0  0  0  0  0  0  0  0  # atno 7974 bound_to 7965
  155.8588  140.0975  157.1627 H   0  0  0  0  0  0  0  0  0  0  0  0  # atno 8008 bound_to 7997
  154.3989  140.1369  156.3998 H   0  0  0  0  0  0  0  0  0  0  0  0  # atno 8009 bound_to 7997
  155.7879  140.3456  155.5335 H   0  0  0  0  0  0  0  0  0  0  0  0  # atno 8010 bound_to 7997
  140.1743  143.4018  152.1331 H   0  0  0  0  0  0  0  0  0  0  0  0  # atno 10167 bound_to 10162
  157.6822  131.0733  150.5290 H   0  0  0  0  0  0  0  0  0  0  0  0  # atno 10718 bound_to 10713
  154.1539  135.6485  153.4970 H   0  0  0  0  0  0  0  0  0  0  0  0  # atno 10763 bound_to 10752
  153.0130  135.5344  154.6780 H   0  0  0  0  0  0  0  0  0  0  0  0  # atno 10764 bound_to 10752
  154.6075  135.2950  155.0440 H   0  0  0  0  0  0  0  0  0  0  0  0  # atno 10765 bound_to 10752
  140.1202  134.8869  157.2061 H   0  0  0  0  0  0  0  0  0  0  0  0  # atno 11005 bound_to 11000
  146.0923  140.7641  142.9589 LP  0  0  0  0  0  0  0  0  0  0  0  0  # atno 17320 bound_to 7965
  144.7011  140.3657  143.7155 LP  0  0  0  0  0  0  0  0  0  0  0  0  # atno 17321 bound_to 7965
  139.5324  144.7173  151.5009 LP  0  0  0  0  0  0  0  0  0  0  0  0  # atno 17342 bound_to 10162
  140.6562  143.8595  150.6837 LP  0  0  0  0  0  0  0  0  0  0  0  0  # atno 17343 bound_to 10162
  156.5601  130.4253  149.6067 LP  0  0  0  0  0  0  0  0  0  0  0  0  # atno 17370 bound_to 10713
  156.2828  130.7080  151.1909 LP  0  0  0  0  0  0  0  0  0  0  0  0  # atno 17371 bound_to 10713
  140.2975  134.3169  155.7298 LP  0  0  0  0  0  0  0  0  0  0  0  0  # atno 17394 bound_to 11000
  141.2150  133.7572  156.9593 LP  0  0  0  0  0  0  0  0  0  0  0  0  # atno 17395 bound_to 11000

$$$$
