AV-unprocessed.smi:3297|AV-procd|sdf|12638|dock1
  -GOLD-   2272018573D 1   1.00000     0.00000
 Structure written by MMmdl.
 34 35  0  0  0  0  0  0  0  0  1 V2000
  147.3921  140.3755  153.1495 O   0  0  0  0  0  0  0  0  0  0  0  0
  148.2203  140.9915  154.1121 C   0  0  0  0  0  0  0  0  0  0  0  0
  148.7761  139.9414  155.0816 C   0  0  0  0  0  0  0  0  0  0  0  0
  150.1927  139.9248  154.9807 O   0  0  0  0  0  0  0  0  0  0  0  0
  150.8739  139.9179  156.2283 C   0  0  2  0  0  0  0  0  0  0  0  0
  150.3501  138.7889  157.1387 C   0  0  0  0  0  0  0  0  0  0  0  0
  150.9801  138.8969  158.5361 C   0  0  0  0  0  0  0  0  0  0  0  0
  150.7527  140.2931  159.1398 C   0  0  0  0  0  0  0  0  0  0  0  0
  151.2217  141.3373  158.2299 N   0  0  0  0  0  0  0  0  0  0  0  0
  151.3604  142.6076  158.8257 C   0  0  0  0  0  0  0  0  0  0  0  0
  150.5872  143.6206  158.3603 N   0  0  0  0  0  0  0  0  0  0  0  0
  150.7003  144.8403  158.9279 C   0  0  0  0  0  0  0  0  0  0  0  0
  151.5860  145.1202  159.9853 C   0  0  0  0  0  0  0  0  0  0  0  0
  152.3951  144.0758  160.4691 C   0  0  0  0  0  0  0  0  0  0  0  0
  152.2843  142.8001  159.8824 C   0  0  0  0  0  0  0  0  0  0  0  0
  153.0715  141.7875  160.3206 F   0  0  0  0  0  0  0  0  0  0  0  0
  150.6388  141.2886  156.8879 C   0  0  0  0  0  0  0  0  0  0  0  0
  147.8850  140.2748  152.3495 H   0  0  0  0  0  0  0  0  0  0  0  0
  149.0406  141.4734  153.5798 H   0  0  0  0  0  0  0  0  0  0  0  0
  147.6757  141.7733  154.6420 H   0  0  0  0  0  0  0  0  0  0  0  0
  148.4353  140.1328  156.0994 H   0  0  0  0  0  0  0  0  0  0  0  0
  148.3981  138.9592  154.7944 H   0  0  0  0  0  0  0  0  0  0  0  0
  151.9469  139.7959  156.0681 H   0  0  0  0  0  0  0  0  0  0  0  0
  149.2645  138.8556  157.2204 H   0  0  0  0  0  0  0  0  0  0  0  0
  150.5721  137.8101  156.7144 H   0  0  0  0  0  0  0  0  0  0  0  0
  150.5637  138.1338  159.1941 H   0  0  0  0  0  0  0  0  0  0  0  0
  152.0505  138.6987  158.4697 H   0  0  0  0  0  0  0  0  0  0  0  0
  149.6892  140.4465  159.3276 H   0  0  0  0  0  0  0  0  0  0  0  0
  151.2512  140.3548  160.1066 H   0  0  0  0  0  0  0  0  0  0  0  0
  150.0652  145.6164  158.5273 H   0  0  0  0  0  0  0  0  0  0  0  0
  151.6451  146.1108  160.4111 H   0  0  0  0  0  0  0  0  0  0  0  0
  153.0923  144.2508  161.2751 H   0  0  0  0  0  0  0  0  0  0  0  0
  151.0764  142.0701  156.2652 H   0  0  0  0  0  0  0  0  0  0  0  0
  149.5686  141.4906  156.9545 H   0  0  0  0  0  0  0  0  0  0  0  0
  1  2  1  0  0  0  0
  1 18  1  0  0  0  0
  2  3  1  0  0  0  0
  2 19  1  0  0  0  0
  2 20  1  0  0  0  0
  3  4  1  0  0  0  0
  3 21  1  0  0  0  0
  3 22  1  0  0  0  0
  4  5  1  0  0  0  0
  5 17  1  0  0  0  0
  5  6  1  0  0  0  0
  5 23  1  0  0  0  0
  6  7  1  0  0  0  0
  6 24  1  0  0  0  0
  6 25  1  0  0  0  0
  7  8  1  0  0  0  0
  7 26  1  0  0  0  0
  7 27  1  0  0  0  0
  8  9  1  0  0  0  0
  8 28  1  0  0  0  0
  8 29  1  0  0  0  0
  9 10  1  0  0  0  0
  9 17  1  0  0  0  0
 10 15  1  0  0  0  0
 10 11  2  0  0  0  0
 11 12  1  0  0  0  0
 12 13  2  0  0  0  0
 12 30  1  0  0  0  0
 13 14  1  0  0  0  0
 13 31  1  0  0  0  0
 14 15  2  0  0  0  0
 14 32  1  0  0  0  0
 15 16  1  0  0  0  0
 17 33  1  0  0  0  0
 17 34  1  0  0  0  0
M  END
> <s_m_source_file>
AV-unprocessed.smi

> <i_m_source_file_index>
3297

> <i_lp_mmshare_version>
43012

> <i_f3d_flags>
0

> <s_epik_input>
W09IXVtDSDJdW0NIMl1PW0NAQEhdMVtDSDJdW0NIMl1bQ0gyXU4oW0NIMl0xKWMybltjSF1bY0hdW2NIXWMyRg==

> <s_epik_cmdline>
J2VwaWtfcHl0aG9uJywgJy1waCcsICc3LjAnLCAnLXRuJywgJzgnLCAnLW1hJywgJzIwMCcsICctbWV0YWxfYmluZGluZycsICctaW1hZScsICc8aW5maWxlLm1hZT4nLCAnLW9tYWUnLCAnPG91dGZpbGUubWFlPic=

> <r_lp_tautomer_probability>
1

> <r_epik_Ionization_Penalty>
0.00104501

> <r_epik_Ionization_Penalty_Charging>
0

> <r_epik_Ionization_Penalty_Neutral>
0.00104501

> <r_epik_State_Penalty>
0.000654582

> <r_epik_Charging_Adjusted_Penalty>
0.000654582

> <i_epik_Tot_Q>
0

> <i_epik_Tot_abs_Q>
0

> <r_epik_Metal_State_Penalty>
-0

> <b_epik_Metal_Only>
0

> <s_lp_Force_Field>
OPLS_2005

> <r_lp_Energy>
21.0324

> <b_lp_Chiralities_Consistent>
1

> <s_lp_Variant>
AV-unprocessed.smi:3297-1

> <Gold.Version>
5.8.1

> <Gold.Id.Protein>
6NUR|6NUR_protein|mol2

> <Gold.PLP.Fitness>
45.2845

> <Gold.PLP.PLP>
-37.9914

> <Gold.PLP.part.hbond>
-2.0000

> <Gold.PLP.part.metal>
0.0000

> <Gold.PLP.part.buried>
-5.9368

> <Gold.PLP.part.nonpolar>
-30.3322

> <Gold.PLP.part.repulsive>
0.2401

> <Gold.PLP.ligand.clash>
0.0000

> <Gold.PLP.ligand.torsion>
1.0380

> <Gold.PLP.Chemscore.Hbond>
2.0000

> <Gold.PLP.Chemscore.CHOScore>
1.0000

> <Gold.PLP.Chemscore.Metal>
0.0000

> <Gold.Chemscore.Hbonds>
donor molecule, donor type, donor heavy atom, donor atom, acceptor molecule, acceptor atom, score
      L1  H     1    18       P1  7957  0.86
      P1  H  7989  7998       L1     4  0.41
      L1  C    12    30       P1  8029  1.00

> <Gold.PLP.Chemscore.Internal.Correction>
0.3691

> <Gold.Rescore>
     Score         DG    S(hbond)    S(metal)    S(lipo)     H(rot)  DE(clash)    DE(int)     intcor
     15.07     -16.48       1.95        0.00      87.72       2.25       0.25       1.16       ----

> <Gold.Chemscore.Fitness>
15.0737

> <Gold.Chemscore.DG>
-16.4836

> <Gold.Chemscore.ZeroCoef>
-5.4800

> <Gold.Chemscore.Hbond>
1.9479

> <Gold.Chemscore.Metal>
0.0000

> <Gold.Chemscore.Lipo>
87.7246

> <Gold.Chemscore.Internal_Hbond>
0.0000

> <Gold.Chemscore.DEClash>
0.2459

> <Gold.Chemscore.DEInternal>
1.1640

> <Gold.Chemscore.Rot>
2.2524

> <Gold.Chemscore.Internal.Correction>
   9.000000E+99

> <Gold.Chemscore.Hbonds>
donor molecule, donor type, donor heavy atom, donor atom, acceptor molecule, acceptor atom, score
      L1  H     1    18       P1  7957  0.83
      P1  H  7989  7998       L1     4  0.22

> <Gold.Chemscore.Hbond.Weighted>
-6.5060

> <Gold.Chemscore.Metal.Weighted>
-0.0000

> <Gold.Chemscore.Lipo.Weighted>
-10.2638

> <Gold.Chemscore.Internal_Hbond.Weighted>
0.0000

> <Gold.Chemscore.DEClash.Weighted>
0.2459

> <Gold.Chemscore.DEInternal.Weighted>
1.1640

> <Gold.Chemscore.Rot.Weighted>
5.7661

> <Gold.Chemscore.Internal.Correction.Weighted>
   9.000000E+99

> <Gold.Protein.RotatedTorsions>
[ 6907 6896 6895 6894 ] final   88.40 input  -60.11 | X-H torsion
[ 7974 7965 7964 7962 ] final  -62.78 input  175.53 | X-H torsion
[ 8008 7997 7996 7995 ] final  120.65 input   59.86 | X-H torsion
[ 10167 10162 10161 10158 ] final  105.57 input  -65.29 | X-H torsion
[ 10718 10713 10712 10709 ] final   51.10 input   66.30 | X-H torsion
[ 10763 10752 10751 10750 ] final  -91.18 input  -60.55 | X-H torsion
[ 11005 11000 10999 10996 ] final    2.92 input  -57.11 | X-H torsion

> <Gold.Protein.ActiveResidues>
 VAL166  LYS551  ARG553  GLY616  TRP617  ASP618  TYR619  PRO620  LYS621  CYS622 
 ASP623  PHE694  ASN695  SER759  ASP760  ASP761  ALA762  ILE779  LEU786  VAL792 
 PHE793  MET794  SER795  GLU796  ALA797  LYS798  CYS799  TRP800  GLU811  SER814 

> <Gold.Protein.RotatedAtoms>
  152.5424  134.2127  159.8756 H   0  0  0  0  0  0  0  0  0  0  0  0  # atno 6907 bound_to 6896
  151.2109  133.4550  159.2606 H   0  0  0  0  0  0  0  0  0  0  0  0  # atno 6908 bound_to 6896
  151.0898  134.9922  159.8453 H   0  0  0  0  0  0  0  0  0  0  0  0  # atno 6909 bound_to 6896
  145.7872  140.8730  143.0300 H   0  0  0  0  0  0  0  0  0  0  0  0  # atno 7974 bound_to 7965
  156.2652  140.2826  156.1183 H   0  0  0  0  0  0  0  0  0  0  0  0  # atno 8008 bound_to 7997
  155.1183  140.0392  157.2760 H   0  0  0  0  0  0  0  0  0  0  0  0  # atno 8009 bound_to 7997
  154.6690  140.2583  155.7034 H   0  0  0  0  0  0  0  0  0  0  0  0  # atno 8010 bound_to 7997
  139.7081  144.7082  151.1072 H   0  0  0  0  0  0  0  0  0  0  0  0  # atno 10167 bound_to 10162
  157.4948  130.8399  149.8245 H   0  0  0  0  0  0  0  0  0  0  0  0  # atno 10718 bound_to 10713
  154.6734  135.5277  153.8168 H   0  0  0  0  0  0  0  0  0  0  0  0  # atno 10763 bound_to 10752
  153.0516  135.6535  154.0688 H   0  0  0  0  0  0  0  0  0  0  0  0  # atno 10764 bound_to 10752
  154.0584  135.2963  155.3309 H   0  0  0  0  0  0  0  0  0  0  0  0  # atno 10765 bound_to 10752
  140.5989  133.9854  155.8123 H   0  0  0  0  0  0  0  0  0  0  0  0  # atno 11005 bound_to 11000
  144.6787  140.0072  143.7484 LP  0  0  0  0  0  0  0  0  0  0  0  0  # atno 17320 bound_to 7965
  146.0014  139.3094  143.0925 LP  0  0  0  0  0  0  0  0  0  0  0  0  # atno 17321 bound_to 7965
  140.7726  143.5330  150.9401 LP  0  0  0  0  0  0  0  0  0  0  0  0  # atno 17342 bound_to 10162
  139.9014  143.6831  152.3130 LP  0  0  0  0  0  0  0  0  0  0  0  0  # atno 17343 bound_to 10162
  156.0194  130.3801  150.2008 LP  0  0  0  0  0  0  0  0  0  0  0  0  # atno 17370 bound_to 10713
  157.0198  130.9976  151.3343 LP  0  0  0  0  0  0  0  0  0  0  0  0  # atno 17371 bound_to 10713
  141.0885  133.9953  157.3275 LP  0  0  0  0  0  0  0  0  0  0  0  0  # atno 17394 bound_to 11000
  139.9241  135.0201  156.8171 LP  0  0  0  0  0  0  0  0  0  0  0  0  # atno 17395 bound_to 11000

$$$$
