AV-unprocessed.smi:2509|AV-procd|sdf|9866|dock8
  -GOLD-   2272013493D 1   1.00000     0.00000
 Structure written by MMmdl.
 45 46  0  0  0  0  0  0  0  0  1 V2000
  150.8292  142.9000  156.3617 C   0  0  0  0  0  0  0  0  0  0  0  0
  150.2752  141.7054  157.1730 C   0  0  0  0  0  0  0  0  0  0  0  0
  151.4269  141.0098  157.9214 C   0  0  0  0  0  0  0  0  0  0  0  0
  149.2840  142.3071  158.1974 C   0  0  0  0  0  0  0  0  0  0  0  0
  149.5755  140.6899  156.2527 C   0  0  0  0  0  0  0  0  0  0  0  0
  149.8435  140.7713  154.9426 N   0  0  0  0  0  0  0  0  0  0  0  0
  149.3404  139.8106  154.1394 C   0  0  0  0  0  0  0  0  0  0  0  0
  148.5790  138.7385  154.6452 C   0  0  0  0  0  0  0  0  0  0  0  0
  148.0951  137.7494  153.7485 N   0  0  0  0  0  0  0  0  0  0  0  0
  146.8988  137.1378  153.7559 C   0  0  0  0  0  0  0  0  0  0  0  0
  145.9853  137.3764  154.5454 O   0  0  0  0  0  0  0  0  0  0  0  0
  146.8097  136.2381  152.7661 N   0  0  0  0  0  0  0  0  0  0  0  0
  145.6389  135.4184  152.4678 C   0  0  0  0  0  0  0  0  0  0  0  0
  145.9750  134.2841  151.4805 C   0  0  2  0  0  0  0  0  0  0  0  0
  144.7638  133.4516  151.0299 C   0  0  0  0  0  0  0  0  0  0  0  0
  145.3010  132.0531  150.6866 C   0  0  0  0  0  0  0  0  0  0  0  0
  146.7771  132.0433  151.1022 C   0  0  0  0  0  0  0  0  0  0  0  0
  146.9307  133.2322  152.0521 C   0  0  1  0  0  0  0  0  0  0  0  0
  148.2669  133.6882  152.0989 O   0  0  0  0  0  0  0  0  0  0  0  0
  148.3986  138.7201  156.0485 C   0  0  0  0  0  0  0  0  0  0  0  0
  148.9111  139.6860  156.8405 N   0  0  0  0  0  0  0  0  0  0  0  0
  151.2838  143.6464  157.0138 H   0  0  0  0  0  0  0  0  0  0  0  0
  150.0393  143.3963  155.7964 H   0  0  0  0  0  0  0  0  0  0  0  0
  151.5992  142.5912  155.6537 H   0  0  0  0  0  0  0  0  0  0  0  0
  152.1642  140.6070  157.2262 H   0  0  0  0  0  0  0  0  0  0  0  0
  151.0609  140.1810  158.5283 H   0  0  0  0  0  0  0  0  0  0  0  0
  151.9450  141.7017  158.5861 H   0  0  0  0  0  0  0  0  0  0  0  0
  149.7656  143.0619  158.8201 H   0  0  0  0  0  0  0  0  0  0  0  0
  148.8856  141.5500  158.8738 H   0  0  0  0  0  0  0  0  0  0  0  0
  148.4386  142.7841  157.6999 H   0  0  0  0  0  0  0  0  0  0  0  0
  149.5525  139.8989  153.0840 H   0  0  0  0  0  0  0  0  0  0  0  0
  148.7134  137.5134  152.9861 H   0  0  0  0  0  0  0  0  0  0  0  0
  147.6115  136.1153  152.1651 H   0  0  0  0  0  0  0  0  0  0  0  0
  145.2875  134.9920  153.4076 H   0  0  0  0  0  0  0  0  0  0  0  0
  144.8169  136.0266  152.0863 H   0  0  0  0  0  0  0  0  0  0  0  0
  146.4340  134.7152  150.5887 H   0  0  0  0  0  0  0  0  0  0  0  0
  144.0427  133.3661  151.8437 H   0  0  0  0  0  0  0  0  0  0  0  0
  144.2472  133.9112  150.1867 H   0  0  0  0  0  0  0  0  0  0  0  0
  144.7421  131.2939  151.2347 H   0  0  0  0  0  0  0  0  0  0  0  0
  145.1954  131.8312  149.6240 H   0  0  0  0  0  0  0  0  0  0  0  0
  147.0791  131.1008  151.5597 H   0  0  0  0  0  0  0  0  0  0  0  0
  147.3961  132.1913  150.2158 H   0  0  0  0  0  0  0  0  0  0  0  0
  146.6124  132.9430  153.0549 H   0  0  0  0  0  0  0  0  0  0  0  0
  148.2792  134.6081  151.8831 H   0  0  0  0  0  0  0  0  0  0  0  0
  147.8740  137.9274  156.5591 H   0  0  0  0  0  0  0  0  0  0  0  0
  1  2  1  0  0  0  0
  1 22  1  0  0  0  0
  1 23  1  0  0  0  0
  1 24  1  0  0  0  0
  2  3  1  0  0  0  0
  2  4  1  0  0  0  0
  2  5  1  0  0  0  0
  3 25  1  0  0  0  0
  3 26  1  0  0  0  0
  3 27  1  0  0  0  0
  4 28  1  0  0  0  0
  4 29  1  0  0  0  0
  4 30  1  0  0  0  0
  5 21  1  0  0  0  0
  5  6  2  0  0  0  0
  6  7  1  0  0  0  0
  7  8  2  0  0  0  0
  7 31  1  0  0  0  0
  8  9  1  0  0  0  0
  8 20  1  0  0  0  0
  9 10  1  0  0  0  0
  9 32  1  0  0  0  0
 10 11  2  0  0  0  0
 10 12  1  0  0  0  0
 12 13  1  0  0  0  0
 12 33  1  0  0  0  0
 13 14  1  0  0  0  0
 13 34  1  0  0  0  0
 13 35  1  0  0  0  0
 14 18  1  0  0  0  0
 14 15  1  0  0  0  0
 14 36  1  0  0  0  0
 15 16  1  0  0  0  0
 15 37  1  0  0  0  0
 15 38  1  0  0  0  0
 16 17  1  0  0  0  0
 16 39  1  0  0  0  0
 16 40  1  0  0  0  0
 17 18  1  0  0  0  0
 17 41  1  0  0  0  0
 17 42  1  0  0  0  0
 18 19  1  0  0  0  0
 18 43  1  0  0  0  0
 19 44  1  0  0  0  0
 20 21  2  0  0  0  0
 20 45  1  0  0  0  0
M  END
> <s_m_source_file>
AV-unprocessed.smi

> <i_m_source_file_index>
2509

> <i_lp_mmshare_version>
43012

> <i_f3d_flags>
0

> <s_epik_input>
W0NIM11DKFtDSDNdKShbQ0gzXSljMW5bY0hdYyhbY0hdbjEpW05IXUMoPU8pW05IXVtDSDJdW0NAQEhdMltDSDJdW0NIMl1bQ0gyXVtDQEhdMltPSF0=

> <s_epik_cmdline>
J2VwaWtfcHl0aG9uJywgJy1waCcsICc3LjAnLCAnLXRuJywgJzgnLCAnLW1hJywgJzIwMCcsICctbWV0YWxfYmluZGluZycsICctaW1hZScsICc8aW5maWxlLm1hZT4nLCAnLW9tYWUnLCAnPG91dGZpbGUubWFlPic=

> <r_lp_tautomer_probability>
1

> <r_epik_Ionization_Penalty>
2.77586e-05

> <r_epik_Ionization_Penalty_Charging>
0

> <r_epik_Ionization_Penalty_Neutral>
2.77586e-05

> <r_epik_State_Penalty>
-0

> <r_epik_Charging_Adjusted_Penalty>
0

> <i_epik_Tot_Q>
0

> <i_epik_Tot_abs_Q>
0

> <r_epik_Metal_State_Penalty>
-0

> <b_epik_Metal_Only>
0

> <s_lp_Force_Field>
OPLS_2005

> <r_lp_Energy>
20.4584

> <b_lp_Chiralities_Consistent>
1

> <s_lp_Variant>
AV-unprocessed.smi:2509-1

> <Gold.Version>
5.8.1

> <Gold.Id.Protein>
6NUR|6NUR_protein|mol2

> <Gold.PLP.Fitness>
40.1511

> <Gold.PLP.PLP>
-29.1507

> <Gold.PLP.part.hbond>
-3.7327

> <Gold.PLP.part.metal>
0.0000

> <Gold.PLP.part.buried>
-1.8849

> <Gold.PLP.part.nonpolar>
-22.9267

> <Gold.PLP.part.repulsive>
0.3103

> <Gold.PLP.ligand.clash>
0.0000

> <Gold.PLP.ligand.torsion>
0.7893

> <Gold.PLP.Chemscore.Hbond>
3.1420

> <Gold.PLP.Chemscore.CHOScore>
1.0000

> <Gold.PLP.Chemscore.Metal>
0.0000

> <Gold.Chemscore.Hbonds>
donor molecule, donor type, donor heavy atom, donor atom, acceptor molecule, acceptor atom, score
      L1  H     9    32       P1  7948  0.80
      L1  H    12    33       P1  7948  0.59
      L1  H    19    44       P1  7948  0.50
      P1  H  7989  7998       L1     6  0.10
      L1  C     7    31       P1  7957  0.75

> <Gold.PLP.Chemscore.Internal.Correction>
0.1530

> <Gold.Rescore>
     Score         DG    S(hbond)    S(metal)    S(lipo)     H(rot)  DE(clash)    DE(int)     intcor
     16.67     -18.15       2.71        0.00      72.93       1.91       0.02       1.46       ----

> <Gold.Chemscore.Fitness>
16.6682

> <Gold.Chemscore.DG>
-18.1550

> <Gold.Chemscore.ZeroCoef>
-5.4800

> <Gold.Chemscore.Hbond>
2.7054

> <Gold.Chemscore.Metal>
0.0000

> <Gold.Chemscore.Lipo>
72.9277

> <Gold.Chemscore.Internal_Hbond>
0.0000

> <Gold.Chemscore.DEClash>
0.0225

> <Gold.Chemscore.DEInternal>
1.4643

> <Gold.Chemscore.Rot>
1.9116

> <Gold.Chemscore.Internal.Correction>
   9.000000E+99

> <Gold.Chemscore.Hbonds>
donor molecule, donor type, donor heavy atom, donor atom, acceptor molecule, acceptor atom, score
      L1  H     9    32       P1  7948  0.80
      L1  H    12    33       P1  7948  0.57
      L1  H    19    44       P1  7948  0.02

> <Gold.Chemscore.Hbond.Weighted>
-9.0360

> <Gold.Chemscore.Metal.Weighted>
-0.0000

> <Gold.Chemscore.Lipo.Weighted>
-8.5325

> <Gold.Chemscore.Internal_Hbond.Weighted>
0.0000

> <Gold.Chemscore.DEClash.Weighted>
0.0225

> <Gold.Chemscore.DEInternal.Weighted>
1.4643

> <Gold.Chemscore.Rot.Weighted>
4.8936

> <Gold.Chemscore.Internal.Correction.Weighted>
   9.000000E+99

> <Gold.Protein.RotatedTorsions>
[ 6907 6896 6895 6894 ] final  109.10 input  -60.11 | X-H torsion
[ 7974 7965 7964 7962 ] final  -58.17 input  175.53 | X-H torsion
[ 8008 7997 7996 7995 ] final  134.40 input   59.86 | X-H torsion
[ 10167 10162 10161 10158 ] final   38.58 input  -65.29 | X-H torsion
[ 10718 10713 10712 10709 ] final  -20.24 input   66.30 | X-H torsion
[ 10763 10752 10751 10750 ] final  167.62 input  -60.55 | X-H torsion
[ 11005 11000 10999 10996 ] final -147.93 input  -57.11 | X-H torsion

> <Gold.Protein.ActiveResidues>
 VAL166  LYS551  ARG553  GLY616  TRP617  ASP618  TYR619  PRO620  LYS621  CYS622 
 ASP623  PHE694  ASN695  SER759  ASP760  ASP761  ALA762  ILE779  LEU786  VAL792 
 PHE793  MET794  SER795  GLU796  ALA797  LYS798  CYS799  TRP800  GLU811  SER814 

> <Gold.Protein.RotatedAtoms>
  152.5082  133.8992  159.7432 H   0  0  0  0  0  0  0  0  0  0  0  0  # atno 6907 bound_to 6896
  150.9412  133.6645  159.2797 H   0  0  0  0  0  0  0  0  0  0  0  0  # atno 6908 bound_to 6896
  151.3956  135.0968  159.9592 H   0  0  0  0  0  0  0  0  0  0  0  0  # atno 6909 bound_to 6896
  145.8425  140.8407  143.0027 H   0  0  0  0  0  0  0  0  0  0  0  0  # atno 7974 bound_to 7965
  156.2999  140.2497  156.3411 H   0  0  0  0  0  0  0  0  0  0  0  0  # atno 8008 bound_to 7997
  154.9054  140.0405  157.1936 H   0  0  0  0  0  0  0  0  0  0  0  0  # atno 8009 bound_to 7997
  154.8458  140.2898  155.5634 H   0  0  0  0  0  0  0  0  0  0  0  0  # atno 8010 bound_to 7997
  140.3923  144.1836  150.6131 H   0  0  0  0  0  0  0  0  0  0  0  0  # atno 10167 bound_to 10162
  156.5346  130.4663  149.6529 H   0  0  0  0  0  0  0  0  0  0  0  0  # atno 10718 bound_to 10713
  154.3565  135.2753  155.2343 H   0  0  0  0  0  0  0  0  0  0  0  0  # atno 10763 bound_to 10752
  154.4550  135.5921  153.6220 H   0  0  0  0  0  0  0  0  0  0  0  0  # atno 10764 bound_to 10752
  152.9846  135.6051  154.3781 H   0  0  0  0  0  0  0  0  0  0  0  0  # atno 10765 bound_to 10752
  140.7666  134.3237  157.5087 H   0  0  0  0  0  0  0  0  0  0  0  0  # atno 11005 bound_to 11000
  144.6733  140.0833  143.7468 LP  0  0  0  0  0  0  0  0  0  0  0  0  # atno 17320 bound_to 7965
  145.9449  139.2694  143.1247 LP  0  0  0  0  0  0  0  0  0  0  0  0  # atno 17321 bound_to 7965
  140.4827  143.2373  151.8932 LP  0  0  0  0  0  0  0  0  0  0  0  0  # atno 17342 bound_to 10162
  139.4788  144.5252  151.8745 LP  0  0  0  0  0  0  0  0  0  0  0  0  # atno 17343 bound_to 10162
  156.3027  130.7186  151.2061 LP  0  0  0  0  0  0  0  0  0  0  0  0  # atno 17370 bound_to 10713
  157.7416  131.0502  150.5087 LP  0  0  0  0  0  0  0  0  0  0  0  0  # atno 17371 bound_to 10713
  139.8762  134.9235  156.3326 LP  0  0  0  0  0  0  0  0  0  0  0  0  # atno 17394 bound_to 11000
  140.9613  133.7386  156.0406 LP  0  0  0  0  0  0  0  0  0  0  0  0  # atno 17395 bound_to 11000

$$$$
