AV-unprocessed.smi:2306|AV-procd|sdf|9249|dock2
  -GOLD-   2272012463D 1   1.00000     0.00000
 Structure written by MMmdl.
 41 42  0  0  0  0  0  0  0  0  1 V2000
  152.3275  144.8181  160.2179 C   0  0  0  0  0  0  0  0  0  0  0  0
  151.9300  143.5690  159.4514 C   0  0  0  0  0  0  0  0  0  0  0  0
  151.0124  143.7626  158.4149 N   0  0  0  0  0  0  0  0  0  0  0  0
  150.6118  142.7543  157.7120 C   0  0  0  0  0  0  0  0  0  0  0  0
  151.0743  141.4507  157.9598 N   0  0  0  0  0  0  0  0  0  0  0  0
  150.5391  140.3886  157.0909 C   0  0  0  0  0  0  0  0  0  0  0  0
  149.5910  139.4341  157.8521 C   0  0  1  0  0  0  0  0  0  0  0  0
  148.5166  139.0340  157.0257 O   0  0  0  0  0  0  0  0  0  0  0  0
  150.2930  138.1570  158.3458 C   0  0  0  0  0  0  0  0  0  0  0  0
  149.6314  137.6534  159.4961 O   0  0  0  0  0  0  0  0  0  0  0  0
  148.4673  136.9061  159.1847 C   0  0  0  0  0  0  0  0  0  0  0  0
  148.0361  136.0271  160.3431 C   0  0  0  0  0  0  0  0  0  0  0  0
  147.8299  136.5882  161.6211 C   0  0  0  0  0  0  0  0  0  0  0  0
  147.4437  135.7690  162.7003 C   0  0  0  0  0  0  0  0  0  0  0  0
  147.2689  134.3849  162.5076 C   0  0  0  0  0  0  0  0  0  0  0  0
  147.4827  133.8196  161.2357 C   0  0  0  0  0  0  0  0  0  0  0  0
  147.8681  134.6382  160.1561 C   0  0  0  0  0  0  0  0  0  0  0  0
  151.9827  141.1770  158.9398 C   0  0  0  0  0  0  0  0  0  0  0  0
  152.4012  140.0343  159.1342 O   0  0  0  0  0  0  0  0  0  0  0  0
  152.4230  142.3331  159.7374 C   0  0  0  0  0  0  0  0  0  0  0  0
  153.4233  142.0617  160.8543 C   0  0  0  0  0  0  0  0  0  0  0  0
  153.4043  144.9774  160.1577 H   0  0  0  0  0  0  0  0  0  0  0  0
  152.0457  144.7278  161.2672 H   0  0  0  0  0  0  0  0  0  0  0  0
  151.8365  145.7047  159.8152 H   0  0  0  0  0  0  0  0  0  0  0  0
  149.9017  142.8525  156.8890 H   0  0  0  0  0  0  0  0  0  0  0  0
  150.0439  140.8016  156.2099 H   0  0  0  0  0  0  0  0  0  0  0  0
  151.3716  139.8132  156.6801 H   0  0  0  0  0  0  0  0  0  0  0  0
  149.1654  139.9394  158.7199 H   0  0  0  0  0  0  0  0  0  0  0  0
  148.6604  138.1396  156.7559 H   0  0  0  0  0  0  0  0  0  0  0  0
  150.2528  137.4015  157.5597 H   0  0  0  0  0  0  0  0  0  0  0  0
  151.3478  138.3478  158.5526 H   0  0  0  0  0  0  0  0  0  0  0  0
  147.6445  137.5798  158.9411 H   0  0  0  0  0  0  0  0  0  0  0  0
  148.6544  136.2876  158.3053 H   0  0  0  0  0  0  0  0  0  0  0  0
  147.9649  137.6483  161.7782 H   0  0  0  0  0  0  0  0  0  0  0  0
  147.2828  136.2025  163.6762 H   0  0  0  0  0  0  0  0  0  0  0  0
  146.9733  133.7568  163.3349 H   0  0  0  0  0  0  0  0  0  0  0  0
  147.3523  132.7575  161.0881 H   0  0  0  0  0  0  0  0  0  0  0  0
  148.0334  134.1969  159.1840 H   0  0  0  0  0  0  0  0  0  0  0  0
  153.0115  141.3402  161.5610 H   0  0  0  0  0  0  0  0  0  0  0  0
  153.6911  142.9539  161.4177 H   0  0  0  0  0  0  0  0  0  0  0  0
  154.3428  141.6446  160.4422 H   0  0  0  0  0  0  0  0  0  0  0  0
  1  2  1  0  0  0  0
  1 22  1  0  0  0  0
  1 23  1  0  0  0  0
  1 24  1  0  0  0  0
  2 20  2  0  0  0  0
  2  3  1  0  0  0  0
  3  4  2  0  0  0  0
  4  5  1  0  0  0  0
  4 25  1  0  0  0  0
  5  6  1  0  0  0  0
  5 18  1  0  0  0  0
  6  7  1  0  0  0  0
  6 26  1  0  0  0  0
  6 27  1  0  0  0  0
  7  8  1  0  0  0  0
  7  9  1  0  0  0  0
  7 28  1  0  0  0  0
  8 29  1  0  0  0  0
  9 10  1  0  0  0  0
  9 30  1  0  0  0  0
  9 31  1  0  0  0  0
 10 11  1  0  0  0  0
 11 12  1  0  0  0  0
 11 32  1  0  0  0  0
 11 33  1  0  0  0  0
 12 17  1  0  0  0  0
 12 13  2  0  0  0  0
 13 14  1  0  0  0  0
 13 34  1  0  0  0  0
 14 15  2  0  0  0  0
 14 35  1  0  0  0  0
 15 16  1  0  0  0  0
 15 36  1  0  0  0  0
 16 17  2  0  0  0  0
 16 37  1  0  0  0  0
 17 38  1  0  0  0  0
 18 19  2  0  0  0  0
 18 20  1  0  0  0  0
 20 21  1  0  0  0  0
 21 39  1  0  0  0  0
 21 40  1  0  0  0  0
 21 41  1  0  0  0  0
M  END
> <s_m_source_file>
AV-unprocessed.smi

> <i_m_source_file_index>
2306

> <i_lp_mmshare_version>
43012

> <i_f3d_flags>
0

> <s_epik_input>
W0NIM11jMW5bY0hdbihjKD1PKWMxW0NIM10pW0NIMl1bQ0BIXShbT0hdKVtDSDJdT1tDSDJdYzJbY0hdW2NIXVtjSF1bY0hdW2NIXTI=

> <s_epik_cmdline>
J2VwaWtfcHl0aG9uJywgJy1waCcsICc3LjAnLCAnLXRuJywgJzgnLCAnLW1hJywgJzIwMCcsICctbWV0YWxfYmluZGluZycsICctaW1hZScsICc8aW5maWxlLm1hZT4nLCAnLW9tYWUnLCAnPG91dGZpbGUubWFlPic=

> <r_lp_tautomer_probability>
1

> <r_epik_Ionization_Penalty>
5.35985e-05

> <r_epik_Ionization_Penalty_Charging>
1.17753e-07

> <r_epik_Ionization_Penalty_Neutral>
5.34808e-05

> <r_epik_State_Penalty>
-0

> <r_epik_Charging_Adjusted_Penalty>
1.17753e-07

> <i_epik_Tot_Q>
0

> <i_epik_Tot_abs_Q>
0

> <r_epik_Metal_State_Penalty>
-0

> <b_epik_Metal_Only>
0

> <s_lp_Force_Field>
OPLS_2005

> <r_lp_Energy>
24.4772

> <b_lp_Chiralities_Consistent>
1

> <s_lp_Variant>
AV-unprocessed.smi:2306-2

> <Gold.Version>
5.8.1

> <Gold.Id.Protein>
6NUR|6NUR_protein|mol2

> <Gold.PLP.Fitness>
47.0613

> <Gold.PLP.PLP>
-46.0861

> <Gold.PLP.part.hbond>
-1.0000

> <Gold.PLP.part.metal>
0.0000

> <Gold.PLP.part.buried>
-5.2270

> <Gold.PLP.part.nonpolar>
-39.8917

> <Gold.PLP.part.repulsive>
0.1339

> <Gold.PLP.ligand.clash>
0.0000

> <Gold.PLP.ligand.torsion>
1.1011

> <Gold.PLP.Chemscore.Hbond>
0.0000

> <Gold.PLP.Chemscore.CHOScore>
0.9988

> <Gold.PLP.Chemscore.Metal>
0.0000

> <Gold.Chemscore.Hbonds>
donor molecule, donor type, donor heavy atom, donor atom, acceptor molecule, acceptor atom, score
      L1  C     4    25       P1  8028  1.00

> <Gold.PLP.Chemscore.Internal.Correction>
0.1809

> <Gold.Rescore>
     Score         DG    S(hbond)    S(metal)    S(lipo)     H(rot)  DE(clash)    DE(int)     intcor
     11.04     -12.33       0.11        0.00     110.61       2.52       0.03       1.26       ----

> <Gold.Chemscore.Fitness>
11.0376

> <Gold.Chemscore.DG>
-12.3303

> <Gold.Chemscore.ZeroCoef>
-5.4800

> <Gold.Chemscore.Hbond>
0.1051

> <Gold.Chemscore.Metal>
0.0000

> <Gold.Chemscore.Lipo>
110.6052

> <Gold.Chemscore.Internal_Hbond>
0.0000

> <Gold.Chemscore.DEClash>
0.0288

> <Gold.Chemscore.DEInternal>
1.2639

> <Gold.Chemscore.Rot>
2.5162

> <Gold.Chemscore.Internal.Correction>
   9.000000E+99

> <Gold.Chemscore.Hbond.Weighted>
-0.3509

> <Gold.Chemscore.Metal.Weighted>
-0.0000

> <Gold.Chemscore.Lipo.Weighted>
-12.9408

> <Gold.Chemscore.Internal_Hbond.Weighted>
0.0000

> <Gold.Chemscore.DEClash.Weighted>
0.0288

> <Gold.Chemscore.DEInternal.Weighted>
1.2639

> <Gold.Chemscore.Rot.Weighted>
6.4414

> <Gold.Chemscore.Internal.Correction.Weighted>
   9.000000E+99

> <Gold.Protein.RotatedTorsions>
[ 6907 6896 6895 6894 ] final  179.37 input  -60.11 | X-H torsion
[ 7974 7965 7964 7962 ] final  176.99 input  175.53 | X-H torsion
[ 8008 7997 7996 7995 ] final -117.56 input   59.86 | X-H torsion
[ 10167 10162 10161 10158 ] final   94.51 input  -65.29 | X-H torsion
[ 10718 10713 10712 10709 ] final    2.27 input   66.30 | X-H torsion
[ 10763 10752 10751 10750 ] final  -20.14 input  -60.55 | X-H torsion
[ 11005 11000 10999 10996 ] final  -81.00 input  -57.11 | X-H torsion

> <Gold.Protein.ActiveResidues>
 VAL166  LYS551  ARG553  GLY616  TRP617  ASP618  TYR619  PRO620  LYS621  CYS622 
 ASP623  PHE694  ASN695  SER759  ASP760  ASP761  ALA762  ILE779  LEU786  VAL792 
 PHE793  MET794  SER795  GLU796  ALA797  LYS798  CYS799  TRP800  GLU811  SER814 

> <Gold.Protein.RotatedAtoms>
  151.6728  133.3313  159.3200 H   0  0  0  0  0  0  0  0  0  0  0  0  # atno 6907 bound_to 6896
  150.7860  134.6848  159.6473 H   0  0  0  0  0  0  0  0  0  0  0  0  # atno 6908 bound_to 6896
  152.3929  134.6415  160.0152 H   0  0  0  0  0  0  0  0  0  0  0  0  # atno 6909 bound_to 6896
  144.7175  140.0180  143.6440 H   0  0  0  0  0  0  0  0  0  0  0  0  # atno 7974 bound_to 7965
  155.0857  140.0394  157.2653 H   0  0  0  0  0  0  0  0  0  0  0  0  # atno 8008 bound_to 7997
  154.6871  140.2645  155.6824 H   0  0  0  0  0  0  0  0  0  0  0  0  # atno 8009 bound_to 7997
  156.2716  140.2767  156.1437 H   0  0  0  0  0  0  0  0  0  0  0  0  # atno 8010 bound_to 7997
  139.8077  144.6787  150.9682 H   0  0  0  0  0  0  0  0  0  0  0  0  # atno 10167 bound_to 10162
  156.8605  130.5585  149.5663 H   0  0  0  0  0  0  0  0  0  0  0  0  # atno 10718 bound_to 10713
  153.6158  135.6994  153.5329 H   0  0  0  0  0  0  0  0  0  0  0  0  # atno 10763 bound_to 10752
  153.2979  135.4137  155.1225 H   0  0  0  0  0  0  0  0  0  0  0  0  # atno 10764 bound_to 10752
  154.8554  135.3641  154.5697 H   0  0  0  0  0  0  0  0  0  0  0  0  # atno 10765 bound_to 10752
  141.1667  133.7176  156.8356 H   0  0  0  0  0  0  0  0  0  0  0  0  # atno 11005 bound_to 11000
  146.0204  139.3246  143.0816 LP  0  0  0  0  0  0  0  0  0  0  0  0  # atno 17320 bound_to 7965
  145.8575  140.9494  143.0717 LP  0  0  0  0  0  0  0  0  0  0  0  0  # atno 17321 bound_to 7965
  140.7819  143.4217  151.0831 LP  0  0  0  0  0  0  0  0  0  0  0  0  # atno 17342 bound_to 10162
  139.7885  143.8252  152.3148 LP  0  0  0  0  0  0  0  0  0  0  0  0  # atno 17343 bound_to 10162
  156.0779  130.5797  150.9509 LP  0  0  0  0  0  0  0  0  0  0  0  0  # atno 17370 bound_to 10713
  157.6253  131.0926  150.8546 LP  0  0  0  0  0  0  0  0  0  0  0  0  # atno 17371 bound_to 10713
  140.2019  134.8890  157.3179 LP  0  0  0  0  0  0  0  0  0  0  0  0  # atno 17394 bound_to 11000
  140.2178  134.4060  155.7581 LP  0  0  0  0  0  0  0  0  0  0  0  0  # atno 17395 bound_to 11000

$$$$
