#       Name:                AV-unprocessed.smi:240
#       Creating user name   scv26
#       Creation time:       Thu Mar 26 20:42:48 2020


#       File generated by GOLD software.
#

@<TRIPOS>MOLECULE
AV-unprocessed.smi:240
    67    71     1
SMALL
NO_CHARGES


@<TRIPOS>ATOM
      1 ****        -1.1386  -2.7383   0.0852 O.3            1 S1                 0.0000
      2 ****        -2.2911  -2.7197   0.9036 C.3            1 S1                 0.0000
      3 ****        -2.5539  -4.1242   1.4763 C.3            1 S1                 0.0000
      4 ****        -2.2725  -4.0280   2.9764 C.3            1 S1                 0.0000
      5 ****        -2.6088  -2.5810   3.3241 C.3            1 S1                 0.0000
      6 ****        -2.0859  -1.7836   2.1203 C.3            1 S1                 0.0000
      7 ****        -2.6499  -0.3334   1.9898 C.3            1 S1                 0.0000
      8 ****        -4.1930  -0.2883   1.8273 C.3            1 S1                 0.0000
      9 ****        -4.6459   1.0527   1.6906 O.3            1 S1                 0.0000
     10 ****        -4.1075   1.6735   0.5328 C.3            1 S1                 0.0000
     11 ****        -2.5844   1.7513   0.6839 C.3            1 S1                 0.0000
     12 ****        -2.0199   0.4223   0.8951 N.3            1 S1                 0.0000
     13 ****        -0.6680   0.4985   0.8847 C.ar           1 S1                 0.0000
     14 ****         0.0162   0.7574   2.0306 N.ar           1 S1                 0.0000
     15 ****         1.3502   0.8374   2.0073 C.ar           1 S1                 0.0000
     16 ****         2.1771   0.7021   0.9678 N.ar           1 S1                 0.0000
     17 ****         1.4899   0.4581  -0.1852 C.ar           1 S1                 0.0000
     18 ****         0.0781   0.3440  -0.3128 C.ar           1 S1                 0.0000
     19 ****        -0.2644   0.0846  -1.6332 N.2            1 S1                 0.0000
     20 ****         0.8834   0.0442  -2.2533 C.2            1 S1                 0.0000
     21 ****         1.9890   0.2685  -1.4625 N.pl3          1 S1                 0.0000
     22 ****         3.3803   0.2828  -1.8888 C.3            1 S1                 0.0000
     23 ****         3.8884   1.6835  -2.3055 C.3            1 S1                 0.0000
     24 ****         3.7746   2.5655  -1.2021 O.3            1 S1                 0.0000
     25 ****         5.3407   1.6729  -2.7645 C.3            1 S1                 0.0000
     26 ****         5.3939   2.8419  -3.7383 C.3            1 S1                 0.0000
     27 ****         4.1569   2.7407  -4.4232 O.3            1 S1                 0.0000
     28 ****         3.1530   2.3093  -3.5088 C.3            1 S1                 0.0000
     29 ****        -1.0124  -1.8739  -0.2761 H              1 S1                 0.0000
     30 ****        -3.1343  -2.4175   0.2849 H              1 S1                 0.0000
     31 ****        -3.6036  -4.3794   1.3261 H              1 S1                 0.0000
     32 ****        -1.9631  -4.9062   0.9973 H              1 S1                 0.0000
     33 ****        -2.8499  -4.7466   3.5587 H              1 S1                 0.0000
     34 ****        -1.2149  -4.2162   3.1664 H              1 S1                 0.0000
     35 ****        -3.6887  -2.4931   3.4308 H              1 S1                 0.0000
     36 ****        -2.1558  -2.2625   4.2633 H              1 S1                 0.0000
     37 ****        -1.0119  -1.7172   2.2999 H              1 S1                 0.0000
     38 ****        -2.4171   0.1923   2.9171 H              1 S1                 0.0000
     39 ****        -4.5325  -0.8665   0.9682 H              1 S1                 0.0000
     40 ****        -4.6907  -0.7031   2.7019 H              1 S1                 0.0000
     41 ****        -4.3872   1.1200  -0.3651 H              1 S1                 0.0000
     42 ****        -4.5276   2.6747   0.4376 H              1 S1                 0.0000
     43 ****        -2.1526   2.2067  -0.2088 H              1 S1                 0.0000
     44 ****        -2.3294   2.3941   1.5279 H              1 S1                 0.0000
     45 ****         1.8228   1.0392   2.9571 H              1 S1                 0.0000
     46 ****         0.9535  -0.1511  -3.3134 H              1 S1                 0.0000
     47 ****         3.9920  -0.1124  -1.0766 H              1 S1                 0.0000
     48 ****         3.4868  -0.4172  -2.7184 H              1 S1                 0.0000
     49 ****         4.0833   3.4186  -1.4665 H              1 S1                 0.0000
     50 ****         6.0608   1.7583  -1.9497 H              1 S1                 0.0000
     51 ****         5.5597   0.7511  -3.3053 H              1 S1                 0.0000
     52 ****         5.4424   3.7933  -3.2066 H              1 S1                 0.0000
     53 ****         6.2397   2.7851  -4.4235 H              1 S1                 0.0000
     54 ****         2.5209   1.5883  -4.0261 H              1 S1                 0.0000
     55 ****         2.5196   3.1486  -3.2173 H              1 S1                 0.0000
     56 ****        -1.2617  -3.3987  -0.6556 LP             1 S1                 0.0000
     57 ****        -0.3413  -2.9951   0.6314 LP             1 S1                 0.0000
     58 ****        -4.3658   1.5731   2.4972 LP             1 S1                 0.0000
     59 ****        -5.6436   1.0525   1.6239 LP             1 S1                 0.0000
     60 ****        -2.2590  -0.1687   0.1246 LP             1 S1                 0.0000
     61 ****        -0.4780   0.8878   2.8900 LP             1 S1                 0.0000
     62 ****         3.1730   0.7708   1.0268 LP             1 S1                 0.0000
     63 ****        -1.1781  -0.0419  -2.0193 LP             1 S1                 0.0000
     64 ****         4.3287   2.2272  -0.4415 LP             1 S1                 0.0000
     65 ****         2.8183   2.6265  -0.9165 LP             1 S1                 0.0000
     66 ****         4.2393   2.0780  -5.1676 LP             1 S1                 0.0000
     67 ****         3.9074   3.6336  -4.7980 LP             1 S1                 0.0000
@<TRIPOS>BOND
    1    1    2 1     
    2    1   29 1     
    3    2    6 1     
    4    2    3 1     
    5    2   30 1     
    6    3    4 1     
    7    3   31 1     
    8    3   32 1     
    9    4    5 1     
   10    4   33 1     
   11    4   34 1     
   12    5    6 1     
   13    5   35 1     
   14    5   36 1     
   15    6    7 1     
   16    6   37 1     
   17    7   12 1     
   18    7    8 1     
   19    7   38 1     
   20    8    9 1     
   21    8   39 1     
   22    8   40 1     
   23    9   10 1     
   24   10   11 1     
   25   10   41 1     
   26   10   42 1     
   27   11   12 1     
   28   11   43 1     
   29   11   44 1     
   30   12   13 1     
   31   13   18 ar    
   32   13   14 ar    
   33   14   15 ar    
   34   15   16 ar    
   35   15   45 1     
   36   16   17 ar    
   37   17   21 1     
   38   17   18 ar    
   39   18   19 1     
   40   19   20 2     
   41   20   21 1     
   42   20   46 1     
   43   21   22 1     
   44   22   23 1     
   45   22   47 1     
   46   22   48 1     
   47   23   28 1     
   48   23   24 1     
   49   23   25 1     
   50   24   49 1     
   51   25   26 1     
   52   25   50 1     
   53   25   51 1     
   54   26   27 1     
   55   26   52 1     
   56   26   53 1     
   57   27   28 1     
   58   28   54 1     
   59   28   55 1     
   60    1   56 1     
   61    1   57 1     
   62    9   58 1     
   63    9   59 1     
   64   12   60 1     
   65   14   61 1     
   66   16   62 1     
   67   19   63 1     
   68   24   64 1     
   69   24   65 1     
   70   27   66 1     
   71   27   67 1     
@<TRIPOS>SUBSTRUCTURE
      1 S1             1
@<TRIPOS>SET
LONE_PAIRS      STATIC     ATOMS    <user>   **** ""
12 56 57 58 59 60 61 62 63 64 65 66 67
DONOR_HYDROGENS      STATIC     ATOMS    <user>   **** ""
2 29 49
ATOM$BLUE        STATIC     ATOMS    COLORGROUP SYSTEM
12 56 57 58 59 60 61 62 63 64 65 66 67
ATOM$RED        STATIC     ATOMS    COLORGROUP SYSTEM
2 29 49
