AV-unprocessed.smi:1046|AV-procd|sdf|4558|dock6
  -GOLD-   22720 2593D 1   1.00000     0.00000
 Structure written by MMmdl.
 54 56  0  0  0  0  0  0  0  0  3 V2000
  152.6901  143.2764  160.1937 C   0  0  0  0  0  0  0  0  0  0  0  0
  152.2090  142.3995  159.0500 C   0  0  0  0  0  0  0  0  0  0  0  0
  151.3826  142.9761  158.0595 C   0  0  0  0  0  0  0  0  0  0  0  0
  150.9563  142.1481  157.0278 C   0  0  0  0  0  0  0  0  0  0  0  0
  150.1454  142.4099  155.9216 N   0  3  0  0  0  0  0  0  0  0  0  0
  150.0048  141.2752  155.1822 C   0  0  0  0  0  0  0  0  0  0  0  0
  150.7132  140.2914  155.8004 N   0  0  0  0  0  0  0  0  0  0  0  0
  150.8971  138.8847  155.4139 C   0  0  0  0  0  0  0  0  0  0  0  0
  149.7164  138.3264  154.5923 C   0  0  2  0  0  0  0  0  0  0  0  0
  149.8057  138.7865  153.2595 O   0  0  0  0  0  0  0  0  0  0  0  0
  148.3480  138.7717  155.1449 C   0  0  0  0  0  0  0  0  0  0  0  0
  147.2596  138.8333  154.1623 N   0  0  0  0  0  0  0  0  0  0  0  0
  145.9608  138.4780  154.7337 C   0  0  0  0  0  0  0  0  0  0  0  0
  145.3939  139.5573  155.6787 C   0  0  0  0  0  0  0  0  0  0  0  0
  145.2828  140.8591  154.9713 N   0  3  0  0  0  0  0  0  0  0  0  0
  144.6720  141.9142  155.8192 C   0  0  0  0  0  0  0  0  0  0  0  0
  144.6351  143.2867  155.1254 C   0  0  0  0  0  0  0  0  0  0  0  0
  143.3438  143.5357  154.6108 O   0  0  0  0  0  0  0  0  0  0  0  0
  146.5916  141.2482  154.3814 C   0  0  0  0  0  0  0  0  0  0  0  0
  147.1273  140.1207  153.4750 C   0  0  0  0  0  0  0  0  0  0  0  0
  151.3256  140.7907  156.9566 C   0  0  0  0  0  0  0  0  0  0  0  0
  152.1406  140.2073  157.9244 C   0  0  0  0  0  0  0  0  0  0  0  0
  152.5839  141.0326  158.9825 C   0  0  0  0  0  0  0  0  0  0  0  0
  153.4729  140.4223  160.0529 C   0  0  0  0  0  0  0  0  0  0  0  0
  152.2678  144.2799  160.1317 H   0  0  0  0  0  0  0  0  0  0  0  0
  153.7762  143.3690  160.1731 H   0  0  0  0  0  0  0  0  0  0  0  0
  152.3959  142.8517  161.1538 H   0  0  0  0  0  0  0  0  0  0  0  0
  151.0937  144.0162  158.1039 H   0  0  0  0  0  0  0  0  0  0  0  0
  149.4354  141.1751  154.2694 H   0  0  0  0  0  0  0  0  0  0  0  0
  151.8147  138.8360  154.8265 H   0  0  0  0  0  0  0  0  0  0  0  0
  151.0779  138.2854  156.3065 H   0  0  0  0  0  0  0  0  0  0  0  0
  149.7770  137.2392  154.5532 H   0  0  0  0  0  0  0  0  0  0  0  0
  149.5429  138.0857  152.6824 H   0  0  0  0  0  0  0  0  0  0  0  0
  148.0676  138.0733  155.9352 H   0  0  0  0  0  0  0  0  0  0  0  0
  148.4612  139.7369  155.6379 H   0  0  0  0  0  0  0  0  0  0  0  0
  145.2502  138.3115  153.9229 H   0  0  0  0  0  0  0  0  0  0  0  0
  146.0351  137.5260  155.2610 H   0  0  0  0  0  0  0  0  0  0  0  0
  144.4079  139.2461  156.0258 H   0  0  0  0  0  0  0  0  0  0  0  0
  146.0187  139.6668  156.5661 H   0  0  0  0  0  0  0  0  0  0  0  0
  143.6496  141.6324  156.0763 H   0  0  0  0  0  0  0  0  0  0  0  0
  145.2155  141.9810  156.7628 H   0  0  0  0  0  0  0  0  0  0  0  0
  144.8697  144.0692  155.8476 H   0  0  0  0  0  0  0  0  0  0  0  0
  145.3724  143.3662  154.3272 H   0  0  0  0  0  0  0  0  0  0  0  0
  143.3506  143.3641  153.6807 H   0  0  0  0  0  0  0  0  0  0  0  0
  146.4798  142.1526  153.7848 H   0  0  0  0  0  0  0  0  0  0  0  0
  147.3041  141.4836  155.1727 H   0  0  0  0  0  0  0  0  0  0  0  0
  148.0762  140.4186  153.0312 H   0  0  0  0  0  0  0  0  0  0  0  0
  146.4436  139.9988  152.6338 H   0  0  0  0  0  0  0  0  0  0  0  0
  152.4227  139.1657  157.8784 H   0  0  0  0  0  0  0  0  0  0  0  0
  153.7155  139.3838  159.8258 H   0  0  0  0  0  0  0  0  0  0  0  0
  152.9738  140.4445  161.0220 H   0  0  0  0  0  0  0  0  0  0  0  0
  154.4112  140.9719  160.1334 H   0  0  0  0  0  0  0  0  0  0  0  0
  144.6446  140.7076  154.2029 H   0  0  0  0  0  0  0  0  0  0  0  0
  149.7190  143.2969  155.6857 H   0  0  0  0  0  0  0  0  0  0  0  0
  1  2  1  0  0  0  0
  1 25  1  0  0  0  0
  1 26  1  0  0  0  0
  1 27  1  0  0  0  0
  2 23  1  0  0  0  0
  2  3  2  0  0  0  0
  3  4  1  0  0  0  0
  3 28  1  0  0  0  0
  4 21  2  0  0  0  0
  4  5  1  0  0  0  0
  5  6  2  0  0  0  0
  5 54  1  0  0  0  0
  6  7  1  0  0  0  0
  6 29  1  0  0  0  0
  7  8  1  0  0  0  0
  7 21  1  0  0  0  0
  8  9  1  0  0  0  0
  8 30  1  0  0  0  0
  8 31  1  0  0  0  0
  9 10  1  0  0  0  0
  9 11  1  0  0  0  0
  9 32  1  0  0  0  0
 10 33  1  0  0  0  0
 11 12  1  0  0  0  0
 11 34  1  0  0  0  0
 11 35  1  0  0  0  0
 12 20  1  0  0  0  0
 12 13  1  0  0  0  0
 13 14  1  0  0  0  0
 13 36  1  0  0  0  0
 13 37  1  0  0  0  0
 14 15  1  0  0  0  0
 14 38  1  0  0  0  0
 14 39  1  0  0  0  0
 15 16  1  0  0  0  0
 15 19  1  0  0  0  0
 15 53  1  0  0  0  0
 16 17  1  0  0  0  0
 16 40  1  0  0  0  0
 16 41  1  0  0  0  0
 17 18  1  0  0  0  0
 17 42  1  0  0  0  0
 17 43  1  0  0  0  0
 18 44  1  0  0  0  0
 19 20  1  0  0  0  0
 19 45  1  0  0  0  0
 19 46  1  0  0  0  0
 20 47  1  0  0  0  0
 20 48  1  0  0  0  0
 21 22  1  0  0  0  0
 22 23  2  0  0  0  0
 22 49  1  0  0  0  0
 23 24  1  0  0  0  0
 24 50  1  0  0  0  0
 24 51  1  0  0  0  0
 24 52  1  0  0  0  0
M  CHG  1   5   1
M  CHG  1  15   1
M  END
> <s_m_source_file>
AV-unprocessed.smi

> <i_m_source_file_index>
1046

> <i_lp_mmshare_version>
43012

> <i_f3d_flags>
0

> <s_epik_input>
W0NIM11jKFtjSF0xKWMoW0NIM10pW2NIXWMoYzEyKW4oW2NIXW4yKVtDSDJdW0NASF0oW09IXSlbQ0gyXU4zW0NIMl1bQ0gyXU4oW0NIMl1bQ0gyXTMpW0NIMl1bQ0gyXVtPSF0=

> <s_epik_cmdline>
J2VwaWtfcHl0aG9uJywgJy1waCcsICc3LjAnLCAnLXRuJywgJzgnLCAnLW1hJywgJzIwMCcsICctbWV0YWxfYmluZGluZycsICctaW1hZScsICc8aW5maWxlLm1hZT4nLCAnLW9tYWUnLCAnPG91dGZpbGUubWFlPic=

> <r_epik_Ionization_Penalty>
1.37806

> <r_epik_Ionization_Penalty_Charging>
1.32954

> <r_epik_Ionization_Penalty_Neutral>
0.0485178

> <r_epik_State_Penalty>
2.26587

> <r_epik_Charging_Adjusted_Penalty>
3.59541

> <i_epik_Tot_Q>
2

> <i_epik_Tot_abs_Q>
2

> <r_epik_Metal_State_Penalty>
6.27317

> <b_epik_Metal_Only>
0

> <s_lp_Force_Field>
OPLS_2005

> <r_lp_Energy>
41.5641

> <b_lp_Chiralities_Consistent>
1

> <s_lp_Variant>
AV-unprocessed.smi:1046-11

> <Gold.Version>
5.8.1

> <Gold.Id.Protein>
6NUR|6NUR_protein|mol2

> <Gold.PLP.Fitness>
56.2584

> <Gold.PLP.PLP>
-41.3672

> <Gold.PLP.part.hbond>
-4.7701

> <Gold.PLP.part.metal>
0.0000

> <Gold.PLP.part.buried>
-4.1718

> <Gold.PLP.part.nonpolar>
-32.6432

> <Gold.PLP.part.repulsive>
0.2972

> <Gold.PLP.ligand.clash>
0.0000

> <Gold.PLP.ligand.torsion>
1.5629

> <Gold.PLP.Chemscore.Hbond>
5.9913

> <Gold.PLP.Chemscore.CHOScore>
0.0000

> <Gold.PLP.Chemscore.Metal>
0.0000

> <Gold.Chemscore.Hbonds>
donor molecule, donor type, donor heavy atom, donor atom, acceptor molecule, acceptor atom, score
      L1  H     5    54       P1  8028  2.00
      L1  H    10    33       P1  7948  0.91
      L1  H    15    53       P1 10175  2.00
      L1  H    18    44       P1 10174  1.00

> <Gold.PLP.Chemscore.Internal.Correction>
0.0433

> <Gold.Rescore>
     Score         DG    S(hbond)    S(metal)    S(lipo)     H(rot)  DE(clash)    DE(int)     intcor
     18.85     -21.63       3.93        0.00      97.79       3.29       0.08       2.70       ----

> <Gold.Chemscore.Fitness>
18.8454

> <Gold.Chemscore.DG>
-21.6251

> <Gold.Chemscore.ZeroCoef>
-5.4800

> <Gold.Chemscore.Hbond>
3.9296

> <Gold.Chemscore.Metal>
0.0000

> <Gold.Chemscore.Lipo>
97.7934

> <Gold.Chemscore.Internal_Hbond>
0.0000

> <Gold.Chemscore.DEClash>
0.0777

> <Gold.Chemscore.DEInternal>
2.7020

> <Gold.Chemscore.Rot>
3.2896

> <Gold.Chemscore.Internal.Correction>
   9.000000E+99

> <Gold.Chemscore.Hbonds>
donor molecule, donor type, donor heavy atom, donor atom, acceptor molecule, acceptor atom, score
      L1  H     5    54       P1  8028  1.00
      L1  H    10    33       P1  7948  0.61
      L1  H    15    53       P1 10175  0.97
      L1  H    18    44       P1 10174  0.82

> <Gold.Chemscore.Hbond.Weighted>
-13.1248

> <Gold.Chemscore.Metal.Weighted>
-0.0000

> <Gold.Chemscore.Lipo.Weighted>
-11.4418

> <Gold.Chemscore.Internal_Hbond.Weighted>
0.0000

> <Gold.Chemscore.DEClash.Weighted>
0.0777

> <Gold.Chemscore.DEInternal.Weighted>
2.7020

> <Gold.Chemscore.Rot.Weighted>
8.4215

> <Gold.Chemscore.Internal.Correction.Weighted>
   9.000000E+99

> <Gold.Protein.RotatedTorsions>
[ 6907 6896 6895 6894 ] final  118.12 input  -60.11 | X-H torsion
[ 7974 7965 7964 7962 ] final -123.09 input  175.53 | X-H torsion
[ 8008 7997 7996 7995 ] final  -81.95 input   59.86 | X-H torsion
[ 10167 10162 10161 10158 ] final  -57.78 input  -65.29 | X-H torsion
[ 10718 10713 10712 10709 ] final  174.94 input   66.30 | X-H torsion
[ 10763 10752 10751 10750 ] final -151.06 input  -60.55 | X-H torsion
[ 11005 11000 10999 10996 ] final  -85.69 input  -57.11 | X-H torsion

> <Gold.Protein.ActiveResidues>
 VAL166  LYS551  ARG553  GLY616  TRP617  ASP618  TYR619  PRO620  LYS621  CYS622 
 ASP623  PHE694  ASN695  SER759  ASP760  ASP761  ALA762  ILE779  LEU786  VAL792 
 PHE793  MET794  SER795  GLU796  ALA797  LYS798  CYS799  TRP800  GLU811  SER814 

> <Gold.Protein.RotatedAtoms>
  152.4565  133.7733  159.6810 H   0  0  0  0  0  0  0  0  0  0  0  0  # atno 6907 bound_to 6896
  150.8493  133.7802  159.3038 H   0  0  0  0  0  0  0  0  0  0  0  0  # atno 6908 bound_to 6896
  151.5403  135.1071  159.9976 H   0  0  0  0  0  0  0  0  0  0  0  0  # atno 6909 bound_to 6896
  145.0224  140.7999  143.4373 H   0  0  0  0  0  0  0  0  0  0  0  0  # atno 7974 bound_to 7965
  154.6035  140.0640  156.9400 H   0  0  0  0  0  0  0  0  0  0  0  0  # atno 8008 bound_to 7997
  155.2092  140.3321  155.4313 H   0  0  0  0  0  0  0  0  0  0  0  0  # atno 8009 bound_to 7997
  156.2333  140.1851  156.7169 H   0  0  0  0  0  0  0  0  0  0  0  0  # atno 8010 bound_to 7997
  140.6237  143.2429  151.5417 H   0  0  0  0  0  0  0  0  0  0  0  0  # atno 10167 bound_to 10162
  156.9421  131.0004  151.2966 H   0  0  0  0  0  0  0  0  0  0  0  0  # atno 10718 bound_to 10713
  154.8081  135.3269  154.7377 H   0  0  0  0  0  0  0  0  0  0  0  0  # atno 10763 bound_to 10752
  153.8032  135.6902  153.4857 H   0  0  0  0  0  0  0  0  0  0  0  0  # atno 10764 bound_to 10752
  153.1840  135.4575  155.0011 H   0  0  0  0  0  0  0  0  0  0  0  0  # atno 10765 bound_to 10752
  141.1638  133.7413  156.9051 H   0  0  0  0  0  0  0  0  0  0  0  0  # atno 11005 bound_to 11000
  145.1878  139.2317  143.5258 LP  0  0  0  0  0  0  0  0  0  0  0  0  # atno 17320 bound_to 7965
  146.3487  140.1667  142.8590 LP  0  0  0  0  0  0  0  0  0  0  0  0  # atno 17321 bound_to 7965
  139.5461  144.2518  152.1444 LP  0  0  0  0  0  0  0  0  0  0  0  0  # atno 17342 bound_to 10162
  140.1744  144.4905  150.6562 LP  0  0  0  0  0  0  0  0  0  0  0  0  # atno 17343 bound_to 10162
  157.5778  130.8355  149.8479 LP  0  0  0  0  0  0  0  0  0  0  0  0  # atno 17370 bound_to 10713
  156.0400  130.3741  150.1461 LP  0  0  0  0  0  0  0  0  0  0  0  0  # atno 17371 bound_to 10713
  140.1555  134.9201  157.2648 LP  0  0  0  0  0  0  0  0  0  0  0  0  # atno 17394 bound_to 11000
  140.2672  134.3502  155.7386 LP  0  0  0  0  0  0  0  0  0  0  0  0  # atno 17395 bound_to 11000

$$$$
