AV-unprocessed.smi:1199|AV-procd|sdf|5017|dock4
  -GOLD-   22720 4 33D 1   1.00000     0.00000
 Structure written by MMmdl.
 41 42  0  0  0  0  0  0  0  0  3 V2000
  149.8711  135.3096  155.0052 C   0  0  0  0  0  0  0  0  0  0  0  0
  148.5969  134.6121  155.5039 C   0  0  1  0  0  0  0  0  0  0  0  0
  148.1695  133.4499  154.5801 C   0  0  0  0  0  0  0  0  0  0  0  0
  147.4838  133.8915  153.3354 N   0  3  0  0  0  0  0  0  0  0  0  0
  147.1080  132.7803  152.4272 C   0  0  0  0  0  0  0  0  0  0  0  0
  146.4484  133.3333  151.1527 C   0  0  0  0  0  0  0  0  0  0  0  0
  145.3123  134.1129  151.5050 O   0  0  0  0  0  0  0  0  0  0  0  0
  145.6659  135.2339  152.3054 C   0  0  0  0  0  0  0  0  0  0  0  0
  146.3110  134.7533  153.6155 C   0  0  0  0  0  0  0  0  0  0  0  0
  148.7821  134.1223  156.8652 N   0  0  0  0  0  0  0  0  0  0  0  0
  147.8248  133.6445  157.6760 C   0  0  0  0  0  0  0  0  0  0  0  0
  146.6277  133.6836  157.3945 O   0  0  0  0  0  0  0  0  0  0  0  0
  148.2734  132.9831  158.9901 C   0  0  0  0  0  0  0  0  0  0  0  0
  147.7628  133.6408  160.2052 N   0  0  0  0  0  0  0  0  0  0  0  0
  147.9138  135.0942  160.1929 N   0  5  0  0  0  0  0  0  0  0  0  0
  147.5195  135.8100  161.2787 C   0  0  0  0  0  0  0  0  0  0  0  0
  147.6551  137.0284  161.3564 O   0  0  0  0  0  0  0  0  0  0  0  0
  146.8991  135.0944  162.3809 C   0  0  0  0  0  0  0  0  0  0  0  0
  146.7277  133.7581  162.3441 C   0  0  0  0  0  0  0  0  0  0  0  0
  147.1595  132.9470  161.2122 C   0  0  0  0  0  0  0  0  0  0  0  0
  146.9891  131.7294  161.1638 O   0  0  0  0  0  0  0  0  0  0  0  0
  149.7387  135.6881  153.9914 H   0  0  0  0  0  0  0  0  0  0  0  0
  150.7218  134.6272  154.9975 H   0  0  0  0  0  0  0  0  0  0  0  0
  150.1307  136.1571  155.6406 H   0  0  0  0  0  0  0  0  0  0  0  0
  147.7931  135.3502  155.5042 H   0  0  0  0  0  0  0  0  0  0  0  0
  149.0292  132.8262  154.3307 H   0  0  0  0  0  0  0  0  0  0  0  0
  147.4778  132.8119  155.1325 H   0  0  0  0  0  0  0  0  0  0  0  0
  147.9888  132.2024  152.1485 H   0  0  0  0  0  0  0  0  0  0  0  0
  146.4254  132.1007  152.9393 H   0  0  0  0  0  0  0  0  0  0  0  0
  147.1534  133.9321  150.5742 H   0  0  0  0  0  0  0  0  0  0  0  0
  146.1276  132.5132  150.5103 H   0  0  0  0  0  0  0  0  0  0  0  0
  146.3409  135.8916  151.7587 H   0  0  0  0  0  0  0  0  0  0  0  0
  144.7667  135.8115  152.5201 H   0  0  0  0  0  0  0  0  0  0  0  0
  145.5823  134.1969  154.2074 H   0  0  0  0  0  0  0  0  0  0  0  0
  146.6172  135.6152  154.2091 H   0  0  0  0  0  0  0  0  0  0  0  0
  149.7331  134.0589  157.1994 H   0  0  0  0  0  0  0  0  0  0  0  0
  147.9844  131.9313  158.9663 H   0  0  0  0  0  0  0  0  0  0  0  0
  149.3645  132.9801  159.0129 H   0  0  0  0  0  0  0  0  0  0  0  0
  146.5651  135.6465  163.2469 H   0  0  0  0  0  0  0  0  0  0  0  0
  146.2586  133.2680  163.1841 H   0  0  0  0  0  0  0  0  0  0  0  0
  148.1452  134.4639  152.8281 H   0  0  0  0  0  0  0  0  0  0  0  0
  1  2  1  0  0  0  0
  1 22  1  0  0  0  0
  1 23  1  0  0  0  0
  1 24  1  0  0  0  0
  2  3  1  0  0  0  0
  2 10  1  0  0  0  0
  2 25  1  0  0  0  0
  3  4  1  0  0  0  0
  3 26  1  0  0  0  0
  3 27  1  0  0  0  0
  4  9  1  0  0  0  0
  4  5  1  0  0  0  0
  4 41  1  0  0  0  0
  5  6  1  0  0  0  0
  5 28  1  0  0  0  0
  5 29  1  0  0  0  0
  6  7  1  0  0  0  0
  6 30  1  0  0  0  0
  6 31  1  0  0  0  0
  7  8  1  0  0  0  0
  8  9  1  0  0  0  0
  8 32  1  0  0  0  0
  8 33  1  0  0  0  0
  9 34  1  0  0  0  0
  9 35  1  0  0  0  0
 10 11  1  0  0  0  0
 10 36  1  0  0  0  0
 11 12  2  0  0  0  0
 11 13  1  0  0  0  0
 13 37  1  0  0  0  0
 13 38  1  0  0  0  0
 13 14  1  0  0  0  0
 14 15  1  0  0  0  0
 14 20  1  0  0  0  0
 15 16  1  0  0  0  0
 16 17  2  0  0  0  0
 16 18  1  0  0  0  0
 18 39  1  0  0  0  0
 18 19  2  0  0  0  0
 19 40  1  0  0  0  0
 19 20  1  0  0  0  0
 20 21  2  0  0  0  0
M  CHG  1   4   1
M  CHG  1  15  -1
M  END
> <s_m_source_file>
AV-unprocessed.smi

> <i_m_source_file_index>
1199

> <i_lp_mmshare_version>
43012

> <i_f3d_flags>
0

> <s_epik_input>
W0NIMl0xW0NIMl1PW0NIMl1bQ0gyXU4xW0NIMl1bQ0BASF0oW0NIM10pW05IXUMoPU8pW0NIMl1uMltuSF1jKD1PKVtjSF1bY0hdYzI9Tw==

> <s_epik_cmdline>
J2VwaWtfcHl0aG9uJywgJy1waCcsICc3LjAnLCAnLXRuJywgJzgnLCAnLW1hJywgJzIwMCcsICctbWV0YWxfYmluZGluZycsICctaW1hZScsICc8aW5maWxlLm1hZT4nLCAnLW9tYWUnLCAnPG91dGZpbGUubWFlPic=

> <r_lp_tautomer_probability>
1

> <r_epik_Ionization_Penalty>
0.741876

> <r_epik_Ionization_Penalty_Charging>
0.741876

> <r_epik_Ionization_Penalty_Neutral>
9.12373e-08

> <r_epik_State_Penalty>
0.692284

> <r_epik_Charging_Adjusted_Penalty>
1.43416

> <i_epik_Tot_Q>
0

> <i_epik_Tot_abs_Q>
2

> <r_epik_Metal_State_Penalty>
0.692284

> <b_epik_Metal_Only>
0

> <s_lp_Force_Field>
OPLS_2005

> <r_lp_Energy>
27.3091

> <b_lp_Chiralities_Consistent>
1

> <s_lp_Variant>
AV-unprocessed.smi:1199-4

> <Gold.Version>
5.8.1

> <Gold.Id.Protein>
6NUR|6NUR_protein|mol2

> <Gold.PLP.Fitness>
41.3418

> <Gold.PLP.PLP>
-30.5925

> <Gold.PLP.part.hbond>
-3.0000

> <Gold.PLP.part.metal>
0.0000

> <Gold.PLP.part.buried>
-2.7465

> <Gold.PLP.part.nonpolar>
-24.3447

> <Gold.PLP.part.repulsive>
0.1691

> <Gold.PLP.ligand.clash>
0.0000

> <Gold.PLP.ligand.torsion>
0.3889

> <Gold.PLP.Chemscore.Hbond>
3.8240

> <Gold.PLP.Chemscore.CHOScore>
0.0000

> <Gold.PLP.Chemscore.Metal>
0.0000

> <Gold.Chemscore.Hbonds>
donor molecule, donor type, donor heavy atom, donor atom, acceptor molecule, acceptor atom, score
      L1  H     4    41       P1  7948  1.50
      P1  H  6931  6943       L1    17  1.00
      P1  H  6934  6947       L1    17  0.74

> <Gold.PLP.Chemscore.Internal.Correction>
0.0551

> <Gold.Rescore>
     Score         DG    S(hbond)    S(metal)    S(lipo)     H(rot)  DE(clash)    DE(int)     intcor
     13.95     -14.54       2.69        0.00      52.53       2.37       0.08       0.52       ----

> <Gold.Chemscore.Fitness>
13.9497

> <Gold.Chemscore.DG>
-14.5437

> <Gold.Chemscore.ZeroCoef>
-5.4800

> <Gold.Chemscore.Hbond>
2.6938

> <Gold.Chemscore.Metal>
0.0000

> <Gold.Chemscore.Lipo>
52.5258

> <Gold.Chemscore.Internal_Hbond>
0.0000

> <Gold.Chemscore.DEClash>
0.0756

> <Gold.Chemscore.DEInternal>
0.5184

> <Gold.Chemscore.Rot>
2.3747

> <Gold.Chemscore.Internal.Correction>
   9.000000E+99

> <Gold.Chemscore.Hbonds>
donor molecule, donor type, donor heavy atom, donor atom, acceptor molecule, acceptor atom, score
      L1  H     4    41       P1  7948  0.33
      P1  H  6931  6943       L1    17  0.96
      P1  H  6934  6947       L1    17  0.71

> <Gold.Chemscore.Hbond.Weighted>
-8.9973

> <Gold.Chemscore.Metal.Weighted>
-0.0000

> <Gold.Chemscore.Lipo.Weighted>
-6.1455

> <Gold.Chemscore.Internal_Hbond.Weighted>
0.0000

> <Gold.Chemscore.DEClash.Weighted>
0.0756

> <Gold.Chemscore.DEInternal.Weighted>
0.5184

> <Gold.Chemscore.Rot.Weighted>
6.0791

> <Gold.Chemscore.Internal.Correction.Weighted>
   9.000000E+99

> <Gold.Protein.RotatedTorsions>
[ 6907 6896 6895 6894 ] final   49.13 input  -60.11 | X-H torsion
[ 7974 7965 7964 7962 ] final  -70.93 input  175.53 | X-H torsion
[ 8008 7997 7996 7995 ] final -174.78 input   59.86 | X-H torsion
[ 10167 10162 10161 10158 ] final -135.07 input  -65.29 | X-H torsion
[ 10718 10713 10712 10709 ] final   47.81 input   66.30 | X-H torsion
[ 10763 10752 10751 10750 ] final  161.50 input  -60.55 | X-H torsion
[ 11005 11000 10999 10996 ] final   53.80 input  -57.11 | X-H torsion

> <Gold.Protein.ActiveResidues>
 VAL166  LYS551  ARG553  GLY616  TRP617  ASP618  TYR619  PRO620  LYS621  CYS622 
 ASP623  PHE694  ASN695  SER759  ASP760  ASP761  ALA762  ILE779  LEU786  VAL792 
 PHE793  MET794  SER795  GLU796  ALA797  LYS798  CYS799  TRP800  GLU811  SER814 

> <Gold.Protein.RotatedAtoms>
  152.2873  134.7761  160.0384 H   0  0  0  0  0  0  0  0  0  0  0  0  # atno 6907 bound_to 6896
  151.8319  133.3404  159.3624 H   0  0  0  0  0  0  0  0  0  0  0  0  # atno 6908 bound_to 6896
  150.7215  134.5403  159.5788 H   0  0  0  0  0  0  0  0  0  0  0  0  # atno 6909 bound_to 6896
  145.6846  140.9175  143.0814 H   0  0  0  0  0  0  0  0  0  0  0  0  # atno 7974 bound_to 7965
  155.9744  140.1169  157.0784 H   0  0  0  0  0  0  0  0  0  0  0  0  # atno 8008 bound_to 7997
  154.4165  140.1157  156.5417 H   0  0  0  0  0  0  0  0  0  0  0  0  # atno 8009 bound_to 7997
  155.6554  140.3473  155.4765 H   0  0  0  0  0  0  0  0  0  0  0  0  # atno 8010 bound_to 7997
  139.8816  143.6831  152.2626 H   0  0  0  0  0  0  0  0  0  0  0  0  # atno 10167 bound_to 10162
  157.4622  130.8204  149.7899 H   0  0  0  0  0  0  0  0  0  0  0  0  # atno 10718 bound_to 10713
  154.2639  135.2767  155.2766 H   0  0  0  0  0  0  0  0  0  0  0  0  # atno 10763 bound_to 10752
  154.5360  135.5716  153.6802 H   0  0  0  0  0  0  0  0  0  0  0  0  # atno 10764 bound_to 10752
  152.9957  135.6239  154.2791 H   0  0  0  0  0  0  0  0  0  0  0  0  # atno 10765 bound_to 10752
  140.0738  134.5433  155.9018 H   0  0  0  0  0  0  0  0  0  0  0  0  # atno 11005 bound_to 11000
  144.7015  139.8741  143.7442 LP  0  0  0  0  0  0  0  0  0  0  0  0  # atno 17320 bound_to 7965
  146.0935  139.3926  143.0391 LP  0  0  0  0  0  0  0  0  0  0  0  0  # atno 17321 bound_to 7965
  139.7190  144.7606  151.0986 LP  0  0  0  0  0  0  0  0  0  0  0  0  # atno 17342 bound_to 10162
  140.7743  143.5232  150.9512 LP  0  0  0  0  0  0  0  0  0  0  0  0  # atno 17343 bound_to 10162
  156.0034  130.3868  150.2520 LP  0  0  0  0  0  0  0  0  0  0  0  0  # atno 17370 bound_to 10713
  157.0698  131.0113  151.3194 LP  0  0  0  0  0  0  0  0  0  0  0  0  # atno 17371 bound_to 10713
  141.2022  133.6623  156.5992 LP  0  0  0  0  0  0  0  0  0  0  0  0  # atno 17394 bound_to 11000
  140.3588  134.7705  157.4519 LP  0  0  0  0  0  0  0  0  0  0  0  0  # atno 17395 bound_to 11000

$$$$
