AV-unprocessed.smi:2505|AV-procd|sdf|9858|dock3
  -GOLD-   2272013483D 1   1.00000     0.00000
 Structure written by MMmdl.
 48 52  0  0  0  0  0  0  0  0  1 V2000
  147.3002  136.1364  155.7471 O   0  0  0  0  0  0  0  0  0  0  0  0
  147.8494  136.0402  154.6520 C   0  0  0  0  0  0  0  0  0  0  0  0
  148.8932  136.7895  154.2476 N   0  0  0  0  0  0  0  0  0  0  0  0
  149.6080  137.7787  154.9732 C   0  0  0  0  0  0  0  0  0  0  0  0
  150.4376  138.6758  154.2684 C   0  0  0  0  0  0  0  0  0  0  0  0
  151.1586  139.6288  154.8968 N   0  0  0  0  0  0  0  0  0  0  0  0
  151.0664  139.6740  156.2287 C   0  0  0  0  0  0  0  0  0  0  0  0
  151.8330  140.7579  156.9210 C   0  0  0  0  0  0  0  0  0  0  0  0
  151.8225  140.8775  158.4314 C   0  0  0  0  0  0  0  0  0  0  0  0
  151.1098  141.9048  157.5971 C   0  0  0  0  0  0  0  0  0  0  0  0
  150.3186  138.8824  157.0022 N   0  0  0  0  0  0  0  0  0  0  0  0
  149.5917  137.9277  156.3819 C   0  0  0  0  0  0  0  0  0  0  0  0
  147.4298  135.1493  153.7368 N   0  0  0  0  0  0  0  0  0  0  0  0
  146.3255  134.1883  153.8573 C   0  0  1  0  0  0  0  0  0  0  0  0
  144.9478  134.8489  154.1107 C   0  0  1  0  0  0  0  0  0  0  0  0
  144.7811  136.2999  154.4932 C   0  0  0  0  0  0  0  0  0  0  0  0
  144.5033  136.9795  153.1490 C   0  0  0  0  0  0  0  0  0  0  0  0
  144.9873  136.0655  152.1673 O   0  0  0  0  0  0  0  0  0  0  0  0
  144.6903  134.7456  152.6160 C   0  0  1  0  0  0  0  0  0  0  0  0
  145.8192  133.7041  152.4777 C   0  0  0  0  0  0  0  0  0  0  0  0
  146.7196  133.7904  151.2435 C   0  0  0  0  0  0  0  0  0  0  0  0
  146.0957  132.9003  150.1640 C   0  0  0  0  0  0  0  0  0  0  0  0
  145.1748  131.9284  150.9076 C   0  0  0  0  0  0  0  0  0  0  0  0
  145.3513  132.2528  152.3926 C   0  0  0  0  0  0  0  0  0  0  0  0
  149.1894  136.6529  153.2920 H   0  0  0  0  0  0  0  0  0  0  0  0
  150.5216  138.6327  153.1923 H   0  0  0  0  0  0  0  0  0  0  0  0
  152.7625  140.9799  156.4001 H   0  0  0  0  0  0  0  0  0  0  0  0
  151.2083  140.1762  158.9931 H   0  0  0  0  0  0  0  0  0  0  0  0
  152.7490  141.1779  158.9163 H   0  0  0  0  0  0  0  0  0  0  0  0
  151.5587  142.8930  157.5225 H   0  0  0  0  0  0  0  0  0  0  0  0
  150.0215  141.8862  157.6042 H   0  0  0  0  0  0  0  0  0  0  0  0
  149.0209  137.2834  157.0317 H   0  0  0  0  0  0  0  0  0  0  0  0
  147.9335  135.1299  152.8616 H   0  0  0  0  0  0  0  0  0  0  0  0
  146.5302  133.3554  154.5320 H   0  0  0  0  0  0  0  0  0  0  0  0
  144.2956  134.1725  154.6655 H   0  0  0  0  0  0  0  0  0  0  0  0
  143.9512  136.4491  155.1842 H   0  0  0  0  0  0  0  0  0  0  0  0
  145.6713  136.7097  154.9677 H   0  0  0  0  0  0  0  0  0  0  0  0
  143.4310  137.1183  153.0046 H   0  0  0  0  0  0  0  0  0  0  0  0
  144.9884  137.9519  153.0619 H   0  0  0  0  0  0  0  0  0  0  0  0
  143.6849  134.4104  152.3568 H   0  0  0  0  0  0  0  0  0  0  0  0
  146.8494  134.8119  150.8847 H   0  0  0  0  0  0  0  0  0  0  0  0
  147.7153  133.4153  151.4846 H   0  0  0  0  0  0  0  0  0  0  0  0
  145.5141  133.5013  149.4639 H   0  0  0  0  0  0  0  0  0  0  0  0
  146.8620  132.3775  149.5908 H   0  0  0  0  0  0  0  0  0  0  0  0
  144.1402  132.1006  150.6084 H   0  0  0  0  0  0  0  0  0  0  0  0
  145.4111  130.8864  150.6907 H   0  0  0  0  0  0  0  0  0  0  0  0
  146.1099  131.5935  152.8169 H   0  0  0  0  0  0  0  0  0  0  0  0
  144.4319  132.0735  152.9515 H   0  0  0  0  0  0  0  0  0  0  0  0
  1  2  2  0  0  0  0
  2  3  1  0  0  0  0
  2 13  1  0  0  0  0
  3  4  1  0  0  0  0
  3 25  1  0  0  0  0
  4 12  1  0  0  0  0
  4  5  2  0  0  0  0
  5  6  1  0  0  0  0
  5 26  1  0  0  0  0
  6  7  2  0  0  0  0
  7  8  1  0  0  0  0
  7 11  1  0  0  0  0
  8 10  1  0  0  0  0
  8  9  1  0  0  0  0
  8 27  1  0  0  0  0
  9 10  1  0  0  0  0
  9 28  1  0  0  0  0
  9 29  1  0  0  0  0
 10 30  1  0  0  0  0
 10 31  1  0  0  0  0
 11 12  2  0  0  0  0
 12 32  1  0  0  0  0
 13 14  1  0  0  0  0
 13 33  1  0  0  0  0
 14 20  1  0  0  0  0
 14 15  1  0  0  0  0
 14 34  1  0  0  0  0
 15 19  1  0  0  0  0
 15 16  1  0  0  0  0
 15 35  1  0  0  0  0
 16 17  1  0  0  0  0
 16 36  1  0  0  0  0
 16 37  1  0  0  0  0
 17 18  1  0  0  0  0
 17 38  1  0  0  0  0
 17 39  1  0  0  0  0
 18 19  1  0  0  0  0
 19 20  1  0  0  0  0
 19 40  1  0  0  0  0
 20 24  1  0  0  0  0
 20 21  1  0  0  0  0
 21 22  1  0  0  0  0
 21 41  1  0  0  0  0
 21 42  1  0  0  0  0
 22 23  1  0  0  0  0
 22 43  1  0  0  0  0
 22 44  1  0  0  0  0
 23 24  1  0  0  0  0
 23 45  1  0  0  0  0
 23 46  1  0  0  0  0
 24 47  1  0  0  0  0
 24 48  1  0  0  0  0
M  END
> <s_m_source_file>
AV-unprocessed.smi

> <i_m_source_file_index>
2505

> <i_lp_mmshare_version>
43012

> <i_f3d_flags>
0

> <s_epik_input>
W0NIMl0xW0NIMl1bQ0hdMWMobltjSF0yKW5bY0hdYzJbTkhdQyg9TylbTkhdW0NAQEhdM1tDQEBIXShbQ0gyXVtDSDJdTzQpW0NASF00QzM1W0NIMl1bQ0gyXVtDSDJdW0NIMl01

> <s_epik_cmdline>
J2VwaWtfcHl0aG9uJywgJy1waCcsICc3LjAnLCAnLXRuJywgJzgnLCAnLW1hJywgJzIwMCcsICctbWV0YWxfYmluZGluZycsICctaW1hZScsICc8aW5maWxlLm1hZT4nLCAnLW9tYWUnLCAnPG91dGZpbGUubWFlPic=

> <r_lp_tautomer_probability>
1

> <r_epik_Ionization_Penalty>
2.6075e-05

> <r_epik_Ionization_Penalty_Charging>
0

> <r_epik_Ionization_Penalty_Neutral>
2.6075e-05

> <r_epik_State_Penalty>
-0

> <r_epik_Charging_Adjusted_Penalty>
0

> <i_epik_Tot_Q>
0

> <i_epik_Tot_abs_Q>
0

> <r_epik_Metal_State_Penalty>
-0

> <b_epik_Metal_Only>
0

> <s_lp_Force_Field>
OPLS_2005

> <r_lp_Energy>
64.3287

> <b_lp_Chiralities_Consistent>
1

> <s_lp_Variant>
AV-unprocessed.smi:2505-6

> <Gold.Version>
5.8.1

> <Gold.Id.Protein>
6NUR|6NUR_protein|mol2

> <Gold.PLP.Fitness>
41.2226

> <Gold.PLP.PLP>
-30.0169

> <Gold.PLP.part.hbond>
-2.8280

> <Gold.PLP.part.metal>
0.0000

> <Gold.PLP.part.buried>
-5.2396

> <Gold.PLP.part.nonpolar>
-22.4925

> <Gold.PLP.part.repulsive>
0.2723

> <Gold.PLP.ligand.clash>
0.0000

> <Gold.PLP.ligand.torsion>
0.2783

> <Gold.PLP.Chemscore.Hbond>
2.8160

> <Gold.PLP.Chemscore.CHOScore>
1.0000

> <Gold.PLP.Chemscore.Metal>
0.0000

> <Gold.Chemscore.Hbonds>
donor molecule, donor type, donor heavy atom, donor atom, acceptor molecule, acceptor atom, score
      L1  H     3    25       P1  7948  0.89
      L1  H    13    33       P1  7948  0.80
      P1  H  7989  7998       L1     6  1.00
      L1  C     5    26       P1  7957  0.79

> <Gold.PLP.Chemscore.Internal.Correction>
0.3143

> <Gold.Rescore>
     Score         DG    S(hbond)    S(metal)    S(lipo)     H(rot)  DE(clash)    DE(int)     intcor
     18.72     -19.81       2.49        0.00      77.19       1.17       0.12       0.97       ----

> <Gold.Chemscore.Fitness>
18.7178

> <Gold.Chemscore.DG>
-19.8080

> <Gold.Chemscore.ZeroCoef>
-5.4800

> <Gold.Chemscore.Hbond>
2.4859

> <Gold.Chemscore.Metal>
0.0000

> <Gold.Chemscore.Lipo>
77.1920

> <Gold.Chemscore.Internal_Hbond>
0.0000

> <Gold.Chemscore.DEClash>
0.1227

> <Gold.Chemscore.DEInternal>
0.9675

> <Gold.Chemscore.Rot>
1.1744

> <Gold.Chemscore.Internal.Correction>
   9.000000E+99

> <Gold.Chemscore.Hbonds>
donor molecule, donor type, donor heavy atom, donor atom, acceptor molecule, acceptor atom, score
      L1  H     3    25       P1  7948  0.83
      L1  H    13    33       P1  7948  0.79
      P1  H  7989  7998       L1     6  0.45

> <Gold.Chemscore.Hbond.Weighted>
-8.3030

> <Gold.Chemscore.Metal.Weighted>
-0.0000

> <Gold.Chemscore.Lipo.Weighted>
-9.0315

> <Gold.Chemscore.Internal_Hbond.Weighted>
0.0000

> <Gold.Chemscore.DEClash.Weighted>
0.1227

> <Gold.Chemscore.DEInternal.Weighted>
0.9675

> <Gold.Chemscore.Rot.Weighted>
3.0064

> <Gold.Chemscore.Internal.Correction.Weighted>
   9.000000E+99

> <Gold.Protein.RotatedTorsions>
[ 6907 6896 6895 6894 ] final -169.84 input  -60.11 | X-H torsion
[ 7974 7965 7964 7962 ] final   85.73 input  175.53 | X-H torsion
[ 8008 7997 7996 7995 ] final  -51.58 input   59.86 | X-H torsion
[ 10167 10162 10161 10158 ] final  -83.67 input  -65.29 | X-H torsion
[ 10718 10713 10712 10709 ] final -134.54 input   66.30 | X-H torsion
[ 10763 10752 10751 10750 ] final   -7.50 input  -60.55 | X-H torsion
[ 11005 11000 10999 10996 ] final  -97.13 input  -57.11 | X-H torsion

> <Gold.Protein.ActiveResidues>
 VAL166  LYS551  ARG553  GLY616  TRP617  ASP618  TYR619  PRO620  LYS621  CYS622 
 ASP623  PHE694  ASN695  SER759  ASP760  ASP761  ALA762  ILE779  LEU786  VAL792 
 PHE793  MET794  SER795  GLU796  ALA797  LYS798  CYS799  TRP800  GLU811  SER814 

> <Gold.Protein.RotatedAtoms>
  151.4981  133.3510  159.2864 H   0  0  0  0  0  0  0  0  0  0  0  0  # atno 6907 bound_to 6896
  150.8791  134.8181  159.7222 H   0  0  0  0  0  0  0  0  0  0  0  0  # atno 6908 bound_to 6896
  152.4750  134.4876  159.9737 H   0  0  0  0  0  0  0  0  0  0  0  0  # atno 6909 bound_to 6896
  145.5817  139.2326  143.2349 H   0  0  0  0  0  0  0  0  0  0  0  0  # atno 7974 bound_to 7965
  154.4086  140.1244  156.4853 H   0  0  0  0  0  0  0  0  0  0  0  0  # atno 8008 bound_to 7997
  155.7045  140.3494  155.4927 H   0  0  0  0  0  0  0  0  0  0  0  0  # atno 8009 bound_to 7997
  155.9356  140.1077  157.1087 H   0  0  0  0  0  0  0  0  0  0  0  0  # atno 8010 bound_to 7997
  140.4205  143.2586  151.8896 H   0  0  0  0  0  0  0  0  0  0  0  0  # atno 10167 bound_to 10162
  156.2565  130.7184  151.1103 H   0  0  0  0  0  0  0  0  0  0  0  0  # atno 10718 bound_to 10713
  153.4273  135.7011  153.6254 H   0  0  0  0  0  0  0  0  0  0  0  0  # atno 10763 bound_to 10752
  153.4684  135.3720  155.2377 H   0  0  0  0  0  0  0  0  0  0  0  0  # atno 10764 bound_to 10752
  154.8724  135.4037  154.3651 H   0  0  0  0  0  0  0  0  0  0  0  0  # atno 10765 bound_to 10752
  141.1389  133.8148  157.0665 H   0  0  0  0  0  0  0  0  0  0  0  0  # atno 11005 bound_to 11000
  146.1711  140.6643  142.9232 LP  0  0  0  0  0  0  0  0  0  0  0  0  # atno 17320 bound_to 7965
  144.7391  140.4892  143.6882 LP  0  0  0  0  0  0  0  0  0  0  0  0  # atno 17321 bound_to 7965
  139.4782  144.5442  151.8483 LP  0  0  0  0  0  0  0  0  0  0  0  0  # atno 17342 bound_to 10162
  140.4539  144.1817  150.5900 LP  0  0  0  0  0  0  0  0  0  0  0  0  # atno 17343 bound_to 10162
  157.7235  131.0666  150.6036 LP  0  0  0  0  0  0  0  0  0  0  0  0  # atno 17370 bound_to 10713
  156.6120  130.4382  149.5855 LP  0  0  0  0  0  0  0  0  0  0  0  0  # atno 17371 bound_to 10713
  140.0538  134.9791  157.1184 LP  0  0  0  0  0  0  0  0  0  0  0  0  # atno 17394 bound_to 11000
  140.3950  134.2144  155.7165 LP  0  0  0  0  0  0  0  0  0  0  0  0  # atno 17395 bound_to 11000

$$$$
