AV-unprocessed.smi:270|AV-procd|sdf|2048|dock3
  -GOLD-   2262021273D 1   1.00000     0.00000
 Structure written by MMmdl.
 54 57  0  0  0  0  0  0  0  0  1 V2000
  147.2540  132.4817  153.5704 C   0  0  0  0  0  0  0  0  0  0  0  0
  146.8671  133.0877  152.2123 C   0  0  1  0  0  0  0  0  0  0  0  0
  146.3251  132.0381  151.4137 O   0  0  0  0  0  0  0  0  0  0  0  0
  145.3463  132.5790  150.5442 C   0  0  0  0  0  0  0  0  0  0  0  0
  144.6404  133.5886  151.4356 C   0  0  0  0  0  0  0  0  0  0  0  0
  145.7886  134.2083  152.2271 C   0  0  2  0  0  0  0  0  0  0  0  0
  146.2928  135.3002  151.4751 O   0  0  0  0  0  0  0  0  0  0  0  0
  145.3675  134.7421  153.6217 C   0  0  0  0  0  0  0  0  0  0  0  0
  146.4234  135.4756  154.3037 N   0  0  0  0  0  0  0  0  0  0  0  0
  147.2412  134.9988  155.3026 C   0  0  0  0  0  0  0  0  0  0  0  0
  148.1232  135.8486  155.7519 N   0  0  0  0  0  0  0  0  0  0  0  0
  147.8879  137.0074  155.0205 C   0  0  0  0  0  0  0  0  0  0  0  0
  148.4828  138.3032  155.0082 C   0  0  0  0  0  0  0  0  0  0  0  0
  149.5778  138.6929  155.8323 N   0  0  0  0  0  0  0  0  0  0  0  0
  149.5618  140.0617  156.3270 C   0  0  0  0  0  0  0  0  0  0  0  0
  151.0633  140.1024  156.0242 C   0  0  0  0  0  0  0  0  0  0  0  0
  151.8847  139.8801  157.1601 O   0  0  0  0  0  0  0  0  0  0  0  0
  151.6641  140.8251  158.1950 C   0  0  0  0  0  0  0  0  0  0  0  0
  152.6547  140.5521  159.3328 C   0  0  0  0  0  0  0  0  0  0  0  0
  153.2614  139.4800  159.3329 O   0  0  0  0  0  0  0  0  0  0  0  0
  152.8329  141.4871  160.2953 N   0  0  0  0  0  0  0  0  0  0  0  0
  152.1394  142.7792  160.2979 C   0  0  0  0  0  0  0  0  0  0  0  0
  153.7589  141.2391  161.4036 C   0  0  0  0  0  0  0  0  0  0  0  0
  150.8813  138.8307  155.1939 C   0  0  0  0  0  0  0  0  0  0  0  0
  147.9797  139.1864  154.1043 N   0  0  0  0  0  0  0  0  0  0  0  0
  146.9650  138.8532  153.3019 C   0  0  0  0  0  0  0  0  0  0  0  0
  146.3124  137.6936  153.2228 N   0  0  0  0  0  0  0  0  0  0  0  0
  146.8184  136.7873  154.1052 C   0  0  0  0  0  0  0  0  0  0  0  0
  147.6956  133.2287  154.2299 H   0  0  0  0  0  0  0  0  0  0  0  0
  147.9903  131.6883  153.4404 H   0  0  0  0  0  0  0  0  0  0  0  0
  146.3915  132.0457  154.0749 H   0  0  0  0  0  0  0  0  0  0  0  0
  147.7765  133.4408  151.7222 H   0  0  0  0  0  0  0  0  0  0  0  0
  145.8312  133.0685  149.6982 H   0  0  0  0  0  0  0  0  0  0  0  0
  144.6756  131.8086  150.1633 H   0  0  0  0  0  0  0  0  0  0  0  0
  144.0425  134.3123  150.8796 H   0  0  0  0  0  0  0  0  0  0  0  0
  143.9708  133.0492  152.1061 H   0  0  0  0  0  0  0  0  0  0  0  0
  147.2304  135.3327  151.5879 H   0  0  0  0  0  0  0  0  0  0  0  0
  144.5046  135.4029  153.5352 H   0  0  0  0  0  0  0  0  0  0  0  0
  145.0615  133.9174  154.2665 H   0  0  0  0  0  0  0  0  0  0  0  0
  147.1674  133.9905  155.6839 H   0  0  0  0  0  0  0  0  0  0  0  0
  148.9841  140.7432  155.7008 H   0  0  0  0  0  0  0  0  0  0  0  0
  149.3012  140.1378  157.3828 H   0  0  0  0  0  0  0  0  0  0  0  0
  151.3723  140.9576  155.4212 H   0  0  0  0  0  0  0  0  0  0  0  0
  151.8202  141.8341  157.8098 H   0  0  0  0  0  0  0  0  0  0  0  0
  150.6404  140.7824  158.5681 H   0  0  0  0  0  0  0  0  0  0  0  0
  152.3341  143.3288  159.3767 H   0  0  0  0  0  0  0  0  0  0  0  0
  152.4532  143.4237  161.1188 H   0  0  0  0  0  0  0  0  0  0  0  0
  151.0623  142.6403  160.3952 H   0  0  0  0  0  0  0  0  0  0  0  0
  153.4954  140.3175  161.9248 H   0  0  0  0  0  0  0  0  0  0  0  0
  153.7601  142.0372  162.1459 H   0  0  0  0  0  0  0  0  0  0  0  0
  154.7791  141.1375  161.0306 H   0  0  0  0  0  0  0  0  0  0  0  0
  151.5757  138.0261  155.4372 H   0  0  0  0  0  0  0  0  0  0  0  0
  150.8318  139.0337  154.1229 H   0  0  0  0  0  0  0  0  0  0  0  0
  146.6314  139.6255  152.6247 H   0  0  0  0  0  0  0  0  0  0  0  0
  1  2  1  0  0  0  0
  1 29  1  0  0  0  0
  1 30  1  0  0  0  0
  1 31  1  0  0  0  0
  2  6  1  0  0  0  0
  2  3  1  0  0  0  0
  2 32  1  0  0  0  0
  3  4  1  0  0  0  0
  4  5  1  0  0  0  0
  4 33  1  0  0  0  0
  4 34  1  0  0  0  0
  5  6  1  0  0  0  0
  5 35  1  0  0  0  0
  5 36  1  0  0  0  0
  6  7  1  0  0  0  0
  6  8  1  0  0  0  0
  7 37  1  0  0  0  0
  8  9  1  0  0  0  0
  8 38  1  0  0  0  0
  8 39  1  0  0  0  0
  9 28  1  0  0  0  0
  9 10  1  0  0  0  0
 10 11  2  0  0  0  0
 10 40  1  0  0  0  0
 11 12  1  0  0  0  0
 12 28  2  0  0  0  0
 12 13  1  0  0  0  0
 13 14  1  0  0  0  0
 13 25  2  0  0  0  0
 14 24  1  0  0  0  0
 14 15  1  0  0  0  0
 15 16  1  0  0  0  0
 15 41  1  0  0  0  0
 15 42  1  0  0  0  0
 16 17  1  0  0  0  0
 16 24  1  0  0  0  0
 16 43  1  0  0  0  0
 17 18  1  0  0  0  0
 18 19  1  0  0  0  0
 18 44  1  0  0  0  0
 18 45  1  0  0  0  0
 19 20  2  0  0  0  0
 19 21  1  0  0  0  0
 21 22  1  0  0  0  0
 21 23  1  0  0  0  0
 22 46  1  0  0  0  0
 22 47  1  0  0  0  0
 22 48  1  0  0  0  0
 23 49  1  0  0  0  0
 23 50  1  0  0  0  0
 23 51  1  0  0  0  0
 24 52  1  0  0  0  0
 24 53  1  0  0  0  0
 25 26  1  0  0  0  0
 26 27  2  0  0  0  0
 26 54  1  0  0  0  0
 27 28  1  0  0  0  0
M  END
> <s_m_source_file>
AV-unprocessed.smi

> <i_m_source_file_index>
270

> <i_lp_mmshare_version>
43012

> <i_f3d_flags>
0

> <s_epik_input>
W0NIMl0xW0NIMl1PW0NAQEhdKFtDSDNdKVtDQEBdMShbT0hdKVtDSDJdbihbY0hdbjIpYyhjMjMpbltjSF1uYzNONFtDSDJdW0NIXShbQ0gyXTQpT1tDSDJdQyg9TylOKFtDSDNdKVtDSDNd

> <s_epik_cmdline>
J2VwaWtfcHl0aG9uJywgJy1waCcsICc3LjAnLCAnLXRuJywgJzgnLCAnLW1hJywgJzIwMCcsICctbWV0YWxfYmluZGluZycsICctaW1hZScsICc8aW5maWxlLm1hZT4nLCAnLW9tYWUnLCAnPG91dGZpbGUubWFlPic=

> <r_lp_tautomer_probability>
1

> <r_epik_Ionization_Penalty>
0.00375854

> <r_epik_Ionization_Penalty_Charging>
0

> <r_epik_Ionization_Penalty_Neutral>
0.00375854

> <r_epik_State_Penalty>
-0

> <r_epik_Charging_Adjusted_Penalty>
0

> <i_epik_Tot_Q>
0

> <i_epik_Tot_abs_Q>
0

> <r_epik_Metal_State_Penalty>
-0

> <b_epik_Metal_Only>
0

> <s_lp_Force_Field>
OPLS_2005

> <r_lp_Energy>
53.4022

> <b_lp_Chiralities_Consistent>
1

> <s_lp_Variant>
AV-unprocessed.smi:270-4

> <Gold.Version>
5.8.1

> <Gold.Id.Protein>
6NUR|6NUR_protein|mol2

> <Gold.PLP.Fitness>
44.8655

> <Gold.PLP.PLP>
-37.5928

> <Gold.PLP.part.hbond>
-2.0000

> <Gold.PLP.part.metal>
0.0000

> <Gold.PLP.part.buried>
-3.9858

> <Gold.PLP.part.nonpolar>
-32.1166

> <Gold.PLP.part.repulsive>
0.6225

> <Gold.PLP.ligand.clash>
0.0000

> <Gold.PLP.ligand.torsion>
1.0732

> <Gold.PLP.Chemscore.Hbond>
2.0000

> <Gold.PLP.Chemscore.CHOScore>
1.0000

> <Gold.PLP.Chemscore.Metal>
0.0000

> <Gold.Chemscore.Hbonds>
donor molecule, donor type, donor heavy atom, donor atom, acceptor molecule, acceptor atom, score
      L1  H     7    37       P1  7948  1.00

> <Gold.PLP.Chemscore.Internal.Correction>
0.4192

> <Gold.Rescore>
     Score         DG    S(hbond)    S(metal)    S(lipo)     H(rot)  DE(clash)    DE(int)     intcor
     11.62     -13.02       1.94        0.00      77.26       3.12       0.01       1.39       ----

> <Gold.Chemscore.Fitness>
11.6246

> <Gold.Chemscore.DG>
-13.0175

> <Gold.Chemscore.ZeroCoef>
-5.4800

> <Gold.Chemscore.Hbond>
1.9444

> <Gold.Chemscore.Metal>
0.0000

> <Gold.Chemscore.Lipo>
77.2581

> <Gold.Chemscore.Internal_Hbond>
0.0000

> <Gold.Chemscore.DEClash>
0.0052

> <Gold.Chemscore.DEInternal>
1.3877

> <Gold.Chemscore.Rot>
3.1234

> <Gold.Chemscore.Internal.Correction>
   9.000000E+99

> <Gold.Chemscore.Hbonds>
donor molecule, donor type, donor heavy atom, donor atom, acceptor molecule, acceptor atom, score
      L1  H     7    37       P1  7948  0.94

> <Gold.Chemscore.Hbond.Weighted>
-6.4942

> <Gold.Chemscore.Metal.Weighted>
-0.0000

> <Gold.Chemscore.Lipo.Weighted>
-9.0392

> <Gold.Chemscore.Internal_Hbond.Weighted>
0.0000

> <Gold.Chemscore.DEClash.Weighted>
0.0052

> <Gold.Chemscore.DEInternal.Weighted>
1.3877

> <Gold.Chemscore.Rot.Weighted>
7.9959

> <Gold.Chemscore.Internal.Correction.Weighted>
   9.000000E+99

> <Gold.Protein.RotatedTorsions>
[ 6907 6896 6895 6894 ] final  -56.05 input  -60.11 | X-H torsion
[ 7974 7965 7964 7962 ] final  -72.68 input  175.53 | X-H torsion
[ 8008 7997 7996 7995 ] final   19.53 input   59.86 | X-H torsion
[ 10167 10162 10161 10158 ] final -129.12 input  -65.29 | X-H torsion
[ 10718 10713 10712 10709 ] final   69.78 input   66.30 | X-H torsion
[ 10763 10752 10751 10750 ] final  -89.74 input  -60.55 | X-H torsion
[ 11005 11000 10999 10996 ] final  -30.95 input  -57.11 | X-H torsion

> <Gold.Protein.ActiveResidues>
 VAL166  LYS551  ARG553  GLY616  TRP617  ASP618  TYR619  PRO620  LYS621  CYS622 
 ASP623  PHE694  ASN695  SER759  ASP760  ASP761  ALA762  ILE779  LEU786  VAL792 
 PHE793  MET794  SER795  GLU796  ALA797  LYS798  CYS799  TRP800  GLU811  SER814 

> <Gold.Protein.RotatedAtoms>
  150.8199  134.7402  159.6763 H   0  0  0  0  0  0  0  0  0  0  0  0  # atno 6907 bound_to 6896
  152.4316  134.5764  159.9945 H   0  0  0  0  0  0  0  0  0  0  0  0  # atno 6908 bound_to 6896
  151.5951  133.3325  159.3071 H   0  0  0  0  0  0  0  0  0  0  0  0  # atno 6909 bound_to 6896
  145.6620  140.9249  143.0929 H   0  0  0  0  0  0  0  0  0  0  0  0  # atno 7974 bound_to 7965
  154.9221  140.3028  155.5211 H   0  0  0  0  0  0  0  0  0  0  0  0  # atno 8008 bound_to 7997
  156.3009  140.2369  156.4208 H   0  0  0  0  0  0  0  0  0  0  0  0  # atno 8009 bound_to 7997
  154.8321  140.0418  157.1472 H   0  0  0  0  0  0  0  0  0  0  0  0  # atno 8010 bound_to 7997
  139.9432  143.6140  152.2497 H   0  0  0  0  0  0  0  0  0  0  0  0  # atno 10167 bound_to 10162
  157.6364  130.9443  150.0560 H   0  0  0  0  0  0  0  0  0  0  0  0  # atno 10718 bound_to 10713
  154.6584  135.5330  153.7987 H   0  0  0  0  0  0  0  0  0  0  0  0  # atno 10763 bound_to 10752
  153.0427  135.6499  154.0909 H   0  0  0  0  0  0  0  0  0  0  0  0  # atno 10764 bound_to 10752
  154.0820  135.2946  155.3268 H   0  0  0  0  0  0  0  0  0  0  0  0  # atno 10765 bound_to 10752
  140.9427  133.7269  156.1100 H   0  0  0  0  0  0  0  0  0  0  0  0  # atno 11005 bound_to 11000
  144.7086  139.8461  143.7422 LP  0  0  0  0  0  0  0  0  0  0  0  0  # atno 17320 bound_to 7965
  146.1118  139.4123  143.0283 LP  0  0  0  0  0  0  0  0  0  0  0  0  # atno 17321 bound_to 7965
  139.6688  144.7661  151.1822 LP  0  0  0  0  0  0  0  0  0  0  0  0  # atno 17342 bound_to 10162
  140.7605  143.5897  150.8809 LP  0  0  0  0  0  0  0  0  0  0  0  0  # atno 17343 bound_to 10162
  156.1607  130.3644  149.9303 LP  0  0  0  0  0  0  0  0  0  0  0  0  # atno 17370 bound_to 10713
  156.7302  130.9040  151.3625 LP  0  0  0  0  0  0  0  0  0  0  0  0  # atno 17371 bound_to 10713
  140.7712  134.3830  157.5507 LP  0  0  0  0  0  0  0  0  0  0  0  0  # atno 17394 bound_to 11000
  139.8825  134.9023  156.2830 LP  0  0  0  0  0  0  0  0  0  0  0  0  # atno 17395 bound_to 11000

$$$$
