AV-unprocessed.smi:1417|AV-procd|sdf|5772|dock8
  -GOLD-   22720 5413D 1   1.00000     0.00000
 Structure written by MMmdl.
 39 40  0  0  0  0  0  0  0  0  3 V2000
  153.3015  142.5470  160.6637 C   0  0  0  0  0  0  0  0  0  0  0  0
  152.4777  142.2472  159.4587 C   0  0  0  0  0  0  0  0  0  0  0  0
  151.5239  142.9557  158.7843 C   0  0  0  0  0  0  0  0  0  0  0  0
  151.1565  142.0712  157.7288 C   0  0  0  0  0  0  0  0  0  0  0  0
  150.1847  142.3188  156.7252 N   0  0  0  0  0  0  0  0  0  0  0  0
  149.6391  141.4482  155.8595 C   0  0  0  0  0  0  0  0  0  0  0  0
  149.8942  140.2455  155.8006 O   0  0  0  0  0  0  0  0  0  0  0  0
  148.7602  142.0567  155.0494 N   0  0  0  0  0  0  0  0  0  0  0  0
  147.9761  141.3994  154.0039 C   0  0  2  0  0  0  0  0  0  0  0  0
  146.9272  142.3463  153.3870 C   0  0  0  0  0  0  0  0  0  0  0  0
  145.7827  142.6556  154.3675 C   0  0  0  0  0  0  0  0  0  0  0  0
  145.1403  141.4042  154.8504 N   0  3  2  0  0  0  0  0  0  0  0  0
  143.9366  141.6465  155.6860 C   0  0  0  0  0  0  0  0  0  0  0  0
  143.2256  140.3262  156.0011 C   0  0  0  0  0  0  0  0  0  0  0  0
  142.8286  139.6785  154.8871 N   0  5  0  0  0  0  0  0  0  0  0  0
  143.0766  139.9801  157.1706 O   0  0  0  0  0  0  0  0  0  0  0  0
  146.1184  140.5039  155.5113 C   0  0  0  0  0  0  0  0  0  0  0  0
  147.2780  140.1473  154.5626 C   0  0  0  0  0  0  0  0  0  0  0  0
  151.8196  140.9303  157.7666 N   0  0  0  0  0  0  0  0  0  0  0  0
  152.6728  141.0362  158.8711 O   0  0  0  0  0  0  0  0  0  0  0  0
  153.0347  143.5155  161.0872 H   0  0  0  0  0  0  0  0  0  0  0  0
  154.3616  142.5693  160.4109 H   0  0  0  0  0  0  0  0  0  0  0  0
  153.1522  141.7892  161.4330 H   0  0  0  0  0  0  0  0  0  0  0  0
  151.1608  143.9440  159.0225 H   0  0  0  0  0  0  0  0  0  0  0  0
  149.8594  143.2725  156.6687 H   0  0  0  0  0  0  0  0  0  0  0  0
  148.6099  143.0469  155.1755 H   0  0  0  0  0  0  0  0  0  0  0  0
  148.6659  141.0803  153.2203 H   0  0  0  0  0  0  0  0  0  0  0  0
  147.3923  143.2734  153.0507 H   0  0  0  0  0  0  0  0  0  0  0  0
  146.5097  141.8807  152.4932 H   0  0  0  0  0  0  0  0  0  0  0  0
  146.1568  143.2274  155.2181 H   0  0  0  0  0  0  0  0  0  0  0  0
  145.0485  143.2862  153.8655 H   0  0  0  0  0  0  0  0  0  0  0  0
  144.2157  142.1138  156.6321 H   0  0  0  0  0  0  0  0  0  0  0  0
  143.2581  142.3395  155.1859 H   0  0  0  0  0  0  0  0  0  0  0  0
  143.2439  139.9369  153.9841 H   0  0  0  0  0  0  0  0  0  0  0  0
  146.4976  140.9788  156.4175 H   0  0  0  0  0  0  0  0  0  0  0  0
  145.6189  139.5854  155.8215 H   0  0  0  0  0  0  0  0  0  0  0  0
  146.8862  139.5577  153.7324 H   0  0  0  0  0  0  0  0  0  0  0  0
  147.9983  139.5073  155.0738 H   0  0  0  0  0  0  0  0  0  0  0  0
  144.8043  140.9119  154.0340 H   0  0  0  0  0  0  0  0  0  0  0  0
  1  2  1  0  0  0  0
  1 21  1  0  0  0  0
  1 22  1  0  0  0  0
  1 23  1  0  0  0  0
  2 20  1  0  0  0  0
  2  3  2  0  0  0  0
  3  4  1  0  0  0  0
  3 24  1  0  0  0  0
  4  5  1  0  0  0  0
  4 19  2  0  0  0  0
  5  6  1  0  0  0  0
  5 25  1  0  0  0  0
  6  7  2  0  0  0  0
  6  8  1  0  0  0  0
  8  9  1  0  0  0  0
  8 26  1  0  0  0  0
  9 18  1  0  0  0  0
  9 10  1  0  0  0  0
  9 27  1  0  0  0  0
 10 11  1  0  0  0  0
 10 28  1  0  0  0  0
 10 29  1  0  0  0  0
 11 12  1  0  0  0  0
 11 30  1  0  0  0  0
 11 31  1  0  0  0  0
 12 13  1  0  0  0  0
 12 17  1  0  0  0  0
 12 39  1  0  0  0  0
 13 14  1  0  0  0  0
 13 32  1  0  0  0  0
 13 33  1  0  0  0  0
 14 15  1  0  0  0  0
 14 16  2  0  0  0  0
 15 34  1  0  0  0  0
 17 18  1  0  0  0  0
 17 35  1  0  0  0  0
 17 36  1  0  0  0  0
 18 37  1  0  0  0  0
 18 38  1  0  0  0  0
 19 20  1  0  0  0  0
M  CHG  1  12   1
M  CHG  1  15  -1
M  END
> <s_m_source_file>
AV-unprocessed.smi

> <i_m_source_file_index>
1417

> <i_lp_mmshare_version>
43012

> <i_f3d_flags>
0

> <s_epik_input>
W0NIM11jMVtjSF1jKG5vMSlbTkhdQyg9TylbTkhdW0NIXTJbQ0gyXVtDSDJdTihbQ0gyXVtDSDJdMilbQ0gyXUMoPU8pW05IMl0=

> <s_epik_cmdline>
J2VwaWtfcHl0aG9uJywgJy1waCcsICc3LjAnLCAnLXRuJywgJzgnLCAnLW1hJywgJzIwMCcsICctbWV0YWxfYmluZGluZycsICctaW1hZScsICc8aW5maWxlLm1hZT4nLCAnLW9tYWUnLCAnPG91dGZpbGUubWFlPic=

> <r_epik_Ionization_Penalty>
5.73218

> <r_epik_Ionization_Penalty_Charging>
5.73215

> <r_epik_Ionization_Penalty_Neutral>
3.37968e-05

> <r_epik_State_Penalty>
6.58009

> <r_epik_Charging_Adjusted_Penalty>
12.3122

> <i_epik_Tot_Q>
0

> <i_epik_Tot_abs_Q>
2

> <r_epik_Metal_State_Penalty>
2.55295

> <b_epik_Metal_Only>
1

> <s_lp_Force_Field>
OPLS_2005

> <r_lp_Energy>
7.04924

> <b_lp_Chiralities_Consistent>
1

> <s_lp_Variant>
AV-unprocessed.smi:1417-8

> <Gold.Version>
5.8.1

> <Gold.Id.Protein>
6NUR|6NUR_protein|mol2

> <Gold.PLP.Fitness>
44.2230

> <Gold.PLP.PLP>
-29.4457

> <Gold.PLP.part.hbond>
-4.0000

> <Gold.PLP.part.metal>
0.0000

> <Gold.PLP.part.buried>
-6.8942

> <Gold.PLP.part.nonpolar>
-19.6257

> <Gold.PLP.part.repulsive>
0.2828

> <Gold.PLP.ligand.clash>
0.0000

> <Gold.PLP.ligand.torsion>
0.1243

> <Gold.PLP.Chemscore.Hbond>
5.0000

> <Gold.PLP.Chemscore.CHOScore>
0.0000

> <Gold.PLP.Chemscore.Metal>
0.0000

> <Gold.Chemscore.Hbonds>
donor molecule, donor type, donor heavy atom, donor atom, acceptor molecule, acceptor atom, score
      L1  H     5    25       P1  8028  1.00
      L1  H     8    26       P1  8028  1.00
      L1  H    12    39       P1 10175  2.00
      L1  H    15    34       P1 10175  1.00

> <Gold.PLP.Chemscore.Internal.Correction>
0.0258

> <Gold.Rescore>
     Score         DG    S(hbond)    S(metal)    S(lipo)     H(rot)  DE(clash)    DE(int)     intcor
     16.61     -20.63       3.91        0.00      62.01       2.02       1.30       2.72       ----

> <Gold.Chemscore.Fitness>
16.6104

> <Gold.Chemscore.DG>
-20.6311

> <Gold.Chemscore.ZeroCoef>
-5.4800

> <Gold.Chemscore.Hbond>
3.9106

> <Gold.Chemscore.Metal>
0.0000

> <Gold.Chemscore.Lipo>
62.0056

> <Gold.Chemscore.Internal_Hbond>
0.0000

> <Gold.Chemscore.DEClash>
1.2972

> <Gold.Chemscore.DEInternal>
2.7235

> <Gold.Chemscore.Rot>
2.0176

> <Gold.Chemscore.Internal.Correction>
   9.000000E+99

> <Gold.Chemscore.Hbonds>
donor molecule, donor type, donor heavy atom, donor atom, acceptor molecule, acceptor atom, score
      L1  H     5    25       P1  8028  0.90
      L1  H     8    26       P1  8028  1.00
      L1  H    12    39       P1 10175  0.91
      L1  H    15    34       P1 10175  0.99

> <Gold.Chemscore.Hbond.Weighted>
-13.0616

> <Gold.Chemscore.Metal.Weighted>
-0.0000

> <Gold.Chemscore.Lipo.Weighted>
-7.2547

> <Gold.Chemscore.Internal_Hbond.Weighted>
0.0000

> <Gold.Chemscore.DEClash.Weighted>
1.2972

> <Gold.Chemscore.DEInternal.Weighted>
2.7235

> <Gold.Chemscore.Rot.Weighted>
5.1651

> <Gold.Chemscore.Internal.Correction.Weighted>
   9.000000E+99

> <Gold.Protein.RotatedTorsions>
[ 6907 6896 6895 6894 ] final  -83.30 input  -60.11 | X-H torsion
[ 7974 7965 7964 7962 ] final  158.67 input  175.53 | X-H torsion
[ 8008 7997 7996 7995 ] final  -14.79 input   59.86 | X-H torsion
[ 10167 10162 10161 10158 ] final   -6.07 input  -65.29 | X-H torsion
[ 10718 10713 10712 10709 ] final -153.86 input   66.30 | X-H torsion
[ 10763 10752 10751 10750 ] final   66.89 input  -60.55 | X-H torsion
[ 11005 11000 10999 10996 ] final  -40.34 input  -57.11 | X-H torsion

> <Gold.Protein.ActiveResidues>
 VAL166  LYS551  ARG553  GLY616  TRP617  ASP618  TYR619  PRO620  LYS621  CYS622 
 ASP623  PHE694  ASN695  SER759  ASP760  ASP761  ALA762  ILE779  LEU786  VAL792 
 PHE793  MET794  SER795  GLU796  ALA797  LYS798  CYS799  TRP800  GLU811  SER814 

> <Gold.Protein.RotatedAtoms>
  150.6887  134.3532  159.4917 H   0  0  0  0  0  0  0  0  0  0  0  0  # atno 6907 bound_to 6896
  152.1371  134.9088  160.0565 H   0  0  0  0  0  0  0  0  0  0  0  0  # atno 6908 bound_to 6896
  152.0236  133.3874  159.4305 H   0  0  0  0  0  0  0  0  0  0  0  0  # atno 6909 bound_to 6896
  144.7832  139.7511  143.6251 H   0  0  0  0  0  0  0  0  0  0  0  0  # atno 7974 bound_to 7965
  154.5181  140.2213  155.9027 H   0  0  0  0  0  0  0  0  0  0  0  0  # atno 8008 bound_to 7997
  156.1631  140.3138  155.8807 H   0  0  0  0  0  0  0  0  0  0  0  0  # atno 8009 bound_to 7997
  155.3711  140.0466  157.3036 H   0  0  0  0  0  0  0  0  0  0  0  0  # atno 8010 bound_to 7997
  140.6985  143.6236  150.8589 H   0  0  0  0  0  0  0  0  0  0  0  0  # atno 10167 bound_to 10162
  156.4916  130.8350  151.2572 H   0  0  0  0  0  0  0  0  0  0  0  0  # atno 10718 bound_to 10713
  153.0161  135.5304  154.6895 H   0  0  0  0  0  0  0  0  0  0  0  0  # atno 10763 bound_to 10752
  154.6033  135.2870  155.0514 H   0  0  0  0  0  0  0  0  0  0  0  0  # atno 10764 bound_to 10752
  154.1563  135.6555  153.5027 H   0  0  0  0  0  0  0  0  0  0  0  0  # atno 10765 bound_to 10752
  141.0167  133.6882  156.2308 H   0  0  0  0  0  0  0  0  0  0  0  0  # atno 11005 bound_to 11000
  146.2052  139.5371  142.9717 LP  0  0  0  0  0  0  0  0  0  0  0  0  # atno 17320 bound_to 7965
  145.5992  141.0358  143.2028 LP  0  0  0  0  0  0  0  0  0  0  0  0  # atno 17321 bound_to 7965
  139.9956  143.5800  152.2894 LP  0  0  0  0  0  0  0  0  0  0  0  0  # atno 17342 bound_to 10162
  139.6471  144.7659  151.2223 LP  0  0  0  0  0  0  0  0  0  0  0  0  # atno 17343 bound_to 10162
  157.7473  131.0011  150.2953 LP  0  0  0  0  0  0  0  0  0  0  0  0  # atno 17370 bound_to 10713
  156.3421  130.3817  149.7400 LP  0  0  0  0  0  0  0  0  0  0  0  0  # atno 17371 bound_to 10713
  140.6642  134.4935  157.5585 LP  0  0  0  0  0  0  0  0  0  0  0  0  # atno 17394 bound_to 11000
  139.9121  134.8322  156.1491 LP  0  0  0  0  0  0  0  0  0  0  0  0  # atno 17395 bound_to 11000

$$$$
