AV-unprocessed.smi:2192|AV-procd|sdf|8897|dock6
  -GOLD-   2272012103D 1   1.00000     0.00000
 Structure written by MMmdl.
 42 44  0  0  0  0  0  0  0  0  1 V2000
  146.9134  135.0894  162.3650 C   0  0  0  0  0  0  0  0  0  0  0  0
  147.5563  135.0171  161.0392 N   0  0  0  0  0  0  0  0  0  0  0  0
  148.2636  136.1062  160.6015 C   0  0  0  0  0  0  0  0  0  0  0  0
  148.3965  137.1580  161.2288 O   0  0  0  0  0  0  0  0  0  0  0  0
  148.8747  135.9255  159.2809 C   0  0  0  0  0  0  0  0  0  0  0  0
  148.7347  134.7906  158.5540 C   0  0  0  0  0  0  0  0  0  0  0  0
  149.4045  134.8801  157.3392 N   0  0  0  0  0  0  0  0  0  0  0  0
  149.9293  136.1045  157.4017 C   0  0  0  0  0  0  0  0  0  0  0  0
  149.6621  136.7965  158.5281 N   0  0  0  0  0  0  0  0  0  0  0  0
  150.1169  138.1448  158.8333 C   0  0  0  0  0  0  0  0  0  0  0  0
  149.7719  139.1512  157.7165 C   0  0  1  0  0  0  0  0  0  0  0  0
  148.6320  139.9250  158.0327 O   0  0  0  0  0  0  0  0  0  0  0  0
  150.9304  140.0942  157.3549 C   0  0  0  0  0  0  0  0  0  0  0  0
  151.6165  140.4889  158.5367 O   0  0  0  0  0  0  0  0  0  0  0  0
  151.6841  141.8325  158.8352 C   0  0  0  0  0  0  0  0  0  0  0  0
  152.3711  142.1913  160.0133 C   0  0  0  0  0  0  0  0  0  0  0  0
  152.4867  143.5408  160.3983 C   0  0  0  0  0  0  0  0  0  0  0  0
  151.9149  144.5501  159.6022 C   0  0  0  0  0  0  0  0  0  0  0  0
  152.0236  145.8484  159.9707 F   0  0  0  0  0  0  0  0  0  0  0  0
  151.2296  144.2071  158.4220 C   0  0  0  0  0  0  0  0  0  0  0  0
  151.1130  142.8569  158.0377 C   0  0  0  0  0  0  0  0  0  0  0  0
  147.9703  133.7267  159.0938 N   0  0  0  0  0  0  0  0  0  0  0  0
  147.8351  132.5178  158.2756 C   0  0  0  0  0  0  0  0  0  0  0  0
  147.3867  133.8379  160.3329 C   0  0  0  0  0  0  0  0  0  0  0  0
  146.7264  132.9076  160.8036 O   0  0  0  0  0  0  0  0  0  0  0  0
  147.0837  136.0193  162.9083 H   0  0  0  0  0  0  0  0  0  0  0  0
  147.2772  134.2871  163.0092 H   0  0  0  0  0  0  0  0  0  0  0  0
  145.8320  134.9787  162.2694 H   0  0  0  0  0  0  0  0  0  0  0  0
  150.5284  136.5124  156.6007 H   0  0  0  0  0  0  0  0  0  0  0  0
  149.7045  138.4554  159.7922 H   0  0  0  0  0  0  0  0  0  0  0  0
  151.1983  138.1128  158.9723 H   0  0  0  0  0  0  0  0  0  0  0  0
  149.5116  138.5889  156.8191 H   0  0  0  0  0  0  0  0  0  0  0  0
  147.8794  139.5296  157.6186 H   0  0  0  0  0  0  0  0  0  0  0  0
  151.6242  139.5659  156.6992 H   0  0  0  0  0  0  0  0  0  0  0  0
  150.5537  140.9619  156.8102 H   0  0  0  0  0  0  0  0  0  0  0  0
  152.8120  141.4223  160.6308 H   0  0  0  0  0  0  0  0  0  0  0  0
  153.0137  143.8005  161.3047 H   0  0  0  0  0  0  0  0  0  0  0  0
  150.7919  144.9815  157.8094 H   0  0  0  0  0  0  0  0  0  0  0  0
  150.5811  142.6338  157.1255 H   0  0  0  0  0  0  0  0  0  0  0  0
  147.2561  131.7195  158.7405 H   0  0  0  0  0  0  0  0  0  0  0  0
  148.8205  132.1104  158.0475 H   0  0  0  0  0  0  0  0  0  0  0  0
  147.3489  132.7626  157.3307 H   0  0  0  0  0  0  0  0  0  0  0  0
  1  2  1  0  0  0  0
  1 26  1  0  0  0  0
  1 27  1  0  0  0  0
  1 28  1  0  0  0  0
  2 24  1  0  0  0  0
  2  3  1  0  0  0  0
  3  4  2  0  0  0  0
  3  5  1  0  0  0  0
  5  9  1  0  0  0  0
  5  6  2  0  0  0  0
  6  7  1  0  0  0  0
  6 22  1  0  0  0  0
  7  8  2  0  0  0  0
  8  9  1  0  0  0  0
  8 29  1  0  0  0  0
  9 10  1  0  0  0  0
 10 11  1  0  0  0  0
 10 30  1  0  0  0  0
 10 31  1  0  0  0  0
 11 12  1  0  0  0  0
 11 13  1  0  0  0  0
 11 32  1  0  0  0  0
 12 33  1  0  0  0  0
 13 14  1  0  0  0  0
 13 34  1  0  0  0  0
 13 35  1  0  0  0  0
 14 15  1  0  0  0  0
 15 21  1  0  0  0  0
 15 16  2  0  0  0  0
 16 17  1  0  0  0  0
 16 36  1  0  0  0  0
 17 18  2  0  0  0  0
 17 37  1  0  0  0  0
 18 19  1  0  0  0  0
 18 20  1  0  0  0  0
 20 21  2  0  0  0  0
 20 38  1  0  0  0  0
 21 39  1  0  0  0  0
 22 23  1  0  0  0  0
 22 24  1  0  0  0  0
 23 40  1  0  0  0  0
 23 41  1  0  0  0  0
 23 42  1  0  0  0  0
 24 25  2  0  0  0  0
M  END
> <s_m_source_file>
AV-unprocessed.smi

> <i_m_source_file_index>
2192

> <i_lp_mmshare_version>
43012

> <i_f3d_flags>
0

> <s_epik_input>
Tz1jMW4oW0NIM10pYyg9TyluKFtDSDNdKWMoYzEyKW5bY0hdbjJbQ0gyXVtDQEhdKFtPSF0pW0NIMl1PYzNbY0hdW2NIXWMoRilbY0hdW2NIXTM=

> <s_epik_cmdline>
J2VwaWtfcHl0aG9uJywgJy1waCcsICc3LjAnLCAnLXRuJywgJzgnLCAnLW1hJywgJzIwMCcsICctbWV0YWxfYmluZGluZycsICctaW1hZScsICc8aW5maWxlLm1hZT4nLCAnLW9tYWUnLCAnPG91dGZpbGUubWFlPic=

> <r_lp_tautomer_probability>
1

> <r_epik_Ionization_Penalty>
1.0344e-06

> <r_epik_Ionization_Penalty_Charging>
3.2247e-09

> <r_epik_Ionization_Penalty_Neutral>
1.03118e-06

> <r_epik_State_Penalty>
-0

> <r_epik_Charging_Adjusted_Penalty>
3.2247e-09

> <i_epik_Tot_Q>
0

> <i_epik_Tot_abs_Q>
0

> <r_epik_Metal_State_Penalty>
-0

> <b_epik_Metal_Only>
0

> <s_lp_Force_Field>
OPLS_2005

> <r_lp_Energy>
39.8918

> <b_lp_Chiralities_Consistent>
1

> <s_lp_Variant>
AV-unprocessed.smi:2192-2

> <Gold.Version>
5.8.1

> <Gold.Id.Protein>
6NUR|6NUR_protein|mol2

> <Gold.PLP.Fitness>
45.4281

> <Gold.PLP.PLP>
-43.2756

> <Gold.PLP.part.hbond>
-2.3064

> <Gold.PLP.part.metal>
0.0000

> <Gold.PLP.part.buried>
-4.5576

> <Gold.PLP.part.nonpolar>
-36.1935

> <Gold.PLP.part.repulsive>
0.0000

> <Gold.PLP.ligand.clash>
0.0000

> <Gold.PLP.ligand.torsion>
1.2744

> <Gold.PLP.Chemscore.Hbond>
1.5374

> <Gold.PLP.Chemscore.CHOScore>
0.0000

> <Gold.PLP.Chemscore.Metal>
0.0000

> <Gold.Chemscore.Hbonds>
donor molecule, donor type, donor heavy atom, donor atom, acceptor molecule, acceptor atom, score
      P1  H  6931  6943       L1     4  0.75
      P1  H  6934  6947       L1     4  0.26

> <Gold.PLP.Chemscore.Internal.Correction>
0.0890

> <Gold.Rescore>
     Score         DG    S(hbond)    S(metal)    S(lipo)     H(rot)  DE(clash)    DE(int)     intcor
     12.48     -13.73       1.72        0.00      84.41       2.88       0.01       1.24       ----

> <Gold.Chemscore.Fitness>
12.4762

> <Gold.Chemscore.DG>
-13.7256

> <Gold.Chemscore.ZeroCoef>
-5.4800

> <Gold.Chemscore.Hbond>
1.7163

> <Gold.Chemscore.Metal>
0.0000

> <Gold.Chemscore.Lipo>
84.4135

> <Gold.Chemscore.Internal_Hbond>
0.0000

> <Gold.Chemscore.DEClash>
0.0073

> <Gold.Chemscore.DEInternal>
1.2421

> <Gold.Chemscore.Rot>
2.8762

> <Gold.Chemscore.Internal.Correction>
   9.000000E+99

> <Gold.Chemscore.Hbonds>
donor molecule, donor type, donor heavy atom, donor atom, acceptor molecule, acceptor atom, score
      P1  H  6931  6943       L1     4  0.74
      P1  H  6934  6947       L1     4  0.27

> <Gold.Chemscore.Hbond.Weighted>
-5.7324

> <Gold.Chemscore.Metal.Weighted>
-0.0000

> <Gold.Chemscore.Lipo.Weighted>
-9.8764

> <Gold.Chemscore.Internal_Hbond.Weighted>
0.0000

> <Gold.Chemscore.DEClash.Weighted>
0.0073

> <Gold.Chemscore.DEInternal.Weighted>
1.2421

> <Gold.Chemscore.Rot.Weighted>
7.3631

> <Gold.Chemscore.Internal.Correction.Weighted>
   9.000000E+99

> <Gold.Protein.RotatedTorsions>
[ 6907 6896 6895 6894 ] final -117.63 input  -60.11 | X-H torsion
[ 7974 7965 7964 7962 ] final  -33.45 input  175.53 | X-H torsion
[ 8008 7997 7996 7995 ] final  110.12 input   59.86 | X-H torsion
[ 10167 10162 10161 10158 ] final  -62.47 input  -65.29 | X-H torsion
[ 10718 10713 10712 10709 ] final  -25.17 input   66.30 | X-H torsion
[ 10763 10752 10751 10750 ] final   -9.14 input  -60.55 | X-H torsion
[ 11005 11000 10999 10996 ] final  150.62 input  -57.11 | X-H torsion

> <Gold.Protein.ActiveResidues>
 VAL166  LYS551  ARG553  GLY616  TRP617  ASP618  TYR619  PRO620  LYS621  CYS622 
 ASP623  PHE694  ASN695  SER759  ASP760  ASP761  ALA762  ILE779  LEU786  VAL792 
 PHE793  MET794  SER795  GLU796  ALA797  LYS798  CYS799  TRP800  GLU811  SER814 

> <Gold.Protein.RotatedAtoms>
  150.8153  133.8349  159.3163 H   0  0  0  0  0  0  0  0  0  0  0  0  # atno 6907 bound_to 6896
  151.6123  135.1037  160.0093 H   0  0  0  0  0  0  0  0  0  0  0  0  # atno 6908 bound_to 6896
  152.4244  133.7130  159.6546 H   0  0  0  0  0  0  0  0  0  0  0  0  # atno 6909 bound_to 6896
  146.0909  140.5918  142.8864 H   0  0  0  0  0  0  0  0  0  0  0  0  # atno 7974 bound_to 7965
  156.2029  140.3045  155.9566 H   0  0  0  0  0  0  0  0  0  0  0  0  # atno 8008 bound_to 7997
  155.2910  140.0442  157.3040 H   0  0  0  0  0  0  0  0  0  0  0  0  # atno 8009 bound_to 7997
  154.5595  140.2316  155.8366 H   0  0  0  0  0  0  0  0  0  0  0  0  # atno 8010 bound_to 7997
  140.5937  143.2346  151.6083 H   0  0  0  0  0  0  0  0  0  0  0  0  # atno 10167 bound_to 10162
  156.4680  130.4518  149.6887 H   0  0  0  0  0  0  0  0  0  0  0  0  # atno 10718 bound_to 10713
  153.4504  135.7015  153.6112 H   0  0  0  0  0  0  0  0  0  0  0  0  # atno 10763 bound_to 10752
  153.4449  135.3771  155.2250 H   0  0  0  0  0  0  0  0  0  0  0  0  # atno 10764 bound_to 10752
  154.8728  135.3983  154.3916 H   0  0  0  0  0  0  0  0  0  0  0  0  # atno 10765 bound_to 10752
  140.1147  134.8902  157.1987 H   0  0  0  0  0  0  0  0  0  0  0  0  # atno 11005 bound_to 11000
  144.7360  140.4809  143.6903 LP  0  0  0  0  0  0  0  0  0  0  0  0  # atno 17320 bound_to 7965
  145.6040  139.1506  143.3113 LP  0  0  0  0  0  0  0  0  0  0  0  0  # atno 17321 bound_to 7965
  139.5244  144.3105  152.0997 LP  0  0  0  0  0  0  0  0  0  0  0  0  # atno 17342 bound_to 10162
  140.2274  144.4404  150.6315 LP  0  0  0  0  0  0  0  0  0  0  0  0  # atno 17343 bound_to 10162
  156.3648  130.7500  151.2476 LP  0  0  0  0  0  0  0  0  0  0  0  0  # atno 17370 bound_to 10713
  157.7493  131.0340  150.4297 LP  0  0  0  0  0  0  0  0  0  0  0  0  # atno 17371 bound_to 10713
  140.3044  134.3095  155.7282 LP  0  0  0  0  0  0  0  0  0  0  0  0  # atno 17394 bound_to 11000
  141.2138  133.7611  156.9687 LP  0  0  0  0  0  0  0  0  0  0  0  0  # atno 17395 bound_to 11000

$$$$
