AV-unprocessed.smi:232|AV-procd|sdf|1777|dock9
  -GOLD-   2262020323D 1   1.00000     0.00000
 Structure written by MMmdl.
 52 55  0  0  0  0  0  0  0  0  1 V2000
  150.9294  144.8986  158.6800 C   0  0  0  0  0  0  0  0  0  0  0  0
  151.9573  143.8161  158.3288 C   0  0  0  0  0  0  0  0  0  0  0  0
  152.0386  142.6943  159.3848 C   0  0  2  0  0  0  0  0  0  0  0  0
  152.7551  143.1062  160.6794 C   0  0  0  0  0  0  0  0  0  0  0  0
  153.4463  141.8285  161.1711 C   0  0  0  0  0  0  0  0  0  0  0  0
  153.0848  140.7670  160.1262 C   0  0  2  0  0  0  0  0  0  0  0  0
  154.1850  139.7141  159.9135 C   0  0  0  0  0  0  0  0  0  0  0  0
  152.7773  141.5257  158.9203 N   0  0  0  0  0  0  0  0  0  0  0  0
  152.1920  140.8191  157.9254 C   0  0  0  0  0  0  0  0  0  0  0  0
  152.9247  139.9719  157.1547 N   0  0  0  0  0  0  0  0  0  0  0  0
  152.3333  139.2852  156.1720 C   0  0  0  0  0  0  0  0  0  0  0  0
  151.0512  139.2966  155.7987 N   0  0  0  0  0  0  0  0  0  0  0  0
  150.3172  140.1455  156.5746 C   0  0  0  0  0  0  0  0  0  0  0  0
  150.8056  140.9375  157.6502 C   0  0  0  0  0  0  0  0  0  0  0  0
  149.7714  141.6772  158.2092 N   0  0  0  0  0  0  0  0  0  0  0  0
  148.7259  141.3390  157.5041 C   0  0  0  0  0  0  0  0  0  0  0  0
  148.9640  140.4246  156.5028 N   0  0  0  0  0  0  0  0  0  0  0  0
  147.9862  139.8777  155.5794 C   0  0  0  0  0  0  0  0  0  0  0  0
  147.5356  140.9045  154.5215 C   0  0  2  0  0  0  0  0  0  0  0  0
  148.6749  141.5259  153.9574 O   0  0  0  0  0  0  0  0  0  0  0  0
  146.6177  141.9885  155.1164 C   0  0  1  0  0  0  0  0  0  0  0  0
  145.8747  142.8296  154.0760 C   0  0  0  0  0  0  0  0  0  0  0  0
  144.6793  143.3104  154.8655 C   0  0  0  0  0  0  0  0  0  0  0  0
  144.3497  142.0821  155.7069 C   0  0  0  0  0  0  0  0  0  0  0  0
  145.5818  141.3904  155.8936 O   0  0  0  0  0  0  0  0  0  0  0  0
  150.8732  145.6486  157.8909 H   0  0  0  0  0  0  0  0  0  0  0  0
  151.1902  145.4121  159.6057 H   0  0  0  0  0  0  0  0  0  0  0  0
  149.9344  144.4701  158.8027 H   0  0  0  0  0  0  0  0  0  0  0  0
  151.6874  143.3923  157.3609 H   0  0  0  0  0  0  0  0  0  0  0  0
  152.9387  144.2728  158.1958 H   0  0  0  0  0  0  0  0  0  0  0  0
  151.0256  142.3793  159.6422 H   0  0  0  0  0  0  0  0  0  0  0  0
  153.5067  143.8722  160.4834 H   0  0  0  0  0  0  0  0  0  0  0  0
  152.0565  143.5080  161.4140 H   0  0  0  0  0  0  0  0  0  0  0  0
  154.5247  141.9883  161.2099 H   0  0  0  0  0  0  0  0  0  0  0  0
  153.1177  141.5359  162.1688 H   0  0  0  0  0  0  0  0  0  0  0  0
  152.1774  140.2611  160.4607 H   0  0  0  0  0  0  0  0  0  0  0  0
  154.4239  139.2078  160.8486 H   0  0  0  0  0  0  0  0  0  0  0  0
  155.1011  140.1697  159.5363 H   0  0  0  0  0  0  0  0  0  0  0  0
  153.8736  138.9518  159.1989 H   0  0  0  0  0  0  0  0  0  0  0  0
  152.9798  138.6334  155.6033 H   0  0  0  0  0  0  0  0  0  0  0  0
  147.7447  141.7483  157.6969 H   0  0  0  0  0  0  0  0  0  0  0  0
  148.4306  139.0067  155.0964 H   0  0  0  0  0  0  0  0  0  0  0  0
  147.1308  139.5126  156.1494 H   0  0  0  0  0  0  0  0  0  0  0  0
  147.0061  140.3862  153.7208 H   0  0  0  0  0  0  0  0  0  0  0  0
  149.2380  141.8141  154.6596 H   0  0  0  0  0  0  0  0  0  0  0  0
  147.1855  142.6502  155.7732 H   0  0  0  0  0  0  0  0  0  0  0  0
  146.4783  143.6456  153.6777 H   0  0  0  0  0  0  0  0  0  0  0  0
  145.5445  142.2094  153.2412 H   0  0  0  0  0  0  0  0  0  0  0  0
  144.9661  144.1427  155.5098 H   0  0  0  0  0  0  0  0  0  0  0  0
  143.8491  143.6329  154.2367 H   0  0  0  0  0  0  0  0  0  0  0  0
  143.8924  142.3441  156.6613 H   0  0  0  0  0  0  0  0  0  0  0  0
  143.6632  141.4255  155.1713 H   0  0  0  0  0  0  0  0  0  0  0  0
  1  2  1  0  0  0  0
  1 26  1  0  0  0  0
  1 27  1  0  0  0  0
  1 28  1  0  0  0  0
  2  3  1  0  0  0  0
  2 29  1  0  0  0  0
  2 30  1  0  0  0  0
  3  8  1  0  0  0  0
  3  4  1  0  0  0  0
  3 31  1  0  0  0  0
  4  5  1  0  0  0  0
  4 32  1  0  0  0  0
  4 33  1  0  0  0  0
  5  6  1  0  0  0  0
  5 34  1  0  0  0  0
  5 35  1  0  0  0  0
  6  7  1  0  0  0  0
  6  8  1  0  0  0  0
  6 36  1  0  0  0  0
  7 37  1  0  0  0  0
  7 38  1  0  0  0  0
  7 39  1  0  0  0  0
  8  9  1  0  0  0  0
  9 14  1  0  0  0  0
  9 10  2  0  0  0  0
 10 11  1  0  0  0  0
 11 12  2  0  0  0  0
 11 40  1  0  0  0  0
 12 13  1  0  0  0  0
 13 17  1  0  0  0  0
 13 14  2  0  0  0  0
 14 15  1  0  0  0  0
 15 16  2  0  0  0  0
 16 17  1  0  0  0  0
 16 41  1  0  0  0  0
 17 18  1  0  0  0  0
 18 19  1  0  0  0  0
 18 42  1  0  0  0  0
 18 43  1  0  0  0  0
 19 20  1  0  0  0  0
 19 21  1  0  0  0  0
 19 44  1  0  0  0  0
 20 45  1  0  0  0  0
 21 25  1  0  0  0  0
 21 22  1  0  0  0  0
 21 46  1  0  0  0  0
 22 23  1  0  0  0  0
 22 47  1  0  0  0  0
 22 48  1  0  0  0  0
 23 24  1  0  0  0  0
 23 49  1  0  0  0  0
 23 50  1  0  0  0  0
 24 25  1  0  0  0  0
 24 51  1  0  0  0  0
 24 52  1  0  0  0  0
M  END
> <s_m_source_file>
AV-unprocessed.smi

> <i_m_source_file_index>
232

> <i_lp_mmshare_version>
43012

> <i_f3d_flags>
0

> <s_epik_input>
W0NIM11bQ0gyXVtDQEBIXTFbQ0gyXVtDSDJdW0NAQEhdKFtDSDNdKU4xYyhuW2NIXW4yKWMoYzIzKW5bY0hdbjNbQ0gyXVtDQEhdKFtPSF0pW0NAQEhdNFtDSDJdW0NIMl1bQ0gyXU80

> <s_epik_cmdline>
J2VwaWtfcHl0aG9uJywgJy1waCcsICc3LjAnLCAnLXRuJywgJzgnLCAnLW1hJywgJzIwMCcsICctbWV0YWxfYmluZGluZycsICctaW1hZScsICc8aW5maWxlLm1hZT4nLCAnLW9tYWUnLCAnPG91dGZpbGUubWFlPic=

> <r_lp_tautomer_probability>
1

> <r_epik_Ionization_Penalty>
0.00258048

> <r_epik_Ionization_Penalty_Charging>
0

> <r_epik_Ionization_Penalty_Neutral>
0.00258048

> <r_epik_State_Penalty>
0.00168551

> <r_epik_Charging_Adjusted_Penalty>
0.00168551

> <i_epik_Tot_Q>
0

> <i_epik_Tot_abs_Q>
0

> <r_epik_Metal_State_Penalty>
-0

> <b_epik_Metal_Only>
0

> <s_lp_Force_Field>
OPLS_2005

> <r_lp_Energy>
51.1515

> <b_lp_Chiralities_Consistent>
1

> <s_lp_Variant>
AV-unprocessed.smi:232-11

> <Gold.Version>
5.8.1

> <Gold.Id.Protein>
6NUR|6NUR_protein|mol2

> <Gold.PLP.Fitness>
50.9982

> <Gold.PLP.PLP>
-47.8274

> <Gold.PLP.part.hbond>
-2.7286

> <Gold.PLP.part.metal>
0.0000

> <Gold.PLP.part.buried>
-7.1458

> <Gold.PLP.part.nonpolar>
-38.4763

> <Gold.PLP.part.repulsive>
0.1942

> <Gold.PLP.ligand.clash>
0.0366

> <Gold.PLP.ligand.torsion>
0.9211

> <Gold.PLP.Chemscore.Hbond>
1.6560

> <Gold.PLP.Chemscore.CHOScore>
0.0000

> <Gold.PLP.Chemscore.Metal>
0.0000

> <Gold.Chemscore.Hbonds>
donor molecule, donor type, donor heavy atom, donor atom, acceptor molecule, acceptor atom, score
      P1  H  7997  8008       L1    10  1.00
      P1  H  8011  8017       L1    20  0.38

> <Gold.PLP.Chemscore.Internal.Correction>
0.0815

> <Gold.Rescore>
     Score         DG    S(hbond)    S(metal)    S(lipo)     H(rot)  DE(clash)    DE(int)     intcor
     12.91     -16.17       1.11        0.00     112.72       2.43       0.11       3.16       ----

> <Gold.Chemscore.Fitness>
12.9081

> <Gold.Chemscore.DG>
-16.1727

> <Gold.Chemscore.ZeroCoef>
-5.4800

> <Gold.Chemscore.Hbond>
1.1125

> <Gold.Chemscore.Metal>
0.0000

> <Gold.Chemscore.Lipo>
112.7155

> <Gold.Chemscore.Internal_Hbond>
0.0000

> <Gold.Chemscore.DEClash>
0.1055

> <Gold.Chemscore.DEInternal>
3.1591

> <Gold.Chemscore.Rot>
2.4260

> <Gold.Chemscore.Internal.Correction>
   9.000000E+99

> <Gold.Chemscore.Hbonds>
donor molecule, donor type, donor heavy atom, donor atom, acceptor molecule, acceptor atom, score
      P1  H  7997  8008       L1    10  0.52
      P1  H  8011  8017       L1    20  0.06

> <Gold.Chemscore.Hbond.Weighted>
-3.7157

> <Gold.Chemscore.Metal.Weighted>
-0.0000

> <Gold.Chemscore.Lipo.Weighted>
-13.1877

> <Gold.Chemscore.Internal_Hbond.Weighted>
0.0000

> <Gold.Chemscore.DEClash.Weighted>
0.1055

> <Gold.Chemscore.DEInternal.Weighted>
3.1591

> <Gold.Chemscore.Rot.Weighted>
6.2107

> <Gold.Chemscore.Internal.Correction.Weighted>
   9.000000E+99

> <Gold.Protein.RotatedTorsions>
[ 6907 6896 6895 6894 ] final   14.34 input  -60.11 | X-H torsion
[ 7974 7965 7964 7962 ] final -139.69 input  175.53 | X-H torsion
[ 8008 7997 7996 7995 ] final  -67.74 input   59.86 | X-H torsion
[ 10167 10162 10161 10158 ] final  -32.82 input  -65.29 | X-H torsion
[ 10718 10713 10712 10709 ] final -159.65 input   66.30 | X-H torsion
[ 10763 10752 10751 10750 ] final   38.23 input  -60.55 | X-H torsion
[ 11005 11000 10999 10996 ] final    1.10 input  -57.11 | X-H torsion

> <Gold.Protein.ActiveResidues>
 VAL166  LYS551  ARG553  GLY616  TRP617  ASP618  TYR619  PRO620  LYS621  CYS622 
 ASP623  PHE694  ASN695  SER759  ASP760  ASP761  ALA762  ILE779  LEU786  VAL792 
 PHE793  MET794  SER795  GLU796  ALA797  LYS798  CYS799  TRP800  GLU811  SER814 

> <Gold.Protein.RotatedAtoms>
  151.8007  135.0710  160.0399 H   0  0  0  0  0  0  0  0  0  0  0  0  # atno 6907 bound_to 6896
  152.3091  133.5730  159.5677 H   0  0  0  0  0  0  0  0  0  0  0  0  # atno 6908 bound_to 6896
  150.7311  134.0095  159.3707 H   0  0  0  0  0  0  0  0  0  0  0  0  # atno 6909 bound_to 6896
  144.8657  140.6289  143.5299 H   0  0  0  0  0  0  0  0  0  0  0  0  # atno 7974 bound_to 7965
  154.4820  140.0886  156.7400 H   0  0  0  0  0  0  0  0  0  0  0  0  # atno 8008 bound_to 7997
  155.4446  140.3455  155.4275 H   0  0  0  0  0  0  0  0  0  0  0  0  # atno 8009 bound_to 7997
  156.1206  140.1473  156.9198 H   0  0  0  0  0  0  0  0  0  0  0  0  # atno 8010 bound_to 7997
  140.7215  143.3666  151.1859 H   0  0  0  0  0  0  0  0  0  0  0  0  # atno 10167 bound_to 10162
  156.5711  130.8688  151.2838 H   0  0  0  0  0  0  0  0  0  0  0  0  # atno 10718 bound_to 10713
  153.0008  135.6255  154.2271 H   0  0  0  0  0  0  0  0  0  0  0  0  # atno 10763 bound_to 10752
  154.2013  135.2804  155.2991 H   0  0  0  0  0  0  0  0  0  0  0  0  # atno 10764 bound_to 10752
  154.5681  135.5685  153.7128 H   0  0  0  0  0  0  0  0  0  0  0  0  # atno 10765 bound_to 10752
  140.6192  133.9677  155.8216 H   0  0  0  0  0  0  0  0  0  0  0  0  # atno 11005 bound_to 11000
  145.4227  139.1561  143.4065 LP  0  0  0  0  0  0  0  0  0  0  0  0  # atno 17320 bound_to 7965
  146.2894  140.4338  142.8745 LP  0  0  0  0  0  0  0  0  0  0  0  0  # atno 17321 bound_to 7965
  139.7229  143.9195  152.2992 LP  0  0  0  0  0  0  0  0  0  0  0  0  # atno 17342 bound_to 10162
  139.8958  144.6940  150.8720 LP  0  0  0  0  0  0  0  0  0  0  0  0  # atno 17343 bound_to 10162
  157.7348  130.9752  150.2048 LP  0  0  0  0  0  0  0  0  0  0  0  0  # atno 17370 bound_to 10713
  156.2714  130.3722  149.8027 LP  0  0  0  0  0  0  0  0  0  0  0  0  # atno 17371 bound_to 10713
  141.0754  134.0142  157.3465 LP  0  0  0  0  0  0  0  0  0  0  0  0  # atno 17394 bound_to 11000
  139.9160  135.0197  156.7884 LP  0  0  0  0  0  0  0  0  0  0  0  0  # atno 17395 bound_to 11000

$$$$
