AV-unprocessed.smi:101|AV-procd|sdf|913|dock4
  -GOLD-   2262017413D 1   1.00000     0.00000
 Structure written by MMmdl.
 44 46  0  0  0  0  0  0  0  0  1 V2000
  145.2585  144.9996  153.3766 C   0  0  0  0  0  0  0  0  0  0  0  0
  145.3178  143.8833  154.4070 C   0  0  0  0  0  0  0  0  0  0  0  0
  145.8912  142.6809  154.1448 C   0  0  0  0  0  0  0  0  0  0  0  0
  145.9590  141.6373  155.0639 N   0  0  0  0  0  0  0  0  0  0  0  0
  146.6377  140.3109  154.7547 C   0  0  2  0  0  0  0  0  0  0  0  0
  147.8668  140.2595  155.4138 O   0  0  0  0  0  0  0  0  0  0  0  0
  148.8859  140.7104  154.5303 C   0  0  1  0  0  0  0  0  0  0  0  0
  150.2788  140.3933  155.0875 C   0  0  0  0  0  0  0  0  0  0  0  0
  150.5446  141.3297  156.1177 O   0  0  0  0  0  0  0  0  0  0  0  0
  151.5703  141.1433  156.9657 C   0  0  0  0  0  0  0  0  0  0  0  0
  152.2837  140.1383  156.9654 O   0  0  0  0  0  0  0  0  0  0  0  0
  151.7493  142.2861  157.9075 C   0  0  0  0  0  0  0  0  0  0  0  0
  151.3623  143.5853  157.5049 C   0  0  0  0  0  0  0  0  0  0  0  0
  151.5221  144.6825  158.3737 C   0  0  0  0  0  0  0  0  0  0  0  0
  152.0712  144.4937  159.6555 C   0  0  0  0  0  0  0  0  0  0  0  0
  152.4607  143.2061  160.0680 C   0  0  0  0  0  0  0  0  0  0  0  0
  152.3013  142.1079  159.2009 C   0  0  0  0  0  0  0  0  0  0  0  0
  148.4878  140.0245  153.2239 C   0  0  1  0  0  0  0  0  0  0  0  0
  148.9153  138.6715  153.2286 O   0  0  0  0  0  0  0  0  0  0  0  0
  146.9641  140.1775  153.2455 C   0  0  1  0  0  0  0  0  0  0  0  0
  146.2940  139.1010  152.6167 O   0  0  0  0  0  0  0  0  0  0  0  0
  145.4632  141.8449  156.3684 C   0  0  0  0  0  0  0  0  0  0  0  0
  145.5412  140.9938  157.2535 O   0  0  0  0  0  0  0  0  0  0  0  0
  144.8666  143.0754  156.6353 N   0  0  0  0  0  0  0  0  0  0  0  0
  144.7422  144.1319  155.7307 C   0  0  0  0  0  0  0  0  0  0  0  0
  144.1860  145.1709  156.0825 O   0  0  0  0  0  0  0  0  0  0  0  0
  144.4985  143.2186  157.5643 H   0  0  0  0  0  0  0  0  0  0  0  0
  145.7257  144.7099  152.4349 H   0  0  0  0  0  0  0  0  0  0  0  0
  145.7751  145.8862  153.7456 H   0  0  0  0  0  0  0  0  0  0  0  0
  144.2231  145.2692  153.1658 H   0  0  0  0  0  0  0  0  0  0  0  0
  146.3159  142.5536  153.1607 H   0  0  0  0  0  0  0  0  0  0  0  0
  145.9670  139.5458  155.1505 H   0  0  0  0  0  0  0  0  0  0  0  0
  148.7936  141.7895  154.3905 H   0  0  0  0  0  0  0  0  0  0  0  0
  150.3247  139.3713  155.4665 H   0  0  0  0  0  0  0  0  0  0  0  0
  151.0321  140.4977  154.3056 H   0  0  0  0  0  0  0  0  0  0  0  0
  150.9390  143.7549  156.5252 H   0  0  0  0  0  0  0  0  0  0  0  0
  151.2231  145.6704  158.0556 H   0  0  0  0  0  0  0  0  0  0  0  0
  152.1936  145.3353  160.3211 H   0  0  0  0  0  0  0  0  0  0  0  0
  152.8827  143.0594  161.0513 H   0  0  0  0  0  0  0  0  0  0  0  0
  152.6111  141.1336  159.5498 H   0  0  0  0  0  0  0  0  0  0  0  0
  148.9288  140.5179  152.3571 H   0  0  0  0  0  0  0  0  0  0  0  0
  149.3271  138.4814  152.3998 H   0  0  0  0  0  0  0  0  0  0  0  0
  146.6988  141.1034  152.7328 H   0  0  0  0  0  0  0  0  0  0  0  0
  145.4124  139.3760  152.4149 H   0  0  0  0  0  0  0  0  0  0  0  0
  1  2  1  0  0  0  0
  1 28  1  0  0  0  0
  1 29  1  0  0  0  0
  1 30  1  0  0  0  0
  2 25  1  0  0  0  0
  2  3  2  0  0  0  0
  3  4  1  0  0  0  0
  3 31  1  0  0  0  0
  4  5  1  0  0  0  0
  4 22  1  0  0  0  0
  5 20  1  0  0  0  0
  5  6  1  0  0  0  0
  5 32  1  0  0  0  0
  6  7  1  0  0  0  0
  7  8  1  0  0  0  0
  7 18  1  0  0  0  0
  7 33  1  0  0  0  0
  8  9  1  0  0  0  0
  8 34  1  0  0  0  0
  8 35  1  0  0  0  0
  9 10  1  0  0  0  0
 10 11  2  0  0  0  0
 10 12  1  0  0  0  0
 12 17  1  0  0  0  0
 12 13  2  0  0  0  0
 13 14  1  0  0  0  0
 13 36  1  0  0  0  0
 14 15  2  0  0  0  0
 14 37  1  0  0  0  0
 15 16  1  0  0  0  0
 15 38  1  0  0  0  0
 16 17  2  0  0  0  0
 16 39  1  0  0  0  0
 17 40  1  0  0  0  0
 18 19  1  0  0  0  0
 18 20  1  0  0  0  0
 18 41  1  0  0  0  0
 19 42  1  0  0  0  0
 20 21  1  0  0  0  0
 20 43  1  0  0  0  0
 21 44  1  0  0  0  0
 22 23  2  0  0  0  0
 22 24  1  0  0  0  0
 24 27  1  0  0  0  0
 24 25  1  0  0  0  0
 25 26  2  0  0  0  0
M  END
> <s_m_source_file>
AV-unprocessed.smi

> <i_m_source_file_index>
101

> <i_lp_mmshare_version>
43012

> <i_f3d_flags>
0

> <s_epik_input>
Tz1jMVtuSF1jKD1PKW4oW2NIXWMxW0NIM10pW0NAQEhdMk9bQ0BIXShbQ0BASF0oW09IXSlbQ0BIXTJbT0hdKVtDSDJdT0MoPU8pYzNbY0hdW2NIXVtjSF1bY0hdW2NIXTM=

> <s_epik_cmdline>
J2VwaWtfcHl0aG9uJywgJy1waCcsICc3LjAnLCAnLXRuJywgJzgnLCAnLW1hJywgJzIwMCcsICctbWV0YWxfYmluZGluZycsICctaW1hZScsICc8aW5maWxlLm1hZT4nLCAnLW9tYWUnLCAnPG91dGZpbGUubWFlPic=

> <r_lp_tautomer_probability>
0.999537

> <r_epik_Ionization_Penalty>
0.00263537

> <r_epik_Ionization_Penalty_Charging>
0.00263428

> <r_epik_Ionization_Penalty_Neutral>
1.09111e-06

> <r_epik_State_Penalty>
0.00183335

> <r_epik_Charging_Adjusted_Penalty>
0.00446763

> <i_epik_Tot_Q>
0

> <i_epik_Tot_abs_Q>
0

> <r_epik_Metal_State_Penalty>
1.00528

> <b_epik_Metal_Only>
0

> <s_epik_Chemistry_Notes>
This compound has an ester and may undergo hydrolysis at high or low pH. This compound contains an acetal/aminal-like group ( X-CH(R)-Y where X, Y are N, S, or O) that may be acid/base labile, releasing an aldehyde.

> <s_lp_Force_Field>
OPLS_2005

> <r_lp_Energy>
35.8118

> <b_lp_Chiralities_Consistent>
1

> <s_lp_Variant>
AV-unprocessed.smi:101-1

> <Gold.Version>
5.8.1

> <Gold.Id.Protein>
6NUR|6NUR_protein|mol2

> <Gold.PLP.Fitness>
49.8653

> <Gold.PLP.PLP>
-44.4449

> <Gold.PLP.part.hbond>
-3.9908

> <Gold.PLP.part.metal>
0.0000

> <Gold.PLP.part.buried>
-1.0343

> <Gold.PLP.part.nonpolar>
-39.1181

> <Gold.PLP.part.repulsive>
0.1674

> <Gold.PLP.ligand.clash>
0.0000

> <Gold.PLP.ligand.torsion>
0.7418

> <Gold.PLP.Chemscore.Hbond>
2.2690

> <Gold.PLP.Chemscore.CHOScore>
0.0000

> <Gold.PLP.Chemscore.Metal>
0.0000

> <Gold.Chemscore.Hbonds>
donor molecule, donor type, donor heavy atom, donor atom, acceptor molecule, acceptor atom, score
      L1  H    19    42       P1  7957  0.35
      L1  H    21    44       P1 10175  0.98
      P1  H  7997  8008       L1    11  0.81

> <Gold.PLP.Chemscore.Internal.Correction>
0.0971

> <Gold.Rescore>
     Score         DG    S(hbond)    S(metal)    S(lipo)     H(rot)  DE(clash)    DE(int)     intcor
     13.95     -18.48       2.35        0.00     116.69       3.32       2.99       1.54       ----

> <Gold.Chemscore.Fitness>
13.9527

> <Gold.Chemscore.DG>
-18.4807

> <Gold.Chemscore.ZeroCoef>
-5.4800

> <Gold.Chemscore.Hbond>
2.3475

> <Gold.Chemscore.Metal>
0.0000

> <Gold.Chemscore.Lipo>
116.6856

> <Gold.Chemscore.Internal_Hbond>
0.0000

> <Gold.Chemscore.DEClash>
2.9876

> <Gold.Chemscore.DEInternal>
1.5403

> <Gold.Chemscore.Rot>
3.3172

> <Gold.Chemscore.Internal.Correction>
   9.000000E+99

> <Gold.Chemscore.Hbonds>
donor molecule, donor type, donor heavy atom, donor atom, acceptor molecule, acceptor atom, score
      L1  H    19    42       P1  7957  0.19
      L1  H    21    44       P1 10175  0.91
      P1  H  7997  8008       L1    11  0.79

> <Gold.Chemscore.Hbond.Weighted>
-7.8405

> <Gold.Chemscore.Metal.Weighted>
-0.0000

> <Gold.Chemscore.Lipo.Weighted>
-13.6522

> <Gold.Chemscore.Internal_Hbond.Weighted>
0.0000

> <Gold.Chemscore.DEClash.Weighted>
2.9876

> <Gold.Chemscore.DEInternal.Weighted>
1.5403

> <Gold.Chemscore.Rot.Weighted>
8.4920

> <Gold.Chemscore.Internal.Correction.Weighted>
   9.000000E+99

> <Gold.Protein.RotatedTorsions>
[ 6907 6896 6895 6894 ] final   35.16 input  -60.11 | X-H torsion
[ 7974 7965 7964 7962 ] final   34.45 input  175.53 | X-H torsion
[ 8008 7997 7996 7995 ] final  -53.07 input   59.86 | X-H torsion
[ 10167 10162 10161 10158 ] final   67.92 input  -65.29 | X-H torsion
[ 10718 10713 10712 10709 ] final  -61.65 input   66.30 | X-H torsion
[ 10763 10752 10751 10750 ] final  176.20 input  -60.55 | X-H torsion
[ 11005 11000 10999 10996 ] final   96.97 input  -57.11 | X-H torsion

> <Gold.Protein.ActiveResidues>
 VAL166  LYS551  ARG553  GLY616  TRP617  ASP618  TYR619  PRO620  LYS621  CYS622 
 ASP623  PHE694  ASN695  SER759  ASP760  ASP761  ALA762  ILE779  LEU786  VAL792 
 PHE793  MET794  SER795  GLU796  ALA797  LYS798  CYS799  TRP800  GLU811  SER814 

> <Gold.Protein.RotatedAtoms>
  152.1123  134.9266  160.0565 H   0  0  0  0  0  0  0  0  0  0  0  0  # atno 6907 bound_to 6896
  152.0439  133.3984  159.4356 H   0  0  0  0  0  0  0  0  0  0  0  0  # atno 6908 bound_to 6896
  150.6844  134.3305  159.4868 H   0  0  0  0  0  0  0  0  0  0  0  0  # atno 6909 bound_to 6896
  146.1352  139.6267  142.9200 H   0  0  0  0  0  0  0  0  0  0  0  0  # atno 7974 bound_to 7965
  154.4123  140.1209  156.5094 H   0  0  0  0  0  0  0  0  0  0  0  0  # atno 8008 bound_to 7997
  155.6815  140.3496  155.4837 H   0  0  0  0  0  0  0  0  0  0  0  0  # atno 8009 bound_to 7997
  155.9548  140.1111  157.0936 H   0  0  0  0  0  0  0  0  0  0  0  0  # atno 8010 bound_to 7997
  140.0843  144.5043  150.7141 H   0  0  0  0  0  0  0  0  0  0  0  0  # atno 10167 bound_to 10162
  156.0907  130.4200  150.1024 H   0  0  0  0  0  0  0  0  0  0  0  0  # atno 10718 bound_to 10713
  154.4779  135.2773  155.1593 H   0  0  0  0  0  0  0  0  0  0  0  0  # atno 10763 bound_to 10752
  154.3316  135.6189  153.5557 H   0  0  0  0  0  0  0  0  0  0  0  0  # atno 10764 bound_to 10752
  152.9871  135.5767  154.5173 H   0  0  0  0  0  0  0  0  0  0  0  0  # atno 10765 bound_to 10752
  139.8778  134.8978  156.4238 H   0  0  0  0  0  0  0  0  0  0  0  0  # atno 11005 bound_to 11000
  145.5173  141.0433  143.2455 LP  0  0  0  0  0  0  0  0  0  0  0  0  # atno 17320 bound_to 7965
  144.7732  139.6689  143.7186 LP  0  0  0  0  0  0  0  0  0  0  0  0  # atno 17321 bound_to 7965
  140.7061  143.2469  151.4721 LP  0  0  0  0  0  0  0  0  0  0  0  0  # atno 17342 bound_to 10162
  139.5761  144.1815  152.1905 LP  0  0  0  0  0  0  0  0  0  0  0  0  # atno 17343 bound_to 10162
  156.9034  130.9628  151.3573 LP  0  0  0  0  0  0  0  0  0  0  0  0  # atno 17370 bound_to 10713
  157.6056  130.8544  149.8869 LP  0  0  0  0  0  0  0  0  0  0  0  0  # atno 17371 bound_to 10713
  140.9115  133.7708  155.9797 LP  0  0  0  0  0  0  0  0  0  0  0  0  # atno 17394 bound_to 11000
  140.8541  134.2919  157.5263 LP  0  0  0  0  0  0  0  0  0  0  0  0  # atno 17395 bound_to 11000

$$$$
