AV-unprocessed.smi:221|AV-procd|sdf|1698|dock4
  -GOLD-   2262020153D 1   1.00000     0.00000
 Structure written by MMmdl.
 50 53  0  0  0  0  0  0  0  0  1 V2000
  141.9744  134.2505  154.3426 N   0  0  0  0  0  0  0  0  0  0  0  0
  142.1180  135.1094  153.3308 C   0  0  0  0  0  0  0  0  0  0  0  0
  141.5153  136.1808  153.2924 O   0  0  0  0  0  0  0  0  0  0  0  0
  143.0937  134.7067  152.2154 C   0  0  2  0  0  0  0  0  0  0  0  0
  142.8178  133.2894  151.6958 C   0  0  0  0  0  0  0  0  0  0  0  0
  144.1605  132.8716  151.1074 C   0  0  1  0  0  0  0  0  0  0  0  0
  144.2927  133.3879  149.8845 F   0  0  0  0  0  0  0  0  0  0  0  0
  145.1724  133.5257  152.0500 C   0  0  0  0  0  0  0  0  0  0  0  0
  144.4802  134.6452  152.6848 N   0  0  0  0  0  0  0  0  0  0  0  0
  145.1463  135.8218  152.6977 C   0  0  0  0  0  0  0  0  0  0  0  0
  145.2695  136.5466  151.5545 N   0  0  0  0  0  0  0  0  0  0  0  0
  145.9219  137.7130  151.5731 C   0  0  0  0  0  0  0  0  0  0  0  0
  146.5130  138.3230  152.6030 N   0  0  0  0  0  0  0  0  0  0  0  0
  146.3893  137.5939  153.7496 C   0  0  0  0  0  0  0  0  0  0  0  0
  145.7257  136.3431  153.8832 C   0  0  0  0  0  0  0  0  0  0  0  0
  145.8000  135.8993  155.1972 N   0  0  0  0  0  0  0  0  0  0  0  0
  146.4722  136.8364  155.8085 C   0  0  0  0  0  0  0  0  0  0  0  0
  146.8726  137.8866  155.0129 N   0  0  0  0  0  0  0  0  0  0  0  0
  147.6359  139.0490  155.4326 C   0  0  0  0  0  0  0  0  0  0  0  0
  148.9739  139.2080  154.6684 C   0  0  1  0  0  0  0  0  0  0  0  0
  149.4536  140.6787  154.5984 C   0  0  0  0  0  0  0  0  0  0  0  0
  149.1587  141.2593  153.3444 O   0  0  0  0  0  0  0  0  0  0  0  0
  150.0678  138.2631  155.2268 C   0  0  1  0  0  0  0  0  0  0  0  0
  149.6360  136.8182  155.4056 C   0  0  0  0  0  0  0  0  0  0  0  0
  150.9753  136.0967  155.4998 C   0  0  0  0  0  0  0  0  0  0  0  0
  151.8544  136.8166  154.6435 O   0  0  0  0  0  0  0  0  0  0  0  0
  151.2855  138.0805  154.3134 C   0  0  0  0  0  0  0  0  0  0  0  0
  143.0104  135.4122  151.3858 H   0  0  0  0  0  0  0  0  0  0  0  0
  144.2822  131.7914  151.0239 H   0  0  0  0  0  0  0  0  0  0  0  0
  141.3430  134.4701  155.0993 H   0  0  0  0  0  0  0  0  0  0  0  0
  142.4948  133.3853  154.3481 H   0  0  0  0  0  0  0  0  0  0  0  0
  142.5555  132.6174  152.5153 H   0  0  0  0  0  0  0  0  0  0  0  0
  142.0094  133.2567  150.9647 H   0  0  0  0  0  0  0  0  0  0  0  0
  145.4515  132.8261  152.8384 H   0  0  0  0  0  0  0  0  0  0  0  0
  146.0903  133.8048  151.5291 H   0  0  0  0  0  0  0  0  0  0  0  0
  145.9775  138.2322  150.6278 H   0  0  0  0  0  0  0  0  0  0  0  0
  146.7021  136.7847  156.8629 H   0  0  0  0  0  0  0  0  0  0  0  0
  147.0183  139.9386  155.3032 H   0  0  0  0  0  0  0  0  0  0  0  0
  147.8153  138.9531  156.5037 H   0  0  0  0  0  0  0  0  0  0  0  0
  148.7828  138.9018  153.6388 H   0  0  0  0  0  0  0  0  0  0  0  0
  148.9836  141.2781  155.3778 H   0  0  0  0  0  0  0  0  0  0  0  0
  150.5269  140.7510  154.7738 H   0  0  0  0  0  0  0  0  0  0  0  0
  149.0159  140.5668  152.7175 H   0  0  0  0  0  0  0  0  0  0  0  0
  150.4122  138.6349  156.1935 H   0  0  0  0  0  0  0  0  0  0  0  0
  149.0160  136.6589  156.2882 H   0  0  0  0  0  0  0  0  0  0  0  0
  149.0841  136.4715  154.5305 H   0  0  0  0  0  0  0  0  0  0  0  0
  151.3634  136.1480  156.5179 H   0  0  0  0  0  0  0  0  0  0  0  0
  150.9075  135.0467  155.2149 H   0  0  0  0  0  0  0  0  0  0  0  0
  150.9841  138.0523  153.2654 H   0  0  0  0  0  0  0  0  0  0  0  0
  152.0163  138.8806  154.4314 H   0  0  0  0  0  0  0  0  0  0  0  0
  1  2  1  0  0  0  0
  1 30  1  0  0  0  0
  1 31  1  0  0  0  0
  2  3  2  0  0  0  0
  2  4  1  0  0  0  0
  4 28  1  0  0  0  0
  4  9  1  0  0  0  0
  4  5  1  0  0  0  0
  5  6  1  0  0  0  0
  5 32  1  0  0  0  0
  5 33  1  0  0  0  0
  6 29  1  0  0  0  0
  6  7  1  0  0  0  0
  6  8  1  0  0  0  0
  8  9  1  0  0  0  0
  8 34  1  0  0  0  0
  8 35  1  0  0  0  0
  9 10  1  0  0  0  0
 10 15  1  0  0  0  0
 10 11  2  0  0  0  0
 11 12  1  0  0  0  0
 12 13  2  0  0  0  0
 12 36  1  0  0  0  0
 13 14  1  0  0  0  0
 14 18  1  0  0  0  0
 14 15  2  0  0  0  0
 15 16  1  0  0  0  0
 16 17  2  0  0  0  0
 17 18  1  0  0  0  0
 17 37  1  0  0  0  0
 18 19  1  0  0  0  0
 19 20  1  0  0  0  0
 19 38  1  0  0  0  0
 19 39  1  0  0  0  0
 20 21  1  0  0  0  0
 20 23  1  0  0  0  0
 20 40  1  0  0  0  0
 21 22  1  0  0  0  0
 21 41  1  0  0  0  0
 21 42  1  0  0  0  0
 22 43  1  0  0  0  0
 23 27  1  0  0  0  0
 23 24  1  0  0  0  0
 23 44  1  0  0  0  0
 24 25  1  0  0  0  0
 24 45  1  0  0  0  0
 24 46  1  0  0  0  0
 25 26  1  0  0  0  0
 25 47  1  0  0  0  0
 25 48  1  0  0  0  0
 26 27  1  0  0  0  0
 27 49  1  0  0  0  0
 27 50  1  0  0  0  0
M  END
> <s_m_source_file>
AV-unprocessed.smi

> <i_m_source_file_index>
221

> <i_lp_mmshare_version>
43012

> <i_f3d_flags>
0

> <s_epik_input>
W05IMl1DKD1PKVtDQEBIXTFbQ0gyXVtDQEBIXShGKVtDSDJdTjFjKG5bY0hdbjIpYyhjMjMpbltjSF1uM1tDSDJdW0NASF0oW0NIMl1bT0hdKVtDQEBIXTRbQ0gyXVtDSDJdT1tDSDJdNA==

> <s_epik_cmdline>
J2VwaWtfcHl0aG9uJywgJy1waCcsICc3LjAnLCAnLXRuJywgJzgnLCAnLW1hJywgJzIwMCcsICctbWV0YWxfYmluZGluZycsICctaW1hZScsICc8aW5maWxlLm1hZT4nLCAnLW9tYWUnLCAnPG91dGZpbGUubWFlPic=

> <r_lp_tautomer_probability>
1

> <r_epik_Ionization_Penalty>
0.000818822

> <r_epik_Ionization_Penalty_Charging>
0

> <r_epik_Ionization_Penalty_Neutral>
0.000818822

> <r_epik_State_Penalty>
0.000440551

> <r_epik_Charging_Adjusted_Penalty>
0.000440551

> <i_epik_Tot_Q>
0

> <i_epik_Tot_abs_Q>
0

> <r_epik_Metal_State_Penalty>
-0

> <b_epik_Metal_Only>
0

> <s_lp_Force_Field>
OPLS_2005

> <r_lp_Energy>
50.4935

> <b_lp_Chiralities_Consistent>
1

> <s_lp_Variant>
AV-unprocessed.smi:221-13

> <Gold.Version>
5.8.1

> <Gold.Id.Protein>
6NUR|6NUR_protein|mol2

> <Gold.PLP.Fitness>
48.8730

> <Gold.PLP.PLP>
-34.9579

> <Gold.PLP.part.hbond>
-5.9559

> <Gold.PLP.part.metal>
0.0000

> <Gold.PLP.part.buried>
-3.5069

> <Gold.PLP.part.nonpolar>
-27.2509

> <Gold.PLP.part.repulsive>
1.4054

> <Gold.PLP.ligand.clash>
0.0000

> <Gold.PLP.ligand.torsion>
1.2756

> <Gold.PLP.Chemscore.Hbond>
4.8160

> <Gold.PLP.Chemscore.CHOScore>
0.5963

> <Gold.PLP.Chemscore.Metal>
0.0000

> <Gold.Chemscore.Hbonds>
donor molecule, donor type, donor heavy atom, donor atom, acceptor molecule, acceptor atom, score
      L1  H     1    30       P1 11000  1.00
      L1  H     1    31       P1 10957  1.00
      L1  H    22    43       P1  7957  0.78
      P1  H  8011  8017       L1    22  0.95
      P1  H 10752 10764       L1    26  1.00
      L1  C    12    36       P1 10171  0.62

> <Gold.PLP.Chemscore.Internal.Correction>
0.2294

> <Gold.Rescore>
     Score         DG    S(hbond)    S(metal)    S(lipo)     H(rot)  DE(clash)    DE(int)     intcor
     13.37     -16.94       4.16        0.00      60.63       3.72       1.17       2.40       ----

> <Gold.Chemscore.Fitness>
13.3653

> <Gold.Chemscore.DG>
-16.9371

> <Gold.Chemscore.ZeroCoef>
-5.4800

> <Gold.Chemscore.Hbond>
4.1578

> <Gold.Chemscore.Metal>
0.0000

> <Gold.Chemscore.Lipo>
60.6315

> <Gold.Chemscore.Internal_Hbond>
0.0000

> <Gold.Chemscore.DEClash>
1.1670

> <Gold.Chemscore.DEInternal>
2.4047

> <Gold.Chemscore.Rot>
3.7202

> <Gold.Chemscore.Internal.Correction>
   9.000000E+99

> <Gold.Chemscore.Hbonds>
donor molecule, donor type, donor heavy atom, donor atom, acceptor molecule, acceptor atom, score
      L1  H     1    30       P1 11000  0.93
      L1  H     1    31       P1 10957  0.94
      L1  H    22    43       P1  7957  0.78
      P1  H  8011  8017       L1    22  0.21
      P1  H 10752 10764       L1    26  0.29

> <Gold.Chemscore.Hbond.Weighted>
-13.8869

> <Gold.Chemscore.Metal.Weighted>
-0.0000

> <Gold.Chemscore.Lipo.Weighted>
-7.0939

> <Gold.Chemscore.Internal_Hbond.Weighted>
0.0000

> <Gold.Chemscore.DEClash.Weighted>
1.1670

> <Gold.Chemscore.DEInternal.Weighted>
2.4047

> <Gold.Chemscore.Rot.Weighted>
9.5237

> <Gold.Chemscore.Internal.Correction.Weighted>
   9.000000E+99

> <Gold.Protein.RotatedTorsions>
[ 6907 6896 6895 6894 ] final  -50.88 input  -60.11 | X-H torsion
[ 7974 7965 7964 7962 ] final  107.85 input  175.53 | X-H torsion
[ 8008 7997 7996 7995 ] final  -36.99 input   59.86 | X-H torsion
[ 10167 10162 10161 10158 ] final   66.90 input  -65.29 | X-H torsion
[ 10718 10713 10712 10709 ] final  -68.15 input   66.30 | X-H torsion
[ 10763 10752 10751 10750 ] final  -79.35 input  -60.55 | X-H torsion
[ 11005 11000 10999 10996 ] final -159.28 input  -57.11 | X-H torsion

> <Gold.Protein.ActiveResidues>
 VAL166  LYS551  ARG553  GLY616  TRP617  ASP618  TYR619  PRO620  LYS621  CYS622 
 ASP623  PHE694  ASN695  SER759  ASP760  ASP761  ALA762  ILE779  LEU786  VAL792 
 PHE793  MET794  SER795  GLU796  ALA797  LYS798  CYS799  TRP800  GLU811  SER814 

> <Gold.Protein.RotatedAtoms>
  150.8664  134.8028  159.7121 H   0  0  0  0  0  0  0  0  0  0  0  0  # atno 6907 bound_to 6896
  152.4684  134.5017  159.9736 H   0  0  0  0  0  0  0  0  0  0  0  0  # atno 6908 bound_to 6896
  151.5112  133.3446  159.2921 H   0  0  0  0  0  0  0  0  0  0  0  0  # atno 6909 bound_to 6896
  145.2883  139.2609  143.3878 H   0  0  0  0  0  0  0  0  0  0  0  0  # atno 7974 bound_to 7965
  154.4062  140.1616  156.2463 H   0  0  0  0  0  0  0  0  0  0  0  0  # atno 8008 bound_to 7997
  155.9157  140.3424  155.6111 H   0  0  0  0  0  0  0  0  0  0  0  0  # atno 8009 bound_to 7997
  155.7282  140.0777  157.2291 H   0  0  0  0  0  0  0  0  0  0  0  0  # atno 8010 bound_to 7997
  140.0953  144.4951  150.7072 H   0  0  0  0  0  0  0  0  0  0  0  0  # atno 10167 bound_to 10162
  156.0520  130.4290  150.1958 H   0  0  0  0  0  0  0  0  0  0  0  0  # atno 10718 bound_to 10713
  154.5375  135.5698  153.6811 H   0  0  0  0  0  0  0  0  0  0  0  0  # atno 10763 bound_to 10752
  152.9955  135.6219  154.2547 H   0  0  0  0  0  0  0  0  0  0  0  0  # atno 10764 bound_to 10752
  154.2476  135.2860  155.2809 H   0  0  0  0  0  0  0  0  0  0  0  0  # atno 10765 bound_to 10752
  140.6444  134.4517  157.5234 H   0  0  0  0  0  0  0  0  0  0  0  0  # atno 11005 bound_to 11000
  146.3193  140.3368  142.8645 LP  0  0  0  0  0  0  0  0  0  0  0  0  # atno 17320 bound_to 7965
  144.9194  140.7850  143.5758 LP  0  0  0  0  0  0  0  0  0  0  0  0  # atno 17321 bound_to 7965
  140.7006  143.2433  151.4874 LP  0  0  0  0  0  0  0  0  0  0  0  0  # atno 17342 bound_to 10162
  139.5701  144.1948  152.1824 LP  0  0  0  0  0  0  0  0  0  0  0  0  # atno 17343 bound_to 10162
  157.0040  130.9931  151.3383 LP  0  0  0  0  0  0  0  0  0  0  0  0  # atno 17370 bound_to 10713
  157.5455  130.8148  149.8081 LP  0  0  0  0  0  0  0  0  0  0  0  0  # atno 17371 bound_to 10713
  139.9068  134.8431  156.1675 LP  0  0  0  0  0  0  0  0  0  0  0  0  # atno 17394 bound_to 11000
  141.0583  133.6854  156.1903 LP  0  0  0  0  0  0  0  0  0  0  0  0  # atno 17395 bound_to 11000

$$$$
