#       Name:                AV-unprocessed.smi:1766
#       Creating user name   scv26
#       Creation time:       Fri Mar 27 08:37:45 2020


#       File generated by GOLD software.
#

@<TRIPOS>MOLECULE
AV-unprocessed.smi:1766
    44    46     1
SMALL
NO_CHARGES


@<TRIPOS>ATOM
      1 ****        -0.9968   5.1342   1.5682 N.am           1 S1                 0.0000
      2 ****        -0.5720   3.8696   1.6289 C.2            1 S1                 0.0000
      3 ****        -0.1845   3.3611   2.6796 O.2            1 S1                 0.0000
      4 ****        -0.5815   3.0725   0.3201 C.3            1 S1                 0.0000
      5 ****        -0.9353   1.6354   0.5542 C.2            1 S1                 0.0000
      6 ****        -2.1973   1.1197   0.5758 N.pl3          1 S1                 1.0000
      7 ****        -2.1442  -0.2523   0.8218 C.ar           1 S1                 0.0000
      8 ****        -3.1608  -1.1961   0.9311 C.ar           1 S1                 0.0000
      9 ****        -2.7655  -2.5254   1.1857 C.ar           1 S1                 0.0000
     10 ****        -1.4064  -2.8729   1.3239 C.ar           1 S1                 0.0000
     11 ****        -0.3856  -1.9063   1.2151 C.ar           1 S1                 0.0000
     12 ****        -0.7831  -0.5936   0.9590 C.ar           1 S1                 0.0000
     13 ****        -0.0730   0.6007   0.7783 N.pl3          1 S1                 0.0000
     14 ****         1.3981   0.5932   0.8468 C.3            1 S1                 0.0000
     15 ****         2.0584   0.5279  -0.5457 C.3            1 S1                 0.0000
     16 ****         3.4484   0.7178  -0.3824 O.3            1 S1                 0.0000
     17 ****         1.7340  -0.7620  -1.2865 C.ar           1 S1                 0.0000
     18 ****         2.4080  -1.9635  -0.9743 C.ar           1 S1                 0.0000
     19 ****         2.0765  -3.1575  -1.6439 C.ar           1 S1                 0.0000
     20 ****         1.0705  -3.1572  -2.6291 C.ar           1 S1                 0.0000
     21 ****         0.7482  -4.3060  -3.2690 F              1 S1                 0.0000
     22 ****         0.3975  -1.9620  -2.9465 C.ar           1 S1                 0.0000
     23 ****         0.7288  -0.7678  -2.2778 C.ar           1 S1                 0.0000
     24 ****        -1.0026   5.7002   2.4048 H              1 S1                 0.0000
     25 ****        -1.3051   5.5251   0.6895 H              1 S1                 0.0000
     26 ****        -1.2976   3.5051  -0.3799 H              1 S1                 0.0000
     27 ****         0.4008   3.1413  -0.1468 H              1 S1                 0.0000
     28 ****        -4.2028  -0.9320   0.8256 H              1 S1                 0.0000
     29 ****        -3.5197  -3.2937   1.2766 H              1 S1                 0.0000
     30 ****        -1.1404  -3.9020   1.5176 H              1 S1                 0.0000
     31 ****         0.6511  -2.1885   1.3210 H              1 S1                 0.0000
     32 ****         1.6941   1.5125   1.3539 H              1 S1                 0.0000
     33 ****         1.7329  -0.2223   1.4878 H              1 S1                 0.0000
     34 ****         1.7049   1.3666  -1.1463 H              1 S1                 0.0000
     35 ****         3.8460   0.7781  -1.2377 H              1 S1                 0.0000
     36 ****         3.1735  -1.9762  -0.2121 H              1 S1                 0.0000
     37 ****         2.5917  -4.0744  -1.3987 H              1 S1                 0.0000
     38 ****        -0.3752  -1.9612  -3.7012 H              1 S1                 0.0000
     39 ****         0.2009   0.1424  -2.5215 H              1 S1                 0.0000
     40 ****        -3.0345   1.6704   0.4358 H              1 S1                 0.0000
     41 ****        -0.1812   3.8977   3.5233 LP             1 S1                 0.0000
     42 ****         0.1272   2.4110   2.6901 LP             1 S1                 0.0000
     43 ****         3.8381  -0.0562   0.1167 LP             1 S1                 0.0000
     44 ****         3.6158   1.5616   0.1274 LP             1 S1                 0.0000
@<TRIPOS>BOND
    1    1    2 am    
    2    1   24 1     
    3    1   25 1     
    4    2    3 2     
    5    2    4 1     
    6    4    5 1     
    7    4   26 1     
    8    4   27 1     
    9    5   13 1     
   10    5    6 2     
   11    6    7 1     
   12    6   40 1     
   13    7   12 ar    
   14    7    8 ar    
   15    8    9 ar    
   16    8   28 1     
   17    9   10 ar    
   18    9   29 1     
   19   10   11 ar    
   20   10   30 1     
   21   11   12 ar    
   22   11   31 1     
   23   12   13 1     
   24   13   14 1     
   25   14   15 1     
   26   14   32 1     
   27   14   33 1     
   28   15   16 1     
   29   15   17 1     
   30   15   34 1     
   31   16   35 1     
   32   17   23 ar    
   33   17   18 ar    
   34   18   19 ar    
   35   18   36 1     
   36   19   20 ar    
   37   19   37 1     
   38   20   21 1     
   39   20   22 ar    
   40   22   23 ar    
   41   22   38 1     
   42   23   39 1     
   43    3   41 1     
   44    3   42 1     
   45   16   43 1     
   46   16   44 1     
@<TRIPOS>SUBSTRUCTURE
      1 S1             1
@<TRIPOS>SET
LONE_PAIRS      STATIC     ATOMS    <user>   **** ""
4 41 42 43 44
DONOR_HYDROGENS      STATIC     ATOMS    <user>   **** ""
4 24 25 40 35
ATOM$BLUE        STATIC     ATOMS    COLORGROUP SYSTEM
4 41 42 43 44
ATOM$RED        STATIC     ATOMS    COLORGROUP SYSTEM
4 24 25 40 35
