AV-unprocessed.smi:580|AV-procd|sdf|2990|dock4
  -GOLD-   2262023493D 1   1.00000     0.00000
 Structure written by MMmdl.
 36 37  0  0  0  0  0  0  0  0  1 V2000
  150.5489  141.8129  156.2703 C   0  0  0  0  0  0  0  0  0  0  0  0
  150.2992  140.5728  155.4825 C   0  0  0  0  0  0  0  0  0  0  0  0
  149.1644  139.8701  155.1887 C   0  0  0  0  0  0  0  0  0  0  0  0
  149.6501  138.7941  154.3991 C   0  0  0  0  0  0  0  0  0  0  0  0
  148.7654  137.8127  153.8840 N   0  0  0  0  0  0  0  0  0  0  0  0
  147.4938  137.5815  154.2522 C   0  0  0  0  0  0  0  0  0  0  0  0
  146.8857  138.1970  155.1284 O   0  0  0  0  0  0  0  0  0  0  0  0
  146.9572  136.5788  153.5419 N   0  0  0  0  0  0  0  0  0  0  0  0
  145.5965  136.0650  153.6927 C   0  0  2  0  0  0  0  0  0  0  0  0
  145.5977  134.6005  154.1792 C   0  0  0  0  0  0  0  0  0  0  0  0
  146.1109  133.6295  153.1012 C   0  0  0  0  0  0  0  0  0  0  0  0
  145.3139  133.7638  151.7895 C   0  0  2  0  0  0  0  0  0  0  0  0
  145.8307  132.7956  150.7161 C   0  0  0  0  0  0  0  0  0  0  0  0
  145.3381  135.2214  151.2913 C   0  0  0  0  0  0  0  0  0  0  0  0
  144.8263  136.1988  152.3649 C   0  0  0  0  0  0  0  0  0  0  0  0
  150.9626  138.8354  154.2271 N   0  0  0  0  0  0  0  0  0  0  0  0
  151.3853  139.9754  154.9210 O   0  0  0  0  0  0  0  0  0  0  0  0
  149.6252  142.3727  156.4180 H   0  0  0  0  0  0  0  0  0  0  0  0
  151.2583  142.4627  155.7576 H   0  0  0  0  0  0  0  0  0  0  0  0
  150.9584  141.5708  157.2511 H   0  0  0  0  0  0  0  0  0  0  0  0
  148.1519  140.0929  155.4911 H   0  0  0  0  0  0  0  0  0  0  0  0
  149.1409  137.2240  153.1553 H   0  0  0  0  0  0  0  0  0  0  0  0
  147.5327  136.1309  152.8441 H   0  0  0  0  0  0  0  0  0  0  0  0
  145.0845  136.6780  154.4368 H   0  0  0  0  0  0  0  0  0  0  0  0
  146.1933  134.4991  155.0871 H   0  0  0  0  0  0  0  0  0  0  0  0
  144.5812  134.3172  154.4553 H   0  0  0  0  0  0  0  0  0  0  0  0
  147.1687  133.8175  152.9128 H   0  0  0  0  0  0  0  0  0  0  0  0
  146.0443  132.6068  153.4738 H   0  0  0  0  0  0  0  0  0  0  0  0
  144.2766  133.4979  151.9988 H   0  0  0  0  0  0  0  0  0  0  0  0
  146.8691  133.0067  150.4583 H   0  0  0  0  0  0  0  0  0  0  0  0
  145.2393  132.8697  149.8031 H   0  0  0  0  0  0  0  0  0  0  0  0
  145.7764  131.7624  151.0602 H   0  0  0  0  0  0  0  0  0  0  0  0
  146.3529  135.4951  150.9998 H   0  0  0  0  0  0  0  0  0  0  0  0
  144.7266  135.3173  150.3935 H   0  0  0  0  0  0  0  0  0  0  0  0
  143.7685  136.0034  152.5459 H   0  0  0  0  0  0  0  0  0  0  0  0
  144.8844  137.2236  151.9961 H   0  0  0  0  0  0  0  0  0  0  0  0
  1  2  1  0  0  0  0
  1 18  1  0  0  0  0
  1 19  1  0  0  0  0
  1 20  1  0  0  0  0
  2 17  1  0  0  0  0
  2  3  2  0  0  0  0
  3  4  1  0  0  0  0
  3 21  1  0  0  0  0
  4  5  1  0  0  0  0
  4 16  2  0  0  0  0
  5  6  1  0  0  0  0
  5 22  1  0  0  0  0
  6  7  2  0  0  0  0
  6  8  1  0  0  0  0
  8  9  1  0  0  0  0
  8 23  1  0  0  0  0
  9 15  1  0  0  0  0
  9 10  1  0  0  0  0
  9 24  1  0  0  0  0
 10 11  1  0  0  0  0
 10 25  1  0  0  0  0
 10 26  1  0  0  0  0
 11 12  1  0  0  0  0
 11 27  1  0  0  0  0
 11 28  1  0  0  0  0
 12 13  1  0  0  0  0
 12 14  1  0  0  0  0
 12 29  1  0  0  0  0
 13 30  1  0  0  0  0
 13 31  1  0  0  0  0
 13 32  1  0  0  0  0
 14 15  1  0  0  0  0
 14 33  1  0  0  0  0
 14 34  1  0  0  0  0
 15 35  1  0  0  0  0
 15 36  1  0  0  0  0
 16 17  1  0  0  0  0
M  END
> <s_m_source_file>
AV-unprocessed.smi

> <i_m_source_file_index>
580

> <i_lp_mmshare_version>
43012

> <i_f3d_flags>
0

> <s_epik_input>
W0NIM11jMVtjSF1jKG5vMSlbTkhdQyg9TylbTkhdW0NAQEhdMltDSDJdW0NIMl1bQ0BASF0oW0NIM10pW0NIMl1bQ0gyXTI=

> <s_epik_cmdline>
J2VwaWtfcHl0aG9uJywgJy1waCcsICc3LjAnLCAnLXRuJywgJzgnLCAnLW1hJywgJzIwMCcsICctbWV0YWxfYmluZGluZycsICctaW1hZScsICc8aW5maWxlLm1hZT4nLCAnLW9tYWUnLCAnPG91dGZpbGUubWFlPic=

> <r_lp_tautomer_probability>
1

> <r_epik_Ionization_Penalty>
2.357e-05

> <r_epik_Ionization_Penalty_Charging>
0

> <r_epik_Ionization_Penalty_Neutral>
2.357e-05

> <r_epik_State_Penalty>
-0

> <r_epik_Charging_Adjusted_Penalty>
0

> <i_epik_Tot_Q>
0

> <i_epik_Tot_abs_Q>
0

> <r_epik_Metal_State_Penalty>
-0

> <b_epik_Metal_Only>
0

> <s_lp_Force_Field>
OPLS_2005

> <r_lp_Energy>
6.11035

> <b_lp_Chiralities_Consistent>
1

> <s_lp_Variant>
AV-unprocessed.smi:580-2

> <Gold.Version>
5.8.1

> <Gold.Id.Protein>
6NUR|6NUR_protein|mol2

> <Gold.PLP.Fitness>
31.8712

> <Gold.PLP.PLP>
-23.9989

> <Gold.PLP.part.hbond>
-3.3098

> <Gold.PLP.part.metal>
0.0000

> <Gold.PLP.part.buried>
-3.2631

> <Gold.PLP.part.nonpolar>
-18.6149

> <Gold.PLP.part.repulsive>
0.3158

> <Gold.PLP.ligand.clash>
0.0000

> <Gold.PLP.ligand.torsion>
0.0569

> <Gold.PLP.Chemscore.Hbond>
2.6600

> <Gold.PLP.Chemscore.CHOScore>
0.0000

> <Gold.PLP.Chemscore.Metal>
0.0000

> <Gold.Chemscore.Hbonds>
donor molecule, donor type, donor heavy atom, donor atom, acceptor molecule, acceptor atom, score
      L1  H     5    22       P1  7948  1.00
      L1  H     8    23       P1  7948  0.94
      P1  H  7989  7998       L1    17  0.70

> <Gold.PLP.Chemscore.Internal.Correction>
0.0061

> <Gold.Rescore>
     Score         DG    S(hbond)    S(metal)    S(lipo)     H(rot)  DE(clash)    DE(int)     intcor
     13.84     -15.28       1.90        0.00      51.30       1.00       0.01       1.43       ----

> <Gold.Chemscore.Fitness>
13.8428

> <Gold.Chemscore.DG>
-15.2778

> <Gold.Chemscore.ZeroCoef>
-5.4800

> <Gold.Chemscore.Hbond>
1.9027

> <Gold.Chemscore.Metal>
0.0000

> <Gold.Chemscore.Lipo>
51.3049

> <Gold.Chemscore.Internal_Hbond>
0.0000

> <Gold.Chemscore.DEClash>
0.0078

> <Gold.Chemscore.DEInternal>
1.4271

> <Gold.Chemscore.Rot>
1.0000

> <Gold.Chemscore.Internal.Correction>
   9.000000E+99

> <Gold.Chemscore.Hbonds>
donor molecule, donor type, donor heavy atom, donor atom, acceptor molecule, acceptor atom, score
      L1  H     5    22       P1  7948  0.96
      L1  H     8    23       P1  7948  0.91
      P1  H  7989  7998       L1    17  0.03

> <Gold.Chemscore.Hbond.Weighted>
-6.3551

> <Gold.Chemscore.Metal.Weighted>
-0.0000

> <Gold.Chemscore.Lipo.Weighted>
-6.0027

> <Gold.Chemscore.Internal_Hbond.Weighted>
0.0000

> <Gold.Chemscore.DEClash.Weighted>
0.0078

> <Gold.Chemscore.DEInternal.Weighted>
1.4271

> <Gold.Chemscore.Rot.Weighted>
2.5600

> <Gold.Chemscore.Internal.Correction.Weighted>
   9.000000E+99

> <Gold.Protein.RotatedTorsions>
[ 6907 6896 6895 6894 ] final   38.63 input  -60.11 | X-H torsion
[ 7974 7965 7964 7962 ] final  -73.03 input  175.53 | X-H torsion
[ 8008 7997 7996 7995 ] final    3.57 input   59.86 | X-H torsion
[ 10167 10162 10161 10158 ] final   56.96 input  -65.29 | X-H torsion
[ 10718 10713 10712 10709 ] final -172.13 input   66.30 | X-H torsion
[ 10763 10752 10751 10750 ] final -162.62 input  -60.55 | X-H torsion
[ 11005 11000 10999 10996 ] final   44.71 input  -57.11 | X-H torsion

> <Gold.Protein.ActiveResidues>
 VAL166  LYS551  ARG553  GLY616  TRP617  ASP618  TYR619  PRO620  LYS621  CYS622 
 ASP623  PHE694  ASN695  SER759  ASP760  ASP761  ALA762  ILE779  LEU786  VAL792 
 PHE793  MET794  SER795  GLU796  ALA797  LYS798  CYS799  TRP800  GLU811  SER814 

> <Gold.Protein.RotatedAtoms>
  152.1589  134.8928  160.0542 H   0  0  0  0  0  0  0  0  0  0  0  0  # atno 6907 bound_to 6896
  151.9931  133.3793  159.4160 H   0  0  0  0  0  0  0  0  0  0  0  0  # atno 6908 bound_to 6896
  150.6885  134.3837  159.5089 H   0  0  0  0  0  0  0  0  0  0  0  0  # atno 6909 bound_to 6896
  145.6575  140.9263  143.0952 H   0  0  0  0  0  0  0  0  0  0  0  0  # atno 7974 bound_to 7965
  154.7052  140.2681  155.6681 H   0  0  0  0  0  0  0  0  0  0  0  0  # atno 8008 bound_to 7997
  156.2778  140.2764  156.1600 H   0  0  0  0  0  0  0  0  0  0  0  0  # atno 8009 bound_to 7997
  155.0709  140.0372  157.2598 H   0  0  0  0  0  0  0  0  0  0  0  0  # atno 8010 bound_to 7997
  140.2031  144.3967  150.6520 H   0  0  0  0  0  0  0  0  0  0  0  0  # atno 10167 bound_to 10162
  156.7511  130.9378  151.3114 H   0  0  0  0  0  0  0  0  0  0  0  0  # atno 10718 bound_to 10713
  154.7198  135.3023  154.9066 H   0  0  0  0  0  0  0  0  0  0  0  0  # atno 10763 bound_to 10752
  153.9941  135.6715  153.4759 H   0  0  0  0  0  0  0  0  0  0  0  0  # atno 10764 bound_to 10752
  153.0824  135.5002  154.8446 H   0  0  0  0  0  0  0  0  0  0  0  0  # atno 10765 bound_to 10752
  140.1527  134.4441  155.8371 H   0  0  0  0  0  0  0  0  0  0  0  0  # atno 11005 bound_to 11000
  144.7101  139.8405  143.7417 LP  0  0  0  0  0  0  0  0  0  0  0  0  # atno 17320 bound_to 7965
  146.1153  139.4163  143.0262 LP  0  0  0  0  0  0  0  0  0  0  0  0  # atno 17321 bound_to 7965
  140.6376  143.2197  151.6360 LP  0  0  0  0  0  0  0  0  0  0  0  0  # atno 17342 bound_to 10162
  139.5209  144.3208  152.0912 LP  0  0  0  0  0  0  0  0  0  0  0  0  # atno 17343 bound_to 10162
  157.6777  130.9110  150.0189 LP  0  0  0  0  0  0  0  0  0  0  0  0  # atno 17370 bound_to 10713
  156.1401  130.3642  149.9596 LP  0  0  0  0  0  0  0  0  0  0  0  0  # atno 17371 bound_to 10713
  141.2201  133.6879  156.7451 LP  0  0  0  0  0  0  0  0  0  0  0  0  # atno 17394 bound_to 11000
  140.2585  134.8485  157.3736 LP  0  0  0  0  0  0  0  0  0  0  0  0  # atno 17395 bound_to 11000

$$$$
