#       Name:                AV-unprocessed.smi:2976
#       Creating user name   scv26
#       Creation time:       Fri Mar 27 16:27:53 2020


#       File generated by GOLD software.
#

@<TRIPOS>MOLECULE
AV-unprocessed.smi:2976
    45    46     1
SMALL
NO_CHARGES


@<TRIPOS>ATOM
      1 ****        -3.8728  -1.9772   1.0811 C.3            1 S1                 0.0000
      2 ****        -3.1919  -1.0416   0.0650 C.3            1 S1                 0.0000
      3 ****        -3.6618  -1.4016  -1.3589 C.3            1 S1                 0.0000
      4 ****        -3.0406  -0.4830  -2.4166 C.3            1 S1                 0.0000
      5 ****        -1.5120  -0.5340  -2.3415 C.3            1 S1                 0.0000
      6 ****        -1.0091  -0.1574  -0.9369 C.3            1 S1                 0.0000
      7 ****         0.4500  -0.2596  -0.9240 N.am           1 S1                 0.0000
      8 ****         1.3084   0.7406  -0.6701 C.2            1 S1                 0.0000
      9 ****         0.9552   1.8977  -0.4391 O.2            1 S1                 0.0000
     10 ****         2.7984   0.3721  -0.6943 C.3            1 S1                 0.0000
     11 ****         3.5965   1.1578   0.2582 N.am           1 S1                 0.0000
     12 ****         4.3056   2.1965  -0.3195 N.2            1 S1                 0.0000
     13 ****         5.0195   2.9684   0.4252 C.2            1 S1                 0.0000
     14 ****         5.1143   2.7857   1.8569 C.2            1 S1                 0.0000
     15 ****         6.0873   3.8548   2.8047 Cl             1 S1                 0.0000
     16 ****         4.4224   1.7589   2.4121 C.2            1 S1                 0.0000
     17 ****         4.4880   1.4757   4.1181 Cl             1 S1                 0.0000
     18 ****         3.5975   0.8587   1.5941 C.2            1 S1                 0.0000
     19 ****         2.9560  -0.0847   2.0593 O.2            1 S1                 0.0000
     20 ****        -1.6394  -1.0536   0.1649 C.3            1 S1                 0.0000
     21 ****        -1.1473  -0.6395   1.5698 C.3            1 S1                 0.0000
     22 ****        -3.5075  -3.0001   0.9859 H              1 S1                 0.0000
     23 ****        -4.9526  -1.9972   0.9303 H              1 S1                 0.0000
     24 ****        -3.7080  -1.6538   2.1083 H              1 S1                 0.0000
     25 ****        -3.5340  -0.0271   0.2760 H              1 S1                 0.0000
     26 ****        -3.4044  -2.4380  -1.5822 H              1 S1                 0.0000
     27 ****        -4.7487  -1.3350  -1.4205 H              1 S1                 0.0000
     28 ****        -3.3744  -0.7805  -3.4110 H              1 S1                 0.0000
     29 ****        -3.3847   0.5411  -2.2662 H              1 S1                 0.0000
     30 ****        -1.1698  -1.5364  -2.6036 H              1 S1                 0.0000
     31 ****        -1.0877   0.1424  -3.0846 H              1 S1                 0.0000
     32 ****        -1.3145   0.8729  -0.7438 H              1 S1                 0.0000
     33 ****         0.8377  -1.1737  -1.1071 H              1 S1                 0.0000
     34 ****         2.9222  -0.6936  -0.4915 H              1 S1                 0.0000
     35 ****         3.1652   0.5210  -1.7115 H              1 S1                 0.0000
     36 ****         5.5909   3.8013   0.0154 H              1 S1                 0.0000
     37 ****        -1.3044  -2.0777  -0.0083 H              1 S1                 0.0000
     38 ****        -1.4806   0.3674   1.8229 H              1 S1                 0.0000
     39 ****        -0.0600  -0.6534   1.6414 H              1 S1                 0.0000
     40 ****        -1.5074  -1.3161   2.3434 H              1 S1                 0.0000
     41 ****        -0.0169   2.1323  -0.4343 LP             1 S1                 0.0000
     42 ****         1.6405   2.6027  -0.2565 LP             1 S1                 0.0000
     43 ****         4.2642   2.3468  -1.3073 LP             1 S1                 0.0000
     44 ****         2.4090  -0.6638   1.4547 LP             1 S1                 0.0000
     45 ****         2.9822  -0.2712   3.0414 LP             1 S1                 0.0000
@<TRIPOS>BOND
    1    1    2 1     
    2    1   22 1     
    3    1   23 1     
    4    1   24 1     
    5    2   20 1     
    6    2    3 1     
    7    2   25 1     
    8    3    4 1     
    9    3   26 1     
   10    3   27 1     
   11    4    5 1     
   12    4   28 1     
   13    4   29 1     
   14    5    6 1     
   15    5   30 1     
   16    5   31 1     
   17    6    7 1     
   18    6   20 1     
   19    6   32 1     
   20    7    8 am    
   21    7   33 1     
   22    8    9 2     
   23    8   10 1     
   24   10   11 1     
   25   10   34 1     
   26   10   35 1     
   27   11   18 am    
   28   11   12 1     
   29   12   13 2     
   30   13   14 1     
   31   13   36 1     
   32   14   15 1     
   33   14   16 2     
   34   16   17 1     
   35   16   18 1     
   36   18   19 2     
   37   20   21 1     
   38   20   37 1     
   39   21   38 1     
   40   21   39 1     
   41   21   40 1     
   42    9   41 1     
   43    9   42 1     
   44   12   43 1     
   45   19   44 1     
   46   19   45 1     
@<TRIPOS>SUBSTRUCTURE
      1 S1             1
@<TRIPOS>SET
LONE_PAIRS      STATIC     ATOMS    <user>   **** ""
5 41 42 43 44 45
DONOR_HYDROGENS      STATIC     ATOMS    <user>   **** ""
1 33
ATOM$BLUE        STATIC     ATOMS    COLORGROUP SYSTEM
5 41 42 43 44 45
ATOM$RED        STATIC     ATOMS    COLORGROUP SYSTEM
1 33
