#       Name:                AV-unprocessed.smi:1859
#       Creating user name   scv26
#       Creation time:       Fri Mar 27 09:26:03 2020


#       File generated by GOLD software.
#

@<TRIPOS>MOLECULE
AV-unprocessed.smi:1859
    50    52     1
SMALL
NO_CHARGES


@<TRIPOS>ATOM
      1 ****         1.0329   0.9641  -1.1288 O.2            1 S1                 0.0000
      2 ****         0.5048   0.2213  -0.3006 C.2            1 S1                 0.0000
      3 ****         1.2054  -0.4995   0.5891 N.am           1 S1                 0.0000
      4 ****         2.6590  -0.4933   0.7069 C.3            1 S1                 0.0000
      5 ****         3.3254  -1.3283  -0.4001 C.3            1 S1                 0.0000
      6 ****         4.8381  -1.3025  -0.3048 C.ar           1 S1                 0.0000
      7 ****         5.6211  -0.4177  -1.0777 C.ar           1 S1                 0.0000
      8 ****         7.0243  -0.4366  -0.9368 C.ar           1 S1                 0.0000
      9 ****         7.6142  -1.3381  -0.0266 C.ar           1 S1                 0.0000
     10 ****         6.7844  -2.1975   0.7223 C.ar           1 S1                 0.0000
     11 ****         5.4438  -2.1486   0.5597 N.pl3          1 S1                 1.0000
     12 ****        -1.0223   0.0850  -0.2458 C.3            1 S1                 0.0000
     13 ****        -1.5660  -0.5984  -1.5227 C.3            1 S1                 0.0000
     14 ****        -3.1068  -0.6163  -1.5502 C.3            1 S1                 0.0000
     15 ****        -3.6742   0.7895  -1.2861 C.3            1 S1                 0.0000
     16 ****        -3.1519   1.2737  -0.0001 N.am           1 S1                 0.0000
     17 ****        -3.8668   1.4418   1.1407 C.2            1 S1                 0.0000
     18 ****        -3.3565   1.8717   2.1763 O.2            1 S1                 0.0000
     19 ****        -5.3151   1.0586   1.1038 C.3            1 S1                 0.0000
     20 ****        -6.3171   2.1843   0.9570 C.3            1 S1                 0.0000
     21 ****        -6.1976   1.4604   2.2722 C.3            1 S1                 0.0000
     22 ****        -1.6964   1.4634  -0.0547 C.3            1 S1                 0.0000
     23 ****         0.6938  -1.0823   1.2362 H              1 S1                 0.0000
     24 ****         3.0246   0.5347   0.6817 H              1 S1                 0.0000
     25 ****         2.9226  -0.8923   1.6866 H              1 S1                 0.0000
     26 ****         2.9823  -2.3626  -0.3470 H              1 S1                 0.0000
     27 ****         3.0330  -0.9590  -1.3839 H              1 S1                 0.0000
     28 ****         5.1537   0.2694  -1.7684 H              1 S1                 0.0000
     29 ****         7.6402   0.2327  -1.5196 H              1 S1                 0.0000
     30 ****         8.6871  -1.3687   0.0959 H              1 S1                 0.0000
     31 ****         7.1495  -2.9171   1.4405 H              1 S1                 0.0000
     32 ****        -1.2821  -0.5390   0.6116 H              1 S1                 0.0000
     33 ****        -1.2071  -0.0692  -2.4070 H              1 S1                 0.0000
     34 ****        -1.1842  -1.6172  -1.5991 H              1 S1                 0.0000
     35 ****        -3.4581  -0.9891  -2.5127 H              1 S1                 0.0000
     36 ****        -3.4797  -1.3082  -0.7940 H              1 S1                 0.0000
     37 ****        -3.3565   1.4694  -2.0779 H              1 S1                 0.0000
     38 ****        -4.7615   0.7773  -1.3454 H              1 S1                 0.0000
     39 ****        -5.5549   0.1021   0.6428 H              1 S1                 0.0000
     40 ****        -5.9402   3.2047   0.9114 H              1 S1                 0.0000
     41 ****        -7.1918   1.9881   0.3407 H              1 S1                 0.0000
     42 ****        -6.9933   0.7719   2.5487 H              1 S1                 0.0000
     43 ****        -5.7628   2.0133   3.1027 H              1 S1                 0.0000
     44 ****        -1.3020   1.9536   0.8369 H              1 S1                 0.0000
     45 ****        -1.4560   2.1299  -0.8852 H              1 S1                 0.0000
     46 ****         4.8629  -2.7797   1.1123 H              1 S1                 0.0000
     47 ****         2.0286   1.0510  -1.1594 LP             1 S1                 0.0000
     48 ****         0.4659   1.4804  -1.7707 LP             1 S1                 0.0000
     49 ****        -2.3853   2.1093   2.1939 LP             1 S1                 0.0000
     50 ****        -3.9135   1.9831   2.9993 LP             1 S1                 0.0000
@<TRIPOS>BOND
    1    1    2 2     
    2    2    3 am    
    3    2   12 1     
    4    3    4 1     
    5    3   23 1     
    6    4    5 1     
    7    4   24 1     
    8    4   25 1     
    9    5    6 1     
   10    5   26 1     
   11    5   27 1     
   12    6   11 ar    
   13    6    7 ar    
   14    7    8 ar    
   15    7   28 1     
   16    8    9 ar    
   17    8   29 1     
   18    9   10 ar    
   19    9   30 1     
   20   10   11 ar    
   21   10   31 1     
   22   11   46 1     
   23   12   22 1     
   24   12   13 1     
   25   12   32 1     
   26   13   14 1     
   27   13   33 1     
   28   13   34 1     
   29   14   15 1     
   30   14   35 1     
   31   14   36 1     
   32   15   16 1     
   33   15   37 1     
   34   15   38 1     
   35   16   17 am    
   36   16   22 1     
   37   17   18 2     
   38   17   19 1     
   39   19   21 1     
   40   19   20 1     
   41   19   39 1     
   42   20   21 1     
   43   20   40 1     
   44   20   41 1     
   45   21   42 1     
   46   21   43 1     
   47   22   44 1     
   48   22   45 1     
   49    1   47 1     
   50    1   48 1     
   51   18   49 1     
   52   18   50 1     
@<TRIPOS>SUBSTRUCTURE
      1 S1             1
@<TRIPOS>SET
LONE_PAIRS      STATIC     ATOMS    <user>   **** ""
4 47 48 49 50
DONOR_HYDROGENS      STATIC     ATOMS    <user>   **** ""
2 23 46
ATOM$BLUE        STATIC     ATOMS    COLORGROUP SYSTEM
4 47 48 49 50
ATOM$RED        STATIC     ATOMS    COLORGROUP SYSTEM
2 23 46
