AV-unprocessed.smi:1933|AV-procd|sdf|7817|dock5
  -GOLD-   22720 9563D 1   1.00000     0.00000
 Structure written by MMmdl.
 47 49  0  0  0  0  0  0  0  0  1 V2000
  151.2640  141.1378  156.7666 O   0  0  0  0  0  0  0  0  0  0  0  0
  150.5498  142.1125  156.5308 C   0  0  0  0  0  0  0  0  0  0  0  0
  149.7012  142.1787  155.4943 N   0  0  0  0  0  0  0  0  0  0  0  0
  149.4843  141.1303  154.5006 C   0  0  0  0  0  0  0  0  0  0  0  0
  149.3929  139.7186  155.1394 C   0  0  2  0  0  0  0  0  0  0  0  0
  150.5516  138.7723  154.7069 C   0  0  1  0  0  0  0  0  0  0  0  0
  151.9488  139.3668  154.7727 C   0  0  0  0  0  0  0  0  0  0  0  0
  152.8529  138.1291  154.7385 C   0  0  0  0  0  0  0  0  0  0  0  0
  151.9964  137.0014  154.9103 O   0  0  0  0  0  0  0  0  0  0  0  0
  150.7568  137.4469  155.4376 C   0  0  0  0  0  0  0  0  0  0  0  0
  148.0461  139.1142  155.0983 N   0  0  0  0  0  0  0  0  0  0  0  0
  147.4864  138.9134  153.7590 C   0  0  0  0  0  0  0  0  0  0  0  0
  146.1330  138.1859  153.8161 C   0  0  0  0  0  0  0  0  0  0  0  0
  145.2293  138.9304  154.6271 O   0  0  0  0  0  0  0  0  0  0  0  0
  145.7142  139.1324  155.9507 C   0  0  0  0  0  0  0  0  0  0  0  0
  147.0744  139.8502  155.9038 C   0  0  0  0  0  0  0  0  0  0  0  0
  150.4946  143.2308  157.2749 N   0  0  0  0  0  0  0  0  0  0  0  0
  151.1927  143.5220  158.4768 C   0  0  0  0  0  0  0  0  0  0  0  0
  151.2253  144.8439  158.9910 C   0  0  0  0  0  0  0  0  0  0  0  0
  151.9013  145.0981  160.1997 C   0  0  0  0  0  0  0  0  0  0  0  0
  152.5181  144.0275  160.8705 C   0  0  0  0  0  0  0  0  0  0  0  0
  152.4225  142.7452  160.3004 C   0  0  0  0  0  0  0  0  0  0  0  0
  151.7734  142.4972  159.1430 N   0  0  0  0  0  0  0  0  0  0  0  0
  149.1541  143.0202  155.3861 H   0  0  0  0  0  0  0  0  0  0  0  0
  148.5530  141.3745  153.9901 H   0  0  0  0  0  0  0  0  0  0  0  0
  150.2615  141.1547  153.7353 H   0  0  0  0  0  0  0  0  0  0  0  0
  149.6095  139.8829  156.1963 H   0  0  0  0  0  0  0  0  0  0  0  0
  150.3907  138.5200  153.6583 H   0  0  0  0  0  0  0  0  0  0  0  0
  152.1489  140.0558  153.9516 H   0  0  0  0  0  0  0  0  0  0  0  0
  152.1034  139.9057  155.7081 H   0  0  0  0  0  0  0  0  0  0  0  0
  153.3805  138.0412  153.7882 H   0  0  0  0  0  0  0  0  0  0  0  0
  153.5952  138.1650  155.5366 H   0  0  0  0  0  0  0  0  0  0  0  0
  150.8917  137.5745  156.5091 H   0  0  0  0  0  0  0  0  0  0  0  0
  149.9596  136.7251  155.2620 H   0  0  0  0  0  0  0  0  0  0  0  0
  147.3355  139.8761  153.2692 H   0  0  0  0  0  0  0  0  0  0  0  0
  148.1623  138.3539  153.1211 H   0  0  0  0  0  0  0  0  0  0  0  0
  145.7134  138.0861  152.8149 H   0  0  0  0  0  0  0  0  0  0  0  0
  146.2516  137.1780  154.2172 H   0  0  0  0  0  0  0  0  0  0  0  0
  144.9913  139.7270  156.5092 H   0  0  0  0  0  0  0  0  0  0  0  0
  145.8031  138.1724  156.4620 H   0  0  0  0  0  0  0  0  0  0  0  0
  147.4465  139.9680  156.9220 H   0  0  0  0  0  0  0  0  0  0  0  0
  146.9365  140.8548  155.5027 H   0  0  0  0  0  0  0  0  0  0  0  0
  149.7876  143.9024  157.0146 H   0  0  0  0  0  0  0  0  0  0  0  0
  150.7338  145.6617  158.4858 H   0  0  0  0  0  0  0  0  0  0  0  0
  151.9404  146.0975  160.6076 H   0  0  0  0  0  0  0  0  0  0  0  0
  153.0449  144.1836  161.8004 H   0  0  0  0  0  0  0  0  0  0  0  0
  152.8764  141.8945  160.7868 H   0  0  0  0  0  0  0  0  0  0  0  0
  1  2  2  0  0  0  0
  2  3  1  0  0  0  0
  2 17  1  0  0  0  0
  3  4  1  0  0  0  0
  3 24  1  0  0  0  0
  4  5  1  0  0  0  0
  4 25  1  0  0  0  0
  4 26  1  0  0  0  0
  5  6  1  0  0  0  0
  5 11  1  0  0  0  0
  5 27  1  0  0  0  0
  6 10  1  0  0  0  0
  6  7  1  0  0  0  0
  6 28  1  0  0  0  0
  7  8  1  0  0  0  0
  7 29  1  0  0  0  0
  7 30  1  0  0  0  0
  8  9  1  0  0  0  0
  8 31  1  0  0  0  0
  8 32  1  0  0  0  0
  9 10  1  0  0  0  0
 10 33  1  0  0  0  0
 10 34  1  0  0  0  0
 11 16  1  0  0  0  0
 11 12  1  0  0  0  0
 12 13  1  0  0  0  0
 12 35  1  0  0  0  0
 12 36  1  0  0  0  0
 13 14  1  0  0  0  0
 13 37  1  0  0  0  0
 13 38  1  0  0  0  0
 14 15  1  0  0  0  0
 15 16  1  0  0  0  0
 15 39  1  0  0  0  0
 15 40  1  0  0  0  0
 16 41  1  0  0  0  0
 16 42  1  0  0  0  0
 17 18  1  0  0  0  0
 17 43  1  0  0  0  0
 18 23  1  0  0  0  0
 18 19  2  0  0  0  0
 19 20  1  0  0  0  0
 19 44  1  0  0  0  0
 20 21  2  0  0  0  0
 20 45  1  0  0  0  0
 21 22  1  0  0  0  0
 21 46  1  0  0  0  0
 22 23  2  0  0  0  0
 22 47  1  0  0  0  0
M  END
> <s_m_source_file>
AV-unprocessed.smi

> <i_m_source_file_index>
1933

> <i_lp_mmshare_version>
43012

> <i_f3d_flags>
0

> <s_epik_input>
bjFbY0hdW2NIXVtjSF1bY0hdYzFbTkhdQyg9TylbTkhdW0NIMl1bQ0BIXShbQ0BASF0yW0NIMl1bQ0gyXU9bQ0gyXTIpTjNbQ0gyXVtDSDJdT1tDSDJdW0NIMl0z

> <s_epik_cmdline>
J2VwaWtfcHl0aG9uJywgJy1waCcsICc3LjAnLCAnLXRuJywgJzgnLCAnLW1hJywgJzIwMCcsICctbWV0YWxfYmluZGluZycsICctaW1hZScsICc8aW5maWxlLm1hZT4nLCAnLW9tYWUnLCAnPG91dGZpbGUubWFlPic=

> <r_epik_Ionization_Penalty>
0.125062

> <r_epik_Ionization_Penalty_Charging>
0

> <r_epik_Ionization_Penalty_Neutral>
0.125062

> <r_epik_State_Penalty>
0.114484

> <r_epik_Charging_Adjusted_Penalty>
0.114484

> <i_epik_Tot_Q>
0

> <i_epik_Tot_abs_Q>
0

> <r_epik_Metal_State_Penalty>
0.114484

> <b_epik_Metal_Only>
0

> <s_lp_Force_Field>
OPLS_2005

> <r_lp_Energy>
60.0985

> <b_lp_Chiralities_Consistent>
1

> <s_lp_Variant>
AV-unprocessed.smi:1933-3

> <Gold.Version>
5.8.1

> <Gold.Id.Protein>
6NUR|6NUR_protein|mol2

> <Gold.PLP.Fitness>
45.4926

> <Gold.PLP.PLP>
-38.3995

> <Gold.PLP.part.hbond>
-3.0000

> <Gold.PLP.part.metal>
0.0000

> <Gold.PLP.part.buried>
-2.6567

> <Gold.PLP.part.nonpolar>
-33.6951

> <Gold.PLP.part.repulsive>
0.9129

> <Gold.PLP.ligand.clash>
0.0000

> <Gold.PLP.ligand.torsion>
1.0914

> <Gold.PLP.Chemscore.Hbond>
2.9840

> <Gold.PLP.Chemscore.CHOScore>
0.0000

> <Gold.PLP.Chemscore.Metal>
0.0000

> <Gold.Chemscore.Hbonds>
donor molecule, donor type, donor heavy atom, donor atom, acceptor molecule, acceptor atom, score
      L1  H     3    24       P1  8028  1.00
      L1  H    17    43       P1  8028  0.96
      P1  H 10752 10765       L1     9  0.98

> <Gold.PLP.Chemscore.Internal.Correction>
0.3239

> <Gold.Rescore>
     Score         DG    S(hbond)    S(metal)    S(lipo)     H(rot)  DE(clash)    DE(int)     intcor
     14.68     -21.53       2.56        0.00     101.66       1.72       1.53       5.33       ----

> <Gold.Chemscore.Fitness>
14.6788

> <Gold.Chemscore.DG>
-21.5347

> <Gold.Chemscore.ZeroCoef>
-5.4800

> <Gold.Chemscore.Hbond>
2.5609

> <Gold.Chemscore.Metal>
0.0000

> <Gold.Chemscore.Lipo>
101.6614

> <Gold.Chemscore.Internal_Hbond>
0.0000

> <Gold.Chemscore.DEClash>
1.5290

> <Gold.Chemscore.DEInternal>
5.3269

> <Gold.Chemscore.Rot>
1.7161

> <Gold.Chemscore.Internal.Correction>
   9.000000E+99

> <Gold.Chemscore.Hbonds>
donor molecule, donor type, donor heavy atom, donor atom, acceptor molecule, acceptor atom, score
      L1  H     3    24       P1  8028  0.96
      L1  H    17    43       P1  8028  0.84
      P1  H 10752 10765       L1     9  0.52

> <Gold.Chemscore.Hbond.Weighted>
-8.5535

> <Gold.Chemscore.Metal.Weighted>
-0.0000

> <Gold.Chemscore.Lipo.Weighted>
-11.8944

> <Gold.Chemscore.Internal_Hbond.Weighted>
0.0000

> <Gold.Chemscore.DEClash.Weighted>
1.5290

> <Gold.Chemscore.DEInternal.Weighted>
5.3269

> <Gold.Chemscore.Rot.Weighted>
4.3932

> <Gold.Chemscore.Internal.Correction.Weighted>
   9.000000E+99

> <Gold.Protein.RotatedTorsions>
[ 6907 6896 6895 6894 ] final -157.74 input  -60.11 | X-H torsion
[ 7974 7965 7964 7962 ] final   37.40 input  175.53 | X-H torsion
[ 8008 7997 7996 7995 ] final  151.71 input   59.86 | X-H torsion
[ 10167 10162 10161 10158 ] final -141.62 input  -65.29 | X-H torsion
[ 10718 10713 10712 10709 ] final   60.05 input   66.30 | X-H torsion
[ 10763 10752 10751 10750 ] final -177.84 input  -60.55 | X-H torsion
[ 11005 11000 10999 10996 ] final   -0.42 input  -57.11 | X-H torsion

> <Gold.Protein.ActiveResidues>
 VAL166  LYS551  ARG553  GLY616  TRP617  ASP618  TYR619  PRO620  LYS621  CYS622 
 ASP623  PHE694  ASN695  SER759  ASP760  ASP761  ALA762  ILE779  LEU786  VAL792 
 PHE793  MET794  SER795  GLU796  ALA797  LYS798  CYS799  TRP800  GLU811  SER814 

> <Gold.Protein.RotatedAtoms>
  151.3075  133.4095  159.2644 H   0  0  0  0  0  0  0  0  0  0  0  0  # atno 6907 bound_to 6896
  151.0143  134.9421  159.8035 H   0  0  0  0  0  0  0  0  0  0  0  0  # atno 6908 bound_to 6896
  152.5308  134.3039  159.9141 H   0  0  0  0  0  0  0  0  0  0  0  0  # atno 6909 bound_to 6896
  146.1140  139.5899  142.9333 H   0  0  0  0  0  0  0  0  0  0  0  0  # atno 7974 bound_to 7965
  156.2662  140.2040  156.6219 H   0  0  0  0  0  0  0  0  0  0  0  0  # atno 8008 bound_to 7997
  154.6750  140.0546  157.0230 H   0  0  0  0  0  0  0  0  0  0  0  0  # atno 8009 bound_to 7997
  155.1082  140.3213  155.4531 H   0  0  0  0  0  0  0  0  0  0  0  0  # atno 8010 bound_to 7997
  139.8167  143.7629  152.2665 H   0  0  0  0  0  0  0  0  0  0  0  0  # atno 10167 bound_to 10162
  157.5723  130.8917  149.9287 H   0  0  0  0  0  0  0  0  0  0  0  0  # atno 10718 bound_to 10713
  154.5552  135.2816  155.0971 H   0  0  0  0  0  0  0  0  0  0  0  0  # atno 10763 bound_to 10752
  154.2402  135.6358  153.5208 H   0  0  0  0  0  0  0  0  0  0  0  0  # atno 10764 bound_to 10752
  153.0013  135.5558  154.6130 H   0  0  0  0  0  0  0  0  0  0  0  0  # atno 10765 bound_to 10752
  140.6361  133.9531  155.8300 H   0  0  0  0  0  0  0  0  0  0  0  0  # atno 11005 bound_to 11000
  145.5604  141.0405  143.2229 LP  0  0  0  0  0  0  0  0  0  0  0  0  # atno 17320 bound_to 7965
  144.7537  139.7129  143.7263 LP  0  0  0  0  0  0  0  0  0  0  0  0  # atno 17321 bound_to 7965
  139.7794  144.7449  151.0110 LP  0  0  0  0  0  0  0  0  0  0  0  0  # atno 17342 bound_to 10162
  140.7815  143.4558  151.0347 LP  0  0  0  0  0  0  0  0  0  0  0  0  # atno 17343 bound_to 10162
  156.0768  130.3678  150.0661 LP  0  0  0  0  0  0  0  0  0  0  0  0  # atno 17370 bound_to 10713
  156.8813  130.9557  151.3599 LP  0  0  0  0  0  0  0  0  0  0  0  0  # atno 17371 bound_to 10713
  141.0640  134.0303  157.3619 LP  0  0  0  0  0  0  0  0  0  0  0  0  # atno 17394 bound_to 11000
  139.9097  135.0187  156.7641 LP  0  0  0  0  0  0  0  0  0  0  0  0  # atno 17395 bound_to 11000

$$$$
