AV-unprocessed.smi:564|AV-procd|sdf|2948|dock10
  -GOLD-   2262023443D 1   1.00000     0.00000
 Structure written by MMmdl.
 50 51  0  0  0  0  0  0  0  0  2 V2000
  150.0741  145.4833  160.1644 C   0  0  0  0  0  0  0  0  0  0  0  0
  151.0792  144.4097  160.4699 C   0  0  0  0  0  0  0  0  0  0  0  0
  151.4326  144.1876  161.7249 N   0  0  0  0  0  0  0  0  0  0  0  0
  152.3265  143.1808  161.6577 N   0  0  0  0  0  0  0  0  0  0  0  0
  152.9274  142.6815  162.8794 C   0  0  0  0  0  0  0  0  0  0  0  0
  152.5395  142.7671  160.3569 C   0  0  0  0  0  0  0  0  0  0  0  0
  153.4861  141.6614  160.0174 C   0  0  0  0  0  0  0  0  0  0  0  0
  151.7481  143.5452  159.5545 C   0  0  0  0  0  0  0  0  0  0  0  0
  151.6029  143.5143  158.0537 C   0  0  0  0  0  0  0  0  0  0  0  0
  150.9756  142.1915  157.6056 C   0  0  0  0  0  0  0  0  0  0  0  0
  151.5172  141.1205  157.8815 O   0  0  0  0  0  0  0  0  0  0  0  0
  149.8286  142.2771  156.9162 N   0  0  0  0  0  0  0  0  0  0  0  0
  149.0861  141.1329  156.4056 C   0  0  0  0  0  0  0  0  0  0  0  0
  148.5275  141.4378  155.0054 C   0  0  0  0  0  0  0  0  0  0  0  0
  147.3979  142.4067  155.0182 N   0  3  1  0  0  0  0  0  0  0  0  0
  146.7134  142.4814  153.6987 C   0  0  0  0  0  0  0  0  0  0  0  0
  145.7000  143.6360  153.6557 C   0  0  0  0  0  0  0  0  0  0  0  0
  144.6800  143.5159  154.7927 C   0  0  0  0  0  0  0  0  0  0  0  0
  145.4104  143.4230  156.1393 C   0  0  0  0  0  0  0  0  0  0  0  0
  146.4441  142.2767  156.1655 C   0  0  1  0  0  0  0  0  0  0  0  0
  145.7720  140.8897  156.2592 C   0  0  0  0  0  0  0  0  0  0  0  0
  149.2660  145.0940  159.5448 H   0  0  0  0  0  0  0  0  0  0  0  0
  150.5388  146.3081  159.6243 H   0  0  0  0  0  0  0  0  0  0  0  0
  149.6265  145.8905  161.0718 H   0  0  0  0  0  0  0  0  0  0  0  0
  153.9877  142.9334  162.8943 H   0  0  0  0  0  0  0  0  0  0  0  0
  152.8166  141.5983  162.9287 H   0  0  0  0  0  0  0  0  0  0  0  0
  152.4463  143.1227  163.7534 H   0  0  0  0  0  0  0  0  0  0  0  0
  153.4795  141.4494  158.9485 H   0  0  0  0  0  0  0  0  0  0  0  0
  153.2140  140.7439  160.5395 H   0  0  0  0  0  0  0  0  0  0  0  0
  154.5055  141.9236  160.3010 H   0  0  0  0  0  0  0  0  0  0  0  0
  150.9681  144.3273  157.7005 H   0  0  0  0  0  0  0  0  0  0  0  0
  152.5678  143.6547  157.5648 H   0  0  0  0  0  0  0  0  0  0  0  0
  149.4505  143.1953  156.7322 H   0  0  0  0  0  0  0  0  0  0  0  0
  149.7650  140.2806  156.3841 H   0  0  0  0  0  0  0  0  0  0  0  0
  148.2689  140.8835  157.0846 H   0  0  0  0  0  0  0  0  0  0  0  0
  149.3365  141.8649  154.4109 H   0  0  0  0  0  0  0  0  0  0  0  0
  148.2364  140.5196  154.4949 H   0  0  0  0  0  0  0  0  0  0  0  0
  147.4522  142.6365  152.9116 H   0  0  0  0  0  0  0  0  0  0  0  0
  146.2208  141.5341  153.4774 H   0  0  0  0  0  0  0  0  0  0  0  0
  146.2263  144.5881  153.7351 H   0  0  0  0  0  0  0  0  0  0  0  0
  145.1864  143.6461  152.6938 H   0  0  0  0  0  0  0  0  0  0  0  0
  144.0097  144.3760  154.7877 H   0  0  0  0  0  0  0  0  0  0  0  0
  144.0546  142.6355  154.6415 H   0  0  0  0  0  0  0  0  0  0  0  0
  145.9200  144.3684  156.3307 H   0  0  0  0  0  0  0  0  0  0  0  0
  144.6886  143.3024  156.9480 H   0  0  0  0  0  0  0  0  0  0  0  0
  147.0102  142.4156  157.0857 H   0  0  0  0  0  0  0  0  0  0  0  0
  145.0674  140.8596  157.0907 H   0  0  0  0  0  0  0  0  0  0  0  0
  146.4989  140.0982  156.4394 H   0  0  0  0  0  0  0  0  0  0  0  0
  145.2168  140.6345  155.3571 H   0  0  0  0  0  0  0  0  0  0  0  0
  147.8300  143.3124  155.1362 H   0  0  0  0  0  0  0  0  0  0  0  0
  1  2  1  0  0  0  0
  1 22  1  0  0  0  0
  1 23  1  0  0  0  0
  1 24  1  0  0  0  0
  2  8  1  0  0  0  0
  2  3  2  0  0  0  0
  3  4  1  0  0  0  0
  4  5  1  0  0  0  0
  4  6  1  0  0  0  0
  5 25  1  0  0  0  0
  5 26  1  0  0  0  0
  5 27  1  0  0  0  0
  6  7  1  0  0  0  0
  6  8  2  0  0  0  0
  7 28  1  0  0  0  0
  7 29  1  0  0  0  0
  7 30  1  0  0  0  0
  8  9  1  0  0  0  0
  9 10  1  0  0  0  0
  9 31  1  0  0  0  0
  9 32  1  0  0  0  0
 10 11  2  0  0  0  0
 10 12  1  0  0  0  0
 12 13  1  0  0  0  0
 12 33  1  0  0  0  0
 13 14  1  0  0  0  0
 13 34  1  0  0  0  0
 13 35  1  0  0  0  0
 14 15  1  0  0  0  0
 14 36  1  0  0  0  0
 14 37  1  0  0  0  0
 15 20  1  0  0  0  0
 15 16  1  0  0  0  0
 15 50  1  0  0  0  0
 16 17  1  0  0  0  0
 16 38  1  0  0  0  0
 16 39  1  0  0  0  0
 17 18  1  0  0  0  0
 17 40  1  0  0  0  0
 17 41  1  0  0  0  0
 18 19  1  0  0  0  0
 18 42  1  0  0  0  0
 18 43  1  0  0  0  0
 19 20  1  0  0  0  0
 19 44  1  0  0  0  0
 19 45  1  0  0  0  0
 20 21  1  0  0  0  0
 20 46  1  0  0  0  0
 21 47  1  0  0  0  0
 21 48  1  0  0  0  0
 21 49  1  0  0  0  0
M  CHG  1  15   1
M  END
> <s_m_source_file>
AV-unprocessed.smi

> <i_m_source_file_index>
564

> <i_lp_mmshare_version>
43012

> <i_f3d_flags>
0

> <s_epik_input>
W0NIM11jMW5uKFtDSDNdKWMoW0NIM10pYzFbQ0gyXUMoPU8pW05IXVtDSDJdW0NIMl1OMltDSDJdW0NIMl1bQ0gyXVtDSDJdW0NASF0yW0NIM10=

> <s_epik_cmdline>
J2VwaWtfcHl0aG9uJywgJy1waCcsICc3LjAnLCAnLXRuJywgJzgnLCAnLW1hJywgJzIwMCcsICctbWV0YWxfYmluZGluZycsICctaW1hZScsICc8aW5maWxlLm1hZT4nLCAnLW9tYWUnLCAnPG91dGZpbGUubWFlPic=

> <r_lp_tautomer_probability>
1

> <r_epik_Ionization_Penalty>
0.00456826

> <r_epik_Ionization_Penalty_Charging>
0.00240401

> <r_epik_Ionization_Penalty_Neutral>
0.00216425

> <r_epik_State_Penalty>
-0

> <r_epik_Charging_Adjusted_Penalty>
0.00240401

> <i_epik_Tot_Q>
1

> <i_epik_Tot_abs_Q>
1

> <r_epik_Metal_State_Penalty>
-0

> <b_epik_Metal_Only>
0

> <s_lp_Force_Field>
OPLS_2005

> <r_lp_Energy>
16.0318

> <b_lp_Chiralities_Consistent>
1

> <s_lp_Variant>
AV-unprocessed.smi:564-2

> <Gold.Version>
5.8.1

> <Gold.Id.Protein>
6NUR|6NUR_protein|mol2

> <Gold.PLP.Fitness>
57.1811

> <Gold.PLP.PLP>
-48.8432

> <Gold.PLP.part.hbond>
-2.0000

> <Gold.PLP.part.metal>
0.0000

> <Gold.PLP.part.buried>
-8.2639

> <Gold.PLP.part.nonpolar>
-38.9552

> <Gold.PLP.part.repulsive>
0.3170

> <Gold.PLP.ligand.clash>
0.0000

> <Gold.PLP.ligand.torsion>
0.3572

> <Gold.PLP.Chemscore.Hbond>
3.0000

> <Gold.PLP.Chemscore.CHOScore>
0.0000

> <Gold.PLP.Chemscore.Metal>
0.0000

> <Gold.Chemscore.Hbonds>
donor molecule, donor type, donor heavy atom, donor atom, acceptor molecule, acceptor atom, score
      L1  H    12    33       P1  8028  1.00
      L1  H    15    50       P1  8028  2.00

> <Gold.PLP.Chemscore.Internal.Correction>
0.0524

> <Gold.Rescore>
     Score         DG    S(hbond)    S(metal)    S(lipo)     H(rot)  DE(clash)    DE(int)     intcor
     19.52     -20.06       1.75        0.00     109.87       1.61       0.07       0.46       ----

> <Gold.Chemscore.Fitness>
19.5229

> <Gold.Chemscore.DG>
-20.0573

> <Gold.Chemscore.ZeroCoef>
-5.4800

> <Gold.Chemscore.Hbond>
1.7530

> <Gold.Chemscore.Metal>
0.0000

> <Gold.Chemscore.Lipo>
109.8698

> <Gold.Chemscore.Internal_Hbond>
0.0000

> <Gold.Chemscore.DEClash>
0.0742

> <Gold.Chemscore.DEInternal>
0.4602

> <Gold.Chemscore.Rot>
1.6142

> <Gold.Chemscore.Internal.Correction>
   9.000000E+99

> <Gold.Chemscore.Hbonds>
donor molecule, donor type, donor heavy atom, donor atom, acceptor molecule, acceptor atom, score
      L1  H    12    33       P1  8028  0.98
      L1  H    15    50       P1  8028  0.55

> <Gold.Chemscore.Hbond.Weighted>
-5.8550

> <Gold.Chemscore.Metal.Weighted>
-0.0000

> <Gold.Chemscore.Lipo.Weighted>
-12.8548

> <Gold.Chemscore.Internal_Hbond.Weighted>
0.0000

> <Gold.Chemscore.DEClash.Weighted>
0.0742

> <Gold.Chemscore.DEInternal.Weighted>
0.4602

> <Gold.Chemscore.Rot.Weighted>
4.1324

> <Gold.Chemscore.Internal.Correction.Weighted>
   9.000000E+99

> <Gold.Protein.RotatedTorsions>
[ 6907 6896 6895 6894 ] final  -50.20 input  -60.11 | X-H torsion
[ 7974 7965 7964 7962 ] final -132.31 input  175.53 | X-H torsion
[ 8008 7997 7996 7995 ] final -128.88 input   59.86 | X-H torsion
[ 10167 10162 10161 10158 ] final  -45.72 input  -65.29 | X-H torsion
[ 10718 10713 10712 10709 ] final   -2.52 input   66.30 | X-H torsion
[ 10763 10752 10751 10750 ] final   98.89 input  -60.55 | X-H torsion
[ 11005 11000 10999 10996 ] final -172.50 input  -57.11 | X-H torsion

> <Gold.Protein.ActiveResidues>
 VAL166  LYS551  ARG553  GLY616  TRP617  ASP618  TYR619  PRO620  LYS621  CYS622 
 ASP623  PHE694  ASN695  SER759  ASP760  ASP761  ALA762  ILE779  LEU786  VAL792 
 PHE793  MET794  SER795  GLU796  ALA797  LYS798  CYS799  TRP800  GLU811  SER814 

> <Gold.Protein.RotatedAtoms>
  150.8730  134.8108  159.7168 H   0  0  0  0  0  0  0  0  0  0  0  0  # atno 6907 bound_to 6896
  152.4728  134.4916  159.9707 H   0  0  0  0  0  0  0  0  0  0  0  0  # atno 6908 bound_to 6896
  151.5001  133.3467  159.2903 H   0  0  0  0  0  0  0  0  0  0  0  0  # atno 6909 bound_to 6896
  144.9297  140.7114  143.4913 H   0  0  0  0  0  0  0  0  0  0  0  0  # atno 7974 bound_to 7965
  155.2700  140.0439  157.3006 H   0  0  0  0  0  0  0  0  0  0  0  0  # atno 8008 bound_to 7997
  154.5659  140.2360  155.8233 H   0  0  0  0  0  0  0  0  0  0  0  0  # atno 8009 bound_to 7997
  156.2085  140.3006  155.9687 H   0  0  0  0  0  0  0  0  0  0  0  0  # atno 8010 bound_to 7997
  140.6846  143.2865  151.3680 H   0  0  0  0  0  0  0  0  0  0  0  0  # atno 10167 bound_to 10162
  156.7895  130.5357  149.5738 H   0  0  0  0  0  0  0  0  0  0  0  0  # atno 10718 bound_to 10713
  153.2946  135.4132  155.1198 H   0  0  0  0  0  0  0  0  0  0  0  0  # atno 10763 bound_to 10752
  154.8531  135.3526  154.5934 H   0  0  0  0  0  0  0  0  0  0  0  0  # atno 10764 bound_to 10752
  153.6358  135.7059  153.5317 H   0  0  0  0  0  0  0  0  0  0  0  0  # atno 10765 bound_to 10752
  140.4962  134.5937  157.4972 H   0  0  0  0  0  0  0  0  0  0  0  0  # atno 11005 bound_to 11000
  145.3161  139.1803  143.4613 LP  0  0  0  0  0  0  0  0  0  0  0  0  # atno 17320 bound_to 7965
  146.3242  140.3172  142.8631 LP  0  0  0  0  0  0  0  0  0  0  0  0  # atno 17321 bound_to 7965
  139.6195  144.0935  152.2378 LP  0  0  0  0  0  0  0  0  0  0  0  0  # atno 17342 bound_to 10162
  140.0375  144.6033  150.7438 LP  0  0  0  0  0  0  0  0  0  0  0  0  # atno 17343 bound_to 10162
  156.1168  130.6080  151.0132 LP  0  0  0  0  0  0  0  0  0  0  0  0  # atno 17370 bound_to 10713
  157.6607  131.0881  150.7844 LP  0  0  0  0  0  0  0  0  0  0  0  0  # atno 17371 bound_to 10713
  139.9740  134.7246  155.9986 LP  0  0  0  0  0  0  0  0  0  0  0  0  # atno 17394 bound_to 11000
  141.1459  133.6556  156.3865 LP  0  0  0  0  0  0  0  0  0  0  0  0  # atno 17395 bound_to 11000

$$$$
