#       Name:                AV-unprocessed.smi:2229
#       Creating user name   scv26
#       Creation time:       Fri Mar 27 12:24:13 2020


#       File generated by GOLD software.
#

@<TRIPOS>MOLECULE
AV-unprocessed.smi:2229
    49    50     1
SMALL
NO_CHARGES


@<TRIPOS>ATOM
      1 ****        -3.0324   3.0153   0.2330 C.3            1 S1                 0.0000
      2 ****        -3.4424   1.8750  -0.7146 C.3            1 S1                 0.0000
      3 ****        -4.9300   1.5378  -0.5300 C.3            1 S1                 0.0000
      4 ****        -2.5717   0.6142  -0.5357 C.3            1 S1                 0.0000
      5 ****        -1.1014   0.8014  -0.9528 C.3            1 S1                 0.0000
      6 ****        -0.2579  -0.4795  -0.8096 C.3            1 S1                 0.0000
      7 ****        -0.6629  -1.6014  -1.7764 C.3            1 S1                 0.0000
      8 ****         0.6031  -2.4323  -1.9508 C.3            1 S1                 0.0000
      9 ****         1.7202  -1.3919  -1.9786 C.3            1 S1                 0.0000
     10 ****         1.2535  -0.2499  -1.0584 C.3            1 S1                 0.0000
     11 ****         2.0037  -0.2831   0.1929 N.am           1 S1                 0.0000
     12 ****         2.2336   0.7641   1.0025 C.2            1 S1                 0.0000
     13 ****         1.8496   1.9041   0.7444 O.2            1 S1                 0.0000
     14 ****         3.0104   0.5160   2.3069 C.3            1 S1                 0.0000
     15 ****         3.3811  -0.8831   2.5497 N.am           1 S1                 0.0000
     16 ****         4.6400  -1.3744   2.3098 C.2            1 S1                 0.0000
     17 ****         4.7007  -2.6268   2.5891 N.2            1 S1                 0.0000
     18 ****         3.3983  -3.0031   3.0491 N.pl3          1 S1                -1.0000
     19 ****         2.6335  -1.8901   3.0052 C.2            1 S1                 0.0000
     20 ****         1.4482  -1.7647   3.3091 O.2            1 S1                 0.0000
     21 ****        -3.0895   2.7036   1.2763 H              1 S1                 0.0000
     22 ****        -3.6855   3.8797   0.1100 H              1 S1                 0.0000
     23 ****        -2.0154   3.3557   0.0406 H              1 S1                 0.0000
     24 ****        -3.3172   2.2297  -1.7385 H              1 S1                 0.0000
     25 ****        -5.1314   1.1749   0.4784 H              1 S1                 0.0000
     26 ****        -5.2504   0.7668  -1.2312 H              1 S1                 0.0000
     27 ****        -5.5567   2.4139  -0.6994 H              1 S1                 0.0000
     28 ****        -2.6190   0.2793   0.5014 H              1 S1                 0.0000
     29 ****        -3.0010  -0.1918  -1.1315 H              1 S1                 0.0000
     30 ****        -1.0504   1.1628  -1.9806 H              1 S1                 0.0000
     31 ****        -0.6511   1.5776  -0.3356 H              1 S1                 0.0000
     32 ****        -0.3888  -0.8650   0.2038 H              1 S1                 0.0000
     33 ****        -1.4987  -2.1940  -1.4034 H              1 S1                 0.0000
     34 ****        -0.9565  -1.1834  -2.7403 H              1 S1                 0.0000
     35 ****         0.7337  -3.0915  -1.0914 H              1 S1                 0.0000
     36 ****         0.5815  -3.0505  -2.8485 H              1 S1                 0.0000
     37 ****         2.6842  -1.8153  -1.6926 H              1 S1                 0.0000
     38 ****         1.8280  -1.0111  -2.9950 H              1 S1                 0.0000
     39 ****         1.4297   0.6988  -1.5691 H              1 S1                 0.0000
     40 ****         2.3520  -1.1843   0.4882 H              1 S1                 0.0000
     41 ****         3.9015   1.1462   2.3024 H              1 S1                 0.0000
     42 ****         2.3995   0.8659   3.1404 H              1 S1                 0.0000
     43 ****         5.4240  -0.7174   1.9295 H              1 S1                 0.0000
     44 ****         1.3426   2.0820  -0.0990 LP             1 S1                 0.0000
     45 ****         2.0445   2.6528   1.3780 LP             1 S1                 0.0000
     46 ****         5.5000  -3.2215   2.5024 LP             1 S1                 0.0000
     47 ****         3.1103  -3.9136   3.3456 LP             1 S1                 0.0000
     48 ****         1.0004  -0.8750   3.2193 LP             1 S1                 0.0000
     49 ****         0.9324  -2.5523   3.6460 LP             1 S1                 0.0000
@<TRIPOS>BOND
    1    1    2 1     
    2    1   21 1     
    3    1   22 1     
    4    1   23 1     
    5    2    3 1     
    6    2    4 1     
    7    2   24 1     
    8    3   25 1     
    9    3   26 1     
   10    3   27 1     
   11    4    5 1     
   12    4   28 1     
   13    4   29 1     
   14    5    6 1     
   15    5   30 1     
   16    5   31 1     
   17    6   10 1     
   18    6    7 1     
   19    6   32 1     
   20    7    8 1     
   21    7   33 1     
   22    7   34 1     
   23    8    9 1     
   24    8   35 1     
   25    8   36 1     
   26    9   10 1     
   27    9   37 1     
   28    9   38 1     
   29   10   11 1     
   30   10   39 1     
   31   11   12 am    
   32   11   40 1     
   33   12   13 2     
   34   12   14 1     
   35   14   15 1     
   36   14   41 1     
   37   14   42 1     
   38   15   19 am    
   39   15   16 1     
   40   16   17 2     
   41   16   43 1     
   42   17   18 1     
   43   18   19 1     
   44   19   20 2     
   45   13   44 1     
   46   13   45 1     
   47   17   46 1     
   48   18   47 1     
   49   20   48 1     
   50   20   49 1     
@<TRIPOS>SUBSTRUCTURE
      1 S1             1
@<TRIPOS>SET
LONE_PAIRS      STATIC     ATOMS    <user>   **** ""
6 44 45 46 47 48 49
DONOR_HYDROGENS      STATIC     ATOMS    <user>   **** ""
1 40
ATOM$BLUE        STATIC     ATOMS    COLORGROUP SYSTEM
6 44 45 46 47 48 49
ATOM$RED        STATIC     ATOMS    COLORGROUP SYSTEM
1 40
