#       Name:                AV-unprocessed.smi:1047
#       Creating user name   scv26
#       Creation time:       Fri Mar 27 03:06:24 2020


#       File generated by GOLD software.
#

@<TRIPOS>MOLECULE
AV-unprocessed.smi:1047
    62    64     1
SMALL
NO_CHARGES


@<TRIPOS>ATOM
      1 ****        -4.6842   5.9588  -0.8705 C.3            1 S1                 0.0000
      2 ****        -4.1705   4.5139  -0.7941 C.3            1 S1                 0.0000
      3 ****        -2.7179   4.3790  -0.6957 N.3            1 S1                 0.0000
      4 ****        -2.1900   4.9036   0.5612 C.3            1 S1                 0.0000
      5 ****        -0.6662   4.7225   0.6620 C.3            1 S1                 0.0000
      6 ****        -0.3344   3.3480   0.4933 O.3            1 S1                 0.0000
      7 ****        -0.7828   2.8136  -0.7501 C.3            1 S1                 0.0000
      8 ****        -0.3669   1.3376  -0.8103 C.3            1 S1                 0.0000
      9 ****         1.1011   1.2002  -0.8846 N.4            1 S1                 1.0000
     10 ****         1.5709  -0.1996  -0.8882 C.3            1 S1                 0.0000
     11 ****         3.1095  -0.2856  -0.9224 C.3            1 S1                 0.0000
     12 ****         3.5734   0.1950  -2.1680 O.3            1 S1                 0.0000
     13 ****         3.6584  -1.7174  -0.7538 C.3            1 S1                 0.0000
     14 ****         3.2951  -2.3293   0.5328 N.pl3          1 S1                 0.0000
     15 ****         3.8676  -2.1715   1.7575 C.2            1 S1                 0.0000
     16 ****         3.1833  -2.9551   2.6359 N.pl3          1 S1                 1.0000
     17 ****         2.1621  -3.6284   1.9627 C.ar           1 S1                 0.0000
     18 ****         1.2094  -4.5291   2.4241 C.ar           1 S1                 0.0000
     19 ****         0.2945  -5.0420   1.4771 C.ar           1 S1                 0.0000
     20 ****        -0.7623  -6.0265   1.9490 C.3            1 S1                 0.0000
     21 ****         0.3570  -4.6490   0.1153 C.ar           1 S1                 0.0000
     22 ****        -0.6320  -5.2062  -0.8945 C.3            1 S1                 0.0000
     23 ****         1.3340  -3.7319  -0.3343 C.ar           1 S1                 0.0000
     24 ****         2.2284  -3.2346   0.6115 C.ar           1 S1                 0.0000
     25 ****        -2.3128   2.9846  -0.8345 C.3            1 S1                 0.0000
     26 ****        -5.7580   5.9729  -1.0579 H              1 S1                 0.0000
     27 ****        -4.2004   6.5069  -1.6793 H              1 S1                 0.0000
     28 ****        -4.5124   6.5022   0.0585 H              1 S1                 0.0000
     29 ****        -4.6495   4.0022   0.0421 H              1 S1                 0.0000
     30 ****        -4.5102   3.9996  -1.6940 H              1 S1                 0.0000
     31 ****        -2.4210   5.9643   0.6556 H              1 S1                 0.0000
     32 ****        -2.6703   4.4021   1.4029 H              1 S1                 0.0000
     33 ****        -0.1555   5.3226  -0.0927 H              1 S1                 0.0000
     34 ****        -0.3086   5.0590   1.6350 H              1 S1                 0.0000
     35 ****        -0.3120   3.3575  -1.5713 H              1 S1                 0.0000
     36 ****        -0.7448   0.8056   0.0640 H              1 S1                 0.0000
     37 ****        -0.8048   0.8635  -1.6898 H              1 S1                 0.0000
     38 ****         1.4248   1.6531  -1.7274 H              1 S1                 0.0000
     39 ****         1.1901  -0.6731   0.0168 H              1 S1                 0.0000
     40 ****         1.1381  -0.7349  -1.7347 H              1 S1                 0.0000
     41 ****         3.5285   0.3449  -0.1368 H              1 S1                 0.0000
     42 ****         3.4054   1.1232  -2.2240 H              1 S1                 0.0000
     43 ****         3.3332  -2.3643  -1.5686 H              1 S1                 0.0000
     44 ****         4.7485  -1.7027  -0.7983 H              1 S1                 0.0000
     45 ****         4.7136  -1.5406   1.9908 H              1 S1                 0.0000
     46 ****         1.1684  -4.8247   3.4624 H              1 S1                 0.0000
     47 ****        -1.7619  -5.6523   1.7264 H              1 S1                 0.0000
     48 ****        -0.7022  -6.1919   3.0254 H              1 S1                 0.0000
     49 ****        -0.6345  -6.9904   1.4557 H              1 S1                 0.0000
     50 ****        -0.4204  -4.8459  -1.9017 H              1 S1                 0.0000
     51 ****        -1.6484  -4.9053  -0.6390 H              1 S1                 0.0000
     52 ****        -0.5877  -6.2954  -0.9161 H              1 S1                 0.0000
     53 ****         1.3747  -3.4340  -1.3714 H              1 S1                 0.0000
     54 ****        -2.7890   2.3839  -0.0574 H              1 S1                 0.0000
     55 ****        -2.6663   2.5934  -1.7892 H              1 S1                 0.0000
     56 ****         1.5042   1.6733  -0.0882 H              1 S1                 0.0000
     57 ****         3.4020  -3.0273   3.6216 H              1 S1                 0.0000
     58 ****        -2.3374   4.9208  -1.4452 LP             1 S1                 0.0000
     59 ****        -0.7554   2.8256   1.2347 LP             1 S1                 0.0000
     60 ****         0.6599   3.2524   0.5409 LP             1 S1                 0.0000
     61 ****         3.0947  -0.2770  -2.9082 LP             1 S1                 0.0000
     62 ****         4.5562   0.0274  -2.2465 LP             1 S1                 0.0000
@<TRIPOS>BOND
    1    1    2 1     
    2    1   26 1     
    3    1   27 1     
    4    1   28 1     
    5    2    3 1     
    6    2   29 1     
    7    2   30 1     
    8    3   25 1     
    9    3    4 1     
   10    4    5 1     
   11    4   31 1     
   12    4   32 1     
   13    5    6 1     
   14    5   33 1     
   15    5   34 1     
   16    6    7 1     
   17    7    8 1     
   18    7   25 1     
   19    7   35 1     
   20    8    9 1     
   21    8   36 1     
   22    8   37 1     
   23    9   10 1     
   24    9   38 1     
   25    9   56 1     
   26   10   11 1     
   27   10   39 1     
   28   10   40 1     
   29   11   12 1     
   30   11   13 1     
   31   11   41 1     
   32   12   42 1     
   33   13   14 1     
   34   13   43 1     
   35   13   44 1     
   36   14   24 1     
   37   14   15 1     
   38   15   16 2     
   39   15   45 1     
   40   16   17 1     
   41   16   57 1     
   42   17   24 ar    
   43   17   18 ar    
   44   18   19 ar    
   45   18   46 1     
   46   19   20 1     
   47   19   21 ar    
   48   20   47 1     
   49   20   48 1     
   50   20   49 1     
   51   21   22 1     
   52   21   23 ar    
   53   22   50 1     
   54   22   51 1     
   55   22   52 1     
   56   23   24 ar    
   57   23   53 1     
   58   25   54 1     
   59   25   55 1     
   60    3   58 1     
   61    6   59 1     
   62    6   60 1     
   63   12   61 1     
   64   12   62 1     
@<TRIPOS>SUBSTRUCTURE
      1 S1             1
@<TRIPOS>SET
LONE_PAIRS      STATIC     ATOMS    <user>   **** ""
5 58 59 60 61 62
DONOR_HYDROGENS      STATIC     ATOMS    <user>   **** ""
4 38 56 42 57
ATOM$BLUE        STATIC     ATOMS    COLORGROUP SYSTEM
5 58 59 60 61 62
ATOM$RED        STATIC     ATOMS    COLORGROUP SYSTEM
4 38 56 42 57
