#       Name:                AV-unprocessed.smi:3076
#       Creating user name   scv26
#       Creation time:       Fri Mar 27 17:12:28 2020


#       File generated by GOLD software.
#

@<TRIPOS>MOLECULE
AV-unprocessed.smi:3076
    24    24     1
SMALL
NO_CHARGES


@<TRIPOS>ATOM
      1 ****        -1.9925   2.4129  -0.1577 N.4            1 S1                 1.0000
      2 ****        -1.4625   1.0458  -0.0128 C.3            1 S1                 0.0000
      3 ****         0.0700   1.0111  -0.1524 C.3            1 S1                 0.0000
      4 ****         0.6389   1.7839   0.8868 O.3            1 S1                 0.0000
      5 ****         0.5900  -0.4176  -0.1439 C.ar           1 S1                 0.0000
      6 ****         0.6865  -1.1600   1.0537 C.ar           1 S1                 0.0000
      7 ****         1.1647  -2.4832   0.9984 C.ar           1 S1                 0.0000
      8 ****         1.5270  -3.0138  -0.2555 C.ar           1 S1                 0.0000
      9 ****         1.4374  -2.3162  -1.4081 N.ar           1 S1                 0.0000
     10 ****         0.9784  -1.0480  -1.3465 C.ar           1 S1                 0.0000
     11 ****        -2.9973   2.3998  -0.0565 H              1 S1                 0.0000
     12 ****        -1.7485   2.7754  -1.0681 H              1 S1                 0.0000
     13 ****        -1.7741   0.6434   0.9521 H              1 S1                 0.0000
     14 ****        -1.9231   0.4241  -0.7814 H              1 S1                 0.0000
     15 ****         0.3564   1.4758  -1.0972 H              1 S1                 0.0000
     16 ****         1.5755   1.8170   0.7598 H              1 S1                 0.0000
     17 ****         0.3974  -0.7265   2.0001 H              1 S1                 0.0000
     18 ****         1.2515  -3.0784   1.8955 H              1 S1                 0.0000
     19 ****         1.8964  -4.0255  -0.3347 H              1 S1                 0.0000
     20 ****         0.9172  -0.5222  -2.2883 H              1 S1                 0.0000
     21 ****        -1.5884   3.0015   0.5572 H              1 S1                 0.0000
     22 ****         0.4333   1.3636   1.7705 LP             1 S1                 0.0000
     23 ****         0.2626   2.7101   0.8626 LP             1 S1                 0.0000
     24 ****         1.7028  -2.7263  -2.2807 LP             1 S1                 0.0000
@<TRIPOS>BOND
    1    1    2 1     
    2    1   11 1     
    3    1   12 1     
    4    1   21 1     
    5    2    3 1     
    6    2   13 1     
    7    2   14 1     
    8    3    4 1     
    9    3    5 1     
   10    3   15 1     
   11    4   16 1     
   12    5   10 ar    
   13    5    6 ar    
   14    6    7 ar    
   15    6   17 1     
   16    7    8 ar    
   17    7   18 1     
   18    8    9 ar    
   19    8   19 1     
   20    9   10 ar    
   21   10   20 1     
   22    4   22 1     
   23    4   23 1     
   24    9   24 1     
@<TRIPOS>SUBSTRUCTURE
      1 S1             1
@<TRIPOS>SET
LONE_PAIRS      STATIC     ATOMS    <user>   **** ""
3 22 23 24
DONOR_HYDROGENS      STATIC     ATOMS    <user>   **** ""
4 11 12 21 16
ATOM$BLUE        STATIC     ATOMS    COLORGROUP SYSTEM
3 22 23 24
ATOM$RED        STATIC     ATOMS    COLORGROUP SYSTEM
4 11 12 21 16
