AV-unprocessed.smi:1944|AV-procd|sdf|7854|dock8
  -GOLD-   2272010 03D 1   1.00000     0.00000
 Structure written by MMmdl.
 46 47  0  0  0  0  0  0  0  0  2 V2000
  151.9881  139.7185  156.4549 C   0  0  0  0  0  0  0  0  0  0  0  0
  152.6188  140.1443  157.6581 O   0  0  0  0  0  0  0  0  0  0  0  0
  152.2754  141.3760  158.1823 C   0  0  0  0  0  0  0  0  0  0  0  0
  151.4222  142.1616  157.4782 N   0  0  0  0  0  0  0  0  0  0  0  0
  151.0833  143.3628  157.9896 C   0  0  0  0  0  0  0  0  0  0  0  0
  151.5658  143.8392  159.2222 C   0  0  0  0  0  0  0  0  0  0  0  0
  152.4511  143.0267  159.9542 C   0  0  0  0  0  0  0  0  0  0  0  0
  152.8290  141.7697  159.4231 C   0  0  0  0  0  0  0  0  0  0  0  0
  153.6990  140.8660  160.0930 N   0  0  0  0  0  0  0  0  0  0  0  0
  154.2905  141.0140  161.2904 C   0  0  0  0  0  0  0  0  0  0  0  0
  154.2033  142.0092  162.0098 O   0  0  0  0  0  0  0  0  0  0  0  0
  155.0227  139.9374  161.6099 N   0  0  0  0  0  0  0  0  0  0  0  0
  155.7786  139.7852  162.8478 C   0  0  0  0  0  0  0  0  0  0  0  0
  155.0460  138.8674  163.8465 C   0  0  0  0  0  0  0  0  0  0  0  0
  155.2713  137.4190  163.5897 N   0  3  1  0  0  0  0  0  0  0  0  0
  154.5738  136.5607  164.5852 C   0  0  0  0  0  0  0  0  0  0  0  0
  154.9897  135.0877  164.4458 C   0  0  0  0  0  0  0  0  0  0  0  0
  154.7441  134.5785  163.0217 C   0  0  0  0  0  0  0  0  0  0  0  0
  155.4577  135.4897  162.0138 C   0  0  0  0  0  0  0  0  0  0  0  0
  155.0528  136.9705  162.1772 C   0  0  1  0  0  0  0  0  0  0  0  0
  153.6275  137.2460  161.6507 C   0  0  0  0  0  0  0  0  0  0  0  0
  152.3729  138.7384  156.1742 H   0  0  0  0  0  0  0  0  0  0  0  0
  152.1961  140.4028  155.6310 H   0  0  0  0  0  0  0  0  0  0  0  0
  150.9084  139.6261  156.5804 H   0  0  0  0  0  0  0  0  0  0  0  0
  150.4013  143.9592  157.4019 H   0  0  0  0  0  0  0  0  0  0  0  0
  151.2598  144.8035  159.6001 H   0  0  0  0  0  0  0  0  0  0  0  0
  152.8089  143.3742  160.9110 H   0  0  0  0  0  0  0  0  0  0  0  0
  153.9429  140.0367  159.5712 H   0  0  0  0  0  0  0  0  0  0  0  0
  155.0466  139.1655  160.9594 H   0  0  0  0  0  0  0  0  0  0  0  0
  156.7709  139.4048  162.6044 H   0  0  0  0  0  0  0  0  0  0  0  0
  155.9209  140.7740  163.2847 H   0  0  0  0  0  0  0  0  0  0  0  0
  155.4165  139.1019  164.8455 H   0  0  0  0  0  0  0  0  0  0  0  0
  153.9779  139.0841  163.8709 H   0  0  0  0  0  0  0  0  0  0  0  0
  154.8173  136.8973  165.5937 H   0  0  0  0  0  0  0  0  0  0  0  0
  153.4935  136.6642  164.4783 H   0  0  0  0  0  0  0  0  0  0  0  0
  156.0463  134.9806  164.6952 H   0  0  0  0  0  0  0  0  0  0  0  0
  154.4393  134.4754  165.1608 H   0  0  0  0  0  0  0  0  0  0  0  0
  155.1040  133.5540  162.9217 H   0  0  0  0  0  0  0  0  0  0  0  0
  153.6740  134.5519  162.8144 H   0  0  0  0  0  0  0  0  0  0  0  0
  156.5356  135.3962  162.1543 H   0  0  0  0  0  0  0  0  0  0  0  0
  155.2573  135.1514  160.9965 H   0  0  0  0  0  0  0  0  0  0  0  0
  155.7361  137.5301  161.5402 H   0  0  0  0  0  0  0  0  0  0  0  0
  153.5165  136.8729  160.6324 H   0  0  0  0  0  0  0  0  0  0  0  0
  153.4068  138.3127  161.6159 H   0  0  0  0  0  0  0  0  0  0  0  0
  152.8595  136.7650  162.2557 H   0  0  0  0  0  0  0  0  0  0  0  0
  156.2547  137.2703  163.7655 H   0  0  0  0  0  0  0  0  0  0  0  0
  1  2  1  0  0  0  0
  1 22  1  0  0  0  0
  1 23  1  0  0  0  0
  1 24  1  0  0  0  0
  2  3  1  0  0  0  0
  3  8  1  0  0  0  0
  3  4  2  0  0  0  0
  4  5  1  0  0  0  0
  5  6  2  0  0  0  0
  5 25  1  0  0  0  0
  6  7  1  0  0  0  0
  6 26  1  0  0  0  0
  7  8  2  0  0  0  0
  7 27  1  0  0  0  0
  8  9  1  0  0  0  0
  9 10  1  0  0  0  0
  9 28  1  0  0  0  0
 10 11  2  0  0  0  0
 10 12  1  0  0  0  0
 12 13  1  0  0  0  0
 12 29  1  0  0  0  0
 13 14  1  0  0  0  0
 13 30  1  0  0  0  0
 13 31  1  0  0  0  0
 14 15  1  0  0  0  0
 14 32  1  0  0  0  0
 14 33  1  0  0  0  0
 15 20  1  0  0  0  0
 15 16  1  0  0  0  0
 15 46  1  0  0  0  0
 16 17  1  0  0  0  0
 16 34  1  0  0  0  0
 16 35  1  0  0  0  0
 17 18  1  0  0  0  0
 17 36  1  0  0  0  0
 17 37  1  0  0  0  0
 18 19  1  0  0  0  0
 18 38  1  0  0  0  0
 18 39  1  0  0  0  0
 19 20  1  0  0  0  0
 19 40  1  0  0  0  0
 19 41  1  0  0  0  0
 20 21  1  0  0  0  0
 20 42  1  0  0  0  0
 21 43  1  0  0  0  0
 21 44  1  0  0  0  0
 21 45  1  0  0  0  0
M  CHG  1  15   1
M  END
> <s_m_source_file>
AV-unprocessed.smi

> <i_m_source_file_index>
1944

> <i_lp_mmshare_version>
43012

> <i_f3d_flags>
0

> <s_epik_input>
W0NIM11PYzFuW2NIXVtjSF1bY0hdYzFbTkhdQyg9TylbTkhdW0NIMl1bQ0gyXU4yW0NIMl1bQ0gyXVtDSDJdW0NIMl1bQ0BIXTJbQ0gzXQ==

> <s_epik_cmdline>
J2VwaWtfcHl0aG9uJywgJy1waCcsICc3LjAnLCAnLXRuJywgJzgnLCAnLW1hJywgJzIwMCcsICctbWV0YWxfYmluZGluZycsICctaW1hZScsICc8aW5maWxlLm1hZT4nLCAnLW9tYWUnLCAnPG91dGZpbGUubWFlPic=

> <r_lp_tautomer_probability>
1

> <r_epik_Ionization_Penalty>
0.00219525

> <r_epik_Ionization_Penalty_Charging>
0.00211816

> <r_epik_Ionization_Penalty_Neutral>
7.7088e-05

> <r_epik_State_Penalty>
0.00145254

> <r_epik_Charging_Adjusted_Penalty>
0.0035707

> <i_epik_Tot_Q>
1

> <i_epik_Tot_abs_Q>
1

> <r_epik_Metal_State_Penalty>
-0

> <b_epik_Metal_Only>
0

> <s_lp_Force_Field>
OPLS_2005

> <r_lp_Energy>
22.8304

> <b_lp_Chiralities_Consistent>
1

> <s_lp_Variant>
AV-unprocessed.smi:1944-2

> <Gold.Version>
5.8.1

> <Gold.Id.Protein>
6NUR|6NUR_protein|mol2

> <Gold.PLP.Fitness>
41.8272

> <Gold.PLP.PLP>
-36.3461

> <Gold.PLP.part.hbond>
-2.0000

> <Gold.PLP.part.metal>
0.0000

> <Gold.PLP.part.buried>
-3.6086

> <Gold.PLP.part.nonpolar>
-30.1678

> <Gold.PLP.part.repulsive>
0.1250

> <Gold.PLP.ligand.clash>
0.0000

> <Gold.PLP.ligand.torsion>
0.2794

> <Gold.PLP.Chemscore.Hbond>
0.9913

> <Gold.PLP.Chemscore.CHOScore>
1.0000

> <Gold.PLP.Chemscore.Metal>
0.0000

> <Gold.Chemscore.Hbonds>
donor molecule, donor type, donor heavy atom, donor atom, acceptor molecule, acceptor atom, score
      P1  H  7997  8008       L1     2  0.60
      L1  C     5    25       P1  8028  1.00

> <Gold.PLP.Chemscore.Internal.Correction>
0.0661

> <Gold.Rescore>
     Score         DG    S(hbond)    S(metal)    S(lipo)     H(rot)  DE(clash)    DE(int)     intcor
     12.04     -13.86       0.45        0.00      96.09       1.71       0.19       1.63       ----

> <Gold.Chemscore.Fitness>
12.0358

> <Gold.Chemscore.DG>
-13.8550

> <Gold.Chemscore.ZeroCoef>
-5.4800

> <Gold.Chemscore.Hbond>
0.4526

> <Gold.Chemscore.Metal>
0.0000

> <Gold.Chemscore.Lipo>
96.0931

> <Gold.Chemscore.Internal_Hbond>
0.0000

> <Gold.Chemscore.DEClash>
0.1865

> <Gold.Chemscore.DEInternal>
1.6328

> <Gold.Chemscore.Rot>
1.7107

> <Gold.Chemscore.Internal.Correction>
   9.000000E+99

> <Gold.Chemscore.Hbonds>
donor molecule, donor type, donor heavy atom, donor atom, acceptor molecule, acceptor atom, score
      P1  H  7997  8008       L1     2  0.03

> <Gold.Chemscore.Hbond.Weighted>
-1.5116

> <Gold.Chemscore.Metal.Weighted>
-0.0000

> <Gold.Chemscore.Lipo.Weighted>
-11.2429

> <Gold.Chemscore.Internal_Hbond.Weighted>
0.0000

> <Gold.Chemscore.DEClash.Weighted>
0.1865

> <Gold.Chemscore.DEInternal.Weighted>
1.6328

> <Gold.Chemscore.Rot.Weighted>
4.3794

> <Gold.Chemscore.Internal.Correction.Weighted>
   9.000000E+99

> <Gold.Protein.RotatedTorsions>
[ 6907 6896 6895 6894 ] final  -97.84 input  -60.11 | X-H torsion
[ 7974 7965 7964 7962 ] final -151.86 input  175.53 | X-H torsion
[ 8008 7997 7996 7995 ] final  -70.51 input   59.86 | X-H torsion
[ 10167 10162 10161 10158 ] final -114.12 input  -65.29 | X-H torsion
[ 10718 10713 10712 10709 ] final  143.55 input   66.30 | X-H torsion
[ 10763 10752 10751 10750 ] final    8.73 input  -60.55 | X-H torsion
[ 11005 11000 10999 10996 ] final  -95.20 input  -57.11 | X-H torsion

> <Gold.Protein.ActiveResidues>
 VAL166  LYS551  ARG553  GLY616  TRP617  ASP618  TYR619  PRO620  LYS621  CYS622 
 ASP623  PHE694  ASN695  SER759  ASP760  ASP761  ALA762  ILE779  LEU786  VAL792 
 PHE793  MET794  SER795  GLU796  ALA797  LYS798  CYS799  TRP800  GLU811  SER814 

> <Gold.Protein.RotatedAtoms>
  150.7028  134.1286  159.4061 H   0  0  0  0  0  0  0  0  0  0  0  0  # atno 6907 bound_to 6896
  151.9272  135.0270  160.0536 H   0  0  0  0  0  0  0  0  0  0  0  0  # atno 6908 bound_to 6896
  152.2206  133.4945  159.5197 H   0  0  0  0  0  0  0  0  0  0  0  0  # atno 6909 bound_to 6896
  144.7826  140.4740  143.5829 H   0  0  0  0  0  0  0  0  0  0  0  0  # atno 7974 bound_to 7965
  154.5018  140.0833  156.7813 H   0  0  0  0  0  0  0  0  0  0  0  0  # atno 8008 bound_to 7997
  155.3986  140.3436  155.4237 H   0  0  0  0  0  0  0  0  0  0  0  0  # atno 8009 bound_to 7997
  156.1465  140.1545  156.8825 H   0  0  0  0  0  0  0  0  0  0  0  0  # atno 8010 bound_to 7997
  140.1044  143.4583  152.1792 H   0  0  0  0  0  0  0  0  0  0  0  0  # atno 10167 bound_to 10162
  157.3677  131.0974  151.0857 H   0  0  0  0  0  0  0  0  0  0  0  0  # atno 10718 bound_to 10713
  153.2218  135.6882  153.7991 H   0  0  0  0  0  0  0  0  0  0  0  0  # atno 10763 bound_to 10752
  153.7186  135.3271  155.3263 H   0  0  0  0  0  0  0  0  0  0  0  0  # atno 10764 bound_to 10752
  154.8273  135.4608  154.1069 H   0  0  0  0  0  0  0  0  0  0  0  0  # atno 10765 bound_to 10752
  141.1448  133.8010  157.0403 H   0  0  0  0  0  0  0  0  0  0  0  0  # atno 11005 bound_to 11000
  145.6009  139.1503  143.3130 LP  0  0  0  0  0  0  0  0  0  0  0  0  # atno 17320 bound_to 7965
  146.2042  140.6130  142.9089 LP  0  0  0  0  0  0  0  0  0  0  0  0  # atno 17321 bound_to 7965
  139.5653  144.7431  151.4039 LP  0  0  0  0  0  0  0  0  0  0  0  0  # atno 17342 bound_to 10162
  140.6960  143.7748  150.7327 LP  0  0  0  0  0  0  0  0  0  0  0  0  # atno 17343 bound_to 10162
  157.1973  130.6379  149.5726 LP  0  0  0  0  0  0  0  0  0  0  0  0  # atno 17370 bound_to 10713
  155.9749  130.4702  150.6422 LP  0  0  0  0  0  0  0  0  0  0  0  0  # atno 17371 bound_to 10713
  140.0697  134.9709  157.1446 LP  0  0  0  0  0  0  0  0  0  0  0  0  # atno 17394 bound_to 11000
  140.3729  134.2371  155.7176 LP  0  0  0  0  0  0  0  0  0  0  0  0  # atno 17395 bound_to 11000

$$$$
