AV-unprocessed.smi:1503|AV-procd|sdf|6068|dock8
  -GOLD-   22720 6183D 1   1.00000     0.00000
 Structure written by MMmdl.
 44 45  0  0  0  0  0  0  0  0  1 V2000
  148.5801  133.1169  152.8286 C   0  0  0  0  0  0  0  0  0  0  0  0
  149.3590  133.2070  153.9170 C   0  0  0  0  0  0  0  0  0  0  0  0
  149.2277  134.2793  154.9809 C   0  0  0  0  0  0  0  0  0  0  0  0
  149.5881  135.5936  154.4629 N   0  0  0  0  0  0  0  0  0  0  0  0
  150.1136  136.5944  155.1867 C   0  0  0  0  0  0  0  0  0  0  0  0
  150.3419  136.5066  156.3935 O   0  0  0  0  0  0  0  0  0  0  0  0
  150.4233  137.8872  154.4266 C   0  0  0  0  0  0  0  0  0  0  0  0
  151.8704  138.3746  154.6305 C   0  0  0  0  0  0  0  0  0  0  0  0
  151.9983  139.3054  155.8333 C   0  0  0  0  0  0  0  0  0  0  0  0
  152.8083  139.0431  156.8969 C   0  0  0  0  0  0  0  0  0  0  0  0
  153.6834  137.8050  156.9831 C   0  0  0  0  0  0  0  0  0  0  0  0
  152.8874  139.9181  157.9875 N   0  0  0  0  0  0  0  0  0  0  0  0
  152.1842  141.0069  158.0049 C   0  0  0  0  0  0  0  0  0  0  0  0
  152.1683  141.9545  159.0309 N   0  0  0  0  0  0  0  0  0  0  0  0
  151.9276  143.3748  158.7632 C   0  0  0  0  0  0  0  0  0  0  0  0
  151.4129  144.1007  160.0173 C   0  0  0  0  0  0  0  0  0  0  0  0
  152.3263  143.9117  161.0893 O   0  0  0  0  0  0  0  0  0  0  0  0
  152.4553  142.5367  161.4238 C   0  0  0  0  0  0  0  0  0  0  0  0
  153.0032  141.7582  160.2159 C   0  0  0  0  0  0  0  0  0  0  0  0
  151.3328  141.3093  156.9366 N   0  0  0  0  0  0  0  0  0  0  0  0
  151.1871  140.5333  155.8399 C   0  0  0  0  0  0  0  0  0  0  0  0
  150.4240  140.8698  154.9356 O   0  0  0  0  0  0  0  0  0  0  0  0
  150.7901  142.1592  156.9792 H   0  0  0  0  0  0  0  0  0  0  0  0
  147.7910  133.8306  152.6419 H   0  0  0  0  0  0  0  0  0  0  0  0
  148.7229  132.3245  152.1085 H   0  0  0  0  0  0  0  0  0  0  0  0
  150.1350  132.4708  154.0707 H   0  0  0  0  0  0  0  0  0  0  0  0
  148.2019  134.3176  155.3489 H   0  0  0  0  0  0  0  0  0  0  0  0
  149.8593  134.0208  155.8320 H   0  0  0  0  0  0  0  0  0  0  0  0
  149.4314  135.7532  153.4782 H   0  0  0  0  0  0  0  0  0  0  0  0
  150.2388  137.7315  153.3625 H   0  0  0  0  0  0  0  0  0  0  0  0
  149.7201  138.6527  154.7562 H   0  0  0  0  0  0  0  0  0  0  0  0
  152.5435  137.5257  154.7626 H   0  0  0  0  0  0  0  0  0  0  0  0
  152.2205  138.8764  153.7284 H   0  0  0  0  0  0  0  0  0  0  0  0
  154.2957  137.7025  156.0869 H   0  0  0  0  0  0  0  0  0  0  0  0
  153.0678  136.9114  157.0885 H   0  0  0  0  0  0  0  0  0  0  0  0
  154.3549  137.8539  157.8413 H   0  0  0  0  0  0  0  0  0  0  0  0
  152.8627  143.8285  158.4323 H   0  0  0  0  0  0  0  0  0  0  0  0
  151.2091  143.5202  157.9565 H   0  0  0  0  0  0  0  0  0  0  0  0
  151.3166  145.1682  159.8188 H   0  0  0  0  0  0  0  0  0  0  0  0
  150.4221  143.7385  160.2969 H   0  0  0  0  0  0  0  0  0  0  0  0
  153.1342  142.4407  162.2710 H   0  0  0  0  0  0  0  0  0  0  0  0
  151.4919  142.1344  161.7410 H   0  0  0  0  0  0  0  0  0  0  0  0
  153.0606  140.6995  160.4732 H   0  0  0  0  0  0  0  0  0  0  0  0
  154.0189  142.0861  159.9901 H   0  0  0  0  0  0  0  0  0  0  0  0
  1  2  2  0  0  0  0
  1 24  1  0  0  0  0
  1 25  1  0  0  0  0
  2  3  1  0  0  0  0
  2 26  1  0  0  0  0
  3  4  1  0  0  0  0
  3 27  1  0  0  0  0
  3 28  1  0  0  0  0
  4  5  1  0  0  0  0
  4 29  1  0  0  0  0
  5  6  2  0  0  0  0
  5  7  1  0  0  0  0
  7  8  1  0  0  0  0
  7 30  1  0  0  0  0
  7 31  1  0  0  0  0
  8  9  1  0  0  0  0
  8 32  1  0  0  0  0
  8 33  1  0  0  0  0
  9 21  1  0  0  0  0
  9 10  2  0  0  0  0
 10 11  1  0  0  0  0
 10 12  1  0  0  0  0
 11 34  1  0  0  0  0
 11 35  1  0  0  0  0
 11 36  1  0  0  0  0
 12 13  2  0  0  0  0
 13 14  1  0  0  0  0
 13 20  1  0  0  0  0
 14 19  1  0  0  0  0
 14 15  1  0  0  0  0
 15 16  1  0  0  0  0
 15 37  1  0  0  0  0
 15 38  1  0  0  0  0
 16 17  1  0  0  0  0
 16 39  1  0  0  0  0
 16 40  1  0  0  0  0
 17 18  1  0  0  0  0
 18 19  1  0  0  0  0
 18 41  1  0  0  0  0
 18 42  1  0  0  0  0
 19 43  1  0  0  0  0
 19 44  1  0  0  0  0
 20 23  1  0  0  0  0
 20 21  1  0  0  0  0
 21 22  2  0  0  0  0
M  END
> <s_m_source_file>
AV-unprocessed.smi

> <i_m_source_file_index>
1503

> <i_lp_mmshare_version>
43012

> <i_f3d_flags>
0

> <s_epik_input>
W0NIMl09W0NIXVtDSDJdW05IXUMoPU8pW0NIMl1bQ0gyXWMxYyhbQ0gzXSluYyhbbkhdYzE9TylOMltDSDJdW0NIMl1PW0NIMl1bQ0gyXTI=

> <s_epik_cmdline>
J2VwaWtfcHl0aG9uJywgJy1waCcsICc3LjAnLCAnLXRuJywgJzgnLCAnLW1hJywgJzIwMCcsICctbWV0YWxfYmluZGluZycsICctaW1hZScsICc8aW5maWxlLm1hZT4nLCAnLW9tYWUnLCAnPG91dGZpbGUubWFlPic=

> <r_lp_tautomer_probability>
0.878553

> <r_epik_Ionization_Penalty>
0.00125265

> <r_epik_Ionization_Penalty_Charging>
0.00122759

> <r_epik_Ionization_Penalty_Neutral>
2.50575e-05

> <r_epik_State_Penalty>
0.0426914

> <r_epik_Charging_Adjusted_Penalty>
0.043919

> <i_epik_Tot_Q>
0

> <i_epik_Tot_abs_Q>
0

> <r_epik_Metal_State_Penalty>
1.02948

> <b_epik_Metal_Only>
0

> <s_lp_Force_Field>
OPLS_2005

> <r_lp_Energy>
21.7502

> <b_lp_Chiralities_Consistent>
1

> <s_lp_Variant>
AV-unprocessed.smi:1503-1

> <Gold.Version>
5.8.1

> <Gold.Id.Protein>
6NUR|6NUR_protein|mol2

> <Gold.PLP.Fitness>
47.9908

> <Gold.PLP.PLP>
-43.5360

> <Gold.PLP.part.hbond>
-3.0000

> <Gold.PLP.part.metal>
0.0000

> <Gold.PLP.part.buried>
-3.3442

> <Gold.PLP.part.nonpolar>
-37.7484

> <Gold.PLP.part.repulsive>
0.3376

> <Gold.PLP.ligand.clash>
0.0000

> <Gold.PLP.ligand.torsion>
0.6530

> <Gold.PLP.Chemscore.Hbond>
1.8320

> <Gold.PLP.Chemscore.CHOScore>
0.0000

> <Gold.PLP.Chemscore.Metal>
0.0000

> <Gold.Chemscore.Hbonds>
donor molecule, donor type, donor heavy atom, donor atom, acceptor molecule, acceptor atom, score
      L1  H     4    29       P1  7948  1.00
      P1  H  7989  7998       L1    22  0.78

> <Gold.PLP.Chemscore.Internal.Correction>
0.2647

> <Gold.Rescore>
     Score         DG    S(hbond)    S(metal)    S(lipo)     H(rot)  DE(clash)    DE(int)     intcor
     14.99     -17.11       1.88        0.00      87.82       1.92       0.11       2.01       ----

> <Gold.Chemscore.Fitness>
14.9888

> <Gold.Chemscore.DG>
-17.1059

> <Gold.Chemscore.ZeroCoef>
-5.4800

> <Gold.Chemscore.Hbond>
1.8753

> <Gold.Chemscore.Metal>
0.0000

> <Gold.Chemscore.Lipo>
87.8153

> <Gold.Chemscore.Internal_Hbond>
0.0000

> <Gold.Chemscore.DEClash>
0.1097

> <Gold.Chemscore.DEInternal>
2.0073

> <Gold.Chemscore.Rot>
1.9187

> <Gold.Chemscore.Internal.Correction>
   9.000000E+99

> <Gold.Chemscore.Hbonds>
donor molecule, donor type, donor heavy atom, donor atom, acceptor molecule, acceptor atom, score
      L1  H     4    29       P1  7948  0.35
      P1  H  7989  7998       L1    22  0.20

> <Gold.Chemscore.Hbond.Weighted>
-6.2634

> <Gold.Chemscore.Metal.Weighted>
-0.0000

> <Gold.Chemscore.Lipo.Weighted>
-10.2744

> <Gold.Chemscore.Internal_Hbond.Weighted>
0.0000

> <Gold.Chemscore.DEClash.Weighted>
0.1097

> <Gold.Chemscore.DEInternal.Weighted>
2.0073

> <Gold.Chemscore.Rot.Weighted>
4.9119

> <Gold.Chemscore.Internal.Correction.Weighted>
   9.000000E+99

> <Gold.Protein.RotatedTorsions>
[ 6907 6896 6895 6894 ] final   99.06 input  -60.11 | X-H torsion
[ 7974 7965 7964 7962 ] final  -98.11 input  175.53 | X-H torsion
[ 8008 7997 7996 7995 ] final  148.88 input   59.86 | X-H torsion
[ 10167 10162 10161 10158 ] final   20.48 input  -65.29 | X-H torsion
[ 10718 10713 10712 10709 ] final   55.53 input   66.30 | X-H torsion
[ 10763 10752 10751 10750 ] final   73.75 input  -60.55 | X-H torsion
[ 11005 11000 10999 10996 ] final    7.16 input  -57.11 | X-H torsion

> <Gold.Protein.ActiveResidues>
 VAL166  LYS551  ARG553  GLY616  TRP617  ASP618  TYR619  PRO620  LYS621  CYS622 
 ASP623  PHE694  ASN695  SER759  ASP760  ASP761  ALA762  ILE779  LEU786  VAL792 
 PHE793  MET794  SER795  GLU796  ALA797  LYS798  CYS799  TRP800  GLU811  SER814 

> <Gold.Protein.RotatedAtoms>
  152.5399  134.0486  159.8099 H   0  0  0  0  0  0  0  0  0  0  0  0  # atno 6907 bound_to 6896
  151.0631  133.5520  159.2640 H   0  0  0  0  0  0  0  0  0  0  0  0  # atno 6908 bound_to 6896
  151.2411  135.0597  159.9079 H   0  0  0  0  0  0  0  0  0  0  0  0  # atno 6909 bound_to 6896
  145.3249  140.9429  143.2694 H   0  0  0  0  0  0  0  0  0  0  0  0  # atno 7974 bound_to 7965
  156.2775  140.2116  156.5770 H   0  0  0  0  0  0  0  0  0  0  0  0  # atno 8008 bound_to 7997
  154.7090  140.0514  157.0554 H   0  0  0  0  0  0  0  0  0  0  0  0  # atno 8009 bound_to 7997
  155.0632  140.3169  155.4657 H   0  0  0  0  0  0  0  0  0  0  0  0  # atno 8010 bound_to 7997
  140.5500  143.9526  150.6572 H   0  0  0  0  0  0  0  0  0  0  0  0  # atno 10167 bound_to 10162
  157.5353  130.8659  149.8745 H   0  0  0  0  0  0  0  0  0  0  0  0  # atno 10718 bound_to 10713
  153.0542  135.5051  154.7940 H   0  0  0  0  0  0  0  0  0  0  0  0  # atno 10763 bound_to 10752
  154.6779  135.2963  154.9655 H   0  0  0  0  0  0  0  0  0  0  0  0  # atno 10764 bound_to 10752
  154.0451  135.6711  153.4847 H   0  0  0  0  0  0  0  0  0  0  0  0  # atno 10765 bound_to 10752
  140.5513  134.0280  155.7938 H   0  0  0  0  0  0  0  0  0  0  0  0  # atno 11005 bound_to 11000
  144.8909  139.4775  143.6678 LP  0  0  0  0  0  0  0  0  0  0  0  0  # atno 17320 bound_to 7965
  146.3068  139.7607  142.9050 LP  0  0  0  0  0  0  0  0  0  0  0  0  # atno 17321 bound_to 7965
  140.2949  143.3299  152.1027 LP  0  0  0  0  0  0  0  0  0  0  0  0  # atno 17342 bound_to 10162
  139.5023  144.6733  151.6191 LP  0  0  0  0  0  0  0  0  0  0  0  0  # atno 17343 bound_to 10162
  156.0454  130.3729  150.1331 LP  0  0  0  0  0  0  0  0  0  0  0  0  # atno 17370 bound_to 10713
  156.9514  130.9776  151.3497 LP  0  0  0  0  0  0  0  0  0  0  0  0  # atno 17371 bound_to 10713
  141.1170  133.9524  157.2804 LP  0  0  0  0  0  0  0  0  0  0  0  0  # atno 17394 bound_to 11000
  139.9453  135.0185  156.8835 LP  0  0  0  0  0  0  0  0  0  0  0  0  # atno 17395 bound_to 11000

$$$$
