AV-unprocessed.smi:1199|AV-procd|sdf|5017|dock10
  -GOLD-   22720 4 33D 1   1.00000     0.00000
 Structure written by MMmdl.
 41 42  0  0  0  0  0  0  0  0  3 V2000
  146.7795  139.1933  151.3664 C   0  0  0  0  0  0  0  0  0  0  0  0
  146.9353  138.8159  152.8471 C   0  0  1  0  0  0  0  0  0  0  0  0
  145.8923  137.7672  153.2935 C   0  0  0  0  0  0  0  0  0  0  0  0
  146.0626  136.4368  152.6490 N   0  3  0  0  0  0  0  0  0  0  0  0
  145.5376  135.3057  153.4526 C   0  0  0  0  0  0  0  0  0  0  0  0
  145.7971  133.9729  152.7303 C   0  0  0  0  0  0  0  0  0  0  0  0
  145.1980  134.0061  151.4409 O   0  0  0  0  0  0  0  0  0  0  0  0
  145.7514  135.0312  150.6253 C   0  0  0  0  0  0  0  0  0  0  0  0
  145.5051  136.4020  151.2762 C   0  0  0  0  0  0  0  0  0  0  0  0
  148.2817  138.3202  153.1089 N   0  0  0  0  0  0  0  0  0  0  0  0
  149.2072  138.9040  153.8866 C   0  0  0  0  0  0  0  0  0  0  0  0
  149.0586  140.0208  154.3812 O   0  0  0  0  0  0  0  0  0  0  0  0
  150.4828  138.1020  154.1949 C   0  0  0  0  0  0  0  0  0  0  0  0
  150.9325  138.1924  155.5947 N   0  0  0  0  0  0  0  0  0  0  0  0
  150.3012  137.2141  156.4778 N   0  5  0  0  0  0  0  0  0  0  0  0
  150.6026  137.2269  157.8029 C   0  0  0  0  0  0  0  0  0  0  0  0
  150.0794  136.4636  158.6107 O   0  0  0  0  0  0  0  0  0  0  0  0
  151.5980  138.1777  158.2685 C   0  0  0  0  0  0  0  0  0  0  0  0
  152.2007  139.0360  157.4222 C   0  0  0  0  0  0  0  0  0  0  0  0
  151.8893  139.0760  155.9985 C   0  0  0  0  0  0  0  0  0  0  0  0
  152.4493  139.8440  155.2171 O   0  0  0  0  0  0  0  0  0  0  0  0
  145.7786  139.5746  151.1630 H   0  0  0  0  0  0  0  0  0  0  0  0
  146.9470  138.3337  150.7165 H   0  0  0  0  0  0  0  0  0  0  0  0
  147.4906  139.9694  151.0808 H   0  0  0  0  0  0  0  0  0  0  0  0
  146.7739  139.7188  153.4384 H   0  0  0  0  0  0  0  0  0  0  0  0
  145.9019  137.6593  154.3791 H   0  0  0  0  0  0  0  0  0  0  0  0
  144.9007  138.1394  153.0312 H   0  0  0  0  0  0  0  0  0  0  0  0
  146.0180  135.2786  154.4303 H   0  0  0  0  0  0  0  0  0  0  0  0
  144.4684  135.4394  153.6224 H   0  0  0  0  0  0  0  0  0  0  0  0
  146.8665  133.7743  152.6456 H   0  0  0  0  0  0  0  0  0  0  0  0
  145.3658  133.1484  153.2982 H   0  0  0  0  0  0  0  0  0  0  0  0
  146.8164  134.8597  150.4725 H   0  0  0  0  0  0  0  0  0  0  0  0
  145.2808  134.9926  149.6428 H   0  0  0  0  0  0  0  0  0  0  0  0
  144.4346  136.6107  151.3116 H   0  0  0  0  0  0  0  0  0  0  0  0
  145.9653  137.1822  150.6689 H   0  0  0  0  0  0  0  0  0  0  0  0
  148.5106  137.4095  152.7370 H   0  0  0  0  0  0  0  0  0  0  0  0
  150.3189  137.0630  153.9051 H   0  0  0  0  0  0  0  0  0  0  0  0
  151.2763  138.4613  153.5373 H   0  0  0  0  0  0  0  0  0  0  0  0
  151.8628  138.1940  159.3155 H   0  0  0  0  0  0  0  0  0  0  0  0
  152.9374  139.7231  157.8112 H   0  0  0  0  0  0  0  0  0  0  0  0
  147.0581  136.2847  152.5578 H   0  0  0  0  0  0  0  0  0  0  0  0
  1  2  1  0  0  0  0
  1 22  1  0  0  0  0
  1 23  1  0  0  0  0
  1 24  1  0  0  0  0
  2  3  1  0  0  0  0
  2 10  1  0  0  0  0
  2 25  1  0  0  0  0
  3  4  1  0  0  0  0
  3 26  1  0  0  0  0
  3 27  1  0  0  0  0
  4  9  1  0  0  0  0
  4  5  1  0  0  0  0
  4 41  1  0  0  0  0
  5  6  1  0  0  0  0
  5 28  1  0  0  0  0
  5 29  1  0  0  0  0
  6  7  1  0  0  0  0
  6 30  1  0  0  0  0
  6 31  1  0  0  0  0
  7  8  1  0  0  0  0
  8  9  1  0  0  0  0
  8 32  1  0  0  0  0
  8 33  1  0  0  0  0
  9 34  1  0  0  0  0
  9 35  1  0  0  0  0
 10 11  1  0  0  0  0
 10 36  1  0  0  0  0
 11 12  2  0  0  0  0
 11 13  1  0  0  0  0
 13 37  1  0  0  0  0
 13 38  1  0  0  0  0
 13 14  1  0  0  0  0
 14 15  1  0  0  0  0
 14 20  1  0  0  0  0
 15 16  1  0  0  0  0
 16 17  2  0  0  0  0
 16 18  1  0  0  0  0
 18 39  1  0  0  0  0
 18 19  2  0  0  0  0
 19 40  1  0  0  0  0
 19 20  1  0  0  0  0
 20 21  2  0  0  0  0
M  CHG  1   4   1
M  CHG  1  15  -1
M  END
> <s_m_source_file>
AV-unprocessed.smi

> <i_m_source_file_index>
1199

> <i_lp_mmshare_version>
43012

> <i_f3d_flags>
0

> <s_epik_input>
W0NIMl0xW0NIMl1PW0NIMl1bQ0gyXU4xW0NIMl1bQ0BASF0oW0NIM10pW05IXUMoPU8pW0NIMl1uMltuSF1jKD1PKVtjSF1bY0hdYzI9Tw==

> <s_epik_cmdline>
J2VwaWtfcHl0aG9uJywgJy1waCcsICc3LjAnLCAnLXRuJywgJzgnLCAnLW1hJywgJzIwMCcsICctbWV0YWxfYmluZGluZycsICctaW1hZScsICc8aW5maWxlLm1hZT4nLCAnLW9tYWUnLCAnPG91dGZpbGUubWFlPic=

> <r_lp_tautomer_probability>
1

> <r_epik_Ionization_Penalty>
0.741876

> <r_epik_Ionization_Penalty_Charging>
0.741876

> <r_epik_Ionization_Penalty_Neutral>
9.12373e-08

> <r_epik_State_Penalty>
0.692284

> <r_epik_Charging_Adjusted_Penalty>
1.43416

> <i_epik_Tot_Q>
0

> <i_epik_Tot_abs_Q>
2

> <r_epik_Metal_State_Penalty>
0.692284

> <b_epik_Metal_Only>
0

> <s_lp_Force_Field>
OPLS_2005

> <r_lp_Energy>
27.3091

> <b_lp_Chiralities_Consistent>
1

> <s_lp_Variant>
AV-unprocessed.smi:1199-4

> <Gold.Version>
5.8.1

> <Gold.Id.Protein>
6NUR|6NUR_protein|mol2

> <Gold.PLP.Fitness>
45.1447

> <Gold.PLP.PLP>
-30.4579

> <Gold.PLP.part.hbond>
-6.0000

> <Gold.PLP.part.metal>
0.0000

> <Gold.PLP.part.buried>
-0.7256

> <Gold.PLP.part.nonpolar>
-23.8005

> <Gold.PLP.part.repulsive>
0.2767

> <Gold.PLP.ligand.clash>
0.0000

> <Gold.PLP.ligand.torsion>
0.8790

> <Gold.PLP.Chemscore.Hbond>
5.4680

> <Gold.PLP.Chemscore.CHOScore>
0.0000

> <Gold.PLP.Chemscore.Metal>
0.0000

> <Gold.Chemscore.Hbonds>
donor molecule, donor type, donor heavy atom, donor atom, acceptor molecule, acceptor atom, score
      L1  H     4    41       P1  7948  2.00
      L1  H    10    36       P1  7948  0.98
      P1  H  6896  6907       L1    17  0.84
      P1  H  7989  7998       L1    21  0.48
      P1  H  7997  8008       L1    21  0.75

> <Gold.PLP.Chemscore.Internal.Correction>
0.0407

> <Gold.Rescore>
     Score         DG    S(hbond)    S(metal)    S(lipo)     H(rot)  DE(clash)    DE(int)     intcor
     16.33     -18.13       3.70        0.00      54.43       2.37       0.16       1.64       ----

> <Gold.Chemscore.Fitness>
16.3281

> <Gold.Chemscore.DG>
-18.1309

> <Gold.Chemscore.ZeroCoef>
-5.4800

> <Gold.Chemscore.Hbond>
3.7011

> <Gold.Chemscore.Metal>
0.0000

> <Gold.Chemscore.Lipo>
54.4308

> <Gold.Chemscore.Internal_Hbond>
0.0000

> <Gold.Chemscore.DEClash>
0.1615

> <Gold.Chemscore.DEInternal>
1.6412

> <Gold.Chemscore.Rot>
2.3747

> <Gold.Chemscore.Internal.Correction>
   9.000000E+99

> <Gold.Chemscore.Hbonds>
donor molecule, donor type, donor heavy atom, donor atom, acceptor molecule, acceptor atom, score
      L1  H     4    41       P1  7948  0.95
      L1  H    10    36       P1  7948  0.91
      P1  H  6896  6907       L1    17  0.80
      P1  H  7989  7998       L1    21  0.48
      P1  H  7997  8008       L1    21  0.37

> <Gold.Chemscore.Hbond.Weighted>
-12.3616

> <Gold.Chemscore.Metal.Weighted>
-0.0000

> <Gold.Chemscore.Lipo.Weighted>
-6.3684

> <Gold.Chemscore.Internal_Hbond.Weighted>
0.0000

> <Gold.Chemscore.DEClash.Weighted>
0.1615

> <Gold.Chemscore.DEInternal.Weighted>
1.6412

> <Gold.Chemscore.Rot.Weighted>
6.0791

> <Gold.Chemscore.Internal.Correction.Weighted>
   9.000000E+99

> <Gold.Protein.RotatedTorsions>
[ 6907 6896 6895 6894 ] final  -32.77 input  -60.11 | X-H torsion
[ 7974 7965 7964 7962 ] final  132.23 input  175.53 | X-H torsion
[ 8008 7997 7996 7995 ] final  -27.55 input   59.86 | X-H torsion
[ 10167 10162 10161 10158 ] final  169.35 input  -65.29 | X-H torsion
[ 10718 10713 10712 10709 ] final -152.54 input   66.30 | X-H torsion
[ 10763 10752 10751 10750 ] final  -19.44 input  -60.55 | X-H torsion
[ 11005 11000 10999 10996 ] final  -99.15 input  -57.11 | X-H torsion

> <Gold.Protein.ActiveResidues>
 VAL166  LYS551  ARG553  GLY616  TRP617  ASP618  TYR619  PRO620  LYS621  CYS622 
 ASP623  PHE694  ASN695  SER759  ASP760  ASP761  ALA762  ILE779  LEU786  VAL792 
 PHE793  MET794  SER795  GLU796  ALA797  LYS798  CYS799  TRP800  GLU811  SER814 

> <Gold.Protein.RotatedAtoms>
  151.0744  134.9818  159.8324 H   0  0  0  0  0  0  0  0  0  0  0  0  # atno 6907 bound_to 6896
  152.5412  134.2259  159.8816 H   0  0  0  0  0  0  0  0  0  0  0  0  # atno 6908 bound_to 6896
  151.2286  133.4419  159.2636 H   0  0  0  0  0  0  0  0  0  0  0  0  # atno 6909 bound_to 6896
  144.9990  139.4330  143.5301 H   0  0  0  0  0  0  0  0  0  0  0  0  # atno 7974 bound_to 7965
  154.4372  140.1869  156.0949 H   0  0  0  0  0  0  0  0  0  0  0  0  # atno 8008 bound_to 7997
  156.0337  140.3327  155.7141 H   0  0  0  0  0  0  0  0  0  0  0  0  # atno 8009 bound_to 7997
  155.5802  140.0621  157.2776 H   0  0  0  0  0  0  0  0  0  0  0  0  # atno 8010 bound_to 7997
  139.4990  144.3715  151.9719 H   0  0  0  0  0  0  0  0  0  0  0  0  # atno 10167 bound_to 10162
  156.4738  130.8271  151.2500 H   0  0  0  0  0  0  0  0  0  0  0  0  # atno 10718 bound_to 10713
  153.6048  135.6998  153.5370 H   0  0  0  0  0  0  0  0  0  0  0  0  # atno 10763 bound_to 10752
  153.3066  135.4113  155.1299 H   0  0  0  0  0  0  0  0  0  0  0  0  # atno 10764 bound_to 10752
  154.8575  135.3662  154.5585 H   0  0  0  0  0  0  0  0  0  0  0  0  # atno 10765 bound_to 10752
  141.1319  133.8299  157.0934 H   0  0  0  0  0  0  0  0  0  0  0  0  # atno 11005 bound_to 11000
  146.3448  139.9367  142.8746 LP  0  0  0  0  0  0  0  0  0  0  0  0  # atno 17320 bound_to 7965
  145.2179  140.9923  143.4062 LP  0  0  0  0  0  0  0  0  0  0  0  0  # atno 17321 bound_to 7965
  140.3151  144.3493  150.6023 LP  0  0  0  0  0  0  0  0  0  0  0  0  # atno 17342 bound_to 10162
  140.5767  143.2176  151.7502 LP  0  0  0  0  0  0  0  0  0  0  0  0  # atno 17343 bound_to 10162
  157.7489  131.0067  150.3163 LP  0  0  0  0  0  0  0  0  0  0  0  0  # atno 17370 bound_to 10713
  156.3591  130.3844  149.7266 LP  0  0  0  0  0  0  0  0  0  0  0  0  # atno 17371 bound_to 10713
  140.0378  134.9869  157.0904 LP  0  0  0  0  0  0  0  0  0  0  0  0  # atno 17394 bound_to 11000
  140.4183  134.1908  155.7164 LP  0  0  0  0  0  0  0  0  0  0  0  0  # atno 17395 bound_to 11000

$$$$
