AV-unprocessed.smi:36|AV-procd|sdf|302|dock10
  -GOLD-   2262016113D 1   1.00000     0.00000
 Structure written by MMmdl.
 63 66  0  0  0  0  0  0  0  0  2 V2000
  147.3684  135.1588  161.3437 C   0  0  0  0  0  0  0  0  0  0  0  0
  146.9859  133.6774  161.1913 C   0  0  0  0  0  0  0  0  0  0  0  0
  148.1248  132.7852  161.7129 C   0  0  0  0  0  0  0  0  0  0  0  0
  145.6983  133.3873  161.9799 C   0  0  0  0  0  0  0  0  0  0  0  0
  146.6875  133.2855  159.3455 Si  0  0  0  0  0  0  0  0  0  0  0  0
  146.2810  131.4474  159.0892 C   0  0  0  0  0  0  0  0  0  0  0  0
  145.2897  134.3597  158.6364 C   0  0  0  0  0  0  0  0  0  0  0  0
  148.1124  133.6360  158.5040 O   0  0  0  0  0  0  0  0  0  0  0  0
  148.2751  133.4183  157.1185 C   0  0  0  0  0  0  0  0  0  0  0  0
  149.1232  134.5499  156.5248 C   0  0  1  0  0  0  0  0  0  0  0  0
  150.2983  134.7385  157.3068 O   0  0  0  0  0  0  0  0  0  0  0  0
  151.3289  135.2438  156.5085 C   0  0  2  0  0  0  0  0  0  0  0  0
  151.6318  136.6364  156.9571 N   0  0  0  0  0  0  0  0  0  0  0  0
  150.8528  137.7350  156.8790 C   0  0  0  0  0  0  0  0  0  0  0  0
  151.3520  138.8753  157.3511 N   0  0  0  0  0  0  0  0  0  0  0  0
  152.6056  138.4729  157.7879 C   0  0  0  0  0  0  0  0  0  0  0  0
  153.6793  139.1777  158.3978 C   0  0  0  0  0  0  0  0  0  0  0  0
  153.6165  140.4882  158.6790 N   0  5  0  0  0  0  0  0  0  0  0  0
  153.5846  140.9021  159.9711 C   0  0  0  0  0  0  0  0  0  0  0  0
  153.8985  140.2638  160.9782 O   0  0  0  0  0  0  0  0  0  0  0  0
  153.0374  142.2945  160.1367 C   0  0  0  0  0  0  0  0  0  0  0  0
  152.7061  143.0577  158.9940 C   0  0  0  0  0  0  0  0  0  0  0  0
  152.1638  144.3506  159.1286 C   0  0  0  0  0  0  0  0  0  0  0  0
  151.9381  144.8912  160.4083 C   0  0  0  0  0  0  0  0  0  0  0  0
  152.2520  144.1360  161.5536 C   0  0  0  0  0  0  0  0  0  0  0  0
  152.7943  142.8430  161.4200 C   0  0  0  0  0  0  0  0  0  0  0  0
  154.7868  138.4580  158.7121 N   0  0  0  0  0  0  0  0  0  0  0  0
  154.8449  137.1498  158.4349 C   0  0  0  0  0  0  0  0  0  0  0  0
  153.9227  136.3695  157.8618 N   0  0  0  0  0  0  0  0  0  0  0  0
  152.7998  137.0809  157.5518 C   0  0  0  0  0  0  0  0  0  0  0  0
  150.8277  135.2514  155.0597 C   0  0  0  0  0  0  0  0  0  0  0  0
  149.6733  134.2715  155.1253 C   0  0  2  0  0  0  0  0  0  0  0  0
  148.7275  134.5300  154.1076 O   0  0  0  0  0  0  0  0  0  0  0  0
  147.5457  135.4157  162.3886 H   0  0  0  0  0  0  0  0  0  0  0  0
  146.5780  135.8127  160.9746 H   0  0  0  0  0  0  0  0  0  0  0  0
  148.2769  135.3946  160.7889 H   0  0  0  0  0  0  0  0  0  0  0  0
  149.0565  132.9770  161.1803 H   0  0  0  0  0  0  0  0  0  0  0  0
  147.8874  131.7280  161.5886 H   0  0  0  0  0  0  0  0  0  0  0  0
  148.3114  132.9589  162.7731 H   0  0  0  0  0  0  0  0  0  0  0  0
  145.8332  133.5817  163.0446 H   0  0  0  0  0  0  0  0  0  0  0  0
  145.3933  132.3461  161.8707 H   0  0  0  0  0  0  0  0  0  0  0  0
  144.8725  134.0103  161.6356 H   0  0  0  0  0  0  0  0  0  0  0  0
  145.3885  131.1527  159.6407 H   0  0  0  0  0  0  0  0  0  0  0  0
  147.0968  130.8063  159.4224 H   0  0  0  0  0  0  0  0  0  0  0  0
  146.1016  131.2219  158.0382 H   0  0  0  0  0  0  0  0  0  0  0  0
  144.3523  134.1996  159.1682 H   0  0  0  0  0  0  0  0  0  0  0  0
  145.1070  134.1365  157.5858 H   0  0  0  0  0  0  0  0  0  0  0  0
  145.5258  135.4213  158.7053 H   0  0  0  0  0  0  0  0  0  0  0  0
  148.7785  132.4617  156.9768 H   0  0  0  0  0  0  0  0  0  0  0  0
  147.3065  133.3527  156.6220 H   0  0  0  0  0  0  0  0  0  0  0  0
  148.5631  135.4867  156.5348 H   0  0  0  0  0  0  0  0  0  0  0  0
  152.2456  134.6733  156.6612 H   0  0  0  0  0  0  0  0  0  0  0  0
  149.8622  137.6980  156.4508 H   0  0  0  0  0  0  0  0  0  0  0  0
  152.8704  142.6561  158.0044 H   0  0  0  0  0  0  0  0  0  0  0  0
  151.9186  144.9262  158.2485 H   0  0  0  0  0  0  0  0  0  0  0  0
  151.5204  145.8816  160.5115 H   0  0  0  0  0  0  0  0  0  0  0  0
  152.0733  144.5464  162.5365 H   0  0  0  0  0  0  0  0  0  0  0  0
  153.0168  142.2752  162.3120 H   0  0  0  0  0  0  0  0  0  0  0  0
  155.7637  136.6562  158.7144 H   0  0  0  0  0  0  0  0  0  0  0  0
  150.4774  136.2503  154.7920 H   0  0  0  0  0  0  0  0  0  0  0  0
  151.6167  134.9557  154.3675 H   0  0  0  0  0  0  0  0  0  0  0  0
  150.0421  133.2478  155.0483 H   0  0  0  0  0  0  0  0  0  0  0  0
  149.1134  135.1258  153.4838 H   0  0  0  0  0  0  0  0  0  0  0  0
  1  2  1  0  0  0  0
  1 34  1  0  0  0  0
  1 35  1  0  0  0  0
  1 36  1  0  0  0  0
  2  3  1  0  0  0  0
  2  4  1  0  0  0  0
  2  5  1  0  0  0  0
  3 37  1  0  0  0  0
  3 38  1  0  0  0  0
  3 39  1  0  0  0  0
  4 40  1  0  0  0  0
  4 41  1  0  0  0  0
  4 42  1  0  0  0  0
  5  6  1  0  0  0  0
  5  7  1  0  0  0  0
  5  8  1  0  0  0  0
  6 43  1  0  0  0  0
  6 44  1  0  0  0  0
  6 45  1  0  0  0  0
  7 46  1  0  0  0  0
  7 47  1  0  0  0  0
  7 48  1  0  0  0  0
  8  9  1  0  0  0  0
  9 10  1  0  0  0  0
  9 49  1  0  0  0  0
  9 50  1  0  0  0  0
 10 32  1  0  0  0  0
 10 11  1  0  0  0  0
 10 51  1  0  0  0  0
 11 12  1  0  0  0  0
 12 13  1  0  0  0  0
 12 31  1  0  0  0  0
 12 52  1  0  0  0  0
 13 30  1  0  0  0  0
 13 14  1  0  0  0  0
 14 15  2  0  0  0  0
 14 53  1  0  0  0  0
 15 16  1  0  0  0  0
 16 30  2  0  0  0  0
 16 17  1  0  0  0  0
 17 18  1  0  0  0  0
 17 27  2  0  0  0  0
 18 19  1  0  0  0  0
 19 20  2  0  0  0  0
 19 21  1  0  0  0  0
 21 26  1  0  0  0  0
 21 22  2  0  0  0  0
 22 23  1  0  0  0  0
 22 54  1  0  0  0  0
 23 24  2  0  0  0  0
 23 55  1  0  0  0  0
 24 25  1  0  0  0  0
 24 56  1  0  0  0  0
 25 26  2  0  0  0  0
 25 57  1  0  0  0  0
 26 58  1  0  0  0  0
 27 28  1  0  0  0  0
 28 29  2  0  0  0  0
 28 59  1  0  0  0  0
 29 30  1  0  0  0  0
 31 32  1  0  0  0  0
 31 60  1  0  0  0  0
 31 61  1  0  0  0  0
 32 33  1  0  0  0  0
 32 62  1  0  0  0  0
 33 63  1  0  0  0  0
M  CHG  1  18  -1
M  END
> <s_m_source_file>
AV-unprocessed.smi

> <i_m_source_file_index>
36

> <i_lp_mmshare_version>
43012

> <i_f3d_flags>
0

> <s_epik_input>
W0NIM11DKFtDSDNdKShbQ0gzXSlbU2ldKFtDSDNdKShbQ0gzXSlPW0NIMl1bQ0BASF0xT1tDQEhdKFtDSDJdW0NASF0xW09IXSluKFtjSF1uMiljKGMyMyluW2NIXW5jM1tOSF1DKD1PKWM0W2NIXVtjSF1bY0hdW2NIXVtjSF00

> <s_epik_cmdline>
J2VwaWtfcHl0aG9uJywgJy1waCcsICc3LjAnLCAnLXRuJywgJzgnLCAnLW1hJywgJzIwMCcsICctbWV0YWxfYmluZGluZycsICctaW1hZScsICc8aW5maWxlLm1hZT4nLCAnLW9tYWUnLCAnPG91dGZpbGUubWFlPic=

> <r_lp_tautomer_probability>
1

> <r_epik_Ionization_Penalty>
4.75685

> <r_epik_Ionization_Penalty_Charging>
3.55822

> <r_epik_Ionization_Penalty_Neutral>
1.19863

> <r_epik_State_Penalty>
3.564

> <r_epik_Charging_Adjusted_Penalty>
7.12222

> <i_epik_Tot_Q>
-1

> <i_epik_Tot_abs_Q>
1

> <r_epik_Metal_State_Penalty>
0.523258

> <b_epik_Metal_Only>
1

> <s_epik_Chemistry_Notes>
This compound contains an acetal/aminal-like group ( X-CH(R)-Y where X, Y are N, S, or O) that may be acid/base labile, releasing an aldehyde.

> <s_lp_Force_Field>
OPLS_2005

> <r_lp_Energy>
39.042

> <b_lp_Chiralities_Consistent>
1

> <s_lp_Variant>
AV-unprocessed.smi:36-24

> <Gold.Version>
5.8.1

> <Gold.Id.Protein>
6NUR|6NUR_protein|mol2

> <Gold.PLP.Fitness>
51.8506

> <Gold.PLP.PLP>
-49.6353

> <Gold.PLP.part.hbond>
-3.6659

> <Gold.PLP.part.metal>
0.0000

> <Gold.PLP.part.buried>
-4.3600

> <Gold.PLP.part.nonpolar>
-41.4676

> <Gold.PLP.part.repulsive>
0.0000

> <Gold.PLP.ligand.clash>
0.2118

> <Gold.PLP.ligand.torsion>
1.1950

> <Gold.PLP.Chemscore.Hbond>
1.4898

> <Gold.PLP.Chemscore.CHOScore>
0.0000

> <Gold.PLP.Chemscore.Metal>
0.0000

> <Gold.Chemscore.Hbonds>
donor molecule, donor type, donor heavy atom, donor atom, acceptor molecule, acceptor atom, score
      L1  H    33    63       P1  7948  1.00
      P1  H  6896  6907       L1    11  0.40

> <Gold.PLP.Chemscore.Internal.Correction>
0.3476

> <Gold.Rescore>
     Score         DG    S(hbond)    S(metal)    S(lipo)     H(rot)  DE(clash)    DE(int)     intcor
     15.25     -17.08       1.30        0.00     120.55       2.67       0.04       1.80       ----

> <Gold.Chemscore.Fitness>
15.2472

> <Gold.Chemscore.DG>
-17.0828

> <Gold.Chemscore.ZeroCoef>
-5.4800

> <Gold.Chemscore.Hbond>
1.2978

> <Gold.Chemscore.Metal>
0.0000

> <Gold.Chemscore.Lipo>
120.5465

> <Gold.Chemscore.Internal_Hbond>
0.0000

> <Gold.Chemscore.DEClash>
0.0363

> <Gold.Chemscore.DEInternal>
1.7993

> <Gold.Chemscore.Rot>
2.6702

> <Gold.Chemscore.Internal.Correction>
   9.000000E+99

> <Gold.Chemscore.Hbonds>
donor molecule, donor type, donor heavy atom, donor atom, acceptor molecule, acceptor atom, score
      L1  H    33    63       P1  7948  0.28
      P1  H  6896  6907       L1    11  0.38

> <Gold.Chemscore.Hbond.Weighted>
-4.3346

> <Gold.Chemscore.Metal.Weighted>
-0.0000

> <Gold.Chemscore.Lipo.Weighted>
-14.1039

> <Gold.Chemscore.Internal_Hbond.Weighted>
0.0000

> <Gold.Chemscore.DEClash.Weighted>
0.0363

> <Gold.Chemscore.DEInternal.Weighted>
1.7993

> <Gold.Chemscore.Rot.Weighted>
6.8358

> <Gold.Chemscore.Internal.Correction.Weighted>
   9.000000E+99

> <Gold.Protein.RotatedTorsions>
[ 6907 6896 6895 6894 ] final -113.15 input  -60.11 | X-H torsion
[ 7974 7965 7964 7962 ] final -112.61 input  175.53 | X-H torsion
[ 8008 7997 7996 7995 ] final -123.50 input   59.86 | X-H torsion
[ 10167 10162 10161 10158 ] final   81.38 input  -65.29 | X-H torsion
[ 10718 10713 10712 10709 ] final   75.82 input   66.30 | X-H torsion
[ 10763 10752 10751 10750 ] final   71.90 input  -60.55 | X-H torsion
[ 11005 11000 10999 10996 ] final  -93.50 input  -57.11 | X-H torsion

> <Gold.Protein.ActiveResidues>
 VAL166  LYS551  ARG553  GLY616  TRP617  ASP618  TYR619  PRO620  LYS621  CYS622 
 ASP623  PHE694  ASN695  SER759  ASP760  ASP761  ALA762  ILE779  LEU786  VAL792 
 PHE793  MET794  SER795  GLU796  ALA797  LYS798  CYS799  TRP800  GLU811  SER814 

> <Gold.Protein.RotatedAtoms>
  150.7808  133.8986  159.3334 H   0  0  0  0  0  0  0  0  0  0  0  0  # atno 6907 bound_to 6896
  151.6849  135.0954  160.0232 H   0  0  0  0  0  0  0  0  0  0  0  0  # atno 6908 bound_to 6896
  152.3859  133.6572  159.6234 H   0  0  0  0  0  0  0  0  0  0  0  0  # atno 6909 bound_to 6896
  145.1420  140.8783  143.3697 H   0  0  0  0  0  0  0  0  0  0  0  0  # atno 7974 bound_to 7965
  155.1815  140.0410  157.2883 H   0  0  0  0  0  0  0  0  0  0  0  0  # atno 8008 bound_to 7997
  154.6200  140.2498  155.7533 H   0  0  0  0  0  0  0  0  0  0  0  0  # atno 8009 bound_to 7997
  156.2428  140.2897  156.0504 H   0  0  0  0  0  0  0  0  0  0  0  0  # atno 8010 bound_to 7997
  139.9398  144.6097  150.8262 H   0  0  0  0  0  0  0  0  0  0  0  0  # atno 10167 bound_to 10162
  157.6649  130.9745  150.1408 H   0  0  0  0  0  0  0  0  0  0  0  0  # atno 10718 bound_to 10713
  153.0426  135.5120  154.7662 H   0  0  0  0  0  0  0  0  0  0  0  0  # atno 10763 bound_to 10752
  154.6588  135.2935  154.9896 H   0  0  0  0  0  0  0  0  0  0  0  0  # atno 10764 bound_to 10752
  154.0754  135.6671  153.4883 H   0  0  0  0  0  0  0  0  0  0  0  0  # atno 10765 bound_to 10752
  141.1495  133.7892  157.0168 H   0  0  0  0  0  0  0  0  0  0  0  0  # atno 11005 bound_to 11000
  145.0522  139.3172  143.5922 LP  0  0  0  0  0  0  0  0  0  0  0  0  # atno 17320 bound_to 7965
  146.3504  139.9935  142.8683 LP  0  0  0  0  0  0  0  0  0  0  0  0  # atno 17321 bound_to 7965
  140.7614  143.3173  151.2703 LP  0  0  0  0  0  0  0  0  0  0  0  0  # atno 17342 bound_to 10162
  139.6713  144.0014  152.2755 LP  0  0  0  0  0  0  0  0  0  0  0  0  # atno 17343 bound_to 10162
  156.2231  130.3675  149.8532 LP  0  0  0  0  0  0  0  0  0  0  0  0  # atno 17370 bound_to 10713
  156.6379  130.8693  151.3508 LP  0  0  0  0  0  0  0  0  0  0  0  0  # atno 17371 bound_to 10713
  140.0842  134.9631  157.1672 LP  0  0  0  0  0  0  0  0  0  0  0  0  # atno 17394 bound_to 11000
  140.3535  134.2572  155.7195 LP  0  0  0  0  0  0  0  0  0  0  0  0  # atno 17395 bound_to 11000

$$$$
