AV-unprocessed.smi:1940|AV-procd|sdf|7844|dock2
  -GOLD-   22720 9583D 1   1.00000     0.00000
 Structure written by MMmdl.
 50 52  0  0  0  0  0  0  0  0  2 V2000
  144.6439  137.2351  152.9927 C   0  0  0  0  0  0  0  0  0  0  0  0
  145.6365  137.3600  151.8235 C   0  0  1  0  0  0  0  0  0  0  0  0
  146.9623  137.6954  152.3368 N   0  0  0  0  0  0  0  0  0  0  0  0
  147.2385  138.7005  153.1794 C   0  0  0  0  0  0  0  0  0  0  0  0
  146.3827  139.4556  153.6394 O   0  0  0  0  0  0  0  0  0  0  0  0
  148.5570  138.7719  153.4318 N   0  0  0  0  0  0  0  0  0  0  0  0
  149.2557  139.6818  154.2713 C   0  0  0  0  0  0  0  0  0  0  0  0
  150.4335  139.2236  154.8967 C   0  0  0  0  0  0  0  0  0  0  0  0
  151.1579  140.0823  155.7484 C   0  0  0  0  0  0  0  0  0  0  0  0
  150.6951  141.4021  155.9810 C   0  0  0  0  0  0  0  0  0  0  0  0
  151.3574  142.3358  156.8103 N   0  0  0  0  0  0  0  0  0  0  0  0
  151.0691  143.7516  156.5577 C   0  0  0  0  0  0  0  0  0  0  0  0
  152.1305  144.6657  157.1932 C   0  0  0  0  0  0  0  0  0  0  0  0
  152.3123  144.3506  158.6843 C   0  0  0  0  0  0  0  0  0  0  0  0
  152.6488  142.8643  158.8638 C   0  0  0  0  0  0  0  0  0  0  0  0
  151.5820  141.9694  158.2103 C   0  0  0  0  0  0  0  0  0  0  0  0
  149.5525  141.7916  155.3652 N   0  3  0  0  0  0  0  0  0  0  0  0
  148.8287  141.0036  154.5412 C   0  0  0  0  0  0  0  0  0  0  0  0
  145.7311  136.0636  150.9961 C   0  0  1  0  0  0  0  0  0  0  0  0
  146.1949  134.8361  151.7813 C   0  0  0  0  0  0  0  0  0  0  0  0
  145.6385  133.7092  150.9425 C   0  0  0  0  0  0  0  0  0  0  0  0
  144.2939  134.2790  150.5016 C   0  0  0  0  0  0  0  0  0  0  0  0
  144.4467  135.6964  150.4959 O   0  0  0  0  0  0  0  0  0  0  0  0
  143.6348  137.0285  152.6368 H   0  0  0  0  0  0  0  0  0  0  0  0
  144.5969  138.1573  153.5727 H   0  0  0  0  0  0  0  0  0  0  0  0
  144.9287  136.4302  153.6709 H   0  0  0  0  0  0  0  0  0  0  0  0
  145.2994  138.1609  151.1626 H   0  0  0  0  0  0  0  0  0  0  0  0
  147.7289  137.1303  152.0021 H   0  0  0  0  0  0  0  0  0  0  0  0
  149.1363  138.1174  152.9269 H   0  0  0  0  0  0  0  0  0  0  0  0
  150.7867  138.2171  154.7252 H   0  0  0  0  0  0  0  0  0  0  0  0
  152.0535  139.7027  156.2163 H   0  0  0  0  0  0  0  0  0  0  0  0
  151.0224  143.9701  155.4911 H   0  0  0  0  0  0  0  0  0  0  0  0
  150.0859  143.9837  156.9687 H   0  0  0  0  0  0  0  0  0  0  0  0
  153.0815  144.5366  156.6742 H   0  0  0  0  0  0  0  0  0  0  0  0
  151.8475  145.7106  157.0639 H   0  0  0  0  0  0  0  0  0  0  0  0
  153.1032  144.9707  159.1073 H   0  0  0  0  0  0  0  0  0  0  0  0
  151.3983  144.5921  159.2286 H   0  0  0  0  0  0  0  0  0  0  0  0
  153.6222  142.6557  158.4179 H   0  0  0  0  0  0  0  0  0  0  0  0
  152.7369  142.6252  159.9239 H   0  0  0  0  0  0  0  0  0  0  0  0
  150.6404  142.0485  158.7552 H   0  0  0  0  0  0  0  0  0  0  0  0
  151.9152  140.9337  158.2819 H   0  0  0  0  0  0  0  0  0  0  0  0
  147.9378  141.4664  154.1450 H   0  0  0  0  0  0  0  0  0  0  0  0
  146.3914  136.2082  150.1390 H   0  0  0  0  0  0  0  0  0  0  0  0
  147.2782  134.7855  151.8943 H   0  0  0  0  0  0  0  0  0  0  0  0
  145.7444  134.8199  152.7748 H   0  0  0  0  0  0  0  0  0  0  0  0
  146.2778  133.5395  150.0751 H   0  0  0  0  0  0  0  0  0  0  0  0
  145.5459  132.7705  151.4890 H   0  0  0  0  0  0  0  0  0  0  0  0
  143.9903  133.9081  149.5223 H   0  0  0  0  0  0  0  0  0  0  0  0
  143.5144  134.0190  151.2184 H   0  0  0  0  0  0  0  0  0  0  0  0
  149.2176  142.7407  155.5320 H   0  0  0  0  0  0  0  0  0  0  0  0
  1  2  1  0  0  0  0
  1 24  1  0  0  0  0
  1 25  1  0  0  0  0
  1 26  1  0  0  0  0
  2  3  1  0  0  0  0
  2 19  1  0  0  0  0
  2 27  1  0  0  0  0
  3  4  1  0  0  0  0
  3 28  1  0  0  0  0
  4  5  2  0  0  0  0
  4  6  1  0  0  0  0
  6  7  1  0  0  0  0
  6 29  1  0  0  0  0
  7 18  1  0  0  0  0
  7  8  2  0  0  0  0
  8  9  1  0  0  0  0
  8 30  1  0  0  0  0
  9 10  2  0  0  0  0
  9 31  1  0  0  0  0
 10 11  1  0  0  0  0
 10 17  1  0  0  0  0
 11 16  1  0  0  0  0
 11 12  1  0  0  0  0
 12 13  1  0  0  0  0
 12 32  1  0  0  0  0
 12 33  1  0  0  0  0
 13 14  1  0  0  0  0
 13 34  1  0  0  0  0
 13 35  1  0  0  0  0
 14 15  1  0  0  0  0
 14 36  1  0  0  0  0
 14 37  1  0  0  0  0
 15 16  1  0  0  0  0
 15 38  1  0  0  0  0
 15 39  1  0  0  0  0
 16 40  1  0  0  0  0
 16 41  1  0  0  0  0
 17 18  2  0  0  0  0
 17 50  1  0  0  0  0
 18 42  1  0  0  0  0
 19 23  1  0  0  0  0
 19 20  1  0  0  0  0
 19 43  1  0  0  0  0
 20 21  1  0  0  0  0
 20 44  1  0  0  0  0
 20 45  1  0  0  0  0
 21 22  1  0  0  0  0
 21 46  1  0  0  0  0
 21 47  1  0  0  0  0
 22 23  1  0  0  0  0
 22 48  1  0  0  0  0
 22 49  1  0  0  0  0
M  CHG  1  17   1
M  END
> <s_m_source_file>
AV-unprocessed.smi

> <i_m_source_file_index>
1940

> <i_lp_mmshare_version>
43012

> <i_f3d_flags>
0

> <s_epik_input>
TzFbQ0gyXVtDSDJdW0NIMl1bQ0BIXTFbQ0BIXShbQ0gzXSlbTkhdQyg9TylbTkhdYzJbY0hdW2NIXWMobltjSF0yKU4zW0NIMl1bQ0gyXVtDSDJdW0NIMl1bQ0gyXTM=

> <s_epik_cmdline>
J2VwaWtfcHl0aG9uJywgJy1waCcsICc3LjAnLCAnLXRuJywgJzgnLCAnLW1hJywgJzIwMCcsICctbWV0YWxfYmluZGluZycsICctaW1hZScsICc8aW5maWxlLm1hZT4nLCAnLW9tYWUnLCAnPG91dGZpbGUubWFlPic=

> <r_lp_tautomer_probability>
0.999994

> <r_epik_Ionization_Penalty>
1.10603

> <r_epik_Ionization_Penalty_Charging>
1.10601

> <r_epik_Ionization_Penalty_Neutral>
1.929e-05

> <r_epik_State_Penalty>
1.16358

> <r_epik_Charging_Adjusted_Penalty>
2.26959

> <i_epik_Tot_Q>
1

> <i_epik_Tot_abs_Q>
1

> <r_epik_Metal_State_Penalty>
1.25013

> <b_epik_Metal_Only>
0

> <s_lp_Force_Field>
OPLS_2005

> <r_lp_Energy>
39.2756

> <b_lp_Chiralities_Consistent>
1

> <s_lp_Variant>
AV-unprocessed.smi:1940-8

> <Gold.Version>
5.8.1

> <Gold.Id.Protein>
6NUR|6NUR_protein|mol2

> <Gold.PLP.Fitness>
53.2150

> <Gold.PLP.PLP>
-43.9994

> <Gold.PLP.part.hbond>
-3.9683

> <Gold.PLP.part.metal>
0.0000

> <Gold.PLP.part.buried>
-0.4265

> <Gold.PLP.part.nonpolar>
-43.0777

> <Gold.PLP.part.repulsive>
1.5526

> <Gold.PLP.ligand.clash>
0.0000

> <Gold.PLP.ligand.torsion>
0.8889

> <Gold.PLP.Chemscore.Hbond>
3.5591

> <Gold.PLP.Chemscore.CHOScore>
0.0000

> <Gold.PLP.Chemscore.Metal>
0.0000

> <Gold.Chemscore.Hbonds>
donor molecule, donor type, donor heavy atom, donor atom, acceptor molecule, acceptor atom, score
      L1  H     3    28       P1  7948  0.94
      L1  H     6    29       P1  7948  0.60
      L1  H    17    50       P1  8028  2.00

> <Gold.PLP.Chemscore.Internal.Correction>
0.3160

> <Gold.Rescore>
     Score         DG    S(hbond)    S(metal)    S(lipo)     H(rot)  DE(clash)    DE(int)     intcor
     19.40     -25.01       2.60        0.00     118.40       1.18       3.09       2.52       ----

> <Gold.Chemscore.Fitness>
19.4010

> <Gold.Chemscore.DG>
-25.0059

> <Gold.Chemscore.ZeroCoef>
-5.4800

> <Gold.Chemscore.Hbond>
2.6020

> <Gold.Chemscore.Metal>
0.0000

> <Gold.Chemscore.Lipo>
118.3988

> <Gold.Chemscore.Internal_Hbond>
0.0000

> <Gold.Chemscore.DEClash>
3.0890

> <Gold.Chemscore.DEInternal>
2.5159

> <Gold.Chemscore.Rot>
1.1786

> <Gold.Chemscore.Internal.Correction>
   9.000000E+99

> <Gold.Chemscore.Hbonds>
donor molecule, donor type, donor heavy atom, donor atom, acceptor molecule, acceptor atom, score
      L1  H     3    28       P1  7948  0.90
      L1  H     6    29       P1  7948  0.59
      L1  H    17    50       P1  8028  0.95

> <Gold.Chemscore.Hbond.Weighted>
-8.6906

> <Gold.Chemscore.Metal.Weighted>
-0.0000

> <Gold.Chemscore.Lipo.Weighted>
-13.8527

> <Gold.Chemscore.Internal_Hbond.Weighted>
0.0000

> <Gold.Chemscore.DEClash.Weighted>
3.0890

> <Gold.Chemscore.DEInternal.Weighted>
2.5159

> <Gold.Chemscore.Rot.Weighted>
3.0173

> <Gold.Chemscore.Internal.Correction.Weighted>
   9.000000E+99

> <Gold.Protein.RotatedTorsions>
[ 6907 6896 6895 6894 ] final  -47.83 input  -60.11 | X-H torsion
[ 7974 7965 7964 7962 ] final  -21.06 input  175.53 | X-H torsion
[ 8008 7997 7996 7995 ] final  -55.38 input   59.86 | X-H torsion
[ 10167 10162 10161 10158 ] final  143.26 input  -65.29 | X-H torsion
[ 10718 10713 10712 10709 ] final   25.45 input   66.30 | X-H torsion
[ 10763 10752 10751 10750 ] final -121.62 input  -60.55 | X-H torsion
[ 11005 11000 10999 10996 ] final  -14.42 input  -57.11 | X-H torsion

> <Gold.Protein.ActiveResidues>
 VAL166  LYS551  ARG553  GLY616  TRP617  ASP618  TYR619  PRO620  LYS621  CYS622 
 ASP623  PHE694  ASN695  SER759  ASP760  ASP761  ALA762  ILE779  LEU786  VAL792 
 PHE793  MET794  SER795  GLU796  ALA797  LYS798  CYS799  TRP800  GLU811  SER814 

> <Gold.Protein.RotatedAtoms>
  150.8968  134.8376  159.7331 H   0  0  0  0  0  0  0  0  0  0  0  0  # atno 6907 bound_to 6896
  152.4869  134.4564  159.9601 H   0  0  0  0  0  0  0  0  0  0  0  0  # atno 6908 bound_to 6896
  151.4620  133.3551  159.2846 H   0  0  0  0  0  0  0  0  0  0  0  0  # atno 6909 bound_to 6896
  146.1754  140.4288  142.8515 H   0  0  0  0  0  0  0  0  0  0  0  0  # atno 7974 bound_to 7965
  154.4193  140.1154  156.5468 H   0  0  0  0  0  0  0  0  0  0  0  0  # atno 8008 bound_to 7997
  155.6451  140.3496  155.4709 H   0  0  0  0  0  0  0  0  0  0  0  0  # atno 8009 bound_to 7997
  155.9839  140.1165  157.0691 H   0  0  0  0  0  0  0  0  0  0  0  0  # atno 8010 bound_to 7997
  139.4974  144.6052  151.6393 H   0  0  0  0  0  0  0  0  0  0  0  0  # atno 10167 bound_to 10162
  157.1935  130.6857  149.6159 H   0  0  0  0  0  0  0  0  0  0  0  0  # atno 10718 bound_to 10713
  154.8672  135.4161  154.2649 H   0  0  0  0  0  0  0  0  0  0  0  0  # atno 10763 bound_to 10752
  153.3570  135.7001  153.6748 H   0  0  0  0  0  0  0  0  0  0  0  0  # atno 10764 bound_to 10752
  153.5665  135.3600  155.2793 H   0  0  0  0  0  0  0  0  0  0  0  0  # atno 10765 bound_to 10752
  140.7862  133.8324  155.9337 H   0  0  0  0  0  0  0  0  0  0  0  0  # atno 11005 bound_to 11000
  144.8228  140.6578  143.6342 LP  0  0  0  0  0  0  0  0  0  0  0  0  # atno 17320 bound_to 7965
  145.4226  139.1561  143.4066 LP  0  0  0  0  0  0  0  0  0  0  0  0  # atno 17321 bound_to 7965
  140.5712  144.0105  150.6218 LP  0  0  0  0  0  0  0  0  0  0  0  0  # atno 17342 bound_to 10162
  140.3223  143.3129  152.0771 LP  0  0  0  0  0  0  0  0  0  0  0  0  # atno 17343 bound_to 10162
  155.9709  130.4606  150.6080 LP  0  0  0  0  0  0  0  0  0  0  0  0  # atno 17370 bound_to 10713
  157.3837  131.0785  151.1454 LP  0  0  0  0  0  0  0  0  0  0  0  0  # atno 17371 bound_to 10713
  140.9434  134.1871  157.4781 LP  0  0  0  0  0  0  0  0  0  0  0  0  # atno 17394 bound_to 11000
  139.8736  134.9881  156.5396 LP  0  0  0  0  0  0  0  0  0  0  0  0  # atno 17395 bound_to 11000

$$$$
