AV-unprocessed.smi:1503|AV-procd|sdf|6070|dock8
  -GOLD-   22720 6193D 1   1.00000     0.00000
 Structure written by MMmdl.
 43 44  0  0  0  0  0  0  0  0  2 V2000
  152.9886  131.2155  165.0648 C   0  0  0  0  0  0  0  0  0  0  0  0
  152.8749  132.3502  164.3537 C   0  0  0  0  0  0  0  0  0  0  0  0
  153.5203  133.6928  164.6673 C   0  0  0  0  0  0  0  0  0  0  0  0
  153.3925  134.6864  163.6038 N   0  0  0  0  0  0  0  0  0  0  0  0
  153.1414  135.9918  163.7897 C   0  0  0  0  0  0  0  0  0  0  0  0
  152.9710  136.4931  164.9017 O   0  0  0  0  0  0  0  0  0  0  0  0
  153.0792  136.8503  162.5225 C   0  0  0  0  0  0  0  0  0  0  0  0
  154.1665  137.9409  162.4668 C   0  0  0  0  0  0  0  0  0  0  0  0
  153.7071  139.1701  161.6849 C   0  0  0  0  0  0  0  0  0  0  0  0
  153.6964  140.4284  162.2075 C   0  0  0  0  0  0  0  0  0  0  0  0
  154.1208  140.7378  163.6321 C   0  0  0  0  0  0  0  0  0  0  0  0
  153.2790  141.5263  161.4399 N   0  0  0  0  0  0  0  0  0  0  0  0
  152.8967  141.3578  160.2096 C   0  0  0  0  0  0  0  0  0  0  0  0
  152.4813  142.4277  159.4097 N   0  0  0  0  0  0  0  0  0  0  0  0
  151.5712  142.2286  158.2783 C   0  0  0  0  0  0  0  0  0  0  0  0
  151.7179  143.3506  157.2372 C   0  0  0  0  0  0  0  0  0  0  0  0
  151.5153  144.6121  157.8595 O   0  0  0  0  0  0  0  0  0  0  0  0
  152.4840  144.8489  158.8717 C   0  0  0  0  0  0  0  0  0  0  0  0
  152.3654  143.7761  159.9670 C   0  0  0  0  0  0  0  0  0  0  0  0
  152.8850  140.1121  159.6015 N   0  5  0  0  0  0  0  0  0  0  0  0
  153.2701  138.9997  160.2885 C   0  0  0  0  0  0  0  0  0  0  0  0
  153.2554  137.8803  159.7780 O   0  0  0  0  0  0  0  0  0  0  0  0
  153.5810  131.1592  165.9661 H   0  0  0  0  0  0  0  0  0  0  0  0
  152.4816  130.3163  164.7471 H   0  0  0  0  0  0  0  0  0  0  0  0
  152.2641  132.3335  163.4629 H   0  0  0  0  0  0  0  0  0  0  0  0
  153.1023  134.0777  165.5987 H   0  0  0  0  0  0  0  0  0  0  0  0
  154.5817  133.5272  164.8515 H   0  0  0  0  0  0  0  0  0  0  0  0
  153.5175  134.3596  162.6564 H   0  0  0  0  0  0  0  0  0  0  0  0
  153.1686  136.1894  161.6596 H   0  0  0  0  0  0  0  0  0  0  0  0
  152.0947  137.3163  162.4576 H   0  0  0  0  0  0  0  0  0  0  0  0
  154.4515  138.2285  163.4789 H   0  0  0  0  0  0  0  0  0  0  0  0
  155.0797  137.5489  162.0161 H   0  0  0  0  0  0  0  0  0  0  0  0
  153.6076  140.0848  164.3382 H   0  0  0  0  0  0  0  0  0  0  0  0
  153.8846  141.7683  163.8996 H   0  0  0  0  0  0  0  0  0  0  0  0
  155.1958  140.5975  163.7459 H   0  0  0  0  0  0  0  0  0  0  0  0
  151.7410  141.2711  157.7856 H   0  0  0  0  0  0  0  0  0  0  0  0
  150.5483  142.2056  158.6560 H   0  0  0  0  0  0  0  0  0  0  0  0
  152.7013  143.3157  156.7651 H   0  0  0  0  0  0  0  0  0  0  0  0
  150.9801  143.2244  156.4449 H   0  0  0  0  0  0  0  0  0  0  0  0
  153.4861  144.8534  158.4393 H   0  0  0  0  0  0  0  0  0  0  0  0
  152.3172  145.8384  159.2976 H   0  0  0  0  0  0  0  0  0  0  0  0
  151.4050  143.8657  160.4762 H   0  0  0  0  0  0  0  0  0  0  0  0
  153.1403  143.9490  160.7149 H   0  0  0  0  0  0  0  0  0  0  0  0
  1  2  2  0  0  0  0
  1 23  1  0  0  0  0
  1 24  1  0  0  0  0
  2  3  1  0  0  0  0
  2 25  1  0  0  0  0
  3  4  1  0  0  0  0
  3 26  1  0  0  0  0
  3 27  1  0  0  0  0
  4  5  1  0  0  0  0
  4 28  1  0  0  0  0
  5  6  2  0  0  0  0
  5  7  1  0  0  0  0
  7  8  1  0  0  0  0
  7 29  1  0  0  0  0
  7 30  1  0  0  0  0
  8  9  1  0  0  0  0
  8 31  1  0  0  0  0
  8 32  1  0  0  0  0
  9 21  1  0  0  0  0
  9 10  2  0  0  0  0
 10 11  1  0  0  0  0
 10 12  1  0  0  0  0
 11 33  1  0  0  0  0
 11 34  1  0  0  0  0
 11 35  1  0  0  0  0
 12 13  2  0  0  0  0
 13 14  1  0  0  0  0
 13 20  1  0  0  0  0
 14 19  1  0  0  0  0
 14 15  1  0  0  0  0
 15 16  1  0  0  0  0
 15 36  1  0  0  0  0
 15 37  1  0  0  0  0
 16 17  1  0  0  0  0
 16 38  1  0  0  0  0
 16 39  1  0  0  0  0
 17 18  1  0  0  0  0
 18 19  1  0  0  0  0
 18 40  1  0  0  0  0
 18 41  1  0  0  0  0
 19 42  1  0  0  0  0
 19 43  1  0  0  0  0
 20 21  1  0  0  0  0
 21 22  2  0  0  0  0
M  CHG  1  20  -1
M  END
> <s_m_source_file>
AV-unprocessed.smi

> <i_m_source_file_index>
1503

> <i_lp_mmshare_version>
43012

> <i_f3d_flags>
0

> <s_epik_input>
W0NIMl09W0NIXVtDSDJdW05IXUMoPU8pW0NIMl1bQ0gyXWMxYyhbQ0gzXSluYyhbbkhdYzE9TylOMltDSDJdW0NIMl1PW0NIMl1bQ0gyXTI=

> <s_epik_cmdline>
J2VwaWtfcHl0aG9uJywgJy1waCcsICc3LjAnLCAnLXRuJywgJzgnLCAnLW1hJywgJzIwMCcsICctbWV0YWxfYmluZGluZycsICctaW1hZScsICc8aW5maWxlLm1hZT4nLCAnLW9tYWUnLCAnPG91dGZpbGUubWFlPic=

> <r_lp_tautomer_probability>
1

> <r_epik_Ionization_Penalty>
5.02457

> <r_epik_Ionization_Penalty_Charging>
9.64055e-08

> <r_epik_Ionization_Penalty_Neutral>
5.02457

> <r_epik_State_Penalty>
2.56428

> <r_epik_Charging_Adjusted_Penalty>
2.56428

> <i_epik_Tot_Q>
-1

> <i_epik_Tot_abs_Q>
1

> <r_epik_Metal_State_Penalty>
0.122481

> <b_epik_Metal_Only>
0

> <s_lp_Force_Field>
OPLS_2005

> <r_lp_Energy>
26.3767

> <b_lp_Chiralities_Consistent>
1

> <s_lp_Variant>
AV-unprocessed.smi:1503-3

> <Gold.Version>
5.8.1

> <Gold.Id.Protein>
6NUR|6NUR_protein|mol2

> <Gold.PLP.Fitness>
42.5034

> <Gold.PLP.PLP>
-43.3087

> <Gold.PLP.part.hbond>
0.0000

> <Gold.PLP.part.metal>
0.0000

> <Gold.PLP.part.buried>
-4.4422

> <Gold.PLP.part.nonpolar>
-40.4873

> <Gold.PLP.part.repulsive>
0.9821

> <Gold.PLP.ligand.clash>
0.0000

> <Gold.PLP.ligand.torsion>
0.5281

> <Gold.PLP.Chemscore.Hbond>
0.0000

> <Gold.PLP.Chemscore.CHOScore>
0.0000

> <Gold.PLP.Chemscore.Metal>
0.0000

> <Gold.Chemscore.Hbonds>
donor molecule, donor type, donor heavy atom, donor atom, acceptor molecule, acceptor atom, score
      P1  H  6924  6935       L1     6  0.05

> <Gold.PLP.Chemscore.Internal.Correction>
0.2509

> <Gold.Rescore>
     Score         DG    S(hbond)    S(metal)    S(lipo)     H(rot)  DE(clash)    DE(int)     intcor
     12.82     -13.37       0.00        0.00     108.44       1.87       0.08       0.47       ----

> <Gold.Chemscore.Fitness>
12.8214

> <Gold.Chemscore.DG>
-13.3728

> <Gold.Chemscore.ZeroCoef>
-5.4800

> <Gold.Chemscore.Hbond>
0.0000

> <Gold.Chemscore.Metal>
0.0000

> <Gold.Chemscore.Lipo>
108.4354

> <Gold.Chemscore.Internal_Hbond>
0.0000

> <Gold.Chemscore.DEClash>
0.0779

> <Gold.Chemscore.DEInternal>
0.4734

> <Gold.Chemscore.Rot>
1.8727

> <Gold.Chemscore.Internal.Correction>
   9.000000E+99

> <Gold.Chemscore.Hbonds>
donor molecule, donor type, donor heavy atom, donor atom, acceptor molecule, acceptor atom, score
      P1  H  6924  6935       L1     6  0.07

> <Gold.Chemscore.Hbond.Weighted>
-0.0000

> <Gold.Chemscore.Metal.Weighted>
-0.0000

> <Gold.Chemscore.Lipo.Weighted>
-12.6869

> <Gold.Chemscore.Internal_Hbond.Weighted>
0.0000

> <Gold.Chemscore.DEClash.Weighted>
0.0779

> <Gold.Chemscore.DEInternal.Weighted>
0.4734

> <Gold.Chemscore.Rot.Weighted>
4.7942

> <Gold.Chemscore.Internal.Correction.Weighted>
   9.000000E+99

> <Gold.Protein.RotatedTorsions>
[ 6907 6896 6895 6894 ] final  -71.92 input  -60.11 | X-H torsion
[ 7974 7965 7964 7962 ] final -177.50 input  175.53 | X-H torsion
[ 8008 7997 7996 7995 ] final   81.48 input   59.86 | X-H torsion
[ 10167 10162 10161 10158 ] final   81.70 input  -65.29 | X-H torsion
[ 10718 10713 10712 10709 ] final    5.63 input   66.30 | X-H torsion
[ 10763 10752 10751 10750 ] final -148.74 input  -60.55 | X-H torsion
[ 11005 11000 10999 10996 ] final  151.62 input  -57.11 | X-H torsion

> <Gold.Protein.ActiveResidues>
 VAL166  LYS551  ARG553  GLY616  TRP617  ASP618  TYR619  PRO620  LYS621  CYS622 
 ASP623  PHE694  ASN695  SER759  ASP760  ASP761  ALA762  ILE779  LEU786  VAL792 
 PHE793  MET794  SER795  GLU796  ALA797  LYS798  CYS799  TRP800  GLU811  SER814 

> <Gold.Protein.RotatedAtoms>
  150.7191  134.5238  159.5666 H   0  0  0  0  0  0  0  0  0  0  0  0  # atno 6907 bound_to 6896
  152.2787  134.7850  160.0410 H   0  0  0  0  0  0  0  0  0  0  0  0  # atno 6908 bound_to 6896
  151.8504  133.3403  159.3708 H   0  0  0  0  0  0  0  0  0  0  0  0  # atno 6909 bound_to 6896
  144.7128  140.1009  143.6416 H   0  0  0  0  0  0  0  0  0  0  0  0  # atno 7974 bound_to 7965
  155.8977  140.3435  155.6003 H   0  0  0  0  0  0  0  0  0  0  0  0  # atno 8008 bound_to 7997
  155.7536  140.0823  157.2208 H   0  0  0  0  0  0  0  0  0  0  0  0  # atno 8009 bound_to 7997
  154.4040  140.1548  156.2740 H   0  0  0  0  0  0  0  0  0  0  0  0  # atno 8010 bound_to 7997
  139.9365  144.6118  150.8293 H   0  0  0  0  0  0  0  0  0  0  0  0  # atno 10167 bound_to 10162
  156.9102  130.5753  149.5647 H   0  0  0  0  0  0  0  0  0  0  0  0  # atno 10718 bound_to 10713
  154.8216  135.3327  154.7021 H   0  0  0  0  0  0  0  0  0  0  0  0  # atno 10763 bound_to 10752
  153.7653  135.6929  153.4922 H   0  0  0  0  0  0  0  0  0  0  0  0  # atno 10764 bound_to 10752
  153.2082  135.4491  155.0297 H   0  0  0  0  0  0  0  0  0  0  0  0  # atno 10765 bound_to 10752
  140.1235  134.8848  157.2105 H   0  0  0  0  0  0  0  0  0  0  0  0  # atno 11005 bound_to 11000
  145.9538  139.2752  143.1196 LP  0  0  0  0  0  0  0  0  0  0  0  0  # atno 17320 bound_to 7965
  145.9294  140.9059  143.0364 LP  0  0  0  0  0  0  0  0  0  0  0  0  # atno 17321 bound_to 7965
  140.7623  143.3195  151.2656 LP  0  0  0  0  0  0  0  0  0  0  0  0  # atno 17342 bound_to 10162
  139.6739  143.9971  152.2769 LP  0  0  0  0  0  0  0  0  0  0  0  0  # atno 17343 bound_to 10162
  156.0539  130.5604  150.9050 LP  0  0  0  0  0  0  0  0  0  0  0  0  # atno 17370 bound_to 10713
  157.5972  131.0942  150.9021 LP  0  0  0  0  0  0  0  0  0  0  0  0  # atno 17371 bound_to 10713
  140.2934  134.3214  155.7309 LP  0  0  0  0  0  0  0  0  0  0  0  0  # atno 17394 bound_to 11000
  141.2156  133.7548  156.9536 LP  0  0  0  0  0  0  0  0  0  0  0  0  # atno 17395 bound_to 11000

$$$$
