AV-unprocessed.smi:2179|AV-procd|sdf|8856|dock7
  -GOLD-   2272012 53D 1   1.00000     0.00000
 Structure written by MMmdl.
 47 48  0  0  0  0  0  0  0  0  1 V2000
  151.4250  145.6817  159.6617 C   0  0  0  0  0  0  0  0  0  0  0  0
  152.1144  144.4129  159.1709 C   0  0  0  0  0  0  0  0  0  0  0  0
  152.6254  144.3849  158.0519 O   0  0  0  0  0  0  0  0  0  0  0  0
  152.1270  143.3730  160.0185 N   0  0  0  0  0  0  0  0  0  0  0  0
  152.7366  142.0777  159.7431 C   0  0  0  0  0  0  0  0  0  0  0  0
  153.8650  141.7611  160.7412 C   0  0  0  0  0  0  0  0  0  0  0  0
  153.9097  140.3400  161.0621 N   0  0  0  0  0  0  0  0  0  0  0  0
  154.0557  139.3528  160.1634 C   0  0  0  0  0  0  0  0  0  0  0  0
  154.1963  139.5477  158.9560 O   0  0  0  0  0  0  0  0  0  0  0  0
  154.1035  137.9629  160.7286 C   0  0  0  0  0  0  0  0  0  0  0  0
  154.3313  137.7262  162.1016 C   0  0  0  0  0  0  0  0  0  0  0  0
  154.3392  136.4008  162.5771 C   0  0  0  0  0  0  0  0  0  0  0  0
  154.1137  135.3390  161.6694 C   0  0  0  0  0  0  0  0  0  0  0  0
  154.1177  134.0018  162.1230 N   0  0  0  0  0  0  0  0  0  0  0  0
  154.0429  133.8216  163.5704 C   0  0  0  0  0  0  0  0  0  0  0  0
  153.7312  132.3528  163.9145 C   0  0  2  0  0  0  0  0  0  0  0  0
  153.7655  132.0960  165.4245 C   0  0  0  0  0  0  0  0  0  0  0  0
  154.6996  131.5101  163.2960 O   0  0  0  0  0  0  0  0  0  0  0  0
  154.6826  131.6137  161.8750 C   0  0  2  0  0  0  0  0  0  0  0  0
  155.6862  130.6050  161.3068 C   0  0  0  0  0  0  0  0  0  0  0  0
  155.0249  133.0595  161.4709 C   0  0  0  0  0  0  0  0  0  0  0  0
  153.8785  135.5706  160.3544 N   0  0  0  0  0  0  0  0  0  0  0  0
  153.8707  136.8425  159.9030 C   0  0  0  0  0  0  0  0  0  0  0  0
  152.1402  146.3212  160.1795 H   0  0  0  0  0  0  0  0  0  0  0  0
  150.6100  145.4477  160.3478 H   0  0  0  0  0  0  0  0  0  0  0  0
  151.0111  146.2410  158.8220 H   0  0  0  0  0  0  0  0  0  0  0  0
  151.6808  143.4870  160.9172 H   0  0  0  0  0  0  0  0  0  0  0  0
  151.9561  141.3195  159.8122 H   0  0  0  0  0  0  0  0  0  0  0  0
  153.1066  142.0495  158.7166 H   0  0  0  0  0  0  0  0  0  0  0  0
  154.8314  142.0870  160.3519 H   0  0  0  0  0  0  0  0  0  0  0  0
  153.7045  142.3092  161.6701 H   0  0  0  0  0  0  0  0  0  0  0  0
  153.8274  140.0884  162.0364 H   0  0  0  0  0  0  0  0  0  0  0  0
  154.4912  138.5415  162.7921 H   0  0  0  0  0  0  0  0  0  0  0  0
  154.4989  136.2178  163.6290 H   0  0  0  0  0  0  0  0  0  0  0  0
  154.9978  134.1154  164.0083 H   0  0  0  0  0  0  0  0  0  0  0  0
  153.2812  134.4592  164.0169 H   0  0  0  0  0  0  0  0  0  0  0  0
  152.7390  132.0914  163.5415 H   0  0  0  0  0  0  0  0  0  0  0  0
  153.0302  132.7109  165.9444 H   0  0  0  0  0  0  0  0  0  0  0  0
  154.7472  132.3226  165.8416 H   0  0  0  0  0  0  0  0  0  0  0  0
  153.5425  131.0522  165.6467 H   0  0  0  0  0  0  0  0  0  0  0  0
  153.6872  131.3558  161.5089 H   0  0  0  0  0  0  0  0  0  0  0  0
  155.7027  130.6394  160.2172 H   0  0  0  0  0  0  0  0  0  0  0  0
  155.4269  129.5884  161.6031 H   0  0  0  0  0  0  0  0  0  0  0  0
  156.6961  130.8091  161.6639 H   0  0  0  0  0  0  0  0  0  0  0  0
  154.9529  133.1572  160.3868 H   0  0  0  0  0  0  0  0  0  0  0  0
  156.0518  133.2968  161.7534 H   0  0  0  0  0  0  0  0  0  0  0  0
  153.6763  136.9618  158.8469 H   0  0  0  0  0  0  0  0  0  0  0  0
  1  2  1  0  0  0  0
  1 24  1  0  0  0  0
  1 25  1  0  0  0  0
  1 26  1  0  0  0  0
  2  3  2  0  0  0  0
  2  4  1  0  0  0  0
  4  5  1  0  0  0  0
  4 27  1  0  0  0  0
  5  6  1  0  0  0  0
  5 28  1  0  0  0  0
  5 29  1  0  0  0  0
  6  7  1  0  0  0  0
  6 30  1  0  0  0  0
  6 31  1  0  0  0  0
  7  8  1  0  0  0  0
  7 32  1  0  0  0  0
  8  9  2  0  0  0  0
  8 10  1  0  0  0  0
 10 23  1  0  0  0  0
 10 11  2  0  0  0  0
 11 12  1  0  0  0  0
 11 33  1  0  0  0  0
 12 13  2  0  0  0  0
 12 34  1  0  0  0  0
 13 14  1  0  0  0  0
 13 22  1  0  0  0  0
 14 21  1  0  0  0  0
 14 15  1  0  0  0  0
 15 16  1  0  0  0  0
 15 35  1  0  0  0  0
 15 36  1  0  0  0  0
 16 17  1  0  0  0  0
 16 18  1  0  0  0  0
 16 37  1  0  0  0  0
 17 38  1  0  0  0  0
 17 39  1  0  0  0  0
 17 40  1  0  0  0  0
 18 19  1  0  0  0  0
 19 20  1  0  0  0  0
 19 21  1  0  0  0  0
 19 41  1  0  0  0  0
 20 42  1  0  0  0  0
 20 43  1  0  0  0  0
 20 44  1  0  0  0  0
 21 45  1  0  0  0  0
 21 46  1  0  0  0  0
 22 23  2  0  0  0  0
 23 47  1  0  0  0  0
M  END
> <s_m_source_file>
AV-unprocessed.smi

> <i_m_source_file_index>
2179

> <i_lp_mmshare_version>
43012

> <i_f3d_flags>
0

> <s_epik_input>
W0NIM11DKD1PKVtOSF1bQ0gyXVtDSDJdW05IXUMoPU8pYzFbY0hdW2NIXWMobltjSF0xKU4yW0NIMl1bQ0BASF0oW0NIM10pT1tDQEBIXShbQ0gzXSlbQ0gyXTI=

> <s_epik_cmdline>
J2VwaWtfcHl0aG9uJywgJy1waCcsICc3LjAnLCAnLXRuJywgJzgnLCAnLW1hJywgJzIwMCcsICctbWV0YWxfYmluZGluZycsICctaW1hZScsICc8aW5maWxlLm1hZT4nLCAnLW9tYWUnLCAnPG91dGZpbGUubWFlPic=

> <r_lp_tautomer_probability>
1

> <r_epik_Ionization_Penalty>
2.00433e-05

> <r_epik_Ionization_Penalty_Charging>
0

> <r_epik_Ionization_Penalty_Neutral>
2.00433e-05

> <r_epik_State_Penalty>
-0

> <r_epik_Charging_Adjusted_Penalty>
0

> <i_epik_Tot_Q>
0

> <i_epik_Tot_abs_Q>
0

> <r_epik_Metal_State_Penalty>
-0

> <b_epik_Metal_Only>
0

> <s_lp_Force_Field>
OPLS_2005

> <r_lp_Energy>
13.6511

> <b_lp_Chiralities_Consistent>
1

> <s_lp_Variant>
AV-unprocessed.smi:2179-1

> <Gold.Version>
5.8.1

> <Gold.Id.Protein>
6NUR|6NUR_protein|mol2

> <Gold.PLP.Fitness>
42.4648

> <Gold.PLP.PLP>
-37.2966

> <Gold.PLP.part.hbond>
-1.9953

> <Gold.PLP.part.metal>
0.0000

> <Gold.PLP.part.buried>
-5.6516

> <Gold.PLP.part.nonpolar>
-29.4027

> <Gold.PLP.part.repulsive>
0.1096

> <Gold.PLP.ligand.clash>
0.0000

> <Gold.PLP.ligand.torsion>
0.5913

> <Gold.PLP.Chemscore.Hbond>
2.0000

> <Gold.PLP.Chemscore.CHOScore>
0.0000

> <Gold.PLP.Chemscore.Metal>
0.0000

> <Gold.Chemscore.Hbonds>
donor molecule, donor type, donor heavy atom, donor atom, acceptor molecule, acceptor atom, score
      P1  H  6896  6909       L1    22  1.00
      P1  H  7997  8010       L1     9  1.00

> <Gold.PLP.Chemscore.Internal.Correction>
0.3508

> <Gold.Rescore>
     Score         DG    S(hbond)    S(metal)    S(lipo)     H(rot)  DE(clash)    DE(int)     intcor
     15.88     -16.66       1.76        0.00      86.02       1.86       0.04       0.74       ----

> <Gold.Chemscore.Fitness>
15.8784

> <Gold.Chemscore.DG>
-16.6570

> <Gold.Chemscore.ZeroCoef>
-5.4800

> <Gold.Chemscore.Hbond>
1.7575

> <Gold.Chemscore.Metal>
0.0000

> <Gold.Chemscore.Lipo>
86.0234

> <Gold.Chemscore.Internal_Hbond>
0.0000

> <Gold.Chemscore.DEClash>
0.0419

> <Gold.Chemscore.DEInternal>
0.7367

> <Gold.Chemscore.Rot>
1.8586

> <Gold.Chemscore.Internal.Correction>
   9.000000E+99

> <Gold.Chemscore.Hbonds>
donor molecule, donor type, donor heavy atom, donor atom, acceptor molecule, acceptor atom, score
      P1  H  6896  6909       L1    22  0.42
      P1  H  7997  8010       L1     9  1.00

> <Gold.Chemscore.Hbond.Weighted>
-5.8702

> <Gold.Chemscore.Metal.Weighted>
-0.0000

> <Gold.Chemscore.Lipo.Weighted>
-10.0647

> <Gold.Chemscore.Internal_Hbond.Weighted>
0.0000

> <Gold.Chemscore.DEClash.Weighted>
0.0419

> <Gold.Chemscore.DEInternal.Weighted>
0.7367

> <Gold.Chemscore.Rot.Weighted>
4.7579

> <Gold.Chemscore.Internal.Correction.Weighted>
   9.000000E+99

> <Gold.Protein.RotatedTorsions>
[ 6907 6896 6895 6894 ] final -179.18 input  -60.11 | X-H torsion
[ 7974 7965 7964 7962 ] final -111.95 input  175.53 | X-H torsion
[ 8008 7997 7996 7995 ] final    3.50 input   59.86 | X-H torsion
[ 10167 10162 10161 10158 ] final   -7.37 input  -65.29 | X-H torsion
[ 10718 10713 10712 10709 ] final -113.85 input   66.30 | X-H torsion
[ 10763 10752 10751 10750 ] final   14.31 input  -60.55 | X-H torsion
[ 11005 11000 10999 10996 ] final   43.99 input  -57.11 | X-H torsion

> <Gold.Protein.ActiveResidues>
 VAL166  LYS551  ARG553  GLY616  TRP617  ASP618  TYR619  PRO620  LYS621  CYS622 
 ASP623  PHE694  ASN695  SER759  ASP760  ASP761  ALA762  ILE779  LEU786  VAL792 
 PHE793  MET794  SER795  GLU796  ALA797  LYS798  CYS799  TRP800  GLU811  SER814 

> <Gold.Protein.RotatedAtoms>
  151.6493  133.3322  159.3147 H   0  0  0  0  0  0  0  0  0  0  0  0  # atno 6907 bound_to 6896
  150.7968  134.7038  159.6574 H   0  0  0  0  0  0  0  0  0  0  0  0  # atno 6908 bound_to 6896
  152.4056  134.6216  160.0103 H   0  0  0  0  0  0  0  0  0  0  0  0  # atno 6909 bound_to 6896
  145.1499  140.8823  143.3652 H   0  0  0  0  0  0  0  0  0  0  0  0  # atno 7974 bound_to 7965
  154.7044  140.2680  155.6688 H   0  0  0  0  0  0  0  0  0  0  0  0  # atno 8008 bound_to 7997
  156.2775  140.2766  156.1589 H   0  0  0  0  0  0  0  0  0  0  0  0  # atno 8009 bound_to 7997
  155.0720  140.0372  157.2601 H   0  0  0  0  0  0  0  0  0  0  0  0  # atno 8010 bound_to 7997
  140.7026  143.6089  150.8724 H   0  0  0  0  0  0  0  0  0  0  0  0  # atno 10167 bound_to 10162
  156.0792  130.5995  150.8697 H   0  0  0  0  0  0  0  0  0  0  0  0  # atno 10718 bound_to 10713
  153.1635  135.6800  153.8709 H   0  0  0  0  0  0  0  0  0  0  0  0  # atno 10763 bound_to 10752
  153.8097  135.3144  155.3400 H   0  0  0  0  0  0  0  0  0  0  0  0  # atno 10764 bound_to 10752
  154.7949  135.4813  154.0227 H   0  0  0  0  0  0  0  0  0  0  0  0  # atno 10765 bound_to 10752
  140.1593  134.4361  155.8328 H   0  0  0  0  0  0  0  0  0  0  0  0  # atno 11005 bound_to 11000
  145.0442  139.3235  143.5961 LP  0  0  0  0  0  0  0  0  0  0  0  0  # atno 17320 bound_to 7965
  146.3496  139.9826  142.8694 LP  0  0  0  0  0  0  0  0  0  0  0  0  # atno 17321 bound_to 7965
  139.9812  143.5949  152.2942 LP  0  0  0  0  0  0  0  0  0  0  0  0  # atno 17342 bound_to 10162
  139.6571  144.7662  151.2035 LP  0  0  0  0  0  0  0  0  0  0  0  0  # atno 17343 bound_to 10162
  157.5902  131.0944  150.9131 LP  0  0  0  0  0  0  0  0  0  0  0  0  # atno 17370 bound_to 10713
  156.9308  130.5349  149.5279 LP  0  0  0  0  0  0  0  0  0  0  0  0  # atno 17371 bound_to 10713
  141.2208  133.6906  156.7565 LP  0  0  0  0  0  0  0  0  0  0  0  0  # atno 17394 bound_to 11000
  140.2509  134.8541  157.3666 LP  0  0  0  0  0  0  0  0  0  0  0  0  # atno 17395 bound_to 11000

$$$$
