AV-unprocessed.smi:155|AV-procd|sdf|1278|dock4
  -GOLD-   2262018543D 1   1.00000     0.00000
 Structure written by MMmdl.
 63 66  0  0  0  0  0  0  0  0  2 V2000
  143.7142  132.7427  148.7286 C   0  0  0  0  0  0  0  0  0  0  0  0
  144.9291  133.2644  149.3975 N   0  3  0  0  0  0  0  0  0  0  0  0
  145.8171  132.1653  149.8372 C   0  0  0  0  0  0  0  0  0  0  0  0
  144.6289  134.2169  150.4959 C   0  0  0  0  0  0  0  0  0  0  0  0
  145.8641  135.0476  150.9035 C   0  0  0  0  0  0  0  0  0  0  0  0
  145.5141  136.4370  151.2010 N   0  0  0  0  0  0  0  0  0  0  0  0
  144.4288  136.5477  152.1874 C   0  0  0  0  0  0  0  0  0  0  0  0
  144.8833  136.5415  153.6622 C   0  0  0  0  0  0  0  0  0  0  0  0
  145.2025  137.9540  154.1890 C   0  0  0  0  0  0  0  0  0  0  0  0
  146.3923  138.5450  153.5740 N   0  0  0  0  0  0  0  0  0  0  0  0
  146.9985  139.5725  154.2218 C   0  0  0  0  0  0  0  0  0  0  0  0
  146.2669  140.6517  154.6082 N   0  0  0  0  0  0  0  0  0  0  0  0
  146.8540  141.6773  155.2318 C   0  0  0  0  0  0  0  0  0  0  0  0
  148.1369  141.8266  155.5666 N   0  0  0  0  0  0  0  0  0  0  0  0
  148.8747  140.7419  155.1943 C   0  0  0  0  0  0  0  0  0  0  0  0
  148.3899  139.5828  154.5246 C   0  0  0  0  0  0  0  0  0  0  0  0
  149.4316  138.6855  154.3190 N   0  0  0  0  0  0  0  0  0  0  0  0
  150.4739  139.2852  154.8260 C   0  0  0  0  0  0  0  0  0  0  0  0
  150.2273  140.5182  155.3867 N   0  0  0  0  0  0  0  0  0  0  0  0
  151.2019  141.4005  156.0061 C   0  0  0  0  0  0  0  0  0  0  0  0
  150.9273  141.6826  157.5009 C   0  0  1  0  0  0  0  0  0  0  0  0
  151.0622  140.4388  158.1576 O   0  0  0  0  0  0  0  0  0  0  0  0
  151.9131  142.6591  158.1814 C   0  0  1  0  0  0  0  0  0  0  0  0
  151.7991  144.1294  157.7681 C   0  0  0  0  0  0  0  0  0  0  0  0
  152.3165  144.8954  158.9753 C   0  0  0  0  0  0  0  0  0  0  0  0
  152.3214  143.8554  160.0959 C   0  0  0  0  0  0  0  0  0  0  0  0
  151.6043  142.7511  159.5651 O   0  0  0  0  0  0  0  0  0  0  0  0
  146.4707  138.5772  152.1141 C   0  0  0  0  0  0  0  0  0  0  0  0
  146.7337  137.1691  151.5564 C   0  0  0  0  0  0  0  0  0  0  0  0
  143.1038  132.1641  149.4233 H   0  0  0  0  0  0  0  0  0  0  0  0
  143.9859  132.0928  147.8961 H   0  0  0  0  0  0  0  0  0  0  0  0
  143.0988  133.5455  148.3246 H   0  0  0  0  0  0  0  0  0  0  0  0
  145.3422  131.5670  150.6160 H   0  0  0  0  0  0  0  0  0  0  0  0
  146.7555  132.5578  150.2306 H   0  0  0  0  0  0  0  0  0  0  0  0
  146.0615  131.5078  149.0020 H   0  0  0  0  0  0  0  0  0  0  0  0
  143.8060  134.8652  150.1895 H   0  0  0  0  0  0  0  0  0  0  0  0
  144.2756  133.6608  151.3646 H   0  0  0  0  0  0  0  0  0  0  0  0
  146.3860  134.5890  151.7446 H   0  0  0  0  0  0  0  0  0  0  0  0
  146.5704  135.0545  150.0738 H   0  0  0  0  0  0  0  0  0  0  0  0
  143.8801  137.4692  151.9906 H   0  0  0  0  0  0  0  0  0  0  0  0
  143.6989  135.7554  152.0314 H   0  0  0  0  0  0  0  0  0  0  0  0
  144.0603  136.1515  154.2618 H   0  0  0  0  0  0  0  0  0  0  0  0
  145.7152  135.8564  153.8294 H   0  0  0  0  0  0  0  0  0  0  0  0
  144.3490  138.6147  154.0308 H   0  0  0  0  0  0  0  0  0  0  0  0
  145.3548  137.8903  155.2675 H   0  0  0  0  0  0  0  0  0  0  0  0
  146.2026  142.4959  155.4999 H   0  0  0  0  0  0  0  0  0  0  0  0
  151.4574  138.8383  154.8087 H   0  0  0  0  0  0  0  0  0  0  0  0
  152.1759  140.9222  155.8916 H   0  0  0  0  0  0  0  0  0  0  0  0
  151.2519  142.3351  155.4462 H   0  0  0  0  0  0  0  0  0  0  0  0
  149.9017  142.0279  157.6355 H   0  0  0  0  0  0  0  0  0  0  0  0
  150.5004  140.4425  158.9179 H   0  0  0  0  0  0  0  0  0  0  0  0
  152.9442  142.3213  158.0568 H   0  0  0  0  0  0  0  0  0  0  0  0
  152.3630  144.3572  156.8640 H   0  0  0  0  0  0  0  0  0  0  0  0
  150.7556  144.3943  157.5943 H   0  0  0  0  0  0  0  0  0  0  0  0
  153.3216  145.2833  158.8049 H   0  0  0  0  0  0  0  0  0  0  0  0
  151.6646  145.7380  159.2090 H   0  0  0  0  0  0  0  0  0  0  0  0
  153.3412  143.5443  160.3277 H   0  0  0  0  0  0  0  0  0  0  0  0
  151.8590  144.2223  161.0126 H   0  0  0  0  0  0  0  0  0  0  0  0
  145.5616  139.0104  151.6953 H   0  0  0  0  0  0  0  0  0  0  0  0
  147.2771  139.2337  151.7884 H   0  0  0  0  0  0  0  0  0  0  0  0
  147.3443  136.5986  152.2589 H   0  0  0  0  0  0  0  0  0  0  0  0
  147.3289  137.2609  150.6471 H   0  0  0  0  0  0  0  0  0  0  0  0
  145.4491  133.7817  148.7030 H   0  0  0  0  0  0  0  0  0  0  0  0
  1  2  1  0  0  0  0
  1 30  1  0  0  0  0
  1 31  1  0  0  0  0
  1 32  1  0  0  0  0
  2  3  1  0  0  0  0
  2  4  1  0  0  0  0
  2 63  1  0  0  0  0
  3 33  1  0  0  0  0
  3 34  1  0  0  0  0
  3 35  1  0  0  0  0
  4  5  1  0  0  0  0
  4 36  1  0  0  0  0
  4 37  1  0  0  0  0
  5  6  1  0  0  0  0
  5 38  1  0  0  0  0
  5 39  1  0  0  0  0
  6 29  1  0  0  0  0
  6  7  1  0  0  0  0
  7  8  1  0  0  0  0
  7 40  1  0  0  0  0
  7 41  1  0  0  0  0
  8  9  1  0  0  0  0
  8 42  1  0  0  0  0
  8 43  1  0  0  0  0
  9 10  1  0  0  0  0
  9 44  1  0  0  0  0
  9 45  1  0  0  0  0
 10 11  1  0  0  0  0
 10 28  1  0  0  0  0
 11 16  1  0  0  0  0
 11 12  2  0  0  0  0
 12 13  1  0  0  0  0
 13 14  2  0  0  0  0
 13 46  1  0  0  0  0
 14 15  1  0  0  0  0
 15 19  1  0  0  0  0
 15 16  2  0  0  0  0
 16 17  1  0  0  0  0
 17 18  2  0  0  0  0
 18 19  1  0  0  0  0
 18 47  1  0  0  0  0
 19 20  1  0  0  0  0
 20 21  1  0  0  0  0
 20 48  1  0  0  0  0
 20 49  1  0  0  0  0
 21 22  1  0  0  0  0
 21 23  1  0  0  0  0
 21 50  1  0  0  0  0
 22 51  1  0  0  0  0
 23 27  1  0  0  0  0
 23 24  1  0  0  0  0
 23 52  1  0  0  0  0
 24 25  1  0  0  0  0
 24 53  1  0  0  0  0
 24 54  1  0  0  0  0
 25 26  1  0  0  0  0
 25 55  1  0  0  0  0
 25 56  1  0  0  0  0
 26 27  1  0  0  0  0
 26 57  1  0  0  0  0
 26 58  1  0  0  0  0
 28 29  1  0  0  0  0
 28 59  1  0  0  0  0
 28 60  1  0  0  0  0
 29 61  1  0  0  0  0
 29 62  1  0  0  0  0
M  CHG  1   2   1
M  END
> <s_m_source_file>
AV-unprocessed.smi

> <i_m_source_file_index>
155

> <i_lp_mmshare_version>
43012

> <i_f3d_flags>
0

> <s_epik_input>
W0NIM11OKFtDSDNdKVtDSDJdW0NIMl1OMVtDSDJdW0NIMl1bQ0gyXU4oW0NIMl1bQ0gyXTEpYyhuW2NIXW4yKWMoYzIzKW5bY0hdbjNbQ0gyXVtDQEhdKFtPSF0pW0NAQEhdNFtDSDJdW0NIMl1bQ0gyXU80

> <s_epik_cmdline>
J2VwaWtfcHl0aG9uJywgJy1waCcsICc3LjAnLCAnLXRuJywgJzgnLCAnLW1hJywgJzIwMCcsICctbWV0YWxfYmluZGluZycsICctaW1hZScsICc8aW5maWxlLm1hZT4nLCAnLW9tYWUnLCAnPG91dGZpbGUubWFlPic=

> <r_lp_tautomer_probability>
1

> <r_epik_Ionization_Penalty>
0.0599493

> <r_epik_Ionization_Penalty_Charging>
0.00816363

> <r_epik_Ionization_Penalty_Neutral>
0.0517857

> <r_epik_State_Penalty>
0.460607

> <r_epik_Charging_Adjusted_Penalty>
0.468771

> <i_epik_Tot_Q>
1

> <i_epik_Tot_abs_Q>
1

> <r_epik_Metal_State_Penalty>
0.45965

> <b_epik_Metal_Only>
0

> <s_lp_Force_Field>
OPLS_2005

> <r_lp_Energy>
60.0635

> <b_lp_Chiralities_Consistent>
1

> <s_lp_Variant>
AV-unprocessed.smi:155-12

> <Gold.Version>
5.8.1

> <Gold.Id.Protein>
6NUR|6NUR_protein|mol2

> <Gold.PLP.Fitness>
50.0099

> <Gold.PLP.PLP>
-49.9526

> <Gold.PLP.part.hbond>
-1.0000

> <Gold.PLP.part.metal>
0.0000

> <Gold.PLP.part.buried>
-1.3687

> <Gold.PLP.part.nonpolar>
-48.8043

> <Gold.PLP.part.repulsive>
2.9085

> <Gold.PLP.ligand.clash>
0.0000

> <Gold.PLP.ligand.torsion>
1.6547

> <Gold.PLP.Chemscore.Hbond>
1.0000

> <Gold.PLP.Chemscore.CHOScore>
0.0000

> <Gold.PLP.Chemscore.Metal>
0.0000

> <Gold.Chemscore.Hbonds>
donor molecule, donor type, donor heavy atom, donor atom, acceptor molecule, acceptor atom, score
      L1  H     2    63       P1  7921  1.00

> <Gold.PLP.Chemscore.Internal.Correction>
0.3667

> <Gold.Rescore>
     Score         DG    S(hbond)    S(metal)    S(lipo)     H(rot)  DE(clash)    DE(int)     intcor
     12.69     -17.13       0.92        0.00     132.50       2.71       2.82       1.61       ----

> <Gold.Chemscore.Fitness>
12.6923

> <Gold.Chemscore.DG>
-17.1263

> <Gold.Chemscore.ZeroCoef>
-5.4800

> <Gold.Chemscore.Hbond>
0.9210

> <Gold.Chemscore.Metal>
0.0000

> <Gold.Chemscore.Lipo>
132.5029

> <Gold.Chemscore.Internal_Hbond>
0.0000

> <Gold.Chemscore.DEClash>
2.8225

> <Gold.Chemscore.DEInternal>
1.6114

> <Gold.Chemscore.Rot>
2.7080

> <Gold.Chemscore.Internal.Correction>
   9.000000E+99

> <Gold.Chemscore.Hbonds>
donor molecule, donor type, donor heavy atom, donor atom, acceptor molecule, acceptor atom, score
      L1  H     2    63       P1  7921  0.55

> <Gold.Chemscore.Hbond.Weighted>
-3.0760

> <Gold.Chemscore.Metal.Weighted>
-0.0000

> <Gold.Chemscore.Lipo.Weighted>
-15.5028

> <Gold.Chemscore.Internal_Hbond.Weighted>
0.0000

> <Gold.Chemscore.DEClash.Weighted>
2.8225

> <Gold.Chemscore.DEInternal.Weighted>
1.6114

> <Gold.Chemscore.Rot.Weighted>
6.9326

> <Gold.Chemscore.Internal.Correction.Weighted>
   9.000000E+99

> <Gold.Protein.RotatedTorsions>
[ 6907 6896 6895 6894 ] final   83.41 input  -60.11 | X-H torsion
[ 7974 7965 7964 7962 ] final  146.98 input  175.53 | X-H torsion
[ 8008 7997 7996 7995 ] final  -40.89 input   59.86 | X-H torsion
[ 10167 10162 10161 10158 ] final  152.31 input  -65.29 | X-H torsion
[ 10718 10713 10712 10709 ] final  -35.35 input   66.30 | X-H torsion
[ 10763 10752 10751 10750 ] final   38.36 input  -60.55 | X-H torsion
[ 11005 11000 10999 10996 ] final  102.39 input  -57.11 | X-H torsion

> <Gold.Protein.ActiveResidues>
 VAL166  LYS551  ARG553  GLY616  TRP617  ASP618  TYR619  PRO620  LYS621  CYS622 
 ASP623  PHE694  ASN695  SER759  ASP760  ASP761  ALA762  ILE779  LEU786  VAL792 
 PHE793  MET794  SER795  GLU796  ALA797  LYS798  CYS799  TRP800  GLU811  SER814 

> <Gold.Protein.RotatedAtoms>
  152.5326  134.2900  159.9039 H   0  0  0  0  0  0  0  0  0  0  0  0  # atno 6907 bound_to 6896
  151.2853  133.4184  159.2637 H   0  0  0  0  0  0  0  0  0  0  0  0  # atno 6908 bound_to 6896
  151.0248  134.9511  159.8136 H   0  0  0  0  0  0  0  0  0  0  0  0  # atno 6909 bound_to 6896
  144.8628  139.5972  143.5923 H   0  0  0  0  0  0  0  0  0  0  0  0  # atno 7974 bound_to 7965
  154.4008  140.1513  156.3101 H   0  0  0  0  0  0  0  0  0  0  0  0  # atno 8008 bound_to 7997
  155.8623  140.3453  155.5743 H   0  0  0  0  0  0  0  0  0  0  0  0  # atno 8009 bound_to 7997
  155.7866  140.0851  157.2022 H   0  0  0  0  0  0  0  0  0  0  0  0  # atno 8010 bound_to 7997
  139.4834  144.5368  151.7631 H   0  0  0  0  0  0  0  0  0  0  0  0  # atno 10167 bound_to 10162
  156.3397  130.4291  149.7798 H   0  0  0  0  0  0  0  0  0  0  0  0  # atno 10718 bound_to 10713
  153.0004  135.6251  154.2292 H   0  0  0  0  0  0  0  0  0  0  0  0  # atno 10763 bound_to 10752
  154.2035  135.2803  155.2984 H   0  0  0  0  0  0  0  0  0  0  0  0  # atno 10764 bound_to 10752
  154.5665  135.5689  153.7114 H   0  0  0  0  0  0  0  0  0  0  0  0  # atno 10765 bound_to 10752
  139.8777  134.9222  156.5050 H   0  0  0  0  0  0  0  0  0  0  0  0  # atno 11005 bound_to 11000
  146.2873  139.7040  142.9186 LP  0  0  0  0  0  0  0  0  0  0  0  0  # atno 17320 bound_to 7965
  145.4279  141.0412  143.2927 LP  0  0  0  0  0  0  0  0  0  0  0  0  # atno 17321 bound_to 7965
  140.4902  144.1322  150.5949 LP  0  0  0  0  0  0  0  0  0  0  0  0  # atno 17342 bound_to 10162
  140.4180  143.2625  151.9751 LP  0  0  0  0  0  0  0  0  0  0  0  0  # atno 17343 bound_to 10162
  156.5040  130.8141  151.3143 LP  0  0  0  0  0  0  0  0  0  0  0  0  # atno 17370 bound_to 10713
  157.7444  130.9935  150.2676 LP  0  0  0  0  0  0  0  0  0  0  0  0  # atno 17371 bound_to 10713
  140.8561  133.8095  155.9218 LP  0  0  0  0  0  0  0  0  0  0  0  0  # atno 17394 bound_to 11000
  140.9096  134.2277  157.4994 LP  0  0  0  0  0  0  0  0  0  0  0  0  # atno 17395 bound_to 11000

$$$$
