#       Name:                AV-unprocessed.smi:897
#       Creating user name   scv26
#       Creation time:       Fri Mar 27 01:57:05 2020


#       File generated by GOLD software.
#

@<TRIPOS>MOLECULE
AV-unprocessed.smi:897
    39    41     1
SMALL
NO_CHARGES


@<TRIPOS>ATOM
      1 ****        -3.3306   1.8512   0.0683 C.3            1 S1                 0.0000
      2 ****        -2.6953   0.4820  -0.0524 C.ar           1 S1                 0.0000
      3 ****        -3.4746  -0.6875   0.0178 C.ar           1 S1                 0.0000
      4 ****        -2.8323  -1.9364  -0.1020 C.ar           1 S1                 0.0000
      5 ****        -3.6656  -3.2073  -0.0336 C.3            1 S1                 0.0000
      6 ****        -1.4249  -1.9652  -0.2840 C.ar           1 S1                 0.0000
      7 ****        -0.7195  -3.2398  -0.4071 C.1            1 S1                 0.0000
      8 ****        -0.1608  -4.2484  -0.5043 N.1            1 S1                 0.0000
      9 ****        -0.7257  -0.7276  -0.3398 C.ar           1 S1                 0.0000
     10 ****         0.6698  -0.7032  -0.5225 N.pl3          1 S1                 0.0000
     11 ****         1.4433   0.5237  -0.3626 C.3            1 S1                 0.0000
     12 ****         1.5686   0.9699   1.1000 C.3            1 S1                 0.0000
     13 ****         3.0896   1.0461   1.2797 C.3            1 S1                 0.0000
     14 ****         3.7134   2.1992   0.4816 C.3            1 S1                 0.0000
     15 ****         3.6216   1.6733  -0.9506 C.3            1 S1                 0.0000
     16 ****         2.9190   0.3242  -0.7475 C.3            1 S1                 0.0000
     17 ****         3.4874  -0.0629   0.4935 O.3            1 S1                 0.0000
     18 ****        -1.3588   0.4648  -0.2275 N.ar           1 S1                 0.0000
     19 ****        -4.4179   1.7808   0.1098 H              1 S1                 0.0000
     20 ****        -3.0641   2.4712  -0.7882 H              1 S1                 0.0000
     21 ****        -2.9857   2.3495   0.9748 H              1 S1                 0.0000
     22 ****        -4.5439  -0.6271   0.1599 H              1 S1                 0.0000
     23 ****        -3.3563  -3.8226   0.8116 H              1 S1                 0.0000
     24 ****        -3.5505  -3.7901  -0.9477 H              1 S1                 0.0000
     25 ****        -4.7254  -2.9813   0.0860 H              1 S1                 0.0000
     26 ****         1.1733  -1.5776  -0.5683 H              1 S1                 0.0000
     27 ****         1.0049   1.3060  -0.9839 H              1 S1                 0.0000
     28 ****         1.0774   1.9246   1.2903 H              1 S1                 0.0000
     29 ****         1.1472   0.2317   1.7843 H              1 S1                 0.0000
     30 ****         3.4138   0.9991   2.3196 H              1 S1                 0.0000
     31 ****         3.1777   3.1382   0.6246 H              1 S1                 0.0000
     32 ****         4.7551   2.3516   0.7662 H              1 S1                 0.0000
     33 ****         3.0660   2.3382  -1.6129 H              1 S1                 0.0000
     34 ****         4.6183   1.5301  -1.3697 H              1 S1                 0.0000
     35 ****         3.0843  -0.3801  -1.5639 H              1 S1                 0.0000
     36 ****         0.3221  -5.1200  -0.5883 LP             1 S1                 0.0000
     37 ****         3.0992  -0.9201   0.8319 LP             1 S1                 0.0000
     38 ****         4.4825  -0.1459   0.4398 LP             1 S1                 0.0000
     39 ****        -0.8422   1.3198  -0.2738 LP             1 S1                 0.0000
@<TRIPOS>BOND
    1    1    2 1     
    2    1   19 1     
    3    1   20 1     
    4    1   21 1     
    5    2   18 ar    
    6    2    3 ar    
    7    3    4 ar    
    8    3   22 1     
    9    4    5 1     
   10    4    6 ar    
   11    5   23 1     
   12    5   24 1     
   13    5   25 1     
   14    6    7 1     
   15    6    9 ar    
   16    7    8 3     
   17    9   10 1     
   18    9   18 ar    
   19   10   11 1     
   20   10   26 1     
   21   11   16 1     
   22   11   12 1     
   23   11   27 1     
   24   12   13 1     
   25   12   28 1     
   26   12   29 1     
   27   13   17 1     
   28   13   14 1     
   29   13   30 1     
   30   14   15 1     
   31   14   31 1     
   32   14   32 1     
   33   15   16 1     
   34   15   33 1     
   35   15   34 1     
   36   16   17 1     
   37   16   35 1     
   38    8   36 1     
   39   17   37 1     
   40   17   38 1     
   41   18   39 1     
@<TRIPOS>SUBSTRUCTURE
      1 S1             1
@<TRIPOS>SET
LONE_PAIRS      STATIC     ATOMS    <user>   **** ""
4 36 37 38 39
DONOR_HYDROGENS      STATIC     ATOMS    <user>   **** ""
1 26
ATOM$BLUE        STATIC     ATOMS    COLORGROUP SYSTEM
4 36 37 38 39
ATOM$RED        STATIC     ATOMS    COLORGROUP SYSTEM
1 26
