AV-unprocessed.smi:3196|AV-procd|sdf|12222|dock6
  -GOLD-   2272018 53D 1   1.00000     0.00000
 Structure written by MMmdl.
 33 34  0  0  0  0  0  0  0  0  1 V2000
  151.1208  138.9182  154.7158 C   0  0  0  0  0  0  0  0  0  0  0  0
  149.7920  139.6374  154.4607 C   0  0  0  0  0  0  0  0  0  0  0  0
  148.6068  138.6670  154.3676 C   0  0  0  0  0  0  0  0  0  0  0  0
  147.3147  139.3680  153.9864 C   0  0  1  0  0  0  0  0  0  0  0  0
  147.1066  139.9059  152.5958 C   0  0  0  0  0  0  0  0  0  0  0  0
  146.2832  138.7283  153.0773 C   0  0  1  0  0  0  0  0  0  0  0  0
  146.5645  137.4518  152.4894 N   0  0  0  0  0  0  0  0  0  0  0  0
  145.6882  136.4939  152.1379 C   0  0  0  0  0  0  0  0  0  0  0  0
  144.4794  136.6662  152.2747 O   0  0  0  0  0  0  0  0  0  0  0  0
  146.2590  135.3949  151.6046 N   0  0  0  0  0  0  0  0  0  0  0  0
  145.6626  134.1988  151.1158 C   0  0  0  0  0  0  0  0  0  0  0  0
  144.3480  134.1015  150.5963 C   0  0  0  0  0  0  0  0  0  0  0  0
  143.8889  132.8453  150.1511 C   0  0  0  0  0  0  0  0  0  0  0  0
  144.6336  131.7207  150.1959 N   0  0  0  0  0  0  0  0  0  0  0  0
  145.8832  131.8150  150.6968 C   0  0  0  0  0  0  0  0  0  0  0  0
  146.4395  133.0215  151.1667 C   0  0  0  0  0  0  0  0  0  0  0  0
  147.7022  133.0445  151.6585 F   0  0  0  0  0  0  0  0  0  0  0  0
  151.9430  139.6315  154.7773 H   0  0  0  0  0  0  0  0  0  0  0  0
  151.3484  138.2162  153.9134 H   0  0  0  0  0  0  0  0  0  0  0  0
  151.0932  138.3605  155.6523 H   0  0  0  0  0  0  0  0  0  0  0  0
  149.6143  140.3573  155.2605 H   0  0  0  0  0  0  0  0  0  0  0  0
  149.8659  140.2130  153.5373 H   0  0  0  0  0  0  0  0  0  0  0  0
  148.8294  137.8879  153.6376 H   0  0  0  0  0  0  0  0  0  0  0  0
  148.4577  138.1676  155.3256 H   0  0  0  0  0  0  0  0  0  0  0  0
  146.9021  139.9695  154.7943 H   0  0  0  0  0  0  0  0  0  0  0  0
  146.6039  140.8662  152.5016 H   0  0  0  0  0  0  0  0  0  0  0  0
  147.8851  139.7162  151.8587 H   0  0  0  0  0  0  0  0  0  0  0  0
  145.2401  138.9613  153.2854 H   0  0  0  0  0  0  0  0  0  0  0  0
  147.5330  137.2797  152.2608 H   0  0  0  0  0  0  0  0  0  0  0  0
  147.2649  135.4271  151.5244 H   0  0  0  0  0  0  0  0  0  0  0  0
  143.6815  134.9463  150.5309 H   0  0  0  0  0  0  0  0  0  0  0  0
  142.8918  132.7415  149.7494 H   0  0  0  0  0  0  0  0  0  0  0  0
  146.4574  130.9008  150.7251 H   0  0  0  0  0  0  0  0  0  0  0  0
  1  2  1  0  0  0  0
  1 18  1  0  0  0  0
  1 19  1  0  0  0  0
  1 20  1  0  0  0  0
  2  3  1  0  0  0  0
  2 21  1  0  0  0  0
  2 22  1  0  0  0  0
  3  4  1  0  0  0  0
  3 23  1  0  0  0  0
  3 24  1  0  0  0  0
  4  6  1  0  0  0  0
  4  5  1  0  0  0  0
  4 25  1  0  0  0  0
  5  6  1  0  0  0  0
  5 26  1  0  0  0  0
  5 27  1  0  0  0  0
  6  7  1  0  0  0  0
  6 28  1  0  0  0  0
  7  8  1  0  0  0  0
  7 29  1  0  0  0  0
  8  9  2  0  0  0  0
  8 10  1  0  0  0  0
 10 11  1  0  0  0  0
 10 30  1  0  0  0  0
 11 16  1  0  0  0  0
 11 12  2  0  0  0  0
 12 13  1  0  0  0  0
 12 31  1  0  0  0  0
 13 14  2  0  0  0  0
 13 32  1  0  0  0  0
 14 15  1  0  0  0  0
 15 16  2  0  0  0  0
 15 33  1  0  0  0  0
 16 17  1  0  0  0  0
M  END
> <s_m_source_file>
AV-unprocessed.smi

> <i_m_source_file_index>
3196

> <i_lp_mmshare_version>
43012

> <i_f3d_flags>
0

> <s_epik_input>
W0NIM11bQ0gyXVtDSDJdW0NAQEhdMVtDSDJdW0NASF0xW05IXUMoPU8pW05IXWMyW2NIXVtjSF1uW2NIXWMyRg==

> <s_epik_cmdline>
J2VwaWtfcHl0aG9uJywgJy1waCcsICc3LjAnLCAnLXRuJywgJzgnLCAnLW1hJywgJzIwMCcsICctbWV0YWxfYmluZGluZycsICctaW1hZScsICc8aW5maWxlLm1hZT4nLCAnLW9tYWUnLCAnPG91dGZpbGUubWFlPic=

> <r_epik_Ionization_Penalty>
0.00341997

> <r_epik_Ionization_Penalty_Charging>
0

> <r_epik_Ionization_Penalty_Neutral>
0.00341997

> <r_epik_State_Penalty>
0.00239198

> <r_epik_Charging_Adjusted_Penalty>
0.00239198

> <i_epik_Tot_Q>
0

> <i_epik_Tot_abs_Q>
0

> <r_epik_Metal_State_Penalty>
-0

> <b_epik_Metal_Only>
0

> <s_lp_Force_Field>
OPLS_2005

> <r_lp_Energy>
35.1311

> <b_lp_Chiralities_Consistent>
1

> <s_lp_Variant>
AV-unprocessed.smi:3196-2

> <Gold.Version>
5.8.1

> <Gold.Id.Protein>
6NUR|6NUR_protein|mol2

> <Gold.PLP.Fitness>
39.1689

> <Gold.PLP.PLP>
-28.8392

> <Gold.PLP.part.hbond>
-2.2399

> <Gold.PLP.part.metal>
0.0000

> <Gold.PLP.part.buried>
0.2610

> <Gold.PLP.part.nonpolar>
-27.1033

> <Gold.PLP.part.repulsive>
0.4297

> <Gold.PLP.ligand.clash>
0.0000

> <Gold.PLP.ligand.torsion>
0.7809

> <Gold.PLP.Chemscore.Hbond>
2.0000

> <Gold.PLP.Chemscore.CHOScore>
1.7787

> <Gold.PLP.Chemscore.Metal>
0.0000

> <Gold.Chemscore.Hbonds>
donor molecule, donor type, donor heavy atom, donor atom, acceptor molecule, acceptor atom, score
      L1  H     7    29       P1  7948  1.00
      L1  H    10    30       P1  7948  1.00
      L1  C    13    32       P1 10186  1.00
      L1  C    15    33       P1 10747  0.81

> <Gold.PLP.Chemscore.Internal.Correction>
0.5557

> <Gold.Rescore>
     Score         DG    S(hbond)    S(metal)    S(lipo)     H(rot)  DE(clash)    DE(int)     intcor
     15.94     -17.12       1.94        0.00      74.41       1.39       0.29       0.88       ----

> <Gold.Chemscore.Fitness>
15.9440

> <Gold.Chemscore.DG>
-17.1154

> <Gold.Chemscore.ZeroCoef>
-5.4800

> <Gold.Chemscore.Hbond>
1.9386

> <Gold.Chemscore.Metal>
0.0000

> <Gold.Chemscore.Lipo>
74.4133

> <Gold.Chemscore.Internal_Hbond>
0.0000

> <Gold.Chemscore.DEClash>
0.2885

> <Gold.Chemscore.DEInternal>
0.8829

> <Gold.Chemscore.Rot>
1.3852

> <Gold.Chemscore.Internal.Correction>
   9.000000E+99

> <Gold.Chemscore.Hbonds>
donor molecule, donor type, donor heavy atom, donor atom, acceptor molecule, acceptor atom, score
      L1  H     7    29       P1  7948  0.98
      L1  H    10    30       P1  7948  0.93

> <Gold.Chemscore.Hbond.Weighted>
-6.4751

> <Gold.Chemscore.Metal.Weighted>
-0.0000

> <Gold.Chemscore.Lipo.Weighted>
-8.7064

> <Gold.Chemscore.Internal_Hbond.Weighted>
0.0000

> <Gold.Chemscore.DEClash.Weighted>
0.2885

> <Gold.Chemscore.DEInternal.Weighted>
0.8829

> <Gold.Chemscore.Rot.Weighted>
3.5460

> <Gold.Chemscore.Internal.Correction.Weighted>
   9.000000E+99

> <Gold.Protein.RotatedTorsions>
[ 6907 6896 6895 6894 ] final -169.82 input  -60.11 | X-H torsion
[ 7974 7965 7964 7962 ] final  159.19 input  175.53 | X-H torsion
[ 8008 7997 7996 7995 ] final -152.19 input   59.86 | X-H torsion
[ 10167 10162 10161 10158 ] final  -65.10 input  -65.29 | X-H torsion
[ 10718 10713 10712 10709 ] final  162.36 input   66.30 | X-H torsion
[ 10763 10752 10751 10750 ] final  174.87 input  -60.55 | X-H torsion
[ 11005 11000 10999 10996 ] final  -77.04 input  -57.11 | X-H torsion

> <Gold.Protein.ActiveResidues>
 VAL166  LYS551  ARG553  GLY616  TRP617  ASP618  TYR619  PRO620  LYS621  CYS622 
 ASP623  PHE694  ASN695  SER759  ASP760  ASP761  ALA762  ILE779  LEU786  VAL792 
 PHE793  MET794  SER795  GLU796  ALA797  LYS798  CYS799  TRP800  GLU811  SER814 

> <Gold.Protein.RotatedAtoms>
  151.4978  133.3511  159.2863 H   0  0  0  0  0  0  0  0  0  0  0  0  # atno 6907 bound_to 6896
  150.8792  134.8182  159.7223 H   0  0  0  0  0  0  0  0  0  0  0  0  # atno 6908 bound_to 6896
  152.4751  134.4874  159.9736 H   0  0  0  0  0  0  0  0  0  0  0  0  # atno 6909 bound_to 6896
  144.7804  139.7583  143.6262 H   0  0  0  0  0  0  0  0  0  0  0  0  # atno 7974 bound_to 7965
  155.6512  140.0712  157.2586 H   0  0  0  0  0  0  0  0  0  0  0  0  # atno 8008 bound_to 7997
  154.4162  140.1733  156.1726 H   0  0  0  0  0  0  0  0  0  0  0  0  # atno 8009 bound_to 7997
  155.9775  140.3356  155.6636 H   0  0  0  0  0  0  0  0  0  0  0  0  # atno 8010 bound_to 7997
  140.5754  143.2321  151.6453 H   0  0  0  0  0  0  0  0  0  0  0  0  # atno 10167 bound_to 10162
  157.1236  131.0499  151.2403 H   0  0  0  0  0  0  0  0  0  0  0  0  # atno 10718 bound_to 10713
  154.4598  135.2767  155.1721 H   0  0  0  0  0  0  0  0  0  0  0  0  # atno 10763 bound_to 10752
  154.3513  135.6149  153.5648 H   0  0  0  0  0  0  0  0  0  0  0  0  # atno 10764 bound_to 10752
  152.9854  135.5812  154.4959 H   0  0  0  0  0  0  0  0  0  0  0  0  # atno 10765 bound_to 10752
  141.1658  133.7007  156.7761 H   0  0  0  0  0  0  0  0  0  0  0  0  # atno 11005 bound_to 11000
  146.2008  139.5302  142.9744 LP  0  0  0  0  0  0  0  0  0  0  0  0  # atno 17320 bound_to 7965
  145.6067  141.0346  143.1989 LP  0  0  0  0  0  0  0  0  0  0  0  0  # atno 17321 bound_to 7965
  139.5140  144.3426  152.0726 LP  0  0  0  0  0  0  0  0  0  0  0  0  # atno 17342 bound_to 10162
  140.2568  144.4110  150.6200 LP  0  0  0  0  0  0  0  0  0  0  0  0  # atno 17343 bound_to 10162
  157.4454  130.7568  149.7105 LP  0  0  0  0  0  0  0  0  0  0  0  0  # atno 17370 bound_to 10713
  155.9823  130.4011  150.3424 LP  0  0  0  0  0  0  0  0  0  0  0  0  # atno 17371 bound_to 10713
  140.2429  134.8600  157.3591 LP  0  0  0  0  0  0  0  0  0  0  0  0  # atno 17394 bound_to 11000
  140.1778  134.4527  155.7790 LP  0  0  0  0  0  0  0  0  0  0  0  0  # atno 17395 bound_to 11000

$$$$
