AV-unprocessed.smi:1005|AV-procd|sdf|4367|dock3
  -GOLD-   22720 2273D 1   1.00000     0.00000
 Structure written by MMmdl.
 57 59  0  0  0  0  0  0  0  0  3 V2000
  153.6611  142.3088  162.4278 C   0  0  0  0  0  0  0  0  0  0  0  0
  153.0747  142.1186  161.0400 C   0  0  0  0  0  0  0  0  0  0  0  0
  152.4081  143.2002  160.4214 C   0  0  0  0  0  0  0  0  0  0  0  0
  151.8501  143.0646  159.1314 C   0  0  0  0  0  0  0  0  0  0  0  0
  151.1680  143.9780  158.3460 N   0  0  0  0  0  0  0  0  0  0  0  0
  150.9097  143.2573  157.2589 C   0  0  0  0  0  0  0  0  0  0  0  0
  151.3484  141.9838  157.2441 N   0  0  0  0  0  0  0  0  0  0  0  0
  151.1885  141.0176  156.1713 C   0  0  0  0  0  0  0  0  0  0  0  0
  149.7446  140.9626  155.6349 C   0  0  1  0  0  0  0  0  0  0  0  0
  149.5177  142.0640  154.7759 O   0  0  0  0  0  0  0  0  0  0  0  0
  149.4771  139.6629  154.8489 C   0  0  0  0  0  0  0  0  0  0  0  0
  149.1451  138.5139  155.7306 N   0  3  1  0  0  0  0  0  0  0  0  0
  148.3035  138.9079  156.8849 C   0  0  0  0  0  0  0  0  0  0  0  0
  148.0525  137.6998  157.8017 C   0  0  0  0  0  0  0  0  0  0  0  0
  147.4566  136.6478  157.0520 O   0  0  0  0  0  0  0  0  0  0  0  0
  148.2951  136.1921  155.9951 C   0  0  1  0  0  0  0  0  0  0  0  0
  147.5914  135.0090  155.3031 C   0  0  0  0  0  0  0  0  0  0  0  0
  148.4073  134.4018  154.2197 N   0  3  0  0  0  0  0  0  0  0  0  0
  147.7369  133.2695  153.5388 C   0  0  0  0  0  0  0  0  0  0  0  0
  149.7594  134.0248  154.6884 C   0  0  0  0  0  0  0  0  0  0  0  0
  148.5364  137.3620  155.0196 C   0  0  0  0  0  0  0  0  0  0  0  0
  151.9775  141.8069  158.4723 C   0  0  0  0  0  0  0  0  0  0  0  0
  152.6364  140.7228  159.0785 C   0  0  0  0  0  0  0  0  0  0  0  0
  153.1899  140.8760  160.3667 C   0  0  0  0  0  0  0  0  0  0  0  0
  153.9018  139.7000  161.0113 C   0  0  0  0  0  0  0  0  0  0  0  0
  153.4607  143.3095  162.8117 H   0  0  0  0  0  0  0  0  0  0  0  0
  154.7420  142.1682  162.4077 H   0  0  0  0  0  0  0  0  0  0  0  0
  153.2307  141.5907  163.1260 H   0  0  0  0  0  0  0  0  0  0  0  0
  152.3201  144.1469  160.9342 H   0  0  0  0  0  0  0  0  0  0  0  0
  150.3719  143.6806  156.4232 H   0  0  0  0  0  0  0  0  0  0  0  0
  151.8886  141.2652  155.3721 H   0  0  0  0  0  0  0  0  0  0  0  0
  151.4842  140.0381  156.5495 H   0  0  0  0  0  0  0  0  0  0  0  0
  149.0621  141.0435  156.4804 H   0  0  0  0  0  0  0  0  0  0  0  0
  149.1732  142.7798  155.2896 H   0  0  0  0  0  0  0  0  0  0  0  0
  148.6466  139.8411  154.1634 H   0  0  0  0  0  0  0  0  0  0  0  0
  150.3360  139.4067  154.2267 H   0  0  0  0  0  0  0  0  0  0  0  0
  148.7953  139.6999  157.4512 H   0  0  0  0  0  0  0  0  0  0  0  0
  147.3542  139.3102  156.5268 H   0  0  0  0  0  0  0  0  0  0  0  0
  148.9818  137.3565  158.2589 H   0  0  0  0  0  0  0  0  0  0  0  0
  147.3818  137.9778  158.6150 H   0  0  0  0  0  0  0  0  0  0  0  0
  149.2556  135.8725  156.4004 H   0  0  0  0  0  0  0  0  0  0  0  0
  147.3729  134.2530  156.0592 H   0  0  0  0  0  0  0  0  0  0  0  0
  146.6290  135.3210  154.8948 H   0  0  0  0  0  0  0  0  0  0  0  0
  147.5319  132.4579  154.2382 H   0  0  0  0  0  0  0  0  0  0  0  0
  148.3676  132.8755  152.7411 H   0  0  0  0  0  0  0  0  0  0  0  0
  146.7961  133.5731  153.0817 H   0  0  0  0  0  0  0  0  0  0  0  0
  149.7052  133.2615  155.4656 H   0  0  0  0  0  0  0  0  0  0  0  0
  150.2847  134.8901  155.0938 H   0  0  0  0  0  0  0  0  0  0  0  0
  150.3595  133.6333  153.8660 H   0  0  0  0  0  0  0  0  0  0  0  0
  147.5964  137.6726  154.5600 H   0  0  0  0  0  0  0  0  0  0  0  0
  149.1891  137.0265  154.2147 H   0  0  0  0  0  0  0  0  0  0  0  0
  152.7176  139.7818  158.5549 H   0  0  0  0  0  0  0  0  0  0  0  0
  153.9293  138.8376  160.3447 H   0  0  0  0  0  0  0  0  0  0  0  0
  153.3903  139.4001  161.9261 H   0  0  0  0  0  0  0  0  0  0  0  0
  154.9304  139.9630  161.2594 H   0  0  0  0  0  0  0  0  0  0  0  0
  148.5474  135.1218  153.5250 H   0  0  0  0  0  0  0  0  0  0  0  0
  150.0238  138.1970  156.1164 H   0  0  0  0  0  0  0  0  0  0  0  0
  1  2  1  0  0  0  0
  1 26  1  0  0  0  0
  1 27  1  0  0  0  0
  1 28  1  0  0  0  0
  2 24  1  0  0  0  0
  2  3  2  0  0  0  0
  3  4  1  0  0  0  0
  3 29  1  0  0  0  0
  4 22  2  0  0  0  0
  4  5  1  0  0  0  0
  5  6  2  0  0  0  0
  6  7  1  0  0  0  0
  6 30  1  0  0  0  0
  7  8  1  0  0  0  0
  7 22  1  0  0  0  0
  8  9  1  0  0  0  0
  8 31  1  0  0  0  0
  8 32  1  0  0  0  0
  9 10  1  0  0  0  0
  9 11  1  0  0  0  0
  9 33  1  0  0  0  0
 10 34  1  0  0  0  0
 11 12  1  0  0  0  0
 11 35  1  0  0  0  0
 11 36  1  0  0  0  0
 12 21  1  0  0  0  0
 12 13  1  0  0  0  0
 12 57  1  0  0  0  0
 13 14  1  0  0  0  0
 13 37  1  0  0  0  0
 13 38  1  0  0  0  0
 14 15  1  0  0  0  0
 14 39  1  0  0  0  0
 14 40  1  0  0  0  0
 15 16  1  0  0  0  0
 16 17  1  0  0  0  0
 16 21  1  0  0  0  0
 16 41  1  0  0  0  0
 17 18  1  0  0  0  0
 17 42  1  0  0  0  0
 17 43  1  0  0  0  0
 18 19  1  0  0  0  0
 18 20  1  0  0  0  0
 18 56  1  0  0  0  0
 19 44  1  0  0  0  0
 19 45  1  0  0  0  0
 19 46  1  0  0  0  0
 20 47  1  0  0  0  0
 20 48  1  0  0  0  0
 20 49  1  0  0  0  0
 21 50  1  0  0  0  0
 21 51  1  0  0  0  0
 22 23  1  0  0  0  0
 23 24  2  0  0  0  0
 23 52  1  0  0  0  0
 24 25  1  0  0  0  0
 25 53  1  0  0  0  0
 25 54  1  0  0  0  0
 25 55  1  0  0  0  0
M  CHG  1  12   1
M  CHG  1  18   1
M  END
> <s_m_source_file>
AV-unprocessed.smi

> <i_m_source_file_index>
1005

> <i_lp_mmshare_version>
43012

> <i_f3d_flags>
0

> <s_epik_input>
W0NIM11jKFtjSF0xKWMoW0NIM10pW2NIXWMoYzEyKW4oW2NIXW4yKVtDSDJdW0NASF0oW09IXSlbQ0gyXU4zW0NIMl1bQ0gyXU9bQ0BIXShbQ0gyXTMpW0NIMl1OKFtDSDNdKVtDSDNd

> <s_epik_cmdline>
J2VwaWtfcHl0aG9uJywgJy1waCcsICc3LjAnLCAnLXRuJywgJzgnLCAnLW1hJywgJzIwMCcsICctbWV0YWxfYmluZGluZycsICctaW1hZScsICc8aW5maWxlLm1hZT4nLCAnLW9tYWUnLCAnPG91dGZpbGUubWFlPic=

> <r_epik_Ionization_Penalty>
1.0968

> <r_epik_Ionization_Penalty_Charging>
1.0096

> <r_epik_Ionization_Penalty_Neutral>
0.0871956

> <r_epik_State_Penalty>
1.31185

> <r_epik_Charging_Adjusted_Penalty>
2.32145

> <i_epik_Tot_Q>
2

> <i_epik_Tot_abs_Q>
2

> <r_epik_Metal_State_Penalty>
1.22442

> <b_epik_Metal_Only>
0

> <s_lp_Force_Field>
OPLS_2005

> <r_lp_Energy>
33.8035

> <b_lp_Chiralities_Consistent>
1

> <s_lp_Variant>
AV-unprocessed.smi:1005-6

> <Gold.Version>
5.8.1

> <Gold.Id.Protein>
6NUR|6NUR_protein|mol2

> <Gold.PLP.Fitness>
53.3989

> <Gold.PLP.PLP>
-42.7273

> <Gold.PLP.part.hbond>
-3.7376

> <Gold.PLP.part.metal>
0.0000

> <Gold.PLP.part.buried>
-2.2574

> <Gold.PLP.part.nonpolar>
-35.4659

> <Gold.PLP.part.repulsive>
0.1213

> <Gold.PLP.ligand.clash>
0.0000

> <Gold.PLP.ligand.torsion>
0.7237

> <Gold.PLP.Chemscore.Hbond>
3.0000

> <Gold.PLP.Chemscore.CHOScore>
1.0000

> <Gold.PLP.Chemscore.Metal>
0.0000

> <Gold.Chemscore.Hbonds>
donor molecule, donor type, donor heavy atom, donor atom, acceptor molecule, acceptor atom, score
      L1  H    10    34       P1  8028  1.00
      L1  H    18    56       P1  7948  2.00
      L1  C     6    30       P1  8028  0.81

> <Gold.PLP.Chemscore.Internal.Correction>
0.1189

> <Gold.Rescore>
     Score         DG    S(hbond)    S(metal)    S(lipo)     H(rot)  DE(clash)    DE(int)     intcor
     17.24     -18.83       1.96        0.00     112.45       2.48       0.70       0.90       ----

> <Gold.Chemscore.Fitness>
17.2368

> <Gold.Chemscore.DG>
-18.8347

> <Gold.Chemscore.ZeroCoef>
-5.4800

> <Gold.Chemscore.Hbond>
1.9612

> <Gold.Chemscore.Metal>
0.0000

> <Gold.Chemscore.Lipo>
112.4515

> <Gold.Chemscore.Internal_Hbond>
0.0000

> <Gold.Chemscore.DEClash>
0.6951

> <Gold.Chemscore.DEInternal>
0.9028

> <Gold.Chemscore.Rot>
2.4814

> <Gold.Chemscore.Internal.Correction>
   9.000000E+99

> <Gold.Chemscore.Hbonds>
donor molecule, donor type, donor heavy atom, donor atom, acceptor molecule, acceptor atom, score
      L1  H    10    34       P1  8028  0.93
      L1  H    18    56       P1  7948  0.83
      P1  H  8011  8017       L1    10  0.01

> <Gold.Chemscore.Hbond.Weighted>
-6.5503

> <Gold.Chemscore.Metal.Weighted>
-0.0000

> <Gold.Chemscore.Lipo.Weighted>
-13.1568

> <Gold.Chemscore.Internal_Hbond.Weighted>
0.0000

> <Gold.Chemscore.DEClash.Weighted>
0.6951

> <Gold.Chemscore.DEInternal.Weighted>
0.9028

> <Gold.Chemscore.Rot.Weighted>
6.3524

> <Gold.Chemscore.Internal.Correction.Weighted>
   9.000000E+99

> <Gold.Protein.RotatedTorsions>
[ 6907 6896 6895 6894 ] final  173.35 input  -60.11 | X-H torsion
[ 7974 7965 7964 7962 ] final -151.73 input  175.53 | X-H torsion
[ 8008 7997 7996 7995 ] final  -78.04 input   59.86 | X-H torsion
[ 10167 10162 10161 10158 ] final  102.53 input  -65.29 | X-H torsion
[ 10718 10713 10712 10709 ] final   47.20 input   66.30 | X-H torsion
[ 10763 10752 10751 10750 ] final  155.12 input  -60.55 | X-H torsion
[ 11005 11000 10999 10996 ] final -154.44 input  -57.11 | X-H torsion

> <Gold.Protein.ActiveResidues>
 VAL166  LYS551  ARG553  GLY616  TRP617  ASP618  TYR619  PRO620  LYS621  CYS622 
 ASP623  PHE694  ASN695  SER759  ASP760  ASP761  ALA762  ILE779  LEU786  VAL792 
 PHE793  MET794  SER795  GLU796  ALA797  LYS798  CYS799  TRP800  GLU811  SER814 

> <Gold.Protein.RotatedAtoms>
  151.7697  133.3340  159.3440 H   0  0  0  0  0  0  0  0  0  0  0  0  # atno 6907 bound_to 6896
  150.7466  134.6030  159.6056 H   0  0  0  0  0  0  0  0  0  0  0  0  # atno 6908 bound_to 6896
  152.3349  134.7212  160.0331 H   0  0  0  0  0  0  0  0  0  0  0  0  # atno 6909 bound_to 6896
  144.7833  140.4758  143.5824 H   0  0  0  0  0  0  0  0  0  0  0  0  # atno 7974 bound_to 7965
  154.5652  140.0700  156.8881 H   0  0  0  0  0  0  0  0  0  0  0  0  # atno 8008 bound_to 7997
  155.2736  140.3367  155.4245 H   0  0  0  0  0  0  0  0  0  0  0  0  # atno 8009 bound_to 7997
  156.2075  140.1746  156.7754 H   0  0  0  0  0  0  0  0  0  0  0  0  # atno 8010 bound_to 7997
  139.7342  144.7028  151.0675 H   0  0  0  0  0  0  0  0  0  0  0  0  # atno 10167 bound_to 10162
  157.4560  130.8167  149.7837 H   0  0  0  0  0  0  0  0  0  0  0  0  # atno 10718 bound_to 10713
  154.1633  135.2808  155.3102 H   0  0  0  0  0  0  0  0  0  0  0  0  # atno 10763 bound_to 10752
  154.6130  135.5492  153.7497 H   0  0  0  0  0  0  0  0  0  0  0  0  # atno 10764 bound_to 10752
  153.0186  135.6420  154.1775 H   0  0  0  0  0  0  0  0  0  0  0  0  # atno 10765 bound_to 10752
  140.6973  134.3976  157.5213 H   0  0  0  0  0  0  0  0  0  0  0  0  # atno 11005 bound_to 11000
  145.5989  139.1502  143.3140 LP  0  0  0  0  0  0  0  0  0  0  0  0  # atno 17320 bound_to 7965
  146.2053  140.6112  142.9084 LP  0  0  0  0  0  0  0  0  0  0  0  0  # atno 17321 bound_to 7965
  140.7776  143.5005  150.9778 LP  0  0  0  0  0  0  0  0  0  0  0  0  # atno 17342 bound_to 10162
  139.8693  143.7213  152.3167 LP  0  0  0  0  0  0  0  0  0  0  0  0  # atno 17343 bound_to 10162
  156.0008  130.3881  150.2615 LP  0  0  0  0  0  0  0  0  0  0  0  0  # atno 17370 bound_to 10713
  157.0790  131.0138  151.3163 LP  0  0  0  0  0  0  0  0  0  0  0  0  # atno 17371 bound_to 10713
  139.8906  134.8800  156.2359 LP  0  0  0  0  0  0  0  0  0  0  0  0  # atno 17394 bound_to 11000
  141.0192  133.7051  156.1240 LP  0  0  0  0  0  0  0  0  0  0  0  0  # atno 17395 bound_to 11000

$$$$
