#       Name:                AV-unprocessed.smi:1662
#       Creating user name   scv26
#       Creation time:       Fri Mar 27 07:36:44 2020


#       File generated by GOLD software.
#

@<TRIPOS>MOLECULE
AV-unprocessed.smi:1662
    53    54     1
SMALL
NO_CHARGES


@<TRIPOS>ATOM
      1 ****        -5.0514   0.1197   2.6628 C.3            1 S1                 0.0000
      2 ****        -3.7407  -0.6192   2.6954 C.2            1 S1                 0.0000
      3 ****        -2.6885   0.0491   2.3535 N.2            1 S1                 0.0000
      4 ****        -1.4362  -0.5345   2.3464 N.am           1 S1                 0.0000
      5 ****        -0.3576   0.3639   1.9078 C.3            1 S1                 0.0000
      6 ****         0.0641   0.1430   0.4475 C.2            1 S1                 0.0000
      7 ****        -0.6962  -0.4055  -0.3518 O.2            1 S1                 0.0000
      8 ****         1.2814   0.6012   0.1150 N.am           1 S1                 0.0000
      9 ****         1.9070   0.5005  -1.2033 C.3            1 S1                 0.0000
     10 ****         3.3023  -0.1314  -1.0366 C.3            1 S1                 0.0000
     11 ****         4.0595  -0.2091  -2.3695 C.3            1 S1                 0.0000
     12 ****         4.1534   1.1733  -3.0341 C.3            1 S1                 0.0000
     13 ****         2.7675   1.8198  -3.2336 C.3            1 S1                 0.0000
     14 ****         1.9802   1.1358  -4.3701 C.3            1 S1                 0.0000
     15 ****         2.0023   1.8919  -1.8846 C.3            1 S1                 0.0000
     16 ****         0.6383   2.5968  -2.0230 C.3            1 S1                 0.0000
     17 ****        -1.1800  -1.8273   2.6998 C.2            1 S1                 0.0000
     18 ****        -0.0441  -2.3042   2.6897 O.2            1 S1                 0.0000
     19 ****        -2.3769  -2.5788   3.0842 C.2            1 S1                 0.0000
     20 ****        -2.1539  -3.9392   3.4542 C.1            1 S1                 0.0000
     21 ****        -1.9916  -5.0429   3.7633 N.1            1 S1                 0.0000
     22 ****        -3.6127  -2.0192   3.0869 C.2            1 S1                 0.0000
     23 ****        -4.8868  -2.7560   3.4768 C.3            1 S1                 0.0000
     24 ****        -5.5197   0.1210   3.6472 H              1 S1                 0.0000
     25 ****        -5.7413  -0.3473   1.9597 H              1 S1                 0.0000
     26 ****        -4.9249   1.1600   2.3582 H              1 S1                 0.0000
     27 ****        -0.6664   1.4054   2.0150 H              1 S1                 0.0000
     28 ****         0.5103   0.2479   2.5598 H              1 S1                 0.0000
     29 ****         1.8271   1.0468   0.8384 H              1 S1                 0.0000
     30 ****         1.3177  -0.1604  -1.8406 H              1 S1                 0.0000
     31 ****         3.8891   0.4530  -0.3263 H              1 S1                 0.0000
     32 ****         3.2106  -1.1312  -0.6103 H              1 S1                 0.0000
     33 ****         5.0610  -0.6066  -2.2018 H              1 S1                 0.0000
     34 ****         3.5604  -0.9125  -3.0363 H              1 S1                 0.0000
     35 ****         4.7667   1.8251  -2.4105 H              1 S1                 0.0000
     36 ****         4.6750   1.0931  -3.9884 H              1 S1                 0.0000
     37 ****         2.9447   2.8448  -3.5622 H              1 S1                 0.0000
     38 ****         1.7016   0.1122  -4.1221 H              1 S1                 0.0000
     39 ****         2.5721   1.1006  -5.2850 H              1 S1                 0.0000
     40 ****         1.0657   1.6790  -4.6067 H              1 S1                 0.0000
     41 ****         2.6017   2.5253  -1.2281 H              1 S1                 0.0000
     42 ****        -0.0830   1.9754  -2.5540 H              1 S1                 0.0000
     43 ****         0.7353   3.5372  -2.5656 H              1 S1                 0.0000
     44 ****         0.2105   2.8329  -1.0486 H              1 S1                 0.0000
     45 ****        -4.6978  -3.7948   3.7453 H              1 S1                 0.0000
     46 ****        -5.5970  -2.7569   2.6493 H              1 S1                 0.0000
     47 ****        -5.3585  -2.2765   4.3351 H              1 S1                 0.0000
     48 ****        -2.7828   1.0087   2.0886 LP             1 S1                 0.0000
     49 ****        -1.5996  -0.7127  -0.0524 LP             1 S1                 0.0000
     50 ****        -0.4100  -0.5436  -1.2999 LP             1 S1                 0.0000
     51 ****         0.7333  -1.7384   2.4151 LP             1 S1                 0.0000
     52 ****         0.1005  -3.2572   2.9562 LP             1 S1                 0.0000
     53 ****        -1.8514  -5.9964   4.0304 LP             1 S1                 0.0000
@<TRIPOS>BOND
    1    1    2 1     
    2    1   24 1     
    3    1   25 1     
    4    1   26 1     
    5    2   22 1     
    6    2    3 2     
    7    3    4 1     
    8    4    5 1     
    9    4   17 am    
   10    5    6 1     
   11    5   27 1     
   12    5   28 1     
   13    6    7 2     
   14    6    8 am    
   15    8    9 1     
   16    8   29 1     
   17    9   15 1     
   18    9   10 1     
   19    9   30 1     
   20   10   11 1     
   21   10   31 1     
   22   10   32 1     
   23   11   12 1     
   24   11   33 1     
   25   11   34 1     
   26   12   13 1     
   27   12   35 1     
   28   12   36 1     
   29   13   14 1     
   30   13   15 1     
   31   13   37 1     
   32   14   38 1     
   33   14   39 1     
   34   14   40 1     
   35   15   16 1     
   36   15   41 1     
   37   16   42 1     
   38   16   43 1     
   39   16   44 1     
   40   17   18 2     
   41   17   19 1     
   42   19   20 1     
   43   19   22 2     
   44   20   21 3     
   45   22   23 1     
   46   23   45 1     
   47   23   46 1     
   48   23   47 1     
   49    3   48 1     
   50    7   49 1     
   51    7   50 1     
   52   18   51 1     
   53   18   52 1     
   54   21   53 1     
@<TRIPOS>SUBSTRUCTURE
      1 S1             1
@<TRIPOS>SET
LONE_PAIRS      STATIC     ATOMS    <user>   **** ""
6 48 49 50 51 52 53
DONOR_HYDROGENS      STATIC     ATOMS    <user>   **** ""
1 29
ATOM$BLUE        STATIC     ATOMS    COLORGROUP SYSTEM
6 48 49 50 51 52 53
ATOM$RED        STATIC     ATOMS    COLORGROUP SYSTEM
1 29
