#       Name:                AV-unprocessed.smi:3214
#       Creating user name   scv26
#       Creation time:       Fri Mar 27 18:12:09 2020


#       File generated by GOLD software.
#

@<TRIPOS>MOLECULE
AV-unprocessed.smi:3214
    40    40     1
SMALL
NO_CHARGES


@<TRIPOS>ATOM
      1 ****        -5.2053   3.6953  -0.1778 C.3            1 S1                 0.0000
      2 ****        -4.2570   3.2691  -1.3061 C.3            1 S1                 0.0000
      3 ****        -2.9142   3.0020  -0.8033 N.am           1 S1                 0.0000
      4 ****        -2.5119   1.8466  -0.2517 C.2            1 S1                 0.0000
      5 ****        -3.2501   0.8710  -0.1137 O.2            1 S1                 0.0000
      6 ****        -1.0546   1.7946   0.2189 C.3            1 S1                 0.0000
      7 ****        -0.4821   0.3669   0.2611 C.3            1 S1                 0.0000
      8 ****         0.9389   0.3830   0.6683 N.4            1 S1                 1.0000
      9 ****         1.5718  -0.9459   0.8270 C.3            1 S1                 0.0000
     10 ****         2.8480  -0.7996   1.6732 C.3            1 S1                 0.0000
     11 ****         1.8446  -1.6030  -0.5470 C.3            1 S1                 0.0000
     12 ****         2.5250  -2.8817  -0.4435 N.pl3          1 S1                 0.0000
     13 ****         3.7828  -3.2246  -0.8939 C.2            1 S1                 0.0000
     14 ****         3.9819  -4.5385  -0.5803 C.2            1 S1                 0.0000
     15 ****         2.7708  -4.9205   0.0617 C.2            1 S1                 0.0000
     16 ****         1.8993  -3.9275   0.1382 N.2            1 S1                 0.0000
     17 ****        -6.1975   3.9180  -0.5705 H              1 S1                 0.0000
     18 ****        -4.8404   4.5905   0.3270 H              1 S1                 0.0000
     19 ****        -5.3142   2.9086   0.5698 H              1 S1                 0.0000
     20 ****        -4.6520   2.3932  -1.8235 H              1 S1                 0.0000
     21 ****        -4.1904   4.0637  -2.0497 H              1 S1                 0.0000
     22 ****        -2.2447   3.7546  -0.8752 H              1 S1                 0.0000
     23 ****        -0.4474   2.4115  -0.4454 H              1 S1                 0.0000
     24 ****        -0.9983   2.2489   1.2088 H              1 S1                 0.0000
     25 ****        -1.0462  -0.2439   0.9678 H              1 S1                 0.0000
     26 ****        -0.5791  -0.0987  -0.7199 H              1 S1                 0.0000
     27 ****         1.4717   0.9216   0.0004 H              1 S1                 0.0000
     28 ****         0.8823  -1.5768   1.3901 H              1 S1                 0.0000
     29 ****         3.2944  -1.7681   1.9005 H              1 S1                 0.0000
     30 ****         2.6328  -0.3158   2.6265 H              1 S1                 0.0000
     31 ****         3.5991  -0.2001   1.1579 H              1 S1                 0.0000
     32 ****         0.9156  -1.7679  -1.0929 H              1 S1                 0.0000
     33 ****         2.4546  -0.9412  -1.1637 H              1 S1                 0.0000
     34 ****         4.4254  -2.5142  -1.3929 H              1 S1                 0.0000
     35 ****         4.8583  -5.1368  -0.7812 H              1 S1                 0.0000
     36 ****         2.5007  -5.8831   0.4701 H              1 S1                 0.0000
     37 ****         0.9858   0.8484   1.5635 H              1 S1                 0.0000
     38 ****        -4.2010   0.9163  -0.4197 LP             1 S1                 0.0000
     39 ****        -2.8987   0.0333   0.3044 LP             1 S1                 0.0000
     40 ****         0.9827  -3.9472   0.5374 LP             1 S1                 0.0000
@<TRIPOS>BOND
    1    1    2 1     
    2    1   17 1     
    3    1   18 1     
    4    1   19 1     
    5    2    3 1     
    6    2   20 1     
    7    2   21 1     
    8    3    4 am    
    9    3   22 1     
   10    4    5 2     
   11    4    6 1     
   12    6    7 1     
   13    6   23 1     
   14    6   24 1     
   15    7    8 1     
   16    7   25 1     
   17    7   26 1     
   18    8    9 1     
   19    8   27 1     
   20    8   37 1     
   21    9   10 1     
   22    9   11 1     
   23    9   28 1     
   24   10   29 1     
   25   10   30 1     
   26   10   31 1     
   27   11   12 1     
   28   11   32 1     
   29   11   33 1     
   30   12   16 1     
   31   12   13 1     
   32   13   14 2     
   33   13   34 1     
   34   14   15 1     
   35   14   35 1     
   36   15   16 2     
   37   15   36 1     
   38    5   38 1     
   39    5   39 1     
   40   16   40 1     
@<TRIPOS>SUBSTRUCTURE
      1 S1             1
@<TRIPOS>SET
LONE_PAIRS      STATIC     ATOMS    <user>   **** ""
3 38 39 40
DONOR_HYDROGENS      STATIC     ATOMS    <user>   **** ""
3 22 27 37
ATOM$BLUE        STATIC     ATOMS    COLORGROUP SYSTEM
3 38 39 40
ATOM$RED        STATIC     ATOMS    COLORGROUP SYSTEM
3 22 27 37
