AV-unprocessed.smi:1552|AV-procd|sdf|6235|dock4
  -GOLD-   22720 6413D 1   1.00000     0.00000
 Structure written by MMmdl.
 50 51  0  0  0  0  0  0  0  0  2 V2000
  147.9024  134.8023  154.7789 C   0  0  0  0  0  0  0  0  0  0  0  0
  147.5392  134.4037  153.3960 N   0  3  0  0  0  0  0  0  0  0  0  0
  148.1645  133.1127  153.0271 C   0  0  0  0  0  0  0  0  0  0  0  0
  146.0836  134.4638  153.0488 C   0  0  1  0  0  0  0  0  0  0  0  0
  145.4390  135.8489  153.3151 C   0  0  0  0  0  0  0  0  0  0  0  0
  144.0872  135.7189  153.8468 N   0  0  0  0  0  0  0  0  0  0  0  0
  142.9932  136.4142  153.4934 C   0  0  0  0  0  0  0  0  0  0  0  0
  143.0584  137.2618  152.6058 O   0  0  0  0  0  0  0  0  0  0  0  0
  141.6373  136.1365  154.1707 C   0  0  0  0  0  0  0  0  0  0  0  0
  140.6757  137.2153  153.9069 N   0  0  0  0  0  0  0  0  0  0  0  0
  139.4820  136.9268  153.2605 C   0  0  0  0  0  0  0  0  0  0  0  0
  138.5348  137.8558  152.9903 C   0  0  0  0  0  0  0  0  0  0  0  0
  138.7336  139.2473  153.3802 C   0  0  0  0  0  0  0  0  0  0  0  0
  137.9368  140.1609  153.1784 O   0  0  0  0  0  0  0  0  0  0  0  0
  139.9444  139.4981  154.0310 N   0  0  0  0  0  0  0  0  0  0  0  0
  140.9240  138.5450  154.3144 C   0  0  0  0  0  0  0  0  0  0  0  0
  141.9543  138.8759  154.8996 O   0  0  0  0  0  0  0  0  0  0  0  0
  145.8054  133.8897  151.6284 C   0  0  0  0  0  0  0  0  0  0  0  0
  144.6063  134.5786  150.9392 C   0  0  0  0  0  0  0  0  0  0  0  0
  144.4323  134.0916  149.4908 C   0  0  0  0  0  0  0  0  0  0  0  0
  144.2973  132.5623  149.4254 C   0  0  0  0  0  0  0  0  0  0  0  0
  145.4848  131.8704  150.1122 C   0  0  0  0  0  0  0  0  0  0  0  0
  145.6465  132.3537  151.5622 C   0  0  0  0  0  0  0  0  0  0  0  0
  140.1255  140.4474  154.3232 H   0  0  0  0  0  0  0  0  0  0  0  0
  147.5866  134.0531  155.5058 H   0  0  0  0  0  0  0  0  0  0  0  0
  147.4603  135.7560  155.0612 H   0  0  0  0  0  0  0  0  0  0  0  0
  148.9842  134.9094  154.8653 H   0  0  0  0  0  0  0  0  0  0  0  0
  147.7293  132.2905  153.5966 H   0  0  0  0  0  0  0  0  0  0  0  0
  149.2374  133.1328  153.2215 H   0  0  0  0  0  0  0  0  0  0  0  0
  148.0301  132.9052  151.9648 H   0  0  0  0  0  0  0  0  0  0  0  0
  145.5713  133.7758  153.7241 H   0  0  0  0  0  0  0  0  0  0  0  0
  146.0394  136.4130  154.0302 H   0  0  0  0  0  0  0  0  0  0  0  0
  145.3997  136.4282  152.3930 H   0  0  0  0  0  0  0  0  0  0  0  0
  143.9526  134.9940  154.5372 H   0  0  0  0  0  0  0  0  0  0  0  0
  141.2676  135.1804  153.7968 H   0  0  0  0  0  0  0  0  0  0  0  0
  141.7159  135.9833  155.2459 H   0  0  0  0  0  0  0  0  0  0  0  0
  139.2918  135.9070  152.9571 H   0  0  0  0  0  0  0  0  0  0  0  0
  137.6249  137.5678  152.4839 H   0  0  0  0  0  0  0  0  0  0  0  0
  146.6741  134.1350  151.0161 H   0  0  0  0  0  0  0  0  0  0  0  0
  143.6884  134.3824  151.4945 H   0  0  0  0  0  0  0  0  0  0  0  0
  144.7427  135.6605  150.9412 H   0  0  0  0  0  0  0  0  0  0  0  0
  143.5558  134.5609  149.0434 H   0  0  0  0  0  0  0  0  0  0  0  0
  145.2890  134.4075  148.8939 H   0  0  0  0  0  0  0  0  0  0  0  0
  143.3674  132.2556  149.9060 H   0  0  0  0  0  0  0  0  0  0  0  0
  144.2289  132.2390  148.3861 H   0  0  0  0  0  0  0  0  0  0  0  0
  145.3449  130.7890  150.0944 H   0  0  0  0  0  0  0  0  0  0  0  0
  146.4000  132.0720  149.5540 H   0  0  0  0  0  0  0  0  0  0  0  0
  146.5080  131.8568  152.0078 H   0  0  0  0  0  0  0  0  0  0  0  0
  144.7708  132.0410  152.1302 H   0  0  0  0  0  0  0  0  0  0  0  0
  147.9775  135.0846  152.7919 H   0  0  0  0  0  0  0  0  0  0  0  0
  1  2  1  0  0  0  0
  1 25  1  0  0  0  0
  1 26  1  0  0  0  0
  1 27  1  0  0  0  0
  2  3  1  0  0  0  0
  2  4  1  0  0  0  0
  2 50  1  0  0  0  0
  3 28  1  0  0  0  0
  3 29  1  0  0  0  0
  3 30  1  0  0  0  0
  4  5  1  0  0  0  0
  4 18  1  0  0  0  0
  4 31  1  0  0  0  0
  5  6  1  0  0  0  0
  5 32  1  0  0  0  0
  5 33  1  0  0  0  0
  6  7  1  0  0  0  0
  6 34  1  0  0  0  0
  7  8  2  0  0  0  0
  7  9  1  0  0  0  0
  9 10  1  0  0  0  0
  9 35  1  0  0  0  0
  9 36  1  0  0  0  0
 10 16  1  0  0  0  0
 10 11  1  0  0  0  0
 11 12  2  0  0  0  0
 11 37  1  0  0  0  0
 12 13  1  0  0  0  0
 12 38  1  0  0  0  0
 13 14  2  0  0  0  0
 13 15  1  0  0  0  0
 15 24  1  0  0  0  0
 15 16  1  0  0  0  0
 16 17  2  0  0  0  0
 18 23  1  0  0  0  0
 18 19  1  0  0  0  0
 18 39  1  0  0  0  0
 19 20  1  0  0  0  0
 19 40  1  0  0  0  0
 19 41  1  0  0  0  0
 20 21  1  0  0  0  0
 20 42  1  0  0  0  0
 20 43  1  0  0  0  0
 21 22  1  0  0  0  0
 21 44  1  0  0  0  0
 21 45  1  0  0  0  0
 22 23  1  0  0  0  0
 22 46  1  0  0  0  0
 22 47  1  0  0  0  0
 23 48  1  0  0  0  0
 23 49  1  0  0  0  0
M  CHG  1   2   1
M  END
> <s_m_source_file>
AV-unprocessed.smi

> <i_m_source_file_index>
1552

> <i_lp_mmshare_version>
43012

> <i_f3d_flags>
0

> <s_epik_input>
W0NIMl0xW0NIMl1bQ0gyXVtDSDJdW0NIMl1bQ0hdMVtDQEhdKE4oW0NIM10pW0NIM10pW0NIMl1bTkhdQyg9TylbQ0gyXW4yW2NIXVtjSF1jKD1PKVtuSF1jMj1P

> <s_epik_cmdline>
J2VwaWtfcHl0aG9uJywgJy1waCcsICc3LjAnLCAnLXRuJywgJzgnLCAnLW1hJywgJzIwMCcsICctbWV0YWxfYmluZGluZycsICctaW1hZScsICc8aW5maWxlLm1hZT4nLCAnLW9tYWUnLCAnPG91dGZpbGUubWFlPic=

> <r_lp_tautomer_probability>
1

> <r_epik_Ionization_Penalty>
0.00705217

> <r_epik_Ionization_Penalty_Charging>
0.00705209

> <r_epik_Ionization_Penalty_Neutral>
7.66101e-08

> <r_epik_State_Penalty>
-0

> <r_epik_Charging_Adjusted_Penalty>
0.00705209

> <i_epik_Tot_Q>
1

> <i_epik_Tot_abs_Q>
1

> <r_epik_Metal_State_Penalty>
0.375122

> <b_epik_Metal_Only>
0

> <s_lp_Force_Field>
OPLS_2005

> <r_lp_Energy>
31.5593

> <b_lp_Chiralities_Consistent>
1

> <s_lp_Variant>
AV-unprocessed.smi:1552-2

> <Gold.Version>
5.8.1

> <Gold.Id.Protein>
6NUR|6NUR_protein|mol2

> <Gold.PLP.Fitness>
40.5834

> <Gold.PLP.PLP>
-34.8482

> <Gold.PLP.part.hbond>
-1.0000

> <Gold.PLP.part.metal>
0.0000

> <Gold.PLP.part.buried>
-3.0796

> <Gold.PLP.part.nonpolar>
-31.5319

> <Gold.PLP.part.repulsive>
0.4969

> <Gold.PLP.ligand.clash>
0.0000

> <Gold.PLP.ligand.torsion>
1.6961

> <Gold.PLP.Chemscore.Hbond>
2.0000

> <Gold.PLP.Chemscore.CHOScore>
0.9004

> <Gold.PLP.Chemscore.Metal>
0.0000

> <Gold.Chemscore.Hbonds>
donor molecule, donor type, donor heavy atom, donor atom, acceptor molecule, acceptor atom, score
      L1  H     2    50       P1  7948  2.00
      L1  C    11    37       P1 10187  0.87

> <Gold.PLP.Chemscore.Internal.Correction>
0.4262

> <Gold.Rescore>
     Score         DG    S(hbond)    S(metal)    S(lipo)     H(rot)  DE(clash)    DE(int)     intcor
      8.92     -12.57       0.93        0.00      88.73       2.50       1.46       2.19       ----

> <Gold.Chemscore.Fitness>
8.9182

> <Gold.Chemscore.DG>
-12.5655

> <Gold.Chemscore.ZeroCoef>
-5.4800

> <Gold.Chemscore.Hbond>
0.9267

> <Gold.Chemscore.Metal>
0.0000

> <Gold.Chemscore.Lipo>
88.7342

> <Gold.Chemscore.Internal_Hbond>
0.0000

> <Gold.Chemscore.DEClash>
1.4586

> <Gold.Chemscore.DEInternal>
2.1887

> <Gold.Chemscore.Rot>
2.4968

> <Gold.Chemscore.Internal.Correction>
   9.000000E+99

> <Gold.Chemscore.Hbonds>
donor molecule, donor type, donor heavy atom, donor atom, acceptor molecule, acceptor atom, score
      L1  H     2    50       P1  7948  0.97

> <Gold.Chemscore.Hbond.Weighted>
-3.0953

> <Gold.Chemscore.Metal.Weighted>
-0.0000

> <Gold.Chemscore.Lipo.Weighted>
-10.3819

> <Gold.Chemscore.Internal_Hbond.Weighted>
0.0000

> <Gold.Chemscore.DEClash.Weighted>
1.4586

> <Gold.Chemscore.DEInternal.Weighted>
2.1887

> <Gold.Chemscore.Rot.Weighted>
6.3917

> <Gold.Chemscore.Internal.Correction.Weighted>
   9.000000E+99

> <Gold.Protein.RotatedTorsions>
[ 6907 6896 6895 6894 ] final -159.65 input  -60.11 | X-H torsion
[ 7974 7965 7964 7962 ] final  -35.22 input  175.53 | X-H torsion
[ 8008 7997 7996 7995 ] final   65.64 input   59.86 | X-H torsion
[ 10167 10162 10161 10158 ] final  172.30 input  -65.29 | X-H torsion
[ 10718 10713 10712 10709 ] final   62.63 input   66.30 | X-H torsion
[ 10763 10752 10751 10750 ] final  127.00 input  -60.55 | X-H torsion
[ 11005 11000 10999 10996 ] final  165.05 input  -57.11 | X-H torsion

> <Gold.Protein.ActiveResidues>
 VAL166  LYS551  ARG553  GLY616  TRP617  ASP618  TYR619  PRO620  LYS621  CYS622 
 ASP623  PHE694  ASN695  SER759  ASP760  ASP761  ALA762  ILE779  LEU786  VAL792 
 PHE793  MET794  SER795  GLU796  ALA797  LYS798  CYS799  TRP800  GLU811  SER814 

> <Gold.Protein.RotatedAtoms>
  151.3368  133.3978  159.2667 H   0  0  0  0  0  0  0  0  0  0  0  0  # atno 6907 bound_to 6896
  150.9910  134.9245  159.7910 H   0  0  0  0  0  0  0  0  0  0  0  0  # atno 6908 bound_to 6896
  152.5247  134.3333  159.9243 H   0  0  0  0  0  0  0  0  0  0  0  0  # atno 6909 bound_to 6896
  146.0764  140.6133  142.8928 H   0  0  0  0  0  0  0  0  0  0  0  0  # atno 7974 bound_to 7965
  155.6649  140.3497  155.4796 H   0  0  0  0  0  0  0  0  0  0  0  0  # atno 8008 bound_to 7997
  155.9737  140.1161  157.0812 H   0  0  0  0  0  0  0  0  0  0  0  0  # atno 8009 bound_to 7997
  154.4173  140.1152  156.5327 H   0  0  0  0  0  0  0  0  0  0  0  0  # atno 8010 bound_to 7997
  139.5072  144.3390  152.0037 H   0  0  0  0  0  0  0  0  0  0  0  0  # atno 10167 bound_to 10162
  157.5915  130.9061  149.9613 H   0  0  0  0  0  0  0  0  0  0  0  0  # atno 10718 bound_to 10713
  153.7023  135.3281  155.3227 H   0  0  0  0  0  0  0  0  0  0  0  0  # atno 10763 bound_to 10752
  154.8409  135.4457  154.1398 H   0  0  0  0  0  0  0  0  0  0  0  0  # atno 10764 bound_to 10752
  153.2469  135.6977  153.7800 H   0  0  0  0  0  0  0  0  0  0  0  0  # atno 10765 bound_to 10752
  140.2522  134.7968  157.3512 H   0  0  0  0  0  0  0  0  0  0  0  0  # atno 11005 bound_to 11000
  144.7264  140.4539  143.6970 LP  0  0  0  0  0  0  0  0  0  0  0  0  # atno 17320 bound_to 7965
  145.6298  139.1535  143.2975 LP  0  0  0  0  0  0  0  0  0  0  0  0  # atno 17321 bound_to 7965
  140.2828  144.3841  150.6113 LP  0  0  0  0  0  0  0  0  0  0  0  0  # atno 17342 bound_to 10162
  140.6005  143.2167  151.7081 LP  0  0  0  0  0  0  0  0  0  0  0  0  # atno 17343 bound_to 10162
  156.0970  130.3658  150.0288 LP  0  0  0  0  0  0  0  0  0  0  0  0  # atno 17370 bound_to 10713
  156.8410  130.9425  151.3632 LP  0  0  0  0  0  0  0  0  0  0  0  0  # atno 17371 bound_to 10713
  140.1547  134.4805  155.7936 LP  0  0  0  0  0  0  0  0  0  0  0  0  # atno 17394 bound_to 11000
  141.2200  133.6876  156.7440 LP  0  0  0  0  0  0  0  0  0  0  0  0  # atno 17395 bound_to 11000

$$$$
