AV-unprocessed.smi:328|AV-procd|sdf|2347|dock7
  -GOLD-   2262022263D 1   1.00000     0.00000
 Structure written by MMmdl.
 23 24  0  0  0  0  0  0  0  0  2 V2000
  152.9994  139.1948  155.0070 O   0  0  0  0  0  0  0  0  0  0  0  0
  151.8710  138.6553  154.9988 C   0  0  0  0  0  0  0  0  0  0  0  0
  151.6534  137.4242  155.0474 O   0  5  0  0  0  0  0  0  0  0  0  0
  150.6514  139.5775  154.9293 C   0  0  0  0  0  0  0  0  0  0  0  0
  150.6720  140.4808  156.1302 C   0  0  0  0  0  0  0  0  0  0  0  0
  149.7380  141.4320  156.4651 C   0  0  0  0  0  0  0  0  0  0  0  0
  150.1438  142.2571  157.9444 S   0  0  0  0  0  0  0  0  0  0  0  0
  151.5856  141.2516  158.0698 C   0  0  0  0  0  0  0  0  0  0  0  0
  152.5214  141.3559  159.1419 N   0  0  0  0  0  0  0  0  0  0  0  0
  152.4060  142.4088  160.1435 C   0  0  0  0  0  0  0  0  0  0  0  0
  153.5908  142.1629  161.0727 C   0  0  0  0  0  0  0  0  0  0  0  0
  154.2084  141.0017  160.4768 N   0  0  0  0  0  0  0  0  0  0  0  0
  153.5839  140.5594  159.3829 C   0  0  0  0  0  0  0  0  0  0  0  0
  153.9469  139.5806  158.7325 O   0  0  0  0  0  0  0  0  0  0  0  0
  151.7137  140.3832  157.0597 N   0  0  0  0  0  0  0  0  0  0  0  0
  150.6778  140.1585  154.0067 H   0  0  0  0  0  0  0  0  0  0  0  0
  149.7423  138.9751  154.8984 H   0  0  0  0  0  0  0  0  0  0  0  0
  148.8434  141.7001  155.9230 H   0  0  0  0  0  0  0  0  0  0  0  0
  152.4629  143.3933  159.6769 H   0  0  0  0  0  0  0  0  0  0  0  0
  151.4583  142.3295  160.6781 H   0  0  0  0  0  0  0  0  0  0  0  0
  154.2854  143.0035  161.0836 H   0  0  0  0  0  0  0  0  0  0  0  0
  153.2743  141.9486  162.0941 H   0  0  0  0  0  0  0  0  0  0  0  0
  155.0358  140.5705  160.8628 H   0  0  0  0  0  0  0  0  0  0  0  0
  1  2  2  0  0  0  0
  2  3  1  0  0  0  0
  2  4  1  0  0  0  0
  4  5  1  0  0  0  0
  4 16  1  0  0  0  0
  4 17  1  0  0  0  0
  5 15  1  0  0  0  0
  5  6  2  0  0  0  0
  6  7  1  0  0  0  0
  6 18  1  0  0  0  0
  7  8  1  0  0  0  0
  8  9  1  0  0  0  0
  8 15  2  0  0  0  0
  9 13  1  0  0  0  0
  9 10  1  0  0  0  0
 10 11  1  0  0  0  0
 10 19  1  0  0  0  0
 10 20  1  0  0  0  0
 11 12  1  0  0  0  0
 11 21  1  0  0  0  0
 11 22  1  0  0  0  0
 12 13  1  0  0  0  0
 12 23  1  0  0  0  0
 13 14  2  0  0  0  0
M  CHG  1   3  -1
M  END
> <s_m_source_file>
AV-unprocessed.smi

> <i_m_source_file_index>
328

> <i_lp_mmshare_version>
43012

> <i_f3d_flags>
0

> <s_epik_input>
Tz1DKFtPSF0pW0NIMl1jMVtjSF1zYyhuMSlOMltDSDJdW0NIMl1bTkhdQzI9Tw==

> <s_epik_cmdline>
J2VwaWtfcHl0aG9uJywgJy1waCcsICc3LjAnLCAnLXRuJywgJzgnLCAnLW1hJywgJzIwMCcsICctbWV0YWxfYmluZGluZycsICctaW1hZScsICc8aW5maWxlLm1hZT4nLCAnLW9tYWUnLCAnPG91dGZpbGUubWFlPic=

> <r_lp_tautomer_probability>
1

> <r_epik_Ionization_Penalty>
0.000968476

> <r_epik_Ionization_Penalty_Charging>
0.000722293

> <r_epik_Ionization_Penalty_Neutral>
0.000246183

> <r_epik_State_Penalty>
0.000460635

> <r_epik_Charging_Adjusted_Penalty>
0.00118293

> <i_epik_Tot_Q>
-1

> <i_epik_Tot_abs_Q>
1

> <r_epik_Metal_State_Penalty>
-0

> <b_epik_Metal_Only>
0

> <s_lp_Force_Field>
OPLS_2005

> <r_lp_Energy>
33.9917

> <b_lp_Chiralities_Consistent>
1

> <s_lp_Variant>
AV-unprocessed.smi:328-1

> <Gold.Version>
5.8.1

> <Gold.Id.Protein>
6NUR|6NUR_protein|mol2

> <Gold.PLP.Fitness>
45.5961

> <Gold.PLP.PLP>
-31.5704

> <Gold.PLP.part.hbond>
-3.0988

> <Gold.PLP.part.metal>
0.0000

> <Gold.PLP.part.buried>
-3.4205

> <Gold.PLP.part.nonpolar>
-25.0675

> <Gold.PLP.part.repulsive>
0.1488

> <Gold.PLP.ligand.clash>
0.0000

> <Gold.PLP.ligand.torsion>
0.0201

> <Gold.PLP.Chemscore.Hbond>
4.6880

> <Gold.PLP.Chemscore.CHOScore>
0.0000

> <Gold.PLP.Chemscore.Metal>
0.0000

> <Gold.Chemscore.Hbonds>
donor molecule, donor type, donor heavy atom, donor atom, acceptor molecule, acceptor atom, score
      P1  H  7997  8009       L1    14  0.70
      P1  H  7997  8010       L1     1  2.00
      P1  H 10752 10764       L1     3  0.73

> <Gold.PLP.Chemscore.Internal.Correction>
0.0018

> <Gold.Rescore>
     Score         DG    S(hbond)    S(metal)    S(lipo)     H(rot)  DE(clash)    DE(int)     intcor
     12.05     -14.99       2.35        0.00      48.36       1.57       0.10       2.84       ----

> <Gold.Chemscore.Fitness>
12.0451

> <Gold.Chemscore.DG>
-14.9860

> <Gold.Chemscore.ZeroCoef>
-5.4800

> <Gold.Chemscore.Hbond>
2.3519

> <Gold.Chemscore.Metal>
0.0000

> <Gold.Chemscore.Lipo>
48.3591

> <Gold.Chemscore.Internal_Hbond>
0.0000

> <Gold.Chemscore.DEClash>
0.0998

> <Gold.Chemscore.DEInternal>
2.8411

> <Gold.Chemscore.Rot>
1.5654

> <Gold.Chemscore.Internal.Correction>
   9.000000E+99

> <Gold.Chemscore.Hbonds>
donor molecule, donor type, donor heavy atom, donor atom, acceptor molecule, acceptor atom, score
      P1  H  7997  8009       L1    14  0.58
      P1  H  7997  8010       L1     1  0.98
      P1  H 10752 10764       L1     3  0.35

> <Gold.Chemscore.Hbond.Weighted>
-7.8555

> <Gold.Chemscore.Metal.Weighted>
-0.0000

> <Gold.Chemscore.Lipo.Weighted>
-5.6580

> <Gold.Chemscore.Internal_Hbond.Weighted>
0.0000

> <Gold.Chemscore.DEClash.Weighted>
0.0998

> <Gold.Chemscore.DEInternal.Weighted>
2.8411

> <Gold.Chemscore.Rot.Weighted>
4.0075

> <Gold.Chemscore.Internal.Correction.Weighted>
   9.000000E+99

> <Gold.Protein.RotatedTorsions>
[ 6907 6896 6895 6894 ] final   84.78 input  -60.11 | X-H torsion
[ 7974 7965 7964 7962 ] final -128.19 input  175.53 | X-H torsion
[ 8008 7997 7996 7995 ] final  106.77 input   59.86 | X-H torsion
[ 10167 10162 10161 10158 ] final  125.31 input  -65.29 | X-H torsion
[ 10718 10713 10712 10709 ] final  -64.21 input   66.30 | X-H torsion
[ 10763 10752 10751 10750 ] final  -70.93 input  -60.55 | X-H torsion
[ 11005 11000 10999 10996 ] final   24.96 input  -57.11 | X-H torsion

> <Gold.Protein.ActiveResidues>
 VAL166  LYS551  ARG553  GLY616  TRP617  ASP618  TYR619  PRO620  LYS621  CYS622 
 ASP623  PHE694  ASN695  SER759  ASP760  ASP761  ALA762  ILE779  LEU786  VAL792 
 PHE793  MET794  SER795  GLU796  ALA797  LYS798  CYS799  TRP800  GLU811  SER814 

> <Gold.Protein.RotatedAtoms>
  152.5360  134.2688  159.8963 H   0  0  0  0  0  0  0  0  0  0  0  0  # atno 6907 bound_to 6896
  151.2645  133.4279  159.2625 H   0  0  0  0  0  0  0  0  0  0  0  0  # atno 6908 bound_to 6896
  151.0423  134.9630  159.8224 H   0  0  0  0  0  0  0  0  0  0  0  0  # atno 6909 bound_to 6896
  144.9696  140.7531  143.4679 H   0  0  0  0  0  0  0  0  0  0  0  0  # atno 7974 bound_to 7965
  156.1770  140.3107  155.9078 H   0  0  0  0  0  0  0  0  0  0  0  0  # atno 8008 bound_to 7997
  155.3466  140.0468  157.3062 H   0  0  0  0  0  0  0  0  0  0  0  0  # atno 8009 bound_to 7997
  154.5301  140.2227  155.8830 H   0  0  0  0  0  0  0  0  0  0  0  0  # atno 8010 bound_to 7997
  139.5693  144.6929  151.3823 H   0  0  0  0  0  0  0  0  0  0  0  0  # atno 10167 bound_to 10162
  156.0743  130.4230  150.1387 H   0  0  0  0  0  0  0  0  0  0  0  0  # atno 10718 bound_to 10713
  154.4246  135.5978  153.6030 H   0  0  0  0  0  0  0  0  0  0  0  0  # atno 10763 bound_to 10752
  152.9795  135.5960  154.3914 H   0  0  0  0  0  0  0  0  0  0  0  0  # atno 10764 bound_to 10752
  154.3744  135.2841  155.2226 H   0  0  0  0  0  0  0  0  0  0  0  0  # atno 10765 bound_to 10752
  140.3530  134.2208  155.7678 H   0  0  0  0  0  0  0  0  0  0  0  0  # atno 11005 bound_to 11000
  145.2579  139.2004  143.4907 LP  0  0  0  0  0  0  0  0  0  0  0  0  # atno 17320 bound_to 7965
  146.3378  140.2504  142.8598 LP  0  0  0  0  0  0  0  0  0  0  0  0  # atno 17321 bound_to 7965
  140.6977  143.7709  150.7353 LP  0  0  0  0  0  0  0  0  0  0  0  0  # atno 17342 bound_to 10162
  140.1210  143.4612  152.2313 LP  0  0  0  0  0  0  0  0  0  0  0  0  # atno 17343 bound_to 10162
  156.9432  130.9751  151.3512 LP  0  0  0  0  0  0  0  0  0  0  0  0  # atno 17370 bound_to 10713
  157.5830  130.8390  149.8550 LP  0  0  0  0  0  0  0  0  0  0  0  0  # atno 17371 bound_to 10713
  141.2006  133.7982  157.0479 LP  0  0  0  0  0  0  0  0  0  0  0  0  # atno 17394 bound_to 11000
  140.0687  134.9714  157.1431 LP  0  0  0  0  0  0  0  0  0  0  0  0  # atno 17395 bound_to 11000

$$$$
