AV-unprocessed.smi:2887|AV-procd|sdf|11099|dock7
  -GOLD-   2272015563D 1   1.00000     0.00000
 Structure written by MMmdl.
 38 39  0  0  0  0  0  0  0  0  3 V2000
  146.6835  137.8661  155.0117 O   0  0  0  0  0  0  0  0  0  0  0  0
  146.9368  138.1357  153.8384 C   0  0  0  0  0  0  0  0  0  0  0  0
  147.5935  139.4864  153.5109 C   0  0  0  0  0  0  0  0  0  0  0  0
  148.8601  139.7271  154.2005 N   0  0  0  0  0  0  0  0  0  0  0  0
  149.0963  140.9075  154.8976 C   0  0  0  0  0  0  0  0  0  0  0  0
  150.2121  141.1505  155.6100 C   0  0  0  0  0  0  0  0  0  0  0  0
  151.2679  140.1199  155.6798 C   0  0  0  0  0  0  0  0  0  0  0  0
  152.2855  140.3116  156.3436 O   0  0  0  0  0  0  0  0  0  0  0  0
  151.0277  138.8541  154.9260 C   0  0  0  0  0  0  0  0  0  0  0  0
  151.9521  137.7400  154.8568 N   0  3  0  0  0  0  0  0  0  0  0  0
  153.1100  137.8990  155.2323 O   0  0  0  0  0  0  0  0  0  0  0  0
  151.5493  136.6643  154.4264 O   0  5  0  0  0  0  0  0  0  0  0  0
  149.8546  138.7504  154.2513 C   0  0  0  0  0  0  0  0  0  0  0  0
  146.6475  137.3097  152.8178 N   0  0  0  0  0  0  0  0  0  0  0  0
  145.9373  136.0378  152.9146 C   0  0  0  0  0  0  0  0  0  0  0  0
  145.0463  135.8062  151.6814 C   0  0  0  0  0  0  0  0  0  0  0  0
  145.0689  134.3730  151.1808 C   0  0  0  0  0  0  0  0  0  0  0  0
  146.1413  133.6860  150.7902 C   0  0  0  0  0  0  0  0  0  0  0  0
  145.8043  132.2903  150.3433 C   0  0  0  0  0  0  0  0  0  0  0  0
  144.2719  132.2010  150.5184 C   0  0  0  0  0  0  0  0  0  0  0  0
  143.8027  133.5628  151.0782 C   0  0  0  0  0  0  0  0  0  0  0  0
  147.7535  139.5434  152.4331 H   0  0  0  0  0  0  0  0  0  0  0  0
  146.8860  140.2813  153.7511 H   0  0  0  0  0  0  0  0  0  0  0  0
  148.3012  141.6354  154.8259 H   0  0  0  0  0  0  0  0  0  0  0  0
  150.3519  142.0835  156.1360 H   0  0  0  0  0  0  0  0  0  0  0  0
  149.6060  137.8685  153.6778 H   0  0  0  0  0  0  0  0  0  0  0  0
  146.9003  137.6131  151.8884 H   0  0  0  0  0  0  0  0  0  0  0  0
  146.6750  135.2387  152.9898 H   0  0  0  0  0  0  0  0  0  0  0  0
  145.3352  135.9815  153.8227 H   0  0  0  0  0  0  0  0  0  0  0  0
  144.0168  136.0735  151.9242 H   0  0  0  0  0  0  0  0  0  0  0  0
  145.3535  136.4665  150.8699 H   0  0  0  0  0  0  0  0  0  0  0  0
  147.1532  134.0635  150.7774 H   0  0  0  0  0  0  0  0  0  0  0  0
  146.1007  132.1442  149.3044 H   0  0  0  0  0  0  0  0  0  0  0  0
  146.3264  131.5598  150.9619 H   0  0  0  0  0  0  0  0  0  0  0  0
  143.7891  131.9929  149.5628 H   0  0  0  0  0  0  0  0  0  0  0  0
  144.0061  131.3905  151.1981 H   0  0  0  0  0  0  0  0  0  0  0  0
  143.3411  133.4577  152.0604 H   0  0  0  0  0  0  0  0  0  0  0  0
  143.0895  134.0444  150.4090 H   0  0  0  0  0  0  0  0  0  0  0  0
  1  2  2  0  0  0  0
  2  3  1  0  0  0  0
  2 14  1  0  0  0  0
  3  4  1  0  0  0  0
  3 22  1  0  0  0  0
  3 23  1  0  0  0  0
  4 13  1  0  0  0  0
  4  5  1  0  0  0  0
  5  6  2  0  0  0  0
  5 24  1  0  0  0  0
  6  7  1  0  0  0  0
  6 25  1  0  0  0  0
  7  8  2  0  0  0  0
  7  9  1  0  0  0  0
  9 10  1  0  0  0  0
  9 13  2  0  0  0  0
 10 11  2  0  0  0  0
 10 12  1  0  0  0  0
 13 26  1  0  0  0  0
 14 15  1  0  0  0  0
 14 27  1  0  0  0  0
 15 16  1  0  0  0  0
 15 28  1  0  0  0  0
 15 29  1  0  0  0  0
 16 17  1  0  0  0  0
 16 30  1  0  0  0  0
 16 31  1  0  0  0  0
 17 21  1  0  0  0  0
 17 18  2  0  0  0  0
 18 19  1  0  0  0  0
 18 32  1  0  0  0  0
 19 20  1  0  0  0  0
 19 33  1  0  0  0  0
 19 34  1  0  0  0  0
 20 21  1  0  0  0  0
 20 35  1  0  0  0  0
 20 36  1  0  0  0  0
 21 37  1  0  0  0  0
 21 38  1  0  0  0  0
M  CHG  1  10   1
M  CHG  1  12  -1
M  END
> <s_m_source_file>
AV-unprocessed.smi

> <i_m_source_file_index>
2887

> <i_lp_mmshare_version>
43012

> <i_f3d_flags>
0

> <s_epik_input>
W0NIMl0xW0NIMl1bQ0gyXVtDSF09QzFbQ0gyXVtDSDJdW05IXUMoPU8pW0NIMl1uMltjSF1bY0hdYyg9TyljKFtOK10oPU8pW08tXSlbY0hdMg==

> <s_epik_cmdline>
J2VwaWtfcHl0aG9uJywgJy1waCcsICc3LjAnLCAnLXRuJywgJzgnLCAnLW1hJywgJzIwMCcsICctbWV0YWxfYmluZGluZycsICctaW1hZScsICc8aW5maWxlLm1hZT4nLCAnLW9tYWUnLCAnPG91dGZpbGUubWFlPic=

> <r_lp_tautomer_probability>
1

> <r_epik_Ionization_Penalty>
2.85916e-08

> <r_epik_Ionization_Penalty_Charging>
1.01785e-08

> <r_epik_Ionization_Penalty_Neutral>
1.84131e-08

> <r_epik_State_Penalty>
-0

> <r_epik_Charging_Adjusted_Penalty>
1.01785e-08

> <i_epik_Tot_Q>
0

> <i_epik_Tot_abs_Q>
2

> <r_epik_Metal_State_Penalty>
-0

> <b_epik_Metal_Only>
0

> <s_lp_Force_Field>
OPLS_2005

> <r_lp_Energy>
18.7972

> <b_lp_Chiralities_Consistent>
1

> <s_lp_Variant>
AV-unprocessed.smi:2887-1

> <Gold.Version>
5.8.1

> <Gold.Id.Protein>
6NUR|6NUR_protein|mol2

> <Gold.PLP.Fitness>
47.3454

> <Gold.PLP.PLP>
-39.6801

> <Gold.PLP.part.hbond>
-4.0000

> <Gold.PLP.part.metal>
0.0000

> <Gold.PLP.part.buried>
-1.1828

> <Gold.PLP.part.nonpolar>
-34.9527

> <Gold.PLP.part.repulsive>
1.0166

> <Gold.PLP.ligand.clash>
0.0000

> <Gold.PLP.ligand.torsion>
0.6843

> <Gold.PLP.Chemscore.Hbond>
2.0000

> <Gold.PLP.Chemscore.CHOScore>
1.0000

> <Gold.PLP.Chemscore.Metal>
0.0000

> <Gold.Chemscore.Hbonds>
donor molecule, donor type, donor heavy atom, donor atom, acceptor molecule, acceptor atom, score
      P1  H  7997  8008       L1     8  0.94
      P1  H 10752 10763       L1    12  1.00
      L1  C    13    26       P1  7948  1.00

> <Gold.PLP.Chemscore.Internal.Correction>
0.0339

> <Gold.Rescore>
     Score         DG    S(hbond)    S(metal)    S(lipo)     H(rot)  DE(clash)    DE(int)     intcor
     13.27     -15.46       1.79        0.00      77.84       2.00       0.11       2.08       ----

> <Gold.Chemscore.Fitness>
13.2729

> <Gold.Chemscore.DG>
-15.4629

> <Gold.Chemscore.ZeroCoef>
-5.4800

> <Gold.Chemscore.Hbond>
1.7945

> <Gold.Chemscore.Metal>
0.0000

> <Gold.Chemscore.Lipo>
77.8366

> <Gold.Chemscore.Internal_Hbond>
0.0000

> <Gold.Chemscore.DEClash>
0.1140

> <Gold.Chemscore.DEInternal>
2.0759

> <Gold.Chemscore.Rot>
1.9991

> <Gold.Chemscore.Internal.Correction>
   9.000000E+99

> <Gold.Chemscore.Hbonds>
donor molecule, donor type, donor heavy atom, donor atom, acceptor molecule, acceptor atom, score
      P1  H  7997  8008       L1     8  0.87
      P1  H 10752 10763       L1    12  0.55

> <Gold.Chemscore.Hbond.Weighted>
-5.9937

> <Gold.Chemscore.Metal.Weighted>
-0.0000

> <Gold.Chemscore.Lipo.Weighted>
-9.1069

> <Gold.Chemscore.Internal_Hbond.Weighted>
0.0000

> <Gold.Chemscore.DEClash.Weighted>
0.1140

> <Gold.Chemscore.DEInternal.Weighted>
2.0759

> <Gold.Chemscore.Rot.Weighted>
5.1177

> <Gold.Chemscore.Internal.Correction.Weighted>
   9.000000E+99

> <Gold.Protein.RotatedTorsions>
[ 6907 6896 6895 6894 ] final  -94.60 input  -60.11 | X-H torsion
[ 7974 7965 7964 7962 ] final  106.35 input  175.53 | X-H torsion
[ 8008 7997 7996 7995 ] final  -42.13 input   59.86 | X-H torsion
[ 10167 10162 10161 10158 ] final  168.19 input  -65.29 | X-H torsion
[ 10718 10713 10712 10709 ] final   70.82 input   66.30 | X-H torsion
[ 10763 10752 10751 10750 ] final   34.42 input  -60.55 | X-H torsion
[ 11005 11000 10999 10996 ] final   17.93 input  -57.11 | X-H torsion

> <Gold.Protein.ActiveResidues>
 VAL166  LYS551  ARG553  GLY616  TRP617  ASP618  TYR619  PRO620  LYS621  CYS622 
 ASP623  PHE694  ASN695  SER759  ASP760  ASP761  ALA762  ILE779  LEU786  VAL792 
 PHE793  MET794  SER795  GLU796  ALA797  LYS798  CYS799  TRP800  GLU811  SER814 

> <Gold.Protein.RotatedAtoms>
  150.6945  134.1788  159.4240 H   0  0  0  0  0  0  0  0  0  0  0  0  # atno 6907 bound_to 6896
  151.9763  135.0049  160.0564 H   0  0  0  0  0  0  0  0  0  0  0  0  # atno 6908 bound_to 6896
  152.1796  133.4663  159.4988 H   0  0  0  0  0  0  0  0  0  0  0  0  # atno 6909 bound_to 6896
  145.3077  139.2550  143.3779 H   0  0  0  0  0  0  0  0  0  0  0  0  # atno 7974 bound_to 7965
  154.4000  140.1481  156.3304 H   0  0  0  0  0  0  0  0  0  0  0  0  # atno 8008 bound_to 7997
  155.8449  140.3460  155.5634 H   0  0  0  0  0  0  0  0  0  0  0  0  # atno 8009 bound_to 7997
  155.8047  140.0875  157.1928 H   0  0  0  0  0  0  0  0  0  0  0  0  # atno 8010 bound_to 7997
  139.4962  144.3841  151.9590 H   0  0  0  0  0  0  0  0  0  0  0  0  # atno 10167 bound_to 10162
  157.6420  130.9496  150.0703 H   0  0  0  0  0  0  0  0  0  0  0  0  # atno 10718 bound_to 10713
  153.0165  135.6361  154.1666 H   0  0  0  0  0  0  0  0  0  0  0  0  # atno 10763 bound_to 10752
  154.1405  135.2835  155.3164 H   0  0  0  0  0  0  0  0  0  0  0  0  # atno 10764 bound_to 10752
  154.6128  135.5550  153.7553 H   0  0  0  0  0  0  0  0  0  0  0  0  # atno 10765 bound_to 10752
  140.4305  134.1425  155.7680 H   0  0  0  0  0  0  0  0  0  0  0  0  # atno 11005 bound_to 11000
  146.3129  140.3606  142.8664 LP  0  0  0  0  0  0  0  0  0  0  0  0  # atno 17320 bound_to 7965
  144.9041  140.7678  143.5848 LP  0  0  0  0  0  0  0  0  0  0  0  0  # atno 17321 bound_to 7965
  140.3278  144.3352  150.5994 LP  0  0  0  0  0  0  0  0  0  0  0  0  # atno 17342 bound_to 10162
  140.5670  143.2185  151.7666 LP  0  0  0  0  0  0  0  0  0  0  0  0  # atno 17343 bound_to 10162
  156.1709  130.3646  149.9166 LP  0  0  0  0  0  0  0  0  0  0  0  0  # atno 17370 bound_to 10713
  156.7142  130.8982  151.3612 LP  0  0  0  0  0  0  0  0  0  0  0  0  # atno 17371 bound_to 10713
  141.1747  133.8537  157.1458 LP  0  0  0  0  0  0  0  0  0  0  0  0  # atno 17394 bound_to 11000
  140.0138  134.9976  157.0450 LP  0  0  0  0  0  0  0  0  0  0  0  0  # atno 17395 bound_to 11000

$$$$
