AV-unprocessed.smi:306|AV-procd|sdf|2283|dock1
  -GOLD-   2262022183D 1   1.00000     0.00000
 Structure written by MMmdl.
 46 48  0  0  0  0  0  0  0  0  2 V2000
  146.6783  133.6985  152.7088 C   0  0  0  0  0  0  0  0  0  0  0  0
  147.9284  132.8156  152.7982 C   0  0  0  0  0  0  0  0  0  0  0  0
  148.5760  132.8942  154.1515 C   0  0  0  0  0  0  0  0  0  0  0  0
  149.7079  132.1754  154.6280 C   0  0  0  0  0  0  0  0  0  0  0  0
  149.8674  132.6096  155.9139 C   0  0  0  0  0  0  0  0  0  0  0  0
  150.8886  132.2286  156.9393 C   0  0  0  0  0  0  0  0  0  0  0  0
  151.8886  131.1803  156.4387 C   0  0  0  0  0  0  0  0  0  0  0  0
  148.8631  133.5313  156.1501 N   0  0  0  0  0  0  0  0  0  0  0  0
  148.5947  134.2521  157.3304 C   0  0  0  0  0  0  0  0  0  0  0  0
  148.1519  133.6922  158.4566 N   0  0  0  0  0  0  0  0  0  0  0  0
  148.0416  134.7819  159.3089 C   0  0  0  0  0  0  0  0  0  0  0  0
  148.4136  135.9364  158.6904 C   0  0  0  0  0  0  0  0  0  0  0  0
  148.4123  137.2612  159.3494 C   0  0  0  0  0  0  0  0  0  0  0  0
  148.7706  138.2718  158.7485 O   0  0  0  0  0  0  0  0  0  0  0  0
  147.9778  137.1913  160.6477 N   0  5  0  0  0  0  0  0  0  0  0  0
  147.5862  136.0483  161.3111 C   0  0  0  0  0  0  0  0  0  0  0  0
  147.2036  136.0751  162.4817 O   0  0  0  0  0  0  0  0  0  0  0  0
  147.6161  134.8406  160.6640 N   0  0  0  0  0  0  0  0  0  0  0  0
  147.2068  133.6092  161.3455 C   0  0  0  0  0  0  0  0  0  0  0  0
  148.7771  135.5944  157.3845 N   0  0  0  0  0  0  0  0  0  0  0  0
  149.2570  136.4594  156.3096 C   0  0  0  0  0  0  0  0  0  0  0  0
  150.7016  136.9267  156.5411 C   0  0  0  0  0  0  0  0  0  0  0  0
  151.4867  136.6780  155.3870 O   0  0  0  0  0  0  0  0  0  0  0  0
  151.3795  137.7091  154.4224 C   0  0  0  0  0  0  0  0  0  0  0  0
  148.0801  133.7108  155.0665 N   0  0  0  0  0  0  0  0  0  0  0  0
  146.2193  133.6234  151.7229 H   0  0  0  0  0  0  0  0  0  0  0  0
  146.9221  134.7469  152.8835 H   0  0  0  0  0  0  0  0  0  0  0  0
  145.9334  133.4003  153.4471 H   0  0  0  0  0  0  0  0  0  0  0  0
  147.6568  131.7829  152.5776 H   0  0  0  0  0  0  0  0  0  0  0  0
  148.6393  133.1115  152.0261 H   0  0  0  0  0  0  0  0  0  0  0  0
  150.3112  131.4488  154.1045 H   0  0  0  0  0  0  0  0  0  0  0  0
  151.4297  133.1159  157.2692 H   0  0  0  0  0  0  0  0  0  0  0  0
  150.3817  131.8431  157.8244 H   0  0  0  0  0  0  0  0  0  0  0  0
  152.6047  130.9235  157.2194 H   0  0  0  0  0  0  0  0  0  0  0  0
  152.4518  131.5463  155.5802 H   0  0  0  0  0  0  0  0  0  0  0  0
  151.3791  130.2643  156.1386 H   0  0  0  0  0  0  0  0  0  0  0  0
  147.8006  133.4538  162.2475 H   0  0  0  0  0  0  0  0  0  0  0  0
  147.3277  132.7229  160.7231 H   0  0  0  0  0  0  0  0  0  0  0  0
  146.1566  133.6660  161.6343 H   0  0  0  0  0  0  0  0  0  0  0  0
  149.1930  135.9220  155.3637 H   0  0  0  0  0  0  0  0  0  0  0  0
  148.5901  137.3119  156.1986 H   0  0  0  0  0  0  0  0  0  0  0  0
  150.7146  137.9921  156.7743 H   0  0  0  0  0  0  0  0  0  0  0  0
  151.1240  136.4029  157.3996 H   0  0  0  0  0  0  0  0  0  0  0  0
  152.0044  137.4705  153.5618 H   0  0  0  0  0  0  0  0  0  0  0  0
  151.7139  138.6650  154.8273 H   0  0  0  0  0  0  0  0  0  0  0  0
  150.3518  137.8157  154.0734 H   0  0  0  0  0  0  0  0  0  0  0  0
  1  2  1  0  0  0  0
  1 26  1  0  0  0  0
  1 27  1  0  0  0  0
  1 28  1  0  0  0  0
  2  3  1  0  0  0  0
  2 29  1  0  0  0  0
  2 30  1  0  0  0  0
  3 25  2  0  0  0  0
  3  4  1  0  0  0  0
  4  5  2  0  0  0  0
  4 31  1  0  0  0  0
  5  6  1  0  0  0  0
  5  8  1  0  0  0  0
  6  7  1  0  0  0  0
  6 32  1  0  0  0  0
  6 33  1  0  0  0  0
  7 34  1  0  0  0  0
  7 35  1  0  0  0  0
  7 36  1  0  0  0  0
  8  9  1  0  0  0  0
  8 25  1  0  0  0  0
  9 20  1  0  0  0  0
  9 10  2  0  0  0  0
 10 11  1  0  0  0  0
 11 18  1  0  0  0  0
 11 12  2  0  0  0  0
 12 13  1  0  0  0  0
 12 20  1  0  0  0  0
 13 14  2  0  0  0  0
 13 15  1  0  0  0  0
 15 16  1  0  0  0  0
 16 17  2  0  0  0  0
 16 18  1  0  0  0  0
 18 19  1  0  0  0  0
 19 37  1  0  0  0  0
 19 38  1  0  0  0  0
 19 39  1  0  0  0  0
 20 21  1  0  0  0  0
 21 22  1  0  0  0  0
 21 40  1  0  0  0  0
 21 41  1  0  0  0  0
 22 23  1  0  0  0  0
 22 42  1  0  0  0  0
 22 43  1  0  0  0  0
 23 24  1  0  0  0  0
 24 44  1  0  0  0  0
 24 45  1  0  0  0  0
 24 46  1  0  0  0  0
M  CHG  1  15  -1
M  END
> <s_m_source_file>
AV-unprocessed.smi

> <i_m_source_file_index>
306

> <i_lp_mmshare_version>
43012

> <i_f3d_flags>
0

> <s_epik_input>
W0NIM11bQ0gyXWMxW2NIXWMoW0NIMl1bQ0gzXSluKG4xKS1jKG4yKW4oW0NIMl1bQ0gyXU9bQ0gzXSljKGMyMyljKD1PKVtuSF1jKD1PKW4zW0NIM10=

> <s_epik_cmdline>
J2VwaWtfcHl0aG9uJywgJy1waCcsICc3LjAnLCAnLXRuJywgJzgnLCAnLW1hJywgJzIwMCcsICctbWV0YWxfYmluZGluZycsICctaW1hZScsICc8aW5maWxlLm1hZT4nLCAnLW9tYWUnLCAnPG91dGZpbGUubWFlPic=

> <r_lp_tautomer_probability>
1

> <r_epik_Ionization_Penalty>
3.98741

> <r_epik_Ionization_Penalty_Charging>
0.0180637

> <r_epik_Ionization_Penalty_Neutral>
3.96934

> <r_epik_State_Penalty>
3.96767

> <r_epik_Charging_Adjusted_Penalty>
3.98573

> <i_epik_Tot_Q>
-1

> <i_epik_Tot_abs_Q>
1

> <r_epik_Metal_State_Penalty>
0.612217

> <b_epik_Metal_Only>
1

> <s_lp_Force_Field>
OPLS_2005

> <r_lp_Energy>
26.8748

> <b_lp_Chiralities_Consistent>
1

> <s_lp_Variant>
AV-unprocessed.smi:306-2

> <Gold.Version>
5.8.1

> <Gold.Id.Protein>
6NUR|6NUR_protein|mol2

> <Gold.PLP.Fitness>
44.0987

> <Gold.PLP.PLP>
-34.3120

> <Gold.PLP.part.hbond>
-3.7595

> <Gold.PLP.part.metal>
0.0000

> <Gold.PLP.part.buried>
-4.9111

> <Gold.PLP.part.nonpolar>
-26.5697

> <Gold.PLP.part.repulsive>
0.1326

> <Gold.PLP.ligand.clash>
0.0000

> <Gold.PLP.ligand.torsion>
1.9475

> <Gold.PLP.Chemscore.Hbond>
4.1680

> <Gold.PLP.Chemscore.CHOScore>
0.0000

> <Gold.PLP.Chemscore.Metal>
0.0000

> <Gold.Chemscore.Hbonds>
donor molecule, donor type, donor heavy atom, donor atom, acceptor molecule, acceptor atom, score
      P1  H  6931  6943       L1    15  1.63
      P1  H  6934  6947       L1    15  1.54
      P1  H 10752 10765       L1    23  1.00

> <Gold.PLP.Chemscore.Internal.Correction>
1.1777

> <Gold.Rescore>
     Score         DG    S(hbond)    S(metal)    S(lipo)     H(rot)  DE(clash)    DE(int)     intcor
     11.69     -13.72       1.70        0.00      61.48       1.81       0.03       2.00       ----

> <Gold.Chemscore.Fitness>
11.6880

> <Gold.Chemscore.DG>
-13.7183

> <Gold.Chemscore.ZeroCoef>
-5.4800

> <Gold.Chemscore.Hbond>
1.7030

> <Gold.Chemscore.Metal>
0.0000

> <Gold.Chemscore.Lipo>
61.4796

> <Gold.Chemscore.Internal_Hbond>
0.0000

> <Gold.Chemscore.DEClash>
0.0274

> <Gold.Chemscore.DEInternal>
2.0029

> <Gold.Chemscore.Rot>
1.8136

> <Gold.Chemscore.Internal.Correction>
   9.000000E+99

> <Gold.Chemscore.Hbonds>
donor molecule, donor type, donor heavy atom, donor atom, acceptor molecule, acceptor atom, score
      P1  H  6931  6943       L1    15  0.45
      P1  H  6934  6947       L1    15  0.26
      P1  H 10752 10765       L1    23  0.34

> <Gold.Chemscore.Hbond.Weighted>
-5.6879

> <Gold.Chemscore.Metal.Weighted>
-0.0000

> <Gold.Chemscore.Lipo.Weighted>
-7.1931

> <Gold.Chemscore.Internal_Hbond.Weighted>
0.0000

> <Gold.Chemscore.DEClash.Weighted>
0.0274

> <Gold.Chemscore.DEInternal.Weighted>
2.0029

> <Gold.Chemscore.Rot.Weighted>
4.6427

> <Gold.Chemscore.Internal.Correction.Weighted>
   9.000000E+99

> <Gold.Protein.RotatedTorsions>
[ 6907 6896 6895 6894 ] final  153.21 input  -60.11 | X-H torsion
[ 7974 7965 7964 7962 ] final -167.44 input  175.53 | X-H torsion
[ 8008 7997 7996 7995 ] final -126.27 input   59.86 | X-H torsion
[ 10167 10162 10161 10158 ] final -136.44 input  -65.29 | X-H torsion
[ 10718 10713 10712 10709 ] final   31.26 input   66.30 | X-H torsion
[ 10763 10752 10751 10750 ] final -176.31 input  -60.55 | X-H torsion
[ 11005 11000 10999 10996 ] final  -36.55 input  -57.11 | X-H torsion

> <Gold.Protein.ActiveResidues>
 VAL166  LYS551  ARG553  GLY616  TRP617  ASP618  TYR619  PRO620  LYS621  CYS622 
 ASP623  PHE694  ASN695  SER759  ASP760  ASP761  ALA762  ILE779  LEU786  VAL792 
 PHE793  MET794  SER795  GLU796  ALA797  LYS798  CYS799  TRP800  GLU811  SER814 

> <Gold.Protein.RotatedAtoms>
  152.0758  133.4129  159.4479 H   0  0  0  0  0  0  0  0  0  0  0  0  # atno 6907 bound_to 6896
  150.6863  134.3039  159.4727 H   0  0  0  0  0  0  0  0  0  0  0  0  # atno 6908 bound_to 6896
  152.0875  134.9429  160.0623 H   0  0  0  0  0  0  0  0  0  0  0  0  # atno 6909 bound_to 6896
  144.7223  140.2519  143.6277 H   0  0  0  0  0  0  0  0  0  0  0  0  # atno 7974 bound_to 7965
  155.2269  140.0424  157.2956 H   0  0  0  0  0  0  0  0  0  0  0  0  # atno 8008 bound_to 7997
  154.5913  140.2427  155.7887 H   0  0  0  0  0  0  0  0  0  0  0  0  # atno 8009 bound_to 7997
  156.2261  140.2954  156.0079 H   0  0  0  0  0  0  0  0  0  0  0  0  # atno 8010 bound_to 7997
  139.8677  143.6996  152.2643 H   0  0  0  0  0  0  0  0  0  0  0  0  # atno 10167 bound_to 10162
  157.2702  130.7204  149.6500 H   0  0  0  0  0  0  0  0  0  0  0  0  # atno 10718 bound_to 10713
  154.5739  135.2830  155.0800 H   0  0  0  0  0  0  0  0  0  0  0  0  # atno 10763 bound_to 10752
  154.2163  135.6399  153.5134 H   0  0  0  0  0  0  0  0  0  0  0  0  # atno 10764 bound_to 10752
  153.0066  135.5503  154.6371 H   0  0  0  0  0  0  0  0  0  0  0  0  # atno 10765 bound_to 10752
  140.9883  133.7018  156.1805 H   0  0  0  0  0  0  0  0  0  0  0  0  # atno 11005 bound_to 11000
  145.8220  139.2048  143.1932 LP  0  0  0  0  0  0  0  0  0  0  0  0  # atno 17320 bound_to 7965
  146.0506  140.8073  142.9784 LP  0  0  0  0  0  0  0  0  0  0  0  0  # atno 17321 bound_to 7965
  139.7313  144.7581  151.0798 LP  0  0  0  0  0  0  0  0  0  0  0  0  # atno 17342 bound_to 10162
  140.7765  143.5085  150.9682 LP  0  0  0  0  0  0  0  0  0  0  0  0  # atno 17343 bound_to 10162
  155.9663  130.4370  150.5157 LP  0  0  0  0  0  0  0  0  0  0  0  0  # atno 17370 bound_to 10713
  157.3080  131.0658  151.2021 LP  0  0  0  0  0  0  0  0  0  0  0  0  # atno 17371 bound_to 10713
  140.7080  134.4493  157.5583 LP  0  0  0  0  0  0  0  0  0  0  0  0  # atno 17394 bound_to 11000
  139.8980  134.8622  156.2018 LP  0  0  0  0  0  0  0  0  0  0  0  0  # atno 17395 bound_to 11000

$$$$
