AV-unprocessed.smi:2931|AV-procd|sdf|11246|dock3
  -GOLD-   2272016143D 1   1.00000     0.00000
 Structure written by MMmdl.
 43 44  0  0  0  0  0  0  0  0  3 V2000
  142.1116  134.6098  152.9811 C   0  0  0  0  0  0  0  0  0  0  0  0
  143.3915  133.8854  152.8276 N   0  3  1  0  0  0  0  0  0  0  0  0
  143.4887  133.1816  151.5242 C   0  0  0  0  0  0  0  0  0  0  0  0
  144.7713  132.3368  151.4481 C   0  0  0  0  0  0  0  0  0  0  0  0
  146.0164  133.1963  151.7079 C   0  0  0  0  0  0  0  0  0  0  0  0
  145.8758  133.9408  153.0479 C   0  0  1  0  0  0  0  0  0  0  0  0
  147.0170  134.8241  153.2680 N   0  0  0  0  0  0  0  0  0  0  0  0
  147.2831  135.4642  154.4153 C   0  0  0  0  0  0  0  0  0  0  0  0
  146.5849  135.3876  155.4257 O   0  0  0  0  0  0  0  0  0  0  0  0
  148.4071  136.1893  154.3326 N   0  0  0  0  0  0  0  0  0  0  0  0
  148.9551  137.0149  155.4061 C   0  0  0  0  0  0  0  0  0  0  0  0
  150.1803  137.8487  154.9773 C   0  0  0  0  0  0  0  0  0  0  0  0
  150.0105  139.3434  155.1902 C   0  0  0  0  0  0  0  0  0  0  0  0
  150.9409  140.0685  155.9683 C   0  0  0  0  0  0  0  0  0  0  0  0
  150.7558  141.4544  156.1483 C   0  0  0  0  0  0  0  0  0  0  0  0
  149.6978  142.0714  155.5778 N   0  3  0  0  0  0  0  0  0  0  0  0
  148.7861  141.4159  154.8262 C   0  0  0  0  0  0  0  0  0  0  0  0
  148.9191  140.0286  154.6124 C   0  0  0  0  0  0  0  0  0  0  0  0
  144.5681  134.7552  153.0784 C   0  0  0  0  0  0  0  0  0  0  0  0
  142.0220  135.4075  152.2425 H   0  0  0  0  0  0  0  0  0  0  0  0
  142.0360  135.0526  153.9748 H   0  0  0  0  0  0  0  0  0  0  0  0
  141.2675  133.9310  152.8555 H   0  0  0  0  0  0  0  0  0  0  0  0
  142.6197  132.5357  151.3915 H   0  0  0  0  0  0  0  0  0  0  0  0
  143.4697  133.9107  150.7125 H   0  0  0  0  0  0  0  0  0  0  0  0
  144.7233  131.5321  152.1832 H   0  0  0  0  0  0  0  0  0  0  0  0
  144.8457  131.8587  150.4709 H   0  0  0  0  0  0  0  0  0  0  0  0
  146.9070  132.5667  151.7120 H   0  0  0  0  0  0  0  0  0  0  0  0
  146.1434  133.9120  150.8943 H   0  0  0  0  0  0  0  0  0  0  0  0
  145.8325  133.2069  153.8558 H   0  0  0  0  0  0  0  0  0  0  0  0
  147.6525  134.9518  152.4939 H   0  0  0  0  0  0  0  0  0  0  0  0
  148.9115  136.1887  153.4582 H   0  0  0  0  0  0  0  0  0  0  0  0
  148.1601  137.6844  155.7350 H   0  0  0  0  0  0  0  0  0  0  0  0
  149.2046  136.3908  156.2653 H   0  0  0  0  0  0  0  0  0  0  0  0
  151.0590  137.5144  155.5301 H   0  0  0  0  0  0  0  0  0  0  0  0
  150.4042  137.6627  153.9263 H   0  0  0  0  0  0  0  0  0  0  0  0
  151.7868  139.5709  156.4204 H   0  0  0  0  0  0  0  0  0  0  0  0
  151.4165  142.0829  156.7275 H   0  0  0  0  0  0  0  0  0  0  0  0
  147.9835  142.0161  154.4224 H   0  0  0  0  0  0  0  0  0  0  0  0
  148.1931  139.4985  154.0128 H   0  0  0  0  0  0  0  0  0  0  0  0
  144.5968  135.5515  152.3322 H   0  0  0  0  0  0  0  0  0  0  0  0
  144.4595  135.2360  154.0518 H   0  0  0  0  0  0  0  0  0  0  0  0
  143.4033  133.1715  153.5424 H   0  0  0  0  0  0  0  0  0  0  0  0
  149.5817  143.0750  155.7215 H   0  0  0  0  0  0  0  0  0  0  0  0
  1  2  1  0  0  0  0
  1 20  1  0  0  0  0
  1 21  1  0  0  0  0
  1 22  1  0  0  0  0
  2 19  1  0  0  0  0
  2  3  1  0  0  0  0
  2 42  1  0  0  0  0
  3  4  1  0  0  0  0
  3 23  1  0  0  0  0
  3 24  1  0  0  0  0
  4  5  1  0  0  0  0
  4 25  1  0  0  0  0
  4 26  1  0  0  0  0
  5  6  1  0  0  0  0
  5 27  1  0  0  0  0
  5 28  1  0  0  0  0
  6  7  1  0  0  0  0
  6 19  1  0  0  0  0
  6 29  1  0  0  0  0
  7  8  1  0  0  0  0
  7 30  1  0  0  0  0
  8  9  2  0  0  0  0
  8 10  1  0  0  0  0
 10 11  1  0  0  0  0
 10 31  1  0  0  0  0
 11 12  1  0  0  0  0
 11 32  1  0  0  0  0
 11 33  1  0  0  0  0
 12 13  1  0  0  0  0
 12 34  1  0  0  0  0
 12 35  1  0  0  0  0
 13 18  1  0  0  0  0
 13 14  2  0  0  0  0
 14 15  1  0  0  0  0
 14 36  1  0  0  0  0
 15 16  2  0  0  0  0
 15 37  1  0  0  0  0
 16 17  1  0  0  0  0
 16 43  1  0  0  0  0
 17 18  2  0  0  0  0
 17 38  1  0  0  0  0
 18 39  1  0  0  0  0
 19 40  1  0  0  0  0
 19 41  1  0  0  0  0
M  CHG  1   2   1
M  CHG  1  16   1
M  END
> <s_m_source_file>
AV-unprocessed.smi

> <i_m_source_file_index>
2931

> <i_lp_mmshare_version>
43012

> <i_f3d_flags>
0

> <s_epik_input>
W0NIM11OMVtDSDJdW0NIMl1bQ0gyXVtDQEhdKFtDSDJdMSlbTkhdQyg9TylbTkhdW0NIMl1bQ0gyXWMyW2NIXVtjSF1uW2NIXVtjSF0y

> <s_epik_cmdline>
J2VwaWtfcHl0aG9uJywgJy1waCcsICc3LjAnLCAnLXRuJywgJzgnLCAnLW1hJywgJzIwMCcsICctbWV0YWxfYmluZGluZycsICctaW1hZScsICc8aW5maWxlLm1hZT4nLCAnLW9tYWUnLCAnPG91dGZpbGUubWFlPic=

> <r_epik_Ionization_Penalty>
1.43754

> <r_epik_Ionization_Penalty_Charging>
1.4375

> <r_epik_Ionization_Penalty_Neutral>
3.7629e-05

> <r_epik_State_Penalty>
1.52008

> <r_epik_Charging_Adjusted_Penalty>
2.95758

> <i_epik_Tot_Q>
2

> <i_epik_Tot_abs_Q>
2

> <r_epik_Metal_State_Penalty>
1.57105

> <b_epik_Metal_Only>
0

> <s_lp_Force_Field>
OPLS_2005

> <r_lp_Energy>
22.3029

> <b_lp_Chiralities_Consistent>
1

> <s_lp_Variant>
AV-unprocessed.smi:2931-5

> <Gold.Version>
5.8.1

> <Gold.Id.Protein>
6NUR|6NUR_protein|mol2

> <Gold.PLP.Fitness>
48.1402

> <Gold.PLP.PLP>
-31.7287

> <Gold.PLP.part.hbond>
-3.8241

> <Gold.PLP.part.metal>
0.0000

> <Gold.PLP.part.buried>
-4.7045

> <Gold.PLP.part.nonpolar>
-23.5352

> <Gold.PLP.part.repulsive>
0.2364

> <Gold.PLP.ligand.clash>
0.0000

> <Gold.PLP.ligand.torsion>
0.4785

> <Gold.PLP.Chemscore.Hbond>
5.7840

> <Gold.PLP.Chemscore.CHOScore>
0.0000

> <Gold.PLP.Chemscore.Metal>
0.0000

> <Gold.Chemscore.Hbonds>
donor molecule, donor type, donor heavy atom, donor atom, acceptor molecule, acceptor atom, score
      L1  H     2    42       P1 10957  2.00
      L1  H     7    30       P1  7948  0.82
      L1  H    10    31       P1  7948  1.00
      L1  H    16    43       P1  8028  2.00

> <Gold.PLP.Chemscore.Internal.Correction>
0.0164

> <Gold.Rescore>
     Score         DG    S(hbond)    S(metal)    S(lipo)     H(rot)  DE(clash)    DE(int)     intcor
     21.71     -22.27       3.70        0.00      74.05       1.65       0.11       0.46       ----

> <Gold.Chemscore.Fitness>
21.7072

> <Gold.Chemscore.DG>
-22.2744

> <Gold.Chemscore.ZeroCoef>
-5.4800

> <Gold.Chemscore.Hbond>
3.6963

> <Gold.Chemscore.Metal>
0.0000

> <Gold.Chemscore.Lipo>
74.0468

> <Gold.Chemscore.Internal_Hbond>
0.0000

> <Gold.Chemscore.DEClash>
0.1107

> <Gold.Chemscore.DEInternal>
0.4565

> <Gold.Chemscore.Rot>
1.6464

> <Gold.Chemscore.Internal.Correction>
   9.000000E+99

> <Gold.Chemscore.Hbonds>
donor molecule, donor type, donor heavy atom, donor atom, acceptor molecule, acceptor atom, score
      L1  H     2    42       P1 10957  0.90
      L1  H     7    30       P1  7948  0.78
      L1  H    10    31       P1  7948  0.94
      L1  H    16    43       P1  8028  1.00

> <Gold.Chemscore.Hbond.Weighted>
-12.3457

> <Gold.Chemscore.Metal.Weighted>
-0.0000

> <Gold.Chemscore.Lipo.Weighted>
-8.6635

> <Gold.Chemscore.Internal_Hbond.Weighted>
0.0000

> <Gold.Chemscore.DEClash.Weighted>
0.1107

> <Gold.Chemscore.DEInternal.Weighted>
0.4565

> <Gold.Chemscore.Rot.Weighted>
4.2148

> <Gold.Chemscore.Internal.Correction.Weighted>
   9.000000E+99

> <Gold.Protein.RotatedTorsions>
[ 6907 6896 6895 6894 ] final -108.10 input  -60.11 | X-H torsion
[ 7974 7965 7964 7962 ] final   54.91 input  175.53 | X-H torsion
[ 8008 7997 7996 7995 ] final  -71.17 input   59.86 | X-H torsion
[ 10167 10162 10161 10158 ] final   75.85 input  -65.29 | X-H torsion
[ 10718 10713 10712 10709 ] final -162.60 input   66.30 | X-H torsion
[ 10763 10752 10751 10750 ] final   17.40 input  -60.55 | X-H torsion
[ 11005 11000 10999 10996 ] final  -51.33 input  -57.11 | X-H torsion

> <Gold.Protein.ActiveResidues>
 VAL166  LYS551  ARG553  GLY616  TRP617  ASP618  TYR619  PRO620  LYS621  CYS622 
 ASP623  PHE694  ASN695  SER759  ASP760  ASP761  ALA762  ILE779  LEU786  VAL792 
 PHE793  MET794  SER795  GLU796  ALA797  LYS798  CYS799  TRP800  GLU811  SER814 

> <Gold.Protein.RotatedAtoms>
  150.7482  133.9727  159.3550 H   0  0  0  0  0  0  0  0  0  0  0  0  # atno 6907 bound_to 6896
  151.7662  135.0796  160.0362 H   0  0  0  0  0  0  0  0  0  0  0  0  # atno 6908 bound_to 6896
  152.3370  133.5985  159.5885 H   0  0  0  0  0  0  0  0  0  0  0  0  # atno 6909 bound_to 6896
  145.9559  139.4014  143.0277 H   0  0  0  0  0  0  0  0  0  0  0  0  # atno 7974 bound_to 7965
  154.5067  140.0820  156.7908 H   0  0  0  0  0  0  0  0  0  0  0  0  # atno 8008 bound_to 7997
  155.3877  140.3431  155.4231 H   0  0  0  0  0  0  0  0  0  0  0  0  # atno 8009 bound_to 7997
  156.1524  140.1562  156.8735 H   0  0  0  0  0  0  0  0  0  0  0  0  # atno 8010 bound_to 7997
  139.9985  144.5704  150.7757 H   0  0  0  0  0  0  0  0  0  0  0  0  # atno 10167 bound_to 10162
  156.6128  130.8857  151.2940 H   0  0  0  0  0  0  0  0  0  0  0  0  # atno 10718 bound_to 10713
  153.1343  135.6746  153.9128 H   0  0  0  0  0  0  0  0  0  0  0  0  # atno 10763 bound_to 10752
  153.8605  135.3082  155.3439 H   0  0  0  0  0  0  0  0  0  0  0  0  # atno 10764 bound_to 10752
  154.7734  135.4927  153.9776 H   0  0  0  0  0  0  0  0  0  0  0  0  # atno 10765 bound_to 10752
  141.0865  133.6641  156.3861 H   0  0  0  0  0  0  0  0  0  0  0  0  # atno 11005 bound_to 11000
  145.8107  140.9727  143.0950 LP  0  0  0  0  0  0  0  0  0  0  0  0  # atno 17320 bound_to 7965
  144.6805  139.9917  143.7484 LP  0  0  0  0  0  0  0  0  0  0  0  0  # atno 17321 bound_to 7965
  140.7428  143.2837  151.3526 LP  0  0  0  0  0  0  0  0  0  0  0  0  # atno 17342 bound_to 10162
  139.6288  144.0761  152.2458 LP  0  0  0  0  0  0  0  0  0  0  0  0  # atno 17343 bound_to 10162
  157.7249  130.9609  150.1594 LP  0  0  0  0  0  0  0  0  0  0  0  0  # atno 17370 bound_to 10713
  156.2376  130.3688  149.8374 LP  0  0  0  0  0  0  0  0  0  0  0  0  # atno 17371 bound_to 10713
  140.5351  134.6175  157.5362 LP  0  0  0  0  0  0  0  0  0  0  0  0  # atno 17394 bound_to 11000
  139.9684  134.7334  156.0091 LP  0  0  0  0  0  0  0  0  0  0  0  0  # atno 17395 bound_to 11000

$$$$
