AV-unprocessed.smi:1288|AV-procd|sdf|5381|dock9
  -GOLD-   22720 4533D 1   1.00000     0.00000
 Structure written by MMmdl.
 42 44  0  0  0  0  0  0  0  0  1 V2000
  149.1828  135.8853  155.1304 C   0  0  0  0  0  0  0  0  0  0  0  0
  148.8153  137.2981  154.8046 C   0  0  0  0  0  0  0  0  0  0  0  0
  147.5618  137.6628  154.5345 N   0  0  0  0  0  0  0  0  0  0  0  0
  147.6864  139.0167  154.2895 C   0  0  0  0  0  0  0  0  0  0  0  0
  146.7120  139.9813  153.9469 C   0  0  0  0  0  0  0  0  0  0  0  0
  147.0806  141.3270  153.7426 C   0  0  0  0  0  0  0  0  0  0  0  0
  148.4260  141.7270  153.8767 C   0  0  0  0  0  0  0  0  0  0  0  0
  149.4129  140.7822  154.2181 C   0  0  0  0  0  0  0  0  0  0  0  0
  149.0397  139.4400  154.4214 C   0  0  0  0  0  0  0  0  0  0  0  0
  149.7417  138.2872  154.7617 N   0  0  0  0  0  0  0  0  0  0  0  0
  151.1737  138.1841  155.0109 C   0  0  0  0  0  0  0  0  0  0  0  0
  151.7844  139.4952  155.5464 C   0  0  2  0  0  0  0  0  0  0  0  0
  153.1911  139.3591  155.6041 O   0  0  0  0  0  0  0  0  0  0  0  0
  151.2693  139.8330  156.9545 C   0  0  0  0  0  0  0  0  0  0  0  0
  151.6288  141.1672  157.2751 O   0  0  0  0  0  0  0  0  0  0  0  0
  151.9244  141.3409  158.6506 C   0  0  0  0  0  0  0  0  0  0  0  0
  151.6717  142.7685  159.0942 C   0  0  0  0  0  0  0  0  0  0  0  0
  151.2984  143.7462  158.1478 C   0  0  0  0  0  0  0  0  0  0  0  0
  151.0636  145.0739  158.5556 C   0  0  0  0  0  0  0  0  0  0  0  0
  151.1997  145.4289  159.9115 C   0  0  0  0  0  0  0  0  0  0  0  0
  151.5694  144.4552  160.8595 C   0  0  0  0  0  0  0  0  0  0  0  0
  151.8044  143.1268  160.4534 C   0  0  0  0  0  0  0  0  0  0  0  0
  152.1575  142.1978  161.3741 F   0  0  0  0  0  0  0  0  0  0  0  0
  148.2959  135.2507  155.1332 H   0  0  0  0  0  0  0  0  0  0  0  0
  149.6457  135.8290  156.1154 H   0  0  0  0  0  0  0  0  0  0  0  0
  149.8797  135.4953  154.3884 H   0  0  0  0  0  0  0  0  0  0  0  0
  145.6787  139.6850  153.8417 H   0  0  0  0  0  0  0  0  0  0  0  0
  146.3275  142.0561  153.4820 H   0  0  0  0  0  0  0  0  0  0  0  0
  148.7001  142.7597  153.7181 H   0  0  0  0  0  0  0  0  0  0  0  0
  150.4434  141.0866  154.3245 H   0  0  0  0  0  0  0  0  0  0  0  0
  151.3471  137.3696  155.7147 H   0  0  0  0  0  0  0  0  0  0  0  0
  151.6671  137.8886  154.0841 H   0  0  0  0  0  0  0  0  0  0  0  0
  151.5382  140.3105  154.8655 H   0  0  0  0  0  0  0  0  0  0  0  0
  153.3972  138.4516  155.7693 H   0  0  0  0  0  0  0  0  0  0  0  0
  150.1804  139.7618  156.9730 H   0  0  0  0  0  0  0  0  0  0  0  0
  151.6511  139.1267  157.6942 H   0  0  0  0  0  0  0  0  0  0  0  0
  151.3134  140.6675  159.2538 H   0  0  0  0  0  0  0  0  0  0  0  0
  152.9667  141.0806  158.8420 H   0  0  0  0  0  0  0  0  0  0  0  0
  151.1897  143.4811  157.1062 H   0  0  0  0  0  0  0  0  0  0  0  0
  150.7787  145.8194  157.8278 H   0  0  0  0  0  0  0  0  0  0  0  0
  151.0194  146.4469  160.2242 H   0  0  0  0  0  0  0  0  0  0  0  0
  151.6723  144.7270  161.8995 H   0  0  0  0  0  0  0  0  0  0  0  0
  1  2  1  0  0  0  0
  1 24  1  0  0  0  0
  1 25  1  0  0  0  0
  1 26  1  0  0  0  0
  2 10  1  0  0  0  0
  2  3  2  0  0  0  0
  3  4  1  0  0  0  0
  4  9  2  0  0  0  0
  4  5  1  0  0  0  0
  5  6  2  0  0  0  0
  5 27  1  0  0  0  0
  6  7  1  0  0  0  0
  6 28  1  0  0  0  0
  7  8  2  0  0  0  0
  7 29  1  0  0  0  0
  8  9  1  0  0  0  0
  8 30  1  0  0  0  0
  9 10  1  0  0  0  0
 10 11  1  0  0  0  0
 11 12  1  0  0  0  0
 11 31  1  0  0  0  0
 11 32  1  0  0  0  0
 12 13  1  0  0  0  0
 12 14  1  0  0  0  0
 12 33  1  0  0  0  0
 13 34  1  0  0  0  0
 14 15  1  0  0  0  0
 14 35  1  0  0  0  0
 14 36  1  0  0  0  0
 15 16  1  0  0  0  0
 16 17  1  0  0  0  0
 16 37  1  0  0  0  0
 16 38  1  0  0  0  0
 17 22  1  0  0  0  0
 17 18  2  0  0  0  0
 18 19  1  0  0  0  0
 18 39  1  0  0  0  0
 19 20  2  0  0  0  0
 19 40  1  0  0  0  0
 20 21  1  0  0  0  0
 20 41  1  0  0  0  0
 21 22  2  0  0  0  0
 21 42  1  0  0  0  0
 22 23  1  0  0  0  0
M  END
> <s_m_source_file>
AV-unprocessed.smi

> <i_m_source_file_index>
1288

> <i_lp_mmshare_version>
43012

> <i_f3d_flags>
0

> <s_epik_input>
W2NIXTFbY0hdW2NIXVtjSF1jKGMxMiluKGMobjIpW0NIM10pW0NIMl1bQ0BIXShbT0hdKVtDSDJdT1tDSDJdYzNbY0hdW2NIXVtjSF1bY0hdYzNG

> <s_epik_cmdline>
J2VwaWtfcHl0aG9uJywgJy1waCcsICc3LjAnLCAnLXRuJywgJzgnLCAnLW1hJywgJzIwMCcsICctbWV0YWxfYmluZGluZycsICctaW1hZScsICc8aW5maWxlLm1hZT4nLCAnLW9tYWUnLCAnPG91dGZpbGUubWFlPic=

> <r_epik_Ionization_Penalty>
0.132603

> <r_epik_Ionization_Penalty_Charging>
0

> <r_epik_Ionization_Penalty_Neutral>
0.132603

> <r_epik_State_Penalty>
0.121982

> <r_epik_Charging_Adjusted_Penalty>
0.121982

> <i_epik_Tot_Q>
0

> <i_epik_Tot_abs_Q>
0

> <r_epik_Metal_State_Penalty>
0.000135431

> <b_epik_Metal_Only>
0

> <s_lp_Force_Field>
OPLS_2005

> <r_lp_Energy>
16.1737

> <b_lp_Chiralities_Consistent>
1

> <s_lp_Variant>
AV-unprocessed.smi:1288-1

> <Gold.Version>
5.8.1

> <Gold.Id.Protein>
6NUR|6NUR_protein|mol2

> <Gold.PLP.Fitness>
51.8445

> <Gold.PLP.PLP>
-50.4547

> <Gold.PLP.part.hbond>
-0.9613

> <Gold.PLP.part.metal>
0.0000

> <Gold.PLP.part.buried>
-4.6703

> <Gold.PLP.part.nonpolar>
-45.3563

> <Gold.PLP.part.repulsive>
0.0783

> <Gold.PLP.ligand.clash>
0.0000

> <Gold.PLP.ligand.torsion>
0.8789

> <Gold.PLP.Chemscore.Hbond>
1.0000

> <Gold.PLP.Chemscore.CHOScore>
0.0000

> <Gold.PLP.Chemscore.Metal>
0.0000

> <Gold.Chemscore.Hbonds>
donor molecule, donor type, donor heavy atom, donor atom, acceptor molecule, acceptor atom, score
      P1  H  7997  8010       L1    13  0.94

> <Gold.PLP.Chemscore.Internal.Correction>
0.1477

> <Gold.Rescore>
     Score         DG    S(hbond)    S(metal)    S(lipo)     H(rot)  DE(clash)    DE(int)     intcor
     16.35     -18.58       0.95        0.00     134.75       2.29       0.18       2.05       ----

> <Gold.Chemscore.Fitness>
16.3521

> <Gold.Chemscore.DG>
-18.5823

> <Gold.Chemscore.ZeroCoef>
-5.4800

> <Gold.Chemscore.Hbond>
0.9549

> <Gold.Chemscore.Metal>
0.0000

> <Gold.Chemscore.Lipo>
134.7500

> <Gold.Chemscore.Internal_Hbond>
0.0000

> <Gold.Chemscore.DEClash>
0.1765

> <Gold.Chemscore.DEInternal>
2.0536

> <Gold.Chemscore.Rot>
2.2863

> <Gold.Chemscore.Internal.Correction>
   9.000000E+99

> <Gold.Chemscore.Hbonds>
donor molecule, donor type, donor heavy atom, donor atom, acceptor molecule, acceptor atom, score
      P1  H  7997  8010       L1    13  0.45

> <Gold.Chemscore.Hbond.Weighted>
-3.1895

> <Gold.Chemscore.Metal.Weighted>
-0.0000

> <Gold.Chemscore.Lipo.Weighted>
-15.7657

> <Gold.Chemscore.Internal_Hbond.Weighted>
0.0000

> <Gold.Chemscore.DEClash.Weighted>
0.1765

> <Gold.Chemscore.DEInternal.Weighted>
2.0536

> <Gold.Chemscore.Rot.Weighted>
5.8530

> <Gold.Chemscore.Internal.Correction.Weighted>
   9.000000E+99

> <Gold.Protein.RotatedTorsions>
[ 6907 6896 6895 6894 ] final -114.23 input  -60.11 | X-H torsion
[ 7974 7965 7964 7962 ] final  -11.85 input  175.53 | X-H torsion
[ 8008 7997 7996 7995 ] final   86.95 input   59.86 | X-H torsion
[ 10167 10162 10161 10158 ] final  -60.08 input  -65.29 | X-H torsion
[ 10718 10713 10712 10709 ] final -125.99 input   66.30 | X-H torsion
[ 10763 10752 10751 10750 ] final    9.16 input  -60.55 | X-H torsion
[ 11005 11000 10999 10996 ] final  -75.13 input  -57.11 | X-H torsion

> <Gold.Protein.ActiveResidues>
 VAL166  LYS551  ARG553  GLY616  TRP617  ASP618  TYR619  PRO620  LYS621  CYS622 
 ASP623  PHE694  ASN695  SER759  ASP760  ASP761  ALA762  ILE779  LEU786  VAL792 
 PHE793  MET794  SER795  GLU796  ALA797  LYS798  CYS799  TRP800  GLU811  SER814 

> <Gold.Protein.RotatedAtoms>
  150.7887  133.8830  159.3291 H   0  0  0  0  0  0  0  0  0  0  0  0  # atno 6907 bound_to 6896
  151.6674  135.0979  160.0201 H   0  0  0  0  0  0  0  0  0  0  0  0  # atno 6908 bound_to 6896
  152.3957  133.6704  159.6309 H   0  0  0  0  0  0  0  0  0  0  0  0  # atno 6909 bound_to 6896
  146.2173  140.2971  142.8372 H   0  0  0  0  0  0  0  0  0  0  0  0  # atno 7974 bound_to 7965
  155.9693  140.3387  155.6561 H   0  0  0  0  0  0  0  0  0  0  0  0  # atno 8008 bound_to 7997
  155.6696  140.0725  157.2543 H   0  0  0  0  0  0  0  0  0  0  0  0  # atno 8009 bound_to 7997
  154.4162  140.1694  156.1852 H   0  0  0  0  0  0  0  0  0  0  0  0  # atno 8010 bound_to 7997
  140.6094  143.2383  151.5745 H   0  0  0  0  0  0  0  0  0  0  0  0  # atno 10167 bound_to 10162
  156.1724  130.6677  151.0198 H   0  0  0  0  0  0  0  0  0  0  0  0  # atno 10718 bound_to 10713
  153.2171  135.6876  153.8044 H   0  0  0  0  0  0  0  0  0  0  0  0  # atno 10763 bound_to 10752
  153.7256  135.3260  155.3276 H   0  0  0  0  0  0  0  0  0  0  0  0  # atno 10764 bound_to 10752
  154.8251  135.4623  154.1003 H   0  0  0  0  0  0  0  0  0  0  0  0  # atno 10765 bound_to 10752
  141.1642  133.6935  156.7470 H   0  0  0  0  0  0  0  0  0  0  0  0  # atno 11005 bound_to 11000
  144.9084  140.7728  143.5823 LP  0  0  0  0  0  0  0  0  0  0  0  0  # atno 17320 bound_to 7965
  145.2901  139.1887  143.4745 LP  0  0  0  0  0  0  0  0  0  0  0  0  # atno 17321 bound_to 7965
  139.5349  144.2808  152.1230 LP  0  0  0  0  0  0  0  0  0  0  0  0  # atno 17342 bound_to 10162
  140.2005  144.4663  150.6434 LP  0  0  0  0  0  0  0  0  0  0  0  0  # atno 17343 bound_to 10162
  157.6812  131.0837  150.7364 LP  0  0  0  0  0  0  0  0  0  0  0  0  # atno 17370 bound_to 10713
  156.7423  130.4743  149.5475 LP  0  0  0  0  0  0  0  0  0  0  0  0  # atno 17371 bound_to 10713
  140.2632  134.8450  157.3778 LP  0  0  0  0  0  0  0  0  0  0  0  0  # atno 17394 bound_to 11000
  140.1591  134.4751  155.7907 LP  0  0  0  0  0  0  0  0  0  0  0  0  # atno 17395 bound_to 11000

$$$$
