AV-unprocessed.smi:3314|AV-procd|sdf|12744|dock1
  -GOLD-   2272019 83D 1   1.00000     0.00000
 Structure written by MMmdl.
 37 38  0  0  0  0  0  0  0  0  3 V2000
  153.7115  140.8779  160.1338 C   0  0  0  0  0  0  0  0  0  0  0  0
  152.9148  141.9355  159.3997 C   0  0  0  0  0  0  0  0  0  0  0  0
  152.8426  143.2545  159.8862 C   0  0  0  0  0  0  0  0  0  0  0  0
  152.0883  144.1910  159.1530 C   0  0  0  0  0  0  0  0  0  0  0  0
  151.9697  145.6250  159.6241 C   0  0  0  0  0  0  0  0  0  0  0  0
  151.4309  143.8807  158.0144 N   0  0  0  0  0  0  0  0  0  0  0  0
  151.4869  142.6134  157.5400 C   0  0  0  0  0  0  0  0  0  0  0  0
  150.8371  142.3222  156.4041 N   0  5  0  0  0  0  0  0  0  0  0  0
  150.7654  141.0387  155.9753 C   0  0  0  0  0  0  0  0  0  0  0  0
  151.6248  140.3765  155.3897 O   0  0  0  0  0  0  0  0  0  0  0  0
  149.3969  140.4040  156.3119 C   0  0  1  0  0  0  0  0  0  0  0  0
  148.1775  141.2237  155.8269 C   0  0  0  0  0  0  0  0  0  0  0  0
  148.0693  141.1924  154.3488 N   0  3  2  0  0  0  0  0  0  0  0  0
  146.9592  142.0238  153.8386 C   0  0  0  0  0  0  0  0  0  0  0  0
  148.0156  139.7985  153.8536 C   0  0  0  0  0  0  0  0  0  0  0  0
  149.2314  139.0047  154.3585 C   0  0  0  0  0  0  0  0  0  0  0  0
  149.2924  139.0761  155.7825 O   0  0  0  0  0  0  0  0  0  0  0  0
  152.2304  141.6146  158.2104 C   0  0  0  0  0  0  0  0  0  0  0  0
  154.0596  141.2435  161.1002 H   0  0  0  0  0  0  0  0  0  0  0  0
  154.5805  140.5854  159.5445 H   0  0  0  0  0  0  0  0  0  0  0  0
  153.0979  139.9932  160.3055 H   0  0  0  0  0  0  0  0  0  0  0  0
  153.3514  143.5420  160.7945 H   0  0  0  0  0  0  0  0  0  0  0  0
  152.8718  145.9334  160.1532 H   0  0  0  0  0  0  0  0  0  0  0  0
  151.1219  145.7284  160.3013 H   0  0  0  0  0  0  0  0  0  0  0  0
  151.8228  146.3036  158.7829 H   0  0  0  0  0  0  0  0  0  0  0  0
  149.3418  140.3258  157.3987 H   0  0  0  0  0  0  0  0  0  0  0  0
  147.2648  140.8157  156.2641 H   0  0  0  0  0  0  0  0  0  0  0  0
  148.2508  142.2562  156.1722 H   0  0  0  0  0  0  0  0  0  0  0  0
  145.9967  141.6519  154.1926 H   0  0  0  0  0  0  0  0  0  0  0  0
  146.9480  142.0207  152.7484 H   0  0  0  0  0  0  0  0  0  0  0  0
  147.0713  143.0573  154.1676 H   0  0  0  0  0  0  0  0  0  0  0  0
  147.0928  139.3249  154.1924 H   0  0  0  0  0  0  0  0  0  0  0  0
  147.9976  139.7936  152.7631 H   0  0  0  0  0  0  0  0  0  0  0  0
  149.1403  137.9585  154.0664 H   0  0  0  0  0  0  0  0  0  0  0  0
  150.1524  139.3719  153.9038 H   0  0  0  0  0  0  0  0  0  0  0  0
  152.2725  140.6091  157.8166 H   0  0  0  0  0  0  0  0  0  0  0  0
  148.9248  141.5957  153.9924 H   0  0  0  0  0  0  0  0  0  0  0  0
  1  2  1  0  0  0  0
  1 19  1  0  0  0  0
  1 20  1  0  0  0  0
  1 21  1  0  0  0  0
  2 18  2  0  0  0  0
  2  3  1  0  0  0  0
  3  4  2  0  0  0  0
  3 22  1  0  0  0  0
  4  5  1  0  0  0  0
  4  6  1  0  0  0  0
  5 23  1  0  0  0  0
  5 24  1  0  0  0  0
  5 25  1  0  0  0  0
  6  7  2  0  0  0  0
  7  8  1  0  0  0  0
  7 18  1  0  0  0  0
  8  9  1  0  0  0  0
  9 10  2  0  0  0  0
  9 11  1  0  0  0  0
 11 17  1  0  0  0  0
 11 12  1  0  0  0  0
 11 26  1  0  0  0  0
 12 13  1  0  0  0  0
 12 27  1  0  0  0  0
 12 28  1  0  0  0  0
 13 14  1  0  0  0  0
 13 15  1  0  0  0  0
 13 37  1  0  0  0  0
 14 29  1  0  0  0  0
 14 30  1  0  0  0  0
 14 31  1  0  0  0  0
 15 16  1  0  0  0  0
 15 32  1  0  0  0  0
 15 33  1  0  0  0  0
 16 17  1  0  0  0  0
 16 34  1  0  0  0  0
 16 35  1  0  0  0  0
 18 36  1  0  0  0  0
M  CHG  1   8  -1
M  CHG  1  13   1
M  END
> <s_m_source_file>
AV-unprocessed.smi

> <i_m_source_file_index>
3314

> <i_lp_mmshare_version>
43012

> <i_f3d_flags>
0

> <s_epik_input>
W0NIM11jMVtjSF1jKFtDSDNdKW5jKFtjSF0xKVtOSF1DKD1PKVtDQEBIXTJbQ0gyXU4oW0NIM10pW0NIMl1bQ0gyXU8y

> <s_epik_cmdline>
J2VwaWtfcHl0aG9uJywgJy1waCcsICc3LjAnLCAnLXRuJywgJzgnLCAnLW1hJywgJzIwMCcsICctbWV0YWxfYmluZGluZycsICctaW1hZScsICc8aW5maWxlLm1hZT4nLCAnLW9tYWUnLCAnPG91dGZpbGUubWFlPic=

> <r_epik_Ionization_Penalty>
13.8964

> <r_epik_Ionization_Penalty_Charging>
7.88995

> <r_epik_Ionization_Penalty_Neutral>
6.00641

> <r_epik_State_Penalty>
8.39989

> <r_epik_Charging_Adjusted_Penalty>
16.2898

> <i_epik_Tot_Q>
0

> <i_epik_Tot_abs_Q>
2

> <r_epik_Metal_State_Penalty>
4.31145

> <b_epik_Metal_Only>
1

> <s_lp_Force_Field>
OPLS_2005

> <r_lp_Energy>
7.08315

> <b_lp_Chiralities_Consistent>
1

> <s_lp_Variant>
AV-unprocessed.smi:3314-14

> <Gold.Version>
5.8.1

> <Gold.Id.Protein>
6NUR|6NUR_protein|mol2

> <Gold.PLP.Fitness>
37.9629

> <Gold.PLP.PLP>
-37.5108

> <Gold.PLP.part.hbond>
-1.0000

> <Gold.PLP.part.metal>
0.0000

> <Gold.PLP.part.buried>
-6.1592

> <Gold.PLP.part.nonpolar>
-30.9358

> <Gold.PLP.part.repulsive>
0.3896

> <Gold.PLP.ligand.clash>
0.5864

> <Gold.PLP.ligand.torsion>
0.8022

> <Gold.PLP.Chemscore.Hbond>
0.8640

> <Gold.PLP.Chemscore.CHOScore>
0.0000

> <Gold.PLP.Chemscore.Metal>
0.0000

> <Gold.Chemscore.Hbonds>
donor molecule, donor type, donor heavy atom, donor atom, acceptor molecule, acceptor atom, score
      P1  H  7989  7998       L1    10  0.85

> <Gold.PLP.Chemscore.Internal.Correction>
0.0509

> <Gold.Rescore>
     Score         DG    S(hbond)    S(metal)    S(lipo)     H(rot)  DE(clash)    DE(int)     intcor
     14.44     -16.48       0.88        0.00      90.76       1.00       0.08       1.96       ----

> <Gold.Chemscore.Fitness>
14.4409

> <Gold.Chemscore.DG>
-16.4802

> <Gold.Chemscore.ZeroCoef>
-5.4800

> <Gold.Chemscore.Hbond>
0.8808

> <Gold.Chemscore.Metal>
0.0000

> <Gold.Chemscore.Lipo>
90.7556

> <Gold.Chemscore.Internal_Hbond>
0.0000

> <Gold.Chemscore.DEClash>
0.0752

> <Gold.Chemscore.DEInternal>
1.9641

> <Gold.Chemscore.Rot>
1.0000

> <Gold.Chemscore.Internal.Correction>
   9.000000E+99

> <Gold.Chemscore.Hbonds>
donor molecule, donor type, donor heavy atom, donor atom, acceptor molecule, acceptor atom, score
      P1  H  7989  7998       L1    10  0.58

> <Gold.Chemscore.Hbond.Weighted>
-2.9418

> <Gold.Chemscore.Metal.Weighted>
-0.0000

> <Gold.Chemscore.Lipo.Weighted>
-10.6184

> <Gold.Chemscore.Internal_Hbond.Weighted>
0.0000

> <Gold.Chemscore.DEClash.Weighted>
0.0752

> <Gold.Chemscore.DEInternal.Weighted>
1.9641

> <Gold.Chemscore.Rot.Weighted>
2.5600

> <Gold.Chemscore.Internal.Correction.Weighted>
   9.000000E+99

> <Gold.Protein.RotatedTorsions>
[ 6907 6896 6895 6894 ] final   70.22 input  -60.11 | X-H torsion
[ 7974 7965 7964 7962 ] final  -29.30 input  175.53 | X-H torsion
[ 8008 7997 7996 7995 ] final -156.88 input   59.86 | X-H torsion
[ 10167 10162 10161 10158 ] final  -50.40 input  -65.29 | X-H torsion
[ 10718 10713 10712 10709 ] final   -4.12 input   66.30 | X-H torsion
[ 10763 10752 10751 10750 ] final    0.44 input  -60.55 | X-H torsion
[ 11005 11000 10999 10996 ] final  -34.47 input  -57.11 | X-H torsion

> <Gold.Protein.ActiveResidues>
 VAL166  LYS551  ARG553  GLY616  TRP617  ASP618  TYR619  PRO620  LYS621  CYS622 
 ASP623  PHE694  ASN695  SER759  ASP760  ASP761  ALA762  ILE779  LEU786  VAL792 
 PHE793  MET794  SER795  GLU796  ALA797  LYS798  CYS799  TRP800  GLU811  SER814 

> <Gold.Protein.RotatedAtoms>
  152.4736  134.4900  159.9691 H   0  0  0  0  0  0  0  0  0  0  0  0  # atno 6907 bound_to 6896
  151.4921  133.3517  159.2863 H   0  0  0  0  0  0  0  0  0  0  0  0  # atno 6908 bound_to 6896
  150.8760  134.8171  159.7252 H   0  0  0  0  0  0  0  0  0  0  0  0  # atno 6909 bound_to 6896
  146.1226  140.5395  142.8729 H   0  0  0  0  0  0  0  0  0  0  0  0  # atno 7974 bound_to 7965
  155.7240  140.0793  157.2318 H   0  0  0  0  0  0  0  0  0  0  0  0  # atno 8008 bound_to 7997
  154.4041  140.1607  156.2488 H   0  0  0  0  0  0  0  0  0  0  0  0  # atno 8009 bound_to 7997
  155.9170  140.3400  155.6146 H   0  0  0  0  0  0  0  0  0  0  0  0  # atno 8010 bound_to 7997
  140.6639  143.2659  151.4354 H   0  0  0  0  0  0  0  0  0  0  0  0  # atno 10167 bound_to 10162
  156.7660  130.5285  149.5776 H   0  0  0  0  0  0  0  0  0  0  0  0  # atno 10718 bound_to 10713
  153.3206  135.6969  153.7034 H   0  0  0  0  0  0  0  0  0  0  0  0  # atno 10763 bound_to 10752
  153.5875  135.3486  155.2899 H   0  0  0  0  0  0  0  0  0  0  0  0  # atno 10764 bound_to 10752
  154.8597  135.4310  154.2369 H   0  0  0  0  0  0  0  0  0  0  0  0  # atno 10765 bound_to 10752
  140.9718  133.7105  156.1537 H   0  0  0  0  0  0  0  0  0  0  0  0  # atno 11005 bound_to 11000
  144.7611  140.5425  143.6734 LP  0  0  0  0  0  0  0  0  0  0  0  0  # atno 17320 bound_to 7965
  145.5434  139.1475  143.3434 LP  0  0  0  0  0  0  0  0  0  0  0  0  # atno 17321 bound_to 7965
  139.5881  144.1559  152.2055 LP  0  0  0  0  0  0  0  0  0  0  0  0  # atno 17342 bound_to 10162
  140.0905  144.5625  150.7058 LP  0  0  0  0  0  0  0  0  0  0  0  0  # atno 17343 bound_to 10162
  156.1308  130.6177  151.0331 LP  0  0  0  0  0  0  0  0  0  0  0  0  # atno 17370 bound_to 10713
  157.6713  131.0861  150.7606 LP  0  0  0  0  0  0  0  0  0  0  0  0  # atno 17371 bound_to 10713
  140.7317  134.4247  157.5565 LP  0  0  0  0  0  0  0  0  0  0  0  0  # atno 17394 bound_to 11000
  139.8915  134.8777  156.2315 LP  0  0  0  0  0  0  0  0  0  0  0  0  # atno 17395 bound_to 11000

$$$$
