AV-unprocessed.smi:270|AV-procd|sdf|2047|dock7
  -GOLD-   2262021273D 1   1.00000     0.00000
 Structure written by MMmdl.
 54 57  0  0  0  0  0  0  0  0  1 V2000
  151.5308  139.4781  158.4031 C   0  0  0  0  0  0  0  0  0  0  0  0
  152.1200  140.8888  158.2397 C   0  0  2  0  0  0  0  0  0  0  0  0
  152.8327  141.2775  159.4137 O   0  0  0  0  0  0  0  0  0  0  0  0
  152.2979  142.4873  159.9319 C   0  0  0  0  0  0  0  0  0  0  0  0
  151.7017  143.1862  158.7171 C   0  0  0  0  0  0  0  0  0  0  0  0
  151.1190  142.0250  157.9236 C   0  0  2  0  0  0  0  0  0  0  0  0
  149.8340  141.7280  158.4474 O   0  0  0  0  0  0  0  0  0  0  0  0
  150.9810  142.3044  156.4083 C   0  0  0  0  0  0  0  0  0  0  0  0
  150.3146  141.2342  155.6828 N   0  0  0  0  0  0  0  0  0  0  0  0
  150.7527  139.9376  155.5392 C   0  0  0  0  0  0  0  0  0  0  0  0
  149.9750  139.1637  154.8330 N   0  0  0  0  0  0  0  0  0  0  0  0
  148.9148  139.9848  154.4647 C   0  0  0  0  0  0  0  0  0  0  0  0
  147.7311  139.7824  153.6958 C   0  0  0  0  0  0  0  0  0  0  0  0
  147.3676  138.5411  153.0971 N   0  0  0  0  0  0  0  0  0  0  0  0
  146.8229  138.6153  151.7493 C   0  0  0  0  0  0  0  0  0  0  0  0
  145.7596  137.6102  152.2027 C   0  0  0  0  0  0  0  0  0  0  0  0
  146.0046  136.2793  151.7754 O   0  0  0  0  0  0  0  0  0  0  0  0
  144.9552  135.3886  152.1199 C   0  0  0  0  0  0  0  0  0  0  0  0
  144.9626  134.2093  151.1399 C   0  0  0  0  0  0  0  0  0  0  0  0
  144.1200  134.1928  150.2415 O   0  0  0  0  0  0  0  0  0  0  0  0
  145.8880  133.2319  151.2850 N   0  0  0  0  0  0  0  0  0  0  0  0
  146.9034  133.2399  152.3428 C   0  0  0  0  0  0  0  0  0  0  0  0
  145.9154  132.0966  150.3588 C   0  0  0  0  0  0  0  0  0  0  0  0
  146.2107  137.8423  153.6452 C   0  0  0  0  0  0  0  0  0  0  0  0
  146.8975  140.8519  153.5849 N   0  0  0  0  0  0  0  0  0  0  0  0
  147.2007  142.0273  154.1429 C   0  0  0  0  0  0  0  0  0  0  0  0
  148.2736  142.3549  154.8627 N   0  0  0  0  0  0  0  0  0  0  0  0
  149.1102  141.2890  155.0034 C   0  0  0  0  0  0  0  0  0  0  0  0
  150.9706  139.1821  157.5159 H   0  0  0  0  0  0  0  0  0  0  0  0
  150.8612  139.4188  159.2615 H   0  0  0  0  0  0  0  0  0  0  0  0
  152.3224  138.7442  158.5557 H   0  0  0  0  0  0  0  0  0  0  0  0
  152.8693  140.8508  157.4477 H   0  0  0  0  0  0  0  0  0  0  0  0
  151.5213  142.2515  160.6610 H   0  0  0  0  0  0  0  0  0  0  0  0
  153.0636  143.0829  160.4293 H   0  0  0  0  0  0  0  0  0  0  0  0
  150.9711  143.9530  158.9791 H   0  0  0  0  0  0  0  0  0  0  0  0
  152.5021  143.6657  158.1516 H   0  0  0  0  0  0  0  0  0  0  0  0
  149.1955  142.2600  157.9975 H   0  0  0  0  0  0  0  0  0  0  0  0
  150.4152  143.2224  156.2440 H   0  0  0  0  0  0  0  0  0  0  0  0
  151.9631  142.4682  155.9625 H   0  0  0  0  0  0  0  0  0  0  0  0
  151.6763  139.5829  155.9730 H   0  0  0  0  0  0  0  0  0  0  0  0
  146.4039  139.5913  151.4998 H   0  0  0  0  0  0  0  0  0  0  0  0
  147.5093  138.2454  150.9874 H   0  0  0  0  0  0  0  0  0  0  0  0
  144.7352  137.9433  152.0274 H   0  0  0  0  0  0  0  0  0  0  0  0
  145.1067  135.0185  153.1353 H   0  0  0  0  0  0  0  0  0  0  0  0
  143.9849  135.8859  152.1054 H   0  0  0  0  0  0  0  0  0  0  0  0
  147.5301  134.1293  152.2725 H   0  0  0  0  0  0  0  0  0  0  0  0
  147.5703  132.3792  152.2933 H   0  0  0  0  0  0  0  0  0  0  0  0
  146.4375  133.2237  153.3287 H   0  0  0  0  0  0  0  0  0  0  0  0
  144.9630  131.5648  150.3776 H   0  0  0  0  0  0  0  0  0  0  0  0
  146.6942  131.3712  150.5938 H   0  0  0  0  0  0  0  0  0  0  0  0
  146.0905  132.4412  149.3385 H   0  0  0  0  0  0  0  0  0  0  0  0
  146.4704  136.9336  154.1890 H   0  0  0  0  0  0  0  0  0  0  0  0
  145.5198  138.4788  154.2000 H   0  0  0  0  0  0  0  0  0  0  0  0
  146.4806  142.8177  153.9900 H   0  0  0  0  0  0  0  0  0  0  0  0
  1  2  1  0  0  0  0
  1 29  1  0  0  0  0
  1 30  1  0  0  0  0
  1 31  1  0  0  0  0
  2  6  1  0  0  0  0
  2  3  1  0  0  0  0
  2 32  1  0  0  0  0
  3  4  1  0  0  0  0
  4  5  1  0  0  0  0
  4 33  1  0  0  0  0
  4 34  1  0  0  0  0
  5  6  1  0  0  0  0
  5 35  1  0  0  0  0
  5 36  1  0  0  0  0
  6  7  1  0  0  0  0
  6  8  1  0  0  0  0
  7 37  1  0  0  0  0
  8  9  1  0  0  0  0
  8 38  1  0  0  0  0
  8 39  1  0  0  0  0
  9 28  1  0  0  0  0
  9 10  1  0  0  0  0
 10 11  2  0  0  0  0
 10 40  1  0  0  0  0
 11 12  1  0  0  0  0
 12 28  2  0  0  0  0
 12 13  1  0  0  0  0
 13 14  1  0  0  0  0
 13 25  2  0  0  0  0
 14 24  1  0  0  0  0
 14 15  1  0  0  0  0
 15 16  1  0  0  0  0
 15 41  1  0  0  0  0
 15 42  1  0  0  0  0
 16 17  1  0  0  0  0
 16 24  1  0  0  0  0
 16 43  1  0  0  0  0
 17 18  1  0  0  0  0
 18 19  1  0  0  0  0
 18 44  1  0  0  0  0
 18 45  1  0  0  0  0
 19 20  2  0  0  0  0
 19 21  1  0  0  0  0
 21 22  1  0  0  0  0
 21 23  1  0  0  0  0
 22 46  1  0  0  0  0
 22 47  1  0  0  0  0
 22 48  1  0  0  0  0
 23 49  1  0  0  0  0
 23 50  1  0  0  0  0
 23 51  1  0  0  0  0
 24 52  1  0  0  0  0
 24 53  1  0  0  0  0
 25 26  1  0  0  0  0
 26 27  2  0  0  0  0
 26 54  1  0  0  0  0
 27 28  1  0  0  0  0
M  END
> <s_m_source_file>
AV-unprocessed.smi

> <i_m_source_file_index>
270

> <i_lp_mmshare_version>
43012

> <i_f3d_flags>
0

> <s_epik_input>
W0NIMl0xW0NIMl1PW0NAQEhdKFtDSDNdKVtDQEBdMShbT0hdKVtDSDJdbihbY0hdbjIpYyhjMjMpbltjSF1uYzNONFtDSDJdW0NIXShbQ0gyXTQpT1tDSDJdQyg9TylOKFtDSDNdKVtDSDNd

> <s_epik_cmdline>
J2VwaWtfcHl0aG9uJywgJy1waCcsICc3LjAnLCAnLXRuJywgJzgnLCAnLW1hJywgJzIwMCcsICctbWV0YWxfYmluZGluZycsICctaW1hZScsICc8aW5maWxlLm1hZT4nLCAnLW9tYWUnLCAnPG91dGZpbGUubWFlPic=

> <r_lp_tautomer_probability>
1

> <r_epik_Ionization_Penalty>
0.00375854

> <r_epik_Ionization_Penalty_Charging>
0

> <r_epik_Ionization_Penalty_Neutral>
0.00375854

> <r_epik_State_Penalty>
-0

> <r_epik_Charging_Adjusted_Penalty>
0

> <i_epik_Tot_Q>
0

> <i_epik_Tot_abs_Q>
0

> <r_epik_Metal_State_Penalty>
-0

> <b_epik_Metal_Only>
0

> <s_lp_Force_Field>
OPLS_2005

> <r_lp_Energy>
53.9225

> <b_lp_Chiralities_Consistent>
1

> <s_lp_Variant>
AV-unprocessed.smi:270-3

> <Gold.Version>
5.8.1

> <Gold.Id.Protein>
6NUR|6NUR_protein|mol2

> <Gold.PLP.Fitness>
43.9362

> <Gold.PLP.PLP>
-45.3642

> <Gold.PLP.part.hbond>
0.0000

> <Gold.PLP.part.metal>
0.0000

> <Gold.PLP.part.buried>
-6.6957

> <Gold.PLP.part.nonpolar>
-45.2461

> <Gold.PLP.part.repulsive>
6.4939

> <Gold.PLP.ligand.clash>
0.0000

> <Gold.PLP.ligand.torsion>
0.8625

> <Gold.PLP.Chemscore.Hbond>
0.0000

> <Gold.PLP.Chemscore.CHOScore>
0.0000

> <Gold.PLP.Chemscore.Metal>
0.0000

> <Gold.PLP.Chemscore.Internal.Correction>
0.2969

> <Gold.Rescore>
     Score         DG    S(hbond)    S(metal)    S(lipo)     H(rot)  DE(clash)    DE(int)     intcor
      5.82      -8.64       0.00        0.00      95.38       3.12       1.80       1.01       ----

> <Gold.Chemscore.Fitness>
5.8245

> <Gold.Chemscore.DG>
-8.6437

> <Gold.Chemscore.ZeroCoef>
-5.4800

> <Gold.Chemscore.Hbond>
0.0000

> <Gold.Chemscore.Metal>
0.0000

> <Gold.Chemscore.Lipo>
95.3811

> <Gold.Chemscore.Internal_Hbond>
0.0000

> <Gold.Chemscore.DEClash>
1.8045

> <Gold.Chemscore.DEInternal>
1.0147

> <Gold.Chemscore.Rot>
3.1234

> <Gold.Chemscore.Internal.Correction>
   9.000000E+99

> <Gold.Chemscore.Hbond.Weighted>
-0.0000

> <Gold.Chemscore.Metal.Weighted>
-0.0000

> <Gold.Chemscore.Lipo.Weighted>
-11.1596

> <Gold.Chemscore.Internal_Hbond.Weighted>
0.0000

> <Gold.Chemscore.DEClash.Weighted>
1.8045

> <Gold.Chemscore.DEInternal.Weighted>
1.0147

> <Gold.Chemscore.Rot.Weighted>
7.9959

> <Gold.Chemscore.Internal.Correction.Weighted>
   9.000000E+99

> <Gold.Protein.RotatedTorsions>
[ 6907 6896 6895 6894 ] final   51.06 input  -60.11 | X-H torsion
[ 7974 7965 7964 7962 ] final   77.34 input  175.53 | X-H torsion
[ 8008 7997 7996 7995 ] final  144.69 input   59.86 | X-H torsion
[ 10167 10162 10161 10158 ] final -139.23 input  -65.29 | X-H torsion
[ 10718 10713 10712 10709 ] final  110.65 input   66.30 | X-H torsion
[ 10763 10752 10751 10750 ] final  147.00 input  -60.55 | X-H torsion
[ 11005 11000 10999 10996 ] final -146.99 input  -57.11 | X-H torsion

> <Gold.Protein.ActiveResidues>
 VAL166  LYS551  ARG553  GLY616  TRP617  ASP618  TYR619  PRO620  LYS621  CYS622 
 ASP623  PHE694  ASN695  SER759  ASP760  ASP761  ALA762  ILE779  LEU786  VAL792 
 PHE793  MET794  SER795  GLU796  ALA797  LYS798  CYS799  TRP800  GLU811  SER814 

> <Gold.Protein.RotatedAtoms>
  152.3086  134.7525  160.0341 H   0  0  0  0  0  0  0  0  0  0  0  0  # atno 6907 bound_to 6896
  151.8013  133.3365  159.3536 H   0  0  0  0  0  0  0  0  0  0  0  0  # atno 6908 bound_to 6896
  150.7309  134.5681  159.5920 H   0  0  0  0  0  0  0  0  0  0  0  0  # atno 6909 bound_to 6896
  145.6913  139.2553  143.1758 H   0  0  0  0  0  0  0  0  0  0  0  0  # atno 7974 bound_to 7965
  156.2902  140.2229  156.5094 H   0  0  0  0  0  0  0  0  0  0  0  0  # atno 8008 bound_to 7997
  154.7621  140.0472  157.1004 H   0  0  0  0  0  0  0  0  0  0  0  0  # atno 8009 bound_to 7997
  154.9978  140.3098  155.4883 H   0  0  0  0  0  0  0  0  0  0  0  0  # atno 8010 bound_to 7997
  139.8400  143.7334  152.2663 H   0  0  0  0  0  0  0  0  0  0  0  0  # atno 10167 bound_to 10162
  157.6484  131.0936  150.6632 H   0  0  0  0  0  0  0  0  0  0  0  0  # atno 10718 bound_to 10713
  154.0311  135.2897  155.3368 H   0  0  0  0  0  0  0  0  0  0  0  0  # atno 10763 bound_to 10752
  154.6988  135.5197  153.8499 H   0  0  0  0  0  0  0  0  0  0  0  0  # atno 10764 bound_to 10752
  153.0640  135.6624  154.0523 H   0  0  0  0  0  0  0  0  0  0  0  0  # atno 10765 bound_to 10752
  140.7763  134.3131  157.5059 H   0  0  0  0  0  0  0  0  0  0  0  0  # atno 11005 bound_to 11000
  146.0879  140.7690  142.9610 LP  0  0  0  0  0  0  0  0  0  0  0  0  # atno 17320 bound_to 7965
  144.6996  140.3591  143.7167 LP  0  0  0  0  0  0  0  0  0  0  0  0  # atno 17321 bound_to 7965
  139.7568  144.7518  151.0423 LP  0  0  0  0  0  0  0  0  0  0  0  0  # atno 17342 bound_to 10162
  140.7799  143.4796  151.0036 LP  0  0  0  0  0  0  0  0  0  0  0  0  # atno 17343 bound_to 10162
  156.6947  130.4605  149.5590 LP  0  0  0  0  0  0  0  0  0  0  0  0  # atno 17370 bound_to 10713
  156.1837  130.6515  151.0981 LP  0  0  0  0  0  0  0  0  0  0  0  0  # atno 17371 bound_to 10713
  139.8748  134.9291  156.3468 LP  0  0  0  0  0  0  0  0  0  0  0  0  # atno 17394 bound_to 11000
  140.9526  133.7441  156.0292 LP  0  0  0  0  0  0  0  0  0  0  0  0  # atno 17395 bound_to 11000

$$$$
