AV-unprocessed.smi:1898|AV-procd|sdf|7703|dock1
  -GOLD-   22720 9443D 1   1.00000     0.00000
 Structure written by MMmdl.
 46 47  0  0  0  0  0  0  0  0  3 V2000
  152.8189  143.1740  160.6917 C   0  0  0  0  0  0  0  0  0  0  0  0
  152.0521  143.0867  159.4546 N   0  5  0  0  0  0  0  0  0  0  0  0
  151.8030  141.9167  158.8079 C   0  0  0  0  0  0  0  0  0  0  0  0
  152.0360  140.7486  159.1364 O   0  0  0  0  0  0  0  0  0  0  0  0
  151.0934  142.1629  157.4717 C   0  0  0  0  0  0  0  0  0  0  0  0
  150.7950  140.8684  156.8107 N   0  3  2  0  0  0  0  0  0  0  0  0
  151.8692  140.4485  155.8760 C   0  0  0  0  0  0  0  0  0  0  0  0
  151.6070  139.0354  155.3292 C   0  0  0  0  0  0  0  0  0  0  0  0
  150.2337  138.9480  154.6440 C   0  0  1  0  0  0  0  0  0  0  0  0
  149.9755  137.5728  154.2271 N   0  0  0  0  0  0  0  0  0  0  0  0
  150.0525  136.4961  155.0220 C   0  0  0  0  0  0  0  0  0  0  0  0
  150.3324  136.5577  156.2185 O   0  0  0  0  0  0  0  0  0  0  0  0
  149.7771  135.3722  154.3382 N   0  0  0  0  0  0  0  0  0  0  0  0
  149.7637  134.0206  154.7858 C   0  0  0  0  0  0  0  0  0  0  0  0
  150.5953  133.5134  155.8146 C   0  0  0  0  0  0  0  0  0  0  0  0
  150.5027  132.1525  156.1600 C   0  0  0  0  0  0  0  0  0  0  0  0
  149.5871  131.3441  155.4625 C   0  0  0  0  0  0  0  0  0  0  0  0
  148.7963  131.8090  154.4742 N   0  0  0  0  0  0  0  0  0  0  0  0
  148.8840  133.1206  154.1387 C   0  0  0  0  0  0  0  0  0  0  0  0
  148.0772  133.5926  153.1205 O   0  0  0  0  0  0  0  0  0  0  0  0
  147.1768  132.6873  152.4911 C   0  0  0  0  0  0  0  0  0  0  0  0
  149.1409  139.4353  155.6130 C   0  0  0  0  0  0  0  0  0  0  0  0
  149.4598  140.8380  156.1553 C   0  0  0  0  0  0  0  0  0  0  0  0
  152.9318  144.2045  161.0272 H   0  0  0  0  0  0  0  0  0  0  0  0
  153.8266  142.7707  160.5872 H   0  0  0  0  0  0  0  0  0  0  0  0
  152.3458  142.6328  161.5116 H   0  0  0  0  0  0  0  0  0  0  0  0
  150.1851  142.7612  157.5741 H   0  0  0  0  0  0  0  0  0  0  0  0
  151.7778  142.7481  156.8558 H   0  0  0  0  0  0  0  0  0  0  0  0
  151.9402  141.1654  155.0564 H   0  0  0  0  0  0  0  0  0  0  0  0
  152.8307  140.4577  156.3909 H   0  0  0  0  0  0  0  0  0  0  0  0
  152.3943  138.7613  154.6259 H   0  0  0  0  0  0  0  0  0  0  0  0
  151.6601  138.3167  156.1487 H   0  0  0  0  0  0  0  0  0  0  0  0
  150.2477  139.5962  153.7653 H   0  0  0  0  0  0  0  0  0  0  0  0
  149.7321  137.4289  153.2579 H   0  0  0  0  0  0  0  0  0  0  0  0
  149.5086  135.4996  153.3734 H   0  0  0  0  0  0  0  0  0  0  0  0
  151.3092  134.1276  156.3391 H   0  0  0  0  0  0  0  0  0  0  0  0
  151.1233  131.7375  156.9403 H   0  0  0  0  0  0  0  0  0  0  0  0
  149.4903  130.2951  155.7009 H   0  0  0  0  0  0  0  0  0  0  0  0
  146.6221  133.2130  151.7142 H   0  0  0  0  0  0  0  0  0  0  0  0
  146.4518  132.2860  153.2007 H   0  0  0  0  0  0  0  0  0  0  0  0
  147.7084  131.8617  152.0157 H   0  0  0  0  0  0  0  0  0  0  0  0
  148.1718  139.4489  155.1127 H   0  0  0  0  0  0  0  0  0  0  0  0
  149.0477  138.7392  156.4481 H   0  0  0  0  0  0  0  0  0  0  0  0
  148.6831  141.1267  156.8638 H   0  0  0  0  0  0  0  0  0  0  0  0
  149.4336  141.5689  155.3457 H   0  0  0  0  0  0  0  0  0  0  0  0
  150.7760  140.1819  157.5513 H   0  0  0  0  0  0  0  0  0  0  0  0
  1  2  1  0  0  0  0
  1 24  1  0  0  0  0
  1 25  1  0  0  0  0
  1 26  1  0  0  0  0
  2  3  1  0  0  0  0
  3  4  2  0  0  0  0
  3  5  1  0  0  0  0
  5  6  1  0  0  0  0
  5 27  1  0  0  0  0
  5 28  1  0  0  0  0
  6 23  1  0  0  0  0
  6  7  1  0  0  0  0
  6 46  1  0  0  0  0
  7  8  1  0  0  0  0
  7 29  1  0  0  0  0
  7 30  1  0  0  0  0
  8  9  1  0  0  0  0
  8 31  1  0  0  0  0
  8 32  1  0  0  0  0
  9 10  1  0  0  0  0
  9 22  1  0  0  0  0
  9 33  1  0  0  0  0
 10 11  1  0  0  0  0
 10 34  1  0  0  0  0
 11 12  2  0  0  0  0
 11 13  1  0  0  0  0
 13 14  1  0  0  0  0
 13 35  1  0  0  0  0
 14 19  1  0  0  0  0
 14 15  2  0  0  0  0
 15 16  1  0  0  0  0
 15 36  1  0  0  0  0
 16 17  2  0  0  0  0
 16 37  1  0  0  0  0
 17 18  1  0  0  0  0
 17 38  1  0  0  0  0
 18 19  2  0  0  0  0
 19 20  1  0  0  0  0
 20 21  1  0  0  0  0
 21 39  1  0  0  0  0
 21 40  1  0  0  0  0
 21 41  1  0  0  0  0
 22 23  1  0  0  0  0
 22 42  1  0  0  0  0
 22 43  1  0  0  0  0
 23 44  1  0  0  0  0
 23 45  1  0  0  0  0
M  CHG  1   2  -1
M  CHG  1   6   1
M  END
> <s_m_source_file>
AV-unprocessed.smi

> <i_m_source_file_index>
1898

> <i_lp_mmshare_version>
43012

> <i_f3d_flags>
0

> <s_epik_input>
W0NIM11bTkhdQyg9TylbQ0gyXU4xW0NIMl1bQ0gyXVtDSF0oW0NIMl1bQ0gyXTEpW05IXUMoPU8pW05IXWMyW2NIXVtjSF1bY0hdbmMyT1tDSDNd

> <s_epik_cmdline>
J2VwaWtfcHl0aG9uJywgJy1waCcsICc3LjAnLCAnLXRuJywgJzgnLCAnLW1hJywgJzIwMCcsICctbWV0YWxfYmluZGluZycsICctaW1hZScsICc8aW5maWxlLm1hZT4nLCAnLW9tYWUnLCAnPG91dGZpbGUubWFlPic=

> <r_lp_tautomer_probability>
1

> <r_epik_Ionization_Penalty>
6.13954

> <r_epik_Ionization_Penalty_Charging>
6.13946

> <r_epik_Ionization_Penalty_Neutral>
7.84403e-05

> <r_epik_State_Penalty>
6.9595

> <r_epik_Charging_Adjusted_Penalty>
13.099

> <i_epik_Tot_Q>
0

> <i_epik_Tot_abs_Q>
2

> <r_epik_Metal_State_Penalty>
2.89145

> <b_epik_Metal_Only>
1

> <s_lp_Force_Field>
OPLS_2005

> <r_lp_Energy>
12.3689

> <b_lp_Chiralities_Consistent>
1

> <s_lp_Variant>
AV-unprocessed.smi:1898-4

> <Gold.Version>
5.8.1

> <Gold.Id.Protein>
6NUR|6NUR_protein|mol2

> <Gold.PLP.Fitness>
39.7558

> <Gold.PLP.PLP>
-35.5894

> <Gold.PLP.part.hbond>
-2.3504

> <Gold.PLP.part.metal>
0.0000

> <Gold.PLP.part.buried>
-6.3877

> <Gold.PLP.part.nonpolar>
-27.5580

> <Gold.PLP.part.repulsive>
0.7937

> <Gold.PLP.ligand.clash>
0.0000

> <Gold.PLP.ligand.torsion>
0.7550

> <Gold.PLP.Chemscore.Hbond>
1.8500

> <Gold.PLP.Chemscore.CHOScore>
0.0000

> <Gold.PLP.Chemscore.Metal>
0.0000

> <Gold.Chemscore.Hbonds>
donor molecule, donor type, donor heavy atom, donor atom, acceptor molecule, acceptor atom, score
      L1  H    10    34       P1  7948  0.98
      L1  H    13    35       P1  7948  0.75

> <Gold.PLP.Chemscore.Internal.Correction>
0.1264

> <Gold.Rescore>
     Score         DG    S(hbond)    S(metal)    S(lipo)     H(rot)  DE(clash)    DE(int)     intcor
     12.11     -14.59       1.72        0.00      70.81       1.93       0.61       1.87       ----

> <Gold.Chemscore.Fitness>
12.1095

> <Gold.Chemscore.DG>
-14.5859

> <Gold.Chemscore.ZeroCoef>
-5.4800

> <Gold.Chemscore.Hbond>
1.7238

> <Gold.Chemscore.Metal>
0.0000

> <Gold.Chemscore.Lipo>
70.8116

> <Gold.Chemscore.Internal_Hbond>
0.0000

> <Gold.Chemscore.DEClash>
0.6063

> <Gold.Chemscore.DEInternal>
1.8702

> <Gold.Chemscore.Rot>
1.9283

> <Gold.Chemscore.Internal.Correction>
   9.000000E+99

> <Gold.Chemscore.Hbonds>
donor molecule, donor type, donor heavy atom, donor atom, acceptor molecule, acceptor atom, score
      L1  H    10    34       P1  7948  0.60
      L1  H    13    35       P1  7948  0.09

> <Gold.Chemscore.Hbond.Weighted>
-5.7575

> <Gold.Chemscore.Metal.Weighted>
-0.0000

> <Gold.Chemscore.Lipo.Weighted>
-8.2850

> <Gold.Chemscore.Internal_Hbond.Weighted>
0.0000

> <Gold.Chemscore.DEClash.Weighted>
0.6063

> <Gold.Chemscore.DEInternal.Weighted>
1.8702

> <Gold.Chemscore.Rot.Weighted>
4.9365

> <Gold.Chemscore.Internal.Correction.Weighted>
   9.000000E+99

> <Gold.Protein.RotatedTorsions>
[ 6907 6896 6895 6894 ] final -137.23 input  -60.11 | X-H torsion
[ 7974 7965 7964 7962 ] final  135.78 input  175.53 | X-H torsion
[ 8008 7997 7996 7995 ] final  161.14 input   59.86 | X-H torsion
[ 10167 10162 10161 10158 ] final -131.63 input  -65.29 | X-H torsion
[ 10718 10713 10712 10709 ] final -179.68 input   66.30 | X-H torsion
[ 10763 10752 10751 10750 ] final   75.09 input  -60.55 | X-H torsion
[ 11005 11000 10999 10996 ] final   69.02 input  -57.11 | X-H torsion

> <Gold.Protein.ActiveResidues>
 VAL166  LYS551  ARG553  GLY616  TRP617  ASP618  TYR619  PRO620  LYS621  CYS622 
 ASP623  PHE694  ASN695  SER759  ASP760  ASP761  ALA762  ILE779  LEU786  VAL792 
 PHE793  MET794  SER795  GLU796  ALA797  LYS798  CYS799  TRP800  GLU811  SER814 

> <Gold.Protein.RotatedAtoms>
  151.0199  133.5886  159.2672 H   0  0  0  0  0  0  0  0  0  0  0  0  # atno 6907 bound_to 6896
  151.3006  135.0767  159.9247 H   0  0  0  0  0  0  0  0  0  0  0  0  # atno 6908 bound_to 6896
  152.5320  133.9882  159.7892 H   0  0  0  0  0  0  0  0  0  0  0  0  # atno 6909 bound_to 6896
  144.9629  139.4690  143.5470 H   0  0  0  0  0  0  0  0  0  0  0  0  # atno 7974 bound_to 7965
  156.2124  140.1785  156.7665 H   0  0  0  0  0  0  0  0  0  0  0  0  # atno 8008 bound_to 7997
  154.5742  140.0677  156.9038 H   0  0  0  0  0  0  0  0  0  0  0  0  # atno 8009 bound_to 7997
  155.2619  140.3336  155.4275 H   0  0  0  0  0  0  0  0  0  0  0  0  # atno 8010 bound_to 7997
  139.9170  143.6427  152.2562 H   0  0  0  0  0  0  0  0  0  0  0  0  # atno 10167 bound_to 10162
  156.8627  130.9757  151.3082 H   0  0  0  0  0  0  0  0  0  0  0  0  # atno 10718 bound_to 10713
  153.0631  135.5001  154.8139 H   0  0  0  0  0  0  0  0  0  0  0  0  # atno 10763 bound_to 10752
  154.6913  135.2985  154.9477 H   0  0  0  0  0  0  0  0  0  0  0  0  # atno 10764 bound_to 10752
  154.0231  135.6739  153.4827 H   0  0  0  0  0  0  0  0  0  0  0  0  # atno 10765 bound_to 10752
  139.9677  134.6952  156.0510 H   0  0  0  0  0  0  0  0  0  0  0  0  # atno 11005 bound_to 11000
  146.3359  139.8791  142.8827 LP  0  0  0  0  0  0  0  0  0  0  0  0  # atno 17320 bound_to 7965
  145.2672  141.0097  143.3792 LP  0  0  0  0  0  0  0  0  0  0  0  0  # atno 17321 bound_to 7965
  139.6894  144.7648  151.1465 LP  0  0  0  0  0  0  0  0  0  0  0  0  # atno 17342 bound_to 10162
  140.7672  143.5611  150.9098 LP  0  0  0  0  0  0  0  0  0  0  0  0  # atno 17343 bound_to 10162
  157.6241  130.8678  149.9159 LP  0  0  0  0  0  0  0  0  0  0  0  0  # atno 17370 bound_to 10713
  156.0768  130.3678  150.0661 LP  0  0  0  0  0  0  0  0  0  0  0  0  # atno 17371 bound_to 10713
  141.1357  133.6575  156.3588 LP  0  0  0  0  0  0  0  0  0  0  0  0  # atno 17394 bound_to 11000
  140.5360  134.6167  157.5365 LP  0  0  0  0  0  0  0  0  0  0  0  0  # atno 17395 bound_to 11000

$$$$
