AV-unprocessed.smi:2311|AV-procd|sdf|9261|dock5
  -GOLD-   2272012483D 1   1.00000     0.00000
 Structure written by MMmdl.
 40 41  0  0  0  0  0  0  0  0  1 V2000
  141.6573  134.4349  152.6346 C   0  0  0  0  0  0  0  0  0  0  0  0
  143.0502  134.3516  152.0466 C   0  0  0  0  0  0  0  0  0  0  0  0
  143.4000  133.3190  151.1545 C   0  0  0  0  0  0  0  0  0  0  0  0
  144.7114  133.2978  150.6468 C   0  0  0  0  0  0  0  0  0  0  0  0
  145.6126  134.3020  151.0498 C   0  0  0  0  0  0  0  0  0  0  0  0
  145.1817  135.3027  151.9498 C   0  0  0  0  0  0  0  0  0  0  0  0
  146.1654  136.2679  152.2936 N   0  0  0  0  0  0  0  0  0  0  0  0
  146.0097  137.3946  153.0116 C   0  0  0  0  0  0  0  0  0  0  0  0
  144.9508  137.7857  153.5037 O   0  0  0  0  0  0  0  0  0  0  0  0
  147.1699  138.0563  153.1338 N   0  0  0  0  0  0  0  0  0  0  0  0
  147.3488  139.3139  153.8544 C   0  0  2  0  0  0  0  0  0  0  0  0
  147.1915  140.4929  152.8869 C   0  0  0  0  0  0  0  0  0  0  0  0
  147.4926  141.8190  153.5982 C   0  0  0  0  0  0  0  0  0  0  0  0
  148.7971  141.7912  154.1745 O   0  0  0  0  0  0  0  0  0  0  0  0
  149.0428  140.7597  155.1365 C   0  0  0  0  0  0  0  0  0  0  0  0
  150.5410  140.8644  155.4662 C   0  0  0  0  0  0  0  0  0  0  0  0
  148.2297  141.0062  156.4257 C   0  0  0  0  0  0  0  0  0  0  0  0
  148.7427  139.3786  154.5053 C   0  0  0  0  0  0  0  0  0  0  0  0
  143.9144  135.3146  152.4334 N   0  0  0  0  0  0  0  0  0  0  0  0
  140.9849  133.7194  152.1606 H   0  0  0  0  0  0  0  0  0  0  0  0
  141.2429  135.4337  152.4950 H   0  0  0  0  0  0  0  0  0  0  0  0
  141.6857  134.2208  153.7032 H   0  0  0  0  0  0  0  0  0  0  0  0
  142.6855  132.5619  150.8659 H   0  0  0  0  0  0  0  0  0  0  0  0
  145.0220  132.5243  149.9599 H   0  0  0  0  0  0  0  0  0  0  0  0
  146.6237  134.2994  150.6691 H   0  0  0  0  0  0  0  0  0  0  0  0
  147.0966  136.0767  151.9553 H   0  0  0  0  0  0  0  0  0  0  0  0
  147.9906  137.6623  152.6980 H   0  0  0  0  0  0  0  0  0  0  0  0
  146.5792  139.3927  154.6238 H   0  0  0  0  0  0  0  0  0  0  0  0
  147.8738  140.3763  152.0435 H   0  0  0  0  0  0  0  0  0  0  0  0
  146.1825  140.5126  152.4731 H   0  0  0  0  0  0  0  0  0  0  0  0
  147.4520  142.6388  152.8809 H   0  0  0  0  0  0  0  0  0  0  0  0
  146.7381  142.0373  154.3537 H   0  0  0  0  0  0  0  0  0  0  0  0
  150.8431  140.1027  156.1859 H   0  0  0  0  0  0  0  0  0  0  0  0
  150.7846  141.8382  155.8925 H   0  0  0  0  0  0  0  0  0  0  0  0
  151.1536  140.7368  154.5732 H   0  0  0  0  0  0  0  0  0  0  0  0
  148.4921  140.2802  157.1959 H   0  0  0  0  0  0  0  0  0  0  0  0
  147.1549  140.9269  156.2692 H   0  0  0  0  0  0  0  0  0  0  0  0
  148.4285  141.9992  156.8297 H   0  0  0  0  0  0  0  0  0  0  0  0
  148.8487  138.5944  155.2563 H   0  0  0  0  0  0  0  0  0  0  0  0
  149.4915  139.1666  153.7403 H   0  0  0  0  0  0  0  0  0  0  0  0
  1  2  1  0  0  0  0
  1 20  1  0  0  0  0
  1 21  1  0  0  0  0
  1 22  1  0  0  0  0
  2 19  1  0  0  0  0
  2  3  2  0  0  0  0
  3  4  1  0  0  0  0
  3 23  1  0  0  0  0
  4  5  2  0  0  0  0
  4 24  1  0  0  0  0
  5  6  1  0  0  0  0
  5 25  1  0  0  0  0
  6  7  1  0  0  0  0
  6 19  2  0  0  0  0
  7  8  1  0  0  0  0
  7 26  1  0  0  0  0
  8  9  2  0  0  0  0
  8 10  1  0  0  0  0
 10 11  1  0  0  0  0
 10 27  1  0  0  0  0
 11 18  1  0  0  0  0
 11 12  1  0  0  0  0
 11 28  1  0  0  0  0
 12 13  1  0  0  0  0
 12 29  1  0  0  0  0
 12 30  1  0  0  0  0
 13 14  1  0  0  0  0
 13 31  1  0  0  0  0
 13 32  1  0  0  0  0
 14 15  1  0  0  0  0
 15 16  1  0  0  0  0
 15 17  1  0  0  0  0
 15 18  1  0  0  0  0
 16 33  1  0  0  0  0
 16 34  1  0  0  0  0
 16 35  1  0  0  0  0
 17 36  1  0  0  0  0
 17 37  1  0  0  0  0
 17 38  1  0  0  0  0
 18 39  1  0  0  0  0
 18 40  1  0  0  0  0
M  END
> <s_m_source_file>
AV-unprocessed.smi

> <i_m_source_file_index>
2311

> <i_lp_mmshare_version>
43012

> <i_f3d_flags>
0

> <s_epik_input>
W0NIM11jMVtjSF1bY0hdW2NIXWMobjEpW05IXUMoPU8pW05IXVtDQEBIXShbQ0gyXTIpW0NIMl1bQ0gyXU9DMihbQ0gzXSlbQ0gzXQ==

> <s_epik_cmdline>
J2VwaWtfcHl0aG9uJywgJy1waCcsICc3LjAnLCAnLXRuJywgJzgnLCAnLW1hJywgJzIwMCcsICctbWV0YWxfYmluZGluZycsICctaW1hZScsICc8aW5maWxlLm1hZT4nLCAnLW9tYWUnLCAnPG91dGZpbGUubWFlPic=

> <r_lp_tautomer_probability>
1

> <r_epik_Ionization_Penalty>
8.54628e-05

> <r_epik_Ionization_Penalty_Charging>
0

> <r_epik_Ionization_Penalty_Neutral>
8.54628e-05

> <r_epik_State_Penalty>
-0

> <r_epik_Charging_Adjusted_Penalty>
0

> <i_epik_Tot_Q>
0

> <i_epik_Tot_abs_Q>
0

> <r_epik_Metal_State_Penalty>
-0

> <b_epik_Metal_Only>
0

> <s_lp_Force_Field>
OPLS_2005

> <r_lp_Energy>
12.4956

> <b_lp_Chiralities_Consistent>
1

> <s_lp_Variant>
AV-unprocessed.smi:2311-1

> <Gold.Version>
5.8.1

> <Gold.Id.Protein>
6NUR|6NUR_protein|mol2

> <Gold.PLP.Fitness>
36.6695

> <Gold.PLP.PLP>
-30.3347

> <Gold.PLP.part.hbond>
-3.0000

> <Gold.PLP.part.metal>
0.0000

> <Gold.PLP.part.buried>
-3.0944

> <Gold.PLP.part.nonpolar>
-24.0892

> <Gold.PLP.part.repulsive>
0.5057

> <Gold.PLP.ligand.clash>
0.0000

> <Gold.PLP.ligand.torsion>
0.3768

> <Gold.PLP.Chemscore.Hbond>
2.3627

> <Gold.PLP.Chemscore.CHOScore>
0.0000

> <Gold.PLP.Chemscore.Metal>
0.0000

> <Gold.Chemscore.Hbonds>
donor molecule, donor type, donor heavy atom, donor atom, acceptor molecule, acceptor atom, score
      L1  H     7    26       P1  7948  1.00
      L1  H    10    27       P1  7948  1.00
      P1  H  8011  8017       L1    14  0.22

> <Gold.PLP.Chemscore.Internal.Correction>
0.0002

> <Gold.Rescore>
     Score         DG    S(hbond)    S(metal)    S(lipo)     H(rot)  DE(clash)    DE(int)     intcor
     16.43     -18.17       1.98        0.00      73.72       1.00       0.08       1.66       ----

> <Gold.Chemscore.Fitness>
16.4271

> <Gold.Chemscore.DG>
-18.1653

> <Gold.Chemscore.ZeroCoef>
-5.4800

> <Gold.Chemscore.Hbond>
1.9821

> <Gold.Chemscore.Metal>
0.0000

> <Gold.Chemscore.Lipo>
73.7197

> <Gold.Chemscore.Internal_Hbond>
0.0000

> <Gold.Chemscore.DEClash>
0.0751

> <Gold.Chemscore.DEInternal>
1.6631

> <Gold.Chemscore.Rot>
1.0000

> <Gold.Chemscore.Internal.Correction>
   9.000000E+99

> <Gold.Chemscore.Hbonds>
donor molecule, donor type, donor heavy atom, donor atom, acceptor molecule, acceptor atom, score
      L1  H     7    26       P1  7948  0.99
      L1  H    10    27       P1  7948  0.97
      P1  H  8011  8017       L1    14  0.02

> <Gold.Chemscore.Hbond.Weighted>
-6.6201

> <Gold.Chemscore.Metal.Weighted>
-0.0000

> <Gold.Chemscore.Lipo.Weighted>
-8.6252

> <Gold.Chemscore.Internal_Hbond.Weighted>
0.0000

> <Gold.Chemscore.DEClash.Weighted>
0.0751

> <Gold.Chemscore.DEInternal.Weighted>
1.6631

> <Gold.Chemscore.Rot.Weighted>
2.5600

> <Gold.Chemscore.Internal.Correction.Weighted>
   9.000000E+99

> <Gold.Protein.RotatedTorsions>
[ 6907 6896 6895 6894 ] final  -18.23 input  -60.11 | X-H torsion
[ 7974 7965 7964 7962 ] final -147.10 input  175.53 | X-H torsion
[ 8008 7997 7996 7995 ] final   72.04 input   59.86 | X-H torsion
[ 10167 10162 10161 10158 ] final  149.31 input  -65.29 | X-H torsion
[ 10718 10713 10712 10709 ] final  139.85 input   66.30 | X-H torsion
[ 10763 10752 10751 10750 ] final -124.57 input  -60.55 | X-H torsion
[ 11005 11000 10999 10996 ] final  -63.24 input  -57.11 | X-H torsion

> <Gold.Protein.ActiveResidues>
 VAL166  LYS551  ARG553  GLY616  TRP617  ASP618  TYR619  PRO620  LYS621  CYS622 
 ASP623  PHE694  ASN695  SER759  ASP760  ASP761  ALA762  ILE779  LEU786  VAL792 
 PHE793  MET794  SER795  GLU796  ALA797  LYS798  CYS799  TRP800  GLU811  SER814 

> <Gold.Protein.RotatedAtoms>
  151.2813  135.0715  159.9170 H   0  0  0  0  0  0  0  0  0  0  0  0  # atno 6907 bound_to 6896
  152.5333  134.0027  159.7912 H   0  0  0  0  0  0  0  0  0  0  0  0  # atno 6908 bound_to 6896
  151.0282  133.5764  159.2694 H   0  0  0  0  0  0  0  0  0  0  0  0  # atno 6909 bound_to 6896
  144.8115  140.5370  143.5639 H   0  0  0  0  0  0  0  0  0  0  0  0  # atno 7974 bound_to 7965
  155.7629  140.3486  155.5207 H   0  0  0  0  0  0  0  0  0  0  0  0  # atno 8008 bound_to 7997
  155.8896  140.1015  157.1449 H   0  0  0  0  0  0  0  0  0  0  0  0  # atno 8009 bound_to 7997
  154.4032  140.1307  156.4286 H   0  0  0  0  0  0  0  0  0  0  0  0  # atno 8010 bound_to 7997
  139.4863  144.5612  151.7228 H   0  0  0  0  0  0  0  0  0  0  0  0  # atno 10167 bound_to 10162
  157.4098  131.1026  151.0466 H   0  0  0  0  0  0  0  0  0  0  0  0  # atno 10718 bound_to 10713
  154.8725  135.4059  154.3128 H   0  0  0  0  0  0  0  0  0  0  0  0  # atno 10763 bound_to 10752
  153.3969  135.7017  153.6460 H   0  0  0  0  0  0  0  0  0  0  0  0  # atno 10764 bound_to 10752
  153.5219  135.3685  155.2607 H   0  0  0  0  0  0  0  0  0  0  0  0  # atno 10765 bound_to 10752
  141.1386  133.6649  156.5650 H   0  0  0  0  0  0  0  0  0  0  0  0  # atno 11005 bound_to 11000
  145.5312  139.1475  143.3498 LP  0  0  0  0  0  0  0  0  0  0  0  0  # atno 17320 bound_to 7965
  146.2414  140.5453  142.8932 LP  0  0  0  0  0  0  0  0  0  0  0  0  # atno 17321 bound_to 7965
  140.5182  144.0920  150.6014 LP  0  0  0  0  0  0  0  0  0  0  0  0  # atno 17342 bound_to 10162
  140.3869  143.2773  152.0105 LP  0  0  0  0  0  0  0  0  0  0  0  0  # atno 17343 bound_to 10162
  157.1435  130.6153  149.5562 LP  0  0  0  0  0  0  0  0  0  0  0  0  # atno 17370 bound_to 10713
  155.9847  130.4873  150.6996 LP  0  0  0  0  0  0  0  0  0  0  0  0  # atno 17371 bound_to 10713
  140.3958  134.7400  157.4749 LP  0  0  0  0  0  0  0  0  0  0  0  0  # atno 17394 bound_to 11000
  140.0532  134.6100  155.8836 LP  0  0  0  0  0  0  0  0  0  0  0  0  # atno 17395 bound_to 11000

$$$$
