AV-unprocessed.smi:2377|AV-procd|sdf|9445|dock1
  -GOLD-   2272013 73D 1   1.00000     0.00000
 Structure written by MMmdl.
 24 24  0  0  0  0  0  0  0  0  2 V2000
  148.2566  139.5206  153.8403 C   0  0  0  0  0  0  0  0  0  0  0  0
  147.9298  138.8067  152.5922 N   0  3  0  0  0  0  0  0  0  0  0  0
  146.4899  138.5265  152.4216 C   0  0  0  0  0  0  0  0  0  0  0  0
  146.2563  137.2639  151.5732 C   0  0  2  0  0  0  0  0  0  0  0  0
  146.1743  137.6386  150.2113 O   0  0  0  0  0  0  0  0  0  0  0  0
  145.0124  136.5190  152.0301 C   0  0  0  0  0  0  0  0  0  0  0  0
  144.7319  135.2087  151.5840 C   0  0  0  0  0  0  0  0  0  0  0  0
  143.5594  134.5723  152.0345 C   0  0  0  0  0  0  0  0  0  0  0  0
  142.7104  135.2741  152.9129 C   0  0  0  0  0  0  0  0  0  0  0  0
  142.9642  136.5285  153.3435 N   0  0  0  0  0  0  0  0  0  0  0  0
  144.0910  137.1310  152.9080 C   0  0  0  0  0  0  0  0  0  0  0  0
  149.3309  139.6956  153.8993 H   0  0  0  0  0  0  0  0  0  0  0  0
  147.9572  138.9361  154.7109 H   0  0  0  0  0  0  0  0  0  0  0  0
  147.7509  140.4860  153.8781 H   0  0  0  0  0  0  0  0  0  0  0  0
  148.2366  139.3670  151.8092 H   0  0  0  0  0  0  0  0  0  0  0  0
  146.0457  138.3935  153.4092 H   0  0  0  0  0  0  0  0  0  0  0  0
  146.0009  139.3884  151.9649 H   0  0  0  0  0  0  0  0  0  0  0  0
  147.1140  136.5975  151.6759 H   0  0  0  0  0  0  0  0  0  0  0  0
  145.2990  137.9510  150.0369 H   0  0  0  0  0  0  0  0  0  0  0  0
  145.4006  134.6980  150.9067 H   0  0  0  0  0  0  0  0  0  0  0  0
  143.3161  133.5698  151.7145 H   0  0  0  0  0  0  0  0  0  0  0  0
  141.8025  134.8168  153.2778 H   0  0  0  0  0  0  0  0  0  0  0  0
  144.2598  138.1343  153.2709 H   0  0  0  0  0  0  0  0  0  0  0  0
  148.4325  137.9308  152.5785 H   0  0  0  0  0  0  0  0  0  0  0  0
  1  2  1  0  0  0  0
  1 12  1  0  0  0  0
  1 13  1  0  0  0  0
  1 14  1  0  0  0  0
  2  3  1  0  0  0  0
  2 15  1  0  0  0  0
  2 24  1  0  0  0  0
  3  4  1  0  0  0  0
  3 16  1  0  0  0  0
  3 17  1  0  0  0  0
  4  5  1  0  0  0  0
  4  6  1  0  0  0  0
  4 18  1  0  0  0  0
  5 19  1  0  0  0  0
  6 11  1  0  0  0  0
  6  7  2  0  0  0  0
  7  8  1  0  0  0  0
  7 20  1  0  0  0  0
  8  9  2  0  0  0  0
  8 21  1  0  0  0  0
  9 10  1  0  0  0  0
  9 22  1  0  0  0  0
 10 11  2  0  0  0  0
 11 23  1  0  0  0  0
M  CHG  1   2   1
M  END
> <s_m_source_file>
AV-unprocessed.smi

> <i_m_source_file_index>
2377

> <i_lp_mmshare_version>
43012

> <i_f3d_flags>
0

> <s_epik_input>
W0NIM11bTkhdW0NIMl1bQ0BIXShbT0hdKWMxW2NIXVtjSF1bY0hdbltjSF0x

> <s_epik_cmdline>
J2VwaWtfcHl0aG9uJywgJy1waCcsICc3LjAnLCAnLXRuJywgJzgnLCAnLW1hJywgJzIwMCcsICctbWV0YWxfYmluZGluZycsICctaW1hZScsICc8aW5maWxlLm1hZT4nLCAnLW9tYWUnLCAnPG91dGZpbGUubWFlPic=

> <r_epik_Ionization_Penalty>
0.00990913

> <r_epik_Ionization_Penalty_Charging>
0.00939893

> <r_epik_Ionization_Penalty_Neutral>
0.000510194

> <r_epik_State_Penalty>
0.00713549

> <r_epik_Charging_Adjusted_Penalty>
0.0165344

> <i_epik_Tot_Q>
1

> <i_epik_Tot_abs_Q>
1

> <r_epik_Metal_State_Penalty>
0.00716299

> <b_epik_Metal_Only>
0

> <s_lp_Force_Field>
OPLS_2005

> <r_lp_Energy>
6.48909

> <b_lp_Chiralities_Consistent>
1

> <s_lp_Variant>
AV-unprocessed.smi:2377-1

> <Gold.Version>
5.8.1

> <Gold.Id.Protein>
6NUR|6NUR_protein|mol2

> <Gold.PLP.Fitness>
36.5982

> <Gold.PLP.PLP>
-20.8916

> <Gold.PLP.part.hbond>
-4.0000

> <Gold.PLP.part.metal>
0.0000

> <Gold.PLP.part.buried>
-1.3643

> <Gold.PLP.part.nonpolar>
-16.5037

> <Gold.PLP.part.repulsive>
0.1878

> <Gold.PLP.ligand.clash>
0.0000

> <Gold.PLP.ligand.torsion>
0.8293

> <Gold.PLP.Chemscore.Hbond>
4.7840

> <Gold.PLP.Chemscore.CHOScore>
1.0000

> <Gold.PLP.Chemscore.Metal>
0.0000

> <Gold.Chemscore.Hbonds>
donor molecule, donor type, donor heavy atom, donor atom, acceptor molecule, acceptor atom, score
      L1  H     2    15       P1  7957  0.85
      L1  H     2    24       P1  7948  2.00
      L1  H     5    19       P1 10171  1.00
      P1  H  7954  7966       L1     5  0.66
      L1  C    11    23       P1 10175  1.00

> <Gold.PLP.Chemscore.Internal.Correction>
0.0133

> <Gold.Rescore>
     Score         DG    S(hbond)    S(metal)    S(lipo)     H(rot)  DE(clash)    DE(int)     intcor
     15.94     -17.70       3.74        0.00      42.19       2.03       1.18       0.58       ----

> <Gold.Chemscore.Fitness>
15.9434

> <Gold.Chemscore.DG>
-17.6988

> <Gold.Chemscore.ZeroCoef>
-5.4800

> <Gold.Chemscore.Hbond>
3.7396

> <Gold.Chemscore.Metal>
0.0000

> <Gold.Chemscore.Lipo>
42.1917

> <Gold.Chemscore.Internal_Hbond>
0.0000

> <Gold.Chemscore.DEClash>
1.1762

> <Gold.Chemscore.DEInternal>
0.5792

> <Gold.Chemscore.Rot>
2.0344

> <Gold.Chemscore.Internal.Correction>
   9.000000E+99

> <Gold.Chemscore.Hbonds>
donor molecule, donor type, donor heavy atom, donor atom, acceptor molecule, acceptor atom, score
      L1  H     2    15       P1  7957  0.84
      L1  H     2    24       P1  7948  0.98
      L1  H     5    19       P1 10171  0.96
      P1  H  7954  7966       L1     5  0.12

> <Gold.Chemscore.Hbond.Weighted>
-12.4903

> <Gold.Chemscore.Metal.Weighted>
-0.0000

> <Gold.Chemscore.Lipo.Weighted>
-4.9364

> <Gold.Chemscore.Internal_Hbond.Weighted>
0.0000

> <Gold.Chemscore.DEClash.Weighted>
1.1762

> <Gold.Chemscore.DEInternal.Weighted>
0.5792

> <Gold.Chemscore.Rot.Weighted>
5.2080

> <Gold.Chemscore.Internal.Correction.Weighted>
   9.000000E+99

> <Gold.Protein.RotatedTorsions>
[ 6907 6896 6895 6894 ] final  151.53 input  -60.11 | X-H torsion
[ 7974 7965 7964 7962 ] final  -85.44 input  175.53 | X-H torsion
[ 8008 7997 7996 7995 ] final  -56.43 input   59.86 | X-H torsion
[ 10167 10162 10161 10158 ] final -118.45 input  -65.29 | X-H torsion
[ 10718 10713 10712 10709 ] final -156.60 input   66.30 | X-H torsion
[ 10763 10752 10751 10750 ] final   50.27 input  -60.55 | X-H torsion
[ 11005 11000 10999 10996 ] final   97.05 input  -57.11 | X-H torsion

> <Gold.Protein.ActiveResidues>
 VAL166  LYS551  ARG553  GLY616  TRP617  ASP618  TYR619  PRO620  LYS621  CYS622 
 ASP623  PHE694  ASN695  SER759  ASP760  ASP761  ALA762  ILE779  LEU786  VAL792 
 PHE793  MET794  SER795  GLU796  ALA797  LYS798  CYS799  TRP800  GLU811  SER814 

> <Gold.Protein.RotatedAtoms>
  152.0994  133.4242  159.4579 H   0  0  0  0  0  0  0  0  0  0  0  0  # atno 6907 bound_to 6896
  150.6864  134.2778  159.4624 H   0  0  0  0  0  0  0  0  0  0  0  0  # atno 6908 bound_to 6896
  152.0637  134.9577  160.0625 H   0  0  0  0  0  0  0  0  0  0  0  0  # atno 6909 bound_to 6896
  145.4933  140.9551  143.1800 H   0  0  0  0  0  0  0  0  0  0  0  0  # atno 7974 bound_to 7965
  154.4230  140.1130  156.5637 H   0  0  0  0  0  0  0  0  0  0  0  0  # atno 8008 bound_to 7997
  155.6285  140.3495  155.4656 H   0  0  0  0  0  0  0  0  0  0  0  0  # atno 8009 bound_to 7997
  155.9967  140.1190  157.0576 H   0  0  0  0  0  0  0  0  0  0  0  0  # atno 8010 bound_to 7997
  140.0573  143.5001  152.2050 H   0  0  0  0  0  0  0  0  0  0  0  0  # atno 10167 bound_to 10162
  156.5288  130.8511  151.2708 H   0  0  0  0  0  0  0  0  0  0  0  0  # atno 10718 bound_to 10713
  152.9785  135.5884  154.4225 H   0  0  0  0  0  0  0  0  0  0  0  0  # atno 10763 bound_to 10752
  154.3847  135.2767  155.2192 H   0  0  0  0  0  0  0  0  0  0  0  0  # atno 10764 bound_to 10752
  154.4090  135.6086  153.5996 H   0  0  0  0  0  0  0  0  0  0  0  0  # atno 10765 bound_to 10752
  139.8778  134.8981  156.4249 H   0  0  0  0  0  0  0  0  0  0  0  0  # atno 11005 bound_to 11000
  144.7822  139.6503  143.7149 LP  0  0  0  0  0  0  0  0  0  0  0  0  # atno 17320 bound_to 7965
  146.2271  139.5743  142.9580 LP  0  0  0  0  0  0  0  0  0  0  0  0  # atno 17321 bound_to 7965
  139.5915  144.7552  151.3389 LP  0  0  0  0  0  0  0  0  0  0  0  0  # atno 17342 bound_to 10162
  140.7188  143.7192  150.7709 LP  0  0  0  0  0  0  0  0  0  0  0  0  # atno 17343 bound_to 10162
  157.7425  130.9892  150.2522 LP  0  0  0  0  0  0  0  0  0  0  0  0  # atno 17370 bound_to 10713
  156.3080  130.3768  149.7688 LP  0  0  0  0  0  0  0  0  0  0  0  0  # atno 17371 bound_to 10713
  140.9108  133.7713  155.9789 LP  0  0  0  0  0  0  0  0  0  0  0  0  # atno 17394 bound_to 11000
  140.8549  134.2910  157.5260 LP  0  0  0  0  0  0  0  0  0  0  0  0  # atno 17395 bound_to 11000

$$$$
