AV-unprocessed.smi:2516|AV-procd|sdf|9898|dock4
  -GOLD-   2272013533D 1   1.00000     0.00000
 Structure written by MMmdl.
 47 48  0  0  0  0  0  0  0  0  1 V2000
  150.8799  142.1603  157.7397 C   0  0  0  0  0  0  0  0  0  0  0  0
  150.6507  142.3463  156.2354 C   0  0  0  0  0  0  0  0  0  0  0  0
  150.3967  141.0780  155.5718 N   0  0  0  0  0  0  0  0  0  0  0  0
  151.3162  140.0899  155.6932 N   0  0  0  0  0  0  0  0  0  0  0  0
  150.8340  139.0730  154.9989 C   0  0  0  0  0  0  0  0  0  0  0  0
  151.6056  137.7867  154.9309 C   0  0  0  0  0  0  0  0  0  0  0  0
  149.5981  139.4192  154.3912 C   0  0  0  0  0  0  0  0  0  0  0  0
  148.8239  138.5408  153.5927 N   0  0  0  0  0  0  0  0  0  0  0  0
  147.4864  138.5268  153.4854 C   0  0  0  0  0  0  0  0  0  0  0  0
  146.7215  139.2520  154.1215 O   0  0  0  0  0  0  0  0  0  0  0  0
  147.0807  137.6289  152.5763 N   0  0  0  0  0  0  0  0  0  0  0  0
  145.6938  137.3786  152.1856 C   0  0  2  0  0  0  0  0  0  0  0  0
  144.8182  137.3751  153.4523 C   0  0  0  0  0  0  0  0  0  0  0  0
  145.6013  136.0638  151.3677 C   0  0  0  0  0  0  0  0  0  0  0  0
  144.1434  135.6803  151.0332 C   0  0  0  0  0  0  0  0  0  0  0  0
  144.0747  134.3388  150.2861 C   0  0  0  0  0  0  0  0  0  0  0  0
  144.6946  133.3195  151.0599 O   0  0  0  0  0  0  0  0  0  0  0  0
  146.0766  133.5672  151.2859 C   0  0  0  0  0  0  0  0  0  0  0  0
  146.2568  134.8671  152.0867 C   0  0  0  0  0  0  0  0  0  0  0  0
  149.3111  140.6962  154.7964 C   0  0  0  0  0  0  0  0  0  0  0  0
  148.1361  141.5919  154.5506 C   0  0  0  0  0  0  0  0  0  0  0  0
  151.0509  143.1200  158.2273 H   0  0  0  0  0  0  0  0  0  0  0  0
  151.7481  141.5299  157.9329 H   0  0  0  0  0  0  0  0  0  0  0  0
  150.0151  141.6951  158.2139 H   0  0  0  0  0  0  0  0  0  0  0  0
  149.8027  143.0125  156.0691 H   0  0  0  0  0  0  0  0  0  0  0  0
  151.5120  142.8268  155.7722 H   0  0  0  0  0  0  0  0  0  0  0  0
  151.1287  137.0693  154.2630 H   0  0  0  0  0  0  0  0  0  0  0  0
  151.6803  137.3234  155.9149 H   0  0  0  0  0  0  0  0  0  0  0  0
  152.6182  137.9558  154.5636 H   0  0  0  0  0  0  0  0  0  0  0  0
  149.3371  137.9699  152.9370 H   0  0  0  0  0  0  0  0  0  0  0  0
  147.7870  137.0823  152.1058 H   0  0  0  0  0  0  0  0  0  0  0  0
  145.3541  138.1932  151.5431 H   0  0  0  0  0  0  0  0  0  0  0  0
  143.7574  137.3199  153.2109 H   0  0  0  0  0  0  0  0  0  0  0  0
  144.9608  138.2892  154.0300 H   0  0  0  0  0  0  0  0  0  0  0  0
  145.0604  136.5325  154.1008 H   0  0  0  0  0  0  0  0  0  0  0  0
  146.1295  136.2150  150.4245 H   0  0  0  0  0  0  0  0  0  0  0  0
  143.5605  135.6106  151.9527 H   0  0  0  0  0  0  0  0  0  0  0  0
  143.6685  136.4490  150.4232 H   0  0  0  0  0  0  0  0  0  0  0  0
  143.0351  134.0620  150.1102 H   0  0  0  0  0  0  0  0  0  0  0  0
  144.5536  134.4125  149.3085 H   0  0  0  0  0  0  0  0  0  0  0  0
  146.4973  132.7269  151.8385 H   0  0  0  0  0  0  0  0  0  0  0  0
  146.6084  133.6195  150.3345 H   0  0  0  0  0  0  0  0  0  0  0  0
  147.3221  135.0406  152.2353 H   0  0  0  0  0  0  0  0  0  0  0  0
  145.8176  134.7451  153.0776 H   0  0  0  0  0  0  0  0  0  0  0  0
  147.2385  141.0102  154.3421 H   0  0  0  0  0  0  0  0  0  0  0  0
  148.3215  142.2463  153.6988 H   0  0  0  0  0  0  0  0  0  0  0  0
  147.9164  142.2162  155.4158 H   0  0  0  0  0  0  0  0  0  0  0  0
  1  2  1  0  0  0  0
  1 22  1  0  0  0  0
  1 23  1  0  0  0  0
  1 24  1  0  0  0  0
  2  3  1  0  0  0  0
  2 25  1  0  0  0  0
  2 26  1  0  0  0  0
  3 20  1  0  0  0  0
  3  4  1  0  0  0  0
  4  5  2  0  0  0  0
  5  6  1  0  0  0  0
  5  7  1  0  0  0  0
  6 27  1  0  0  0  0
  6 28  1  0  0  0  0
  6 29  1  0  0  0  0
  7  8  1  0  0  0  0
  7 20  2  0  0  0  0
  8  9  1  0  0  0  0
  8 30  1  0  0  0  0
  9 10  2  0  0  0  0
  9 11  1  0  0  0  0
 11 12  1  0  0  0  0
 11 31  1  0  0  0  0
 12 13  1  0  0  0  0
 12 14  1  0  0  0  0
 12 32  1  0  0  0  0
 13 33  1  0  0  0  0
 13 34  1  0  0  0  0
 13 35  1  0  0  0  0
 14 19  1  0  0  0  0
 14 15  1  0  0  0  0
 14 36  1  0  0  0  0
 15 16  1  0  0  0  0
 15 37  1  0  0  0  0
 15 38  1  0  0  0  0
 16 17  1  0  0  0  0
 16 39  1  0  0  0  0
 16 40  1  0  0  0  0
 17 18  1  0  0  0  0
 18 19  1  0  0  0  0
 18 41  1  0  0  0  0
 18 42  1  0  0  0  0
 19 43  1  0  0  0  0
 19 44  1  0  0  0  0
 20 21  1  0  0  0  0
 21 45  1  0  0  0  0
 21 46  1  0  0  0  0
 21 47  1  0  0  0  0
M  END
> <s_m_source_file>
AV-unprocessed.smi

> <i_m_source_file_index>
2516

> <i_lp_mmshare_version>
43012

> <i_f3d_flags>
0

> <s_epik_input>
W0NIM11bQ0gyXW4xbmMoW0NIM10pYyhjMVtDSDNdKVtOSF1DKD1PKVtOSF1bQ0BIXShbQ0gzXSlbQ0hdMltDSDJdW0NIMl1PW0NIMl1bQ0gyXTI=

> <s_epik_cmdline>
J2VwaWtfcHl0aG9uJywgJy1waCcsICc3LjAnLCAnLXRuJywgJzgnLCAnLW1hJywgJzIwMCcsICctbWV0YWxfYmluZGluZycsICctaW1hZScsICc8aW5maWxlLm1hZT4nLCAnLW9tYWUnLCAnPG91dGZpbGUubWFlPic=

> <r_lp_tautomer_probability>
1

> <r_epik_Ionization_Penalty>
0.00383358

> <r_epik_Ionization_Penalty_Charging>
0

> <r_epik_Ionization_Penalty_Neutral>
0.00383358

> <r_epik_State_Penalty>
0.00270714

> <r_epik_Charging_Adjusted_Penalty>
0.00270714

> <i_epik_Tot_Q>
0

> <i_epik_Tot_abs_Q>
0

> <r_epik_Metal_State_Penalty>
-0

> <b_epik_Metal_Only>
0

> <s_lp_Force_Field>
OPLS_2005

> <r_lp_Energy>
15.1794

> <b_lp_Chiralities_Consistent>
1

> <s_lp_Variant>
AV-unprocessed.smi:2516-1

> <Gold.Version>
5.8.1

> <Gold.Id.Protein>
6NUR|6NUR_protein|mol2

> <Gold.PLP.Fitness>
40.2025

> <Gold.PLP.PLP>
-35.8253

> <Gold.PLP.part.hbond>
-3.0131

> <Gold.PLP.part.metal>
0.0000

> <Gold.PLP.part.buried>
-0.4950

> <Gold.PLP.part.nonpolar>
-33.3408

> <Gold.PLP.part.repulsive>
0.3728

> <Gold.PLP.ligand.clash>
0.0000

> <Gold.PLP.ligand.torsion>
0.4523

> <Gold.PLP.Chemscore.Hbond>
1.6225

> <Gold.PLP.Chemscore.CHOScore>
0.0000

> <Gold.PLP.Chemscore.Metal>
0.0000

> <Gold.Chemscore.Hbonds>
donor molecule, donor type, donor heavy atom, donor atom, acceptor molecule, acceptor atom, score
      L1  H     8    30       P1  7948  0.73
      L1  H    11    31       P1  7948  0.80

> <Gold.PLP.Chemscore.Internal.Correction>
0.4142

> <Gold.Rescore>
     Score         DG    S(hbond)    S(metal)    S(lipo)     H(rot)  DE(clash)    DE(int)     intcor
     13.34     -18.45       1.85        0.00      86.52       1.30       1.02       4.09       ----

> <Gold.Chemscore.Fitness>
13.3388

> <Gold.Chemscore.DG>
-18.4536

> <Gold.Chemscore.ZeroCoef>
-5.4800

> <Gold.Chemscore.Hbond>
1.8490

> <Gold.Chemscore.Metal>
0.0000

> <Gold.Chemscore.Lipo>
86.5238

> <Gold.Chemscore.Internal_Hbond>
0.0000

> <Gold.Chemscore.DEClash>
1.0244

> <Gold.Chemscore.DEInternal>
4.0904

> <Gold.Chemscore.Rot>
1.2990

> <Gold.Chemscore.Internal.Correction>
   9.000000E+99

> <Gold.Chemscore.Hbonds>
donor molecule, donor type, donor heavy atom, donor atom, acceptor molecule, acceptor atom, score
      L1  H     8    30       P1  7948  0.64
      L1  H    11    31       P1  7948  0.78

> <Gold.Chemscore.Hbond.Weighted>
-6.1757

> <Gold.Chemscore.Metal.Weighted>
-0.0000

> <Gold.Chemscore.Lipo.Weighted>
-10.1233

> <Gold.Chemscore.Internal_Hbond.Weighted>
0.0000

> <Gold.Chemscore.DEClash.Weighted>
1.0244

> <Gold.Chemscore.DEInternal.Weighted>
4.0904

> <Gold.Chemscore.Rot.Weighted>
3.3254

> <Gold.Chemscore.Internal.Correction.Weighted>
   9.000000E+99

> <Gold.Protein.RotatedTorsions>
[ 6907 6896 6895 6894 ] final   58.84 input  -60.11 | X-H torsion
[ 7974 7965 7964 7962 ] final  -52.74 input  175.53 | X-H torsion
[ 8008 7997 7996 7995 ] final  171.66 input   59.86 | X-H torsion
[ 10167 10162 10161 10158 ] final   10.66 input  -65.29 | X-H torsion
[ 10718 10713 10712 10709 ] final  -42.95 input   66.30 | X-H torsion
[ 10763 10752 10751 10750 ] final  128.80 input  -60.55 | X-H torsion
[ 11005 11000 10999 10996 ] final  -16.90 input  -57.11 | X-H torsion

> <Gold.Protein.ActiveResidues>
 VAL166  LYS551  ARG553  GLY616  TRP617  ASP618  TYR619  PRO620  LYS621  CYS622 
 ASP623  PHE694  ASN695  SER759  ASP760  ASP761  ALA762  ILE779  LEU786  VAL792 
 PHE793  MET794  SER795  GLU796  ALA797  LYS798  CYS799  TRP800  GLU811  SER814 

> <Gold.Protein.RotatedAtoms>
  152.3861  134.6515  160.0124 H   0  0  0  0  0  0  0  0  0  0  0  0  # atno 6907 bound_to 6896
  151.6763  133.3307  159.3216 H   0  0  0  0  0  0  0  0  0  0  0  0  # atno 6908 bound_to 6896
  150.7787  134.6756  159.6460 H   0  0  0  0  0  0  0  0  0  0  0  0  # atno 6909 bound_to 6896
  145.9046  140.7966  142.9726 H   0  0  0  0  0  0  0  0  0  0  0  0  # atno 7974 bound_to 7965
  156.1250  140.1506  156.9150 H   0  0  0  0  0  0  0  0  0  0  0  0  # atno 8008 bound_to 7997
  154.4864  140.0864  156.7537 H   0  0  0  0  0  0  0  0  0  0  0  0  # atno 8009 bound_to 7997
  155.4360  140.3429  155.4287 H   0  0  0  0  0  0  0  0  0  0  0  0  # atno 8010 bound_to 7997
  140.6180  143.8265  150.7141 H   0  0  0  0  0  0  0  0  0  0  0  0  # atno 10167 bound_to 10162
  156.2541  130.4191  149.8616 H   0  0  0  0  0  0  0  0  0  0  0  0  # atno 10718 bound_to 10713
  153.7315  135.3238  155.3287 H   0  0  0  0  0  0  0  0  0  0  0  0  # atno 10763 bound_to 10752
  154.8324  135.4523  154.1117 H   0  0  0  0  0  0  0  0  0  0  0  0  # atno 10764 bound_to 10752
  153.2266  135.6955  153.8019 H   0  0  0  0  0  0  0  0  0  0  0  0  # atno 10765 bound_to 10752
  140.8114  133.8138  155.9567 H   0  0  0  0  0  0  0  0  0  0  0  0  # atno 11005 bound_to 11000
  144.6738  140.1731  143.7412 LP  0  0  0  0  0  0  0  0  0  0  0  0  # atno 17320 bound_to 7965
  145.8748  139.2291  143.1640 LP  0  0  0  0  0  0  0  0  0  0  0  0  # atno 17321 bound_to 7965
  140.1849  143.4084  152.1906 LP  0  0  0  0  0  0  0  0  0  0  0  0  # atno 17342 bound_to 10162
  139.5415  144.7260  151.4719 LP  0  0  0  0  0  0  0  0  0  0  0  0  # atno 17343 bound_to 10162
  156.6154  130.8604  151.3463 LP  0  0  0  0  0  0  0  0  0  0  0  0  # atno 17370 bound_to 10713
  157.7226  130.9578  150.1500 LP  0  0  0  0  0  0  0  0  0  0  0  0  # atno 17371 bound_to 10713
  140.9194  134.2161  157.4936 LP  0  0  0  0  0  0  0  0  0  0  0  0  # atno 17394 bound_to 11000
  139.8714  134.9785  156.5001 LP  0  0  0  0  0  0  0  0  0  0  0  0  # atno 17395 bound_to 11000

$$$$
