AV-unprocessed.smi:528|AV-procd|sdf|2833|dock3
  -GOLD-   2262023323D 1   1.00000     0.00000
 Structure written by MMmdl.
 45 47  0  0  0  0  0  0  0  0  1 V2000
  145.0688  142.6427  156.7383 C   0  0  0  0  0  0  0  0  0  0  0  0
  146.2676  143.3644  157.3785 C   0  0  2  0  0  0  0  0  0  0  0  0
  147.4983  142.7713  156.8570 N   0  0  0  0  0  0  0  0  0  0  0  0
  147.7555  141.4581  156.7587 C   0  0  0  0  0  0  0  0  0  0  0  0
  146.9509  140.5848  157.0866 O   0  0  0  0  0  0  0  0  0  0  0  0
  149.1352  141.0910  156.1924 C   0  0  0  0  0  0  0  0  0  0  0  0
  150.2182  141.1477  157.1892 N   0  0  0  0  0  0  0  0  0  0  0  0
  150.6158  142.4247  157.6320 C   0  0  0  0  0  0  0  0  0  0  0  0
  151.5827  142.6144  158.5505 C   0  0  0  0  0  0  0  0  0  0  0  0
  152.0280  144.0074  158.9680 C   0  0  0  0  0  0  0  0  0  0  0  0
  150.9913  144.7419  159.3719 F   0  0  0  0  0  0  0  0  0  0  0  0
  152.9154  143.9528  159.9620 F   0  0  0  0  0  0  0  0  0  0  0  0
  152.5991  144.6278  157.9365 F   0  0  0  0  0  0  0  0  0  0  0  0
  152.2384  141.4228  159.0520 C   0  0  0  0  0  0  0  0  0  0  0  0
  151.8791  140.1946  158.6299 C   0  0  0  0  0  0  0  0  0  0  0  0
  150.8103  140.0038  157.6468 C   0  0  0  0  0  0  0  0  0  0  0  0
  150.4694  138.8864  157.2578 O   0  0  0  0  0  0  0  0  0  0  0  0
  146.2690  143.2829  158.9253 C   0  0  1  0  0  0  0  0  0  0  0  0
  147.4667  144.0156  159.5819 C   0  0  0  0  0  0  0  0  0  0  0  0
  146.7953  144.9618  160.5929 C   0  0  2  0  0  0  0  0  0  0  0  0
  146.1859  144.1391  161.7423 C   0  0  0  0  0  0  0  0  0  0  0  0
  144.9696  143.4738  161.0723 C   0  0  0  0  0  0  0  0  0  0  0  0
  145.0661  143.9735  159.6177 C   0  0  1  0  0  0  0  0  0  0  0  0
  145.5580  145.4028  159.8237 C   0  0  0  0  0  0  0  0  0  0  0  0
  144.1216  143.1026  157.0159 H   0  0  0  0  0  0  0  0  0  0  0  0
  145.0316  141.5943  157.0359 H   0  0  0  0  0  0  0  0  0  0  0  0
  145.1287  142.6752  155.6498 H   0  0  0  0  0  0  0  0  0  0  0  0
  146.2228  144.4163  157.0919 H   0  0  0  0  0  0  0  0  0  0  0  0
  148.2163  143.4148  156.5570 H   0  0  0  0  0  0  0  0  0  0  0  0
  149.0685  140.0935  155.7560 H   0  0  0  0  0  0  0  0  0  0  0  0
  149.3643  141.7526  155.3546 H   0  0  0  0  0  0  0  0  0  0  0  0
  150.0867  143.2455  157.1697 H   0  0  0  0  0  0  0  0  0  0  0  0
  153.0302  141.5159  159.7807 H   0  0  0  0  0  0  0  0  0  0  0  0
  152.3894  139.3290  159.0259 H   0  0  0  0  0  0  0  0  0  0  0  0
  146.2914  142.2281  159.2051 H   0  0  0  0  0  0  0  0  0  0  0  0
  148.1634  143.3256  160.0587 H   0  0  0  0  0  0  0  0  0  0  0  0
  148.0301  144.5990  158.8520 H   0  0  0  0  0  0  0  0  0  0  0  0
  147.4421  145.7728  160.9291 H   0  0  0  0  0  0  0  0  0  0  0  0
  146.8899  143.4105  162.1458 H   0  0  0  0  0  0  0  0  0  0  0  0
  145.8667  144.7867  162.5598 H   0  0  0  0  0  0  0  0  0  0  0  0
  144.9948  142.3860  161.1446 H   0  0  0  0  0  0  0  0  0  0  0  0
  144.0438  143.8159  161.5369 H   0  0  0  0  0  0  0  0  0  0  0  0
  144.1204  143.8917  159.0837 H   0  0  0  0  0  0  0  0  0  0  0  0
  144.8754  146.0137  160.4175 H   0  0  0  0  0  0  0  0  0  0  0  0
  145.7871  145.9260  158.8940 H   0  0  0  0  0  0  0  0  0  0  0  0
  1  2  1  0  0  0  0
  1 25  1  0  0  0  0
  1 26  1  0  0  0  0
  1 27  1  0  0  0  0
  2  3  1  0  0  0  0
  2 18  1  0  0  0  0
  2 28  1  0  0  0  0
  3  4  1  0  0  0  0
  3 29  1  0  0  0  0
  4  5  2  0  0  0  0
  4  6  1  0  0  0  0
  6  7  1  0  0  0  0
  6 30  1  0  0  0  0
  6 31  1  0  0  0  0
  7 16  1  0  0  0  0
  7  8  1  0  0  0  0
  8  9  2  0  0  0  0
  8 32  1  0  0  0  0
  9 10  1  0  0  0  0
  9 14  1  0  0  0  0
 10 11  1  0  0  0  0
 10 12  1  0  0  0  0
 10 13  1  0  0  0  0
 14 15  2  0  0  0  0
 14 33  1  0  0  0  0
 15 16  1  0  0  0  0
 15 34  1  0  0  0  0
 16 17  2  0  0  0  0
 18 23  1  0  0  0  0
 18 19  1  0  0  0  0
 18 35  1  0  0  0  0
 19 20  1  0  0  0  0
 19 36  1  0  0  0  0
 19 37  1  0  0  0  0
 20 24  1  0  0  0  0
 20 21  1  0  0  0  0
 20 38  1  0  0  0  0
 21 22  1  0  0  0  0
 21 39  1  0  0  0  0
 21 40  1  0  0  0  0
 22 23  1  0  0  0  0
 22 41  1  0  0  0  0
 22 42  1  0  0  0  0
 23 24  1  0  0  0  0
 23 43  1  0  0  0  0
 24 44  1  0  0  0  0
 24 45  1  0  0  0  0
M  END
> <s_m_source_file>
AV-unprocessed.smi

> <i_m_source_file_index>
528

> <i_lp_mmshare_version>
43012

> <i_f3d_flags>
0

> <s_epik_input>
W0NIMl0xW0NIMl1bQ0BASF0oW0NIMl0yKVtDQEBIXShbQ0gyXVtDQEhdMTIpW0NASF0oW0NIM10pW05IXUMoPU8pW0NIMl1uM1tjSF1jKEMoRikoRilGKVtjSF1bY0hdYzM9Tw==

> <s_epik_cmdline>
J2VwaWtfcHl0aG9uJywgJy1waCcsICc3LjAnLCAnLXRuJywgJzgnLCAnLW1hJywgJzIwMCcsICctbWV0YWxfYmluZGluZycsICctaW1hZScsICc8aW5maWxlLm1hZT4nLCAnLW9tYWUnLCAnPG91dGZpbGUubWFlPic=

> <r_lp_tautomer_probability>
1

> <r_epik_Ionization_Penalty>
4.09479e-08

> <r_epik_Ionization_Penalty_Charging>
1.9321e-08

> <r_epik_Ionization_Penalty_Neutral>
2.16269e-08

> <r_epik_State_Penalty>
-0

> <r_epik_Charging_Adjusted_Penalty>
1.9321e-08

> <i_epik_Tot_Q>
0

> <i_epik_Tot_abs_Q>
0

> <r_epik_Metal_State_Penalty>
-0

> <b_epik_Metal_Only>
0

> <s_lp_Force_Field>
OPLS_2005

> <r_lp_Energy>
62.8308

> <b_lp_Chiralities_Consistent>
1

> <s_lp_Variant>
AV-unprocessed.smi:528-3

> <Gold.Version>
5.8.1

> <Gold.Id.Protein>
6NUR|6NUR_protein|mol2

> <Gold.PLP.Fitness>
46.9811

> <Gold.PLP.PLP>
-42.9113

> <Gold.PLP.part.hbond>
-1.1298

> <Gold.PLP.part.metal>
0.0000

> <Gold.PLP.part.buried>
-6.2698

> <Gold.PLP.part.nonpolar>
-34.2916

> <Gold.PLP.part.repulsive>
0.0087

> <Gold.PLP.ligand.clash>
0.0000

> <Gold.PLP.ligand.torsion>
0.7858

> <Gold.PLP.Chemscore.Hbond>
0.8500

> <Gold.PLP.Chemscore.CHOScore>
1.0000

> <Gold.PLP.Chemscore.Metal>
0.0000

> <Gold.Chemscore.Hbonds>
donor molecule, donor type, donor heavy atom, donor atom, acceptor molecule, acceptor atom, score
      L1  H     3    29       P1  8028  0.90
      L1  C     8    32       P1  8028  1.00

> <Gold.PLP.Chemscore.Internal.Correction>
0.0913

> <Gold.Rescore>
     Score         DG    S(hbond)    S(metal)    S(lipo)     H(rot)  DE(clash)    DE(int)     intcor
     10.61     -12.19       0.76        0.00      73.16       1.71       0.04       1.55       ----

> <Gold.Chemscore.Fitness>
10.6077

> <Gold.Chemscore.DG>
-12.1926

> <Gold.Chemscore.ZeroCoef>
-5.4800

> <Gold.Chemscore.Hbond>
0.7595

> <Gold.Chemscore.Metal>
0.0000

> <Gold.Chemscore.Lipo>
73.1609

> <Gold.Chemscore.Internal_Hbond>
0.0000

> <Gold.Chemscore.DEClash>
0.0400

> <Gold.Chemscore.DEInternal>
1.5450

> <Gold.Chemscore.Rot>
1.7125

> <Gold.Chemscore.Internal.Correction>
   9.000000E+99

> <Gold.Chemscore.Hbonds>
donor molecule, donor type, donor heavy atom, donor atom, acceptor molecule, acceptor atom, score
      L1  H     3    29       P1  8028  0.18

> <Gold.Chemscore.Hbond.Weighted>
-2.5368

> <Gold.Chemscore.Metal.Weighted>
-0.0000

> <Gold.Chemscore.Lipo.Weighted>
-8.5598

> <Gold.Chemscore.Internal_Hbond.Weighted>
0.0000

> <Gold.Chemscore.DEClash.Weighted>
0.0400

> <Gold.Chemscore.DEInternal.Weighted>
1.5450

> <Gold.Chemscore.Rot.Weighted>
4.3840

> <Gold.Chemscore.Internal.Correction.Weighted>
   9.000000E+99

> <Gold.Protein.RotatedTorsions>
[ 6907 6896 6895 6894 ] final   86.26 input  -60.11 | X-H torsion
[ 7974 7965 7964 7962 ] final  161.86 input  175.53 | X-H torsion
[ 8008 7997 7996 7995 ] final   22.87 input   59.86 | X-H torsion
[ 10167 10162 10161 10158 ] final   -6.73 input  -65.29 | X-H torsion
[ 10718 10713 10712 10709 ] final   73.62 input   66.30 | X-H torsion
[ 10763 10752 10751 10750 ] final  102.95 input  -60.55 | X-H torsion
[ 11005 11000 10999 10996 ] final   81.16 input  -57.11 | X-H torsion

> <Gold.Protein.ActiveResidues>
 VAL166  LYS551  ARG553  GLY616  TRP617  ASP618  TYR619  PRO620  LYS621  CYS622 
 ASP623  PHE694  ASN695  SER759  ASP760  ASP761  ALA762  ILE779  LEU786  VAL792 
 PHE793  MET794  SER795  GLU796  ALA797  LYS798  CYS799  TRP800  GLU811  SER814 

> <Gold.Protein.RotatedAtoms>
  152.5391  134.2459  159.8879 H   0  0  0  0  0  0  0  0  0  0  0  0  # atno 6907 bound_to 6896
  151.2424  133.4386  159.2615 H   0  0  0  0  0  0  0  0  0  0  0  0  # atno 6908 bound_to 6896
  151.0614  134.9753  159.8318 H   0  0  0  0  0  0  0  0  0  0  0  0  # atno 6909 bound_to 6896
  144.7665  139.7957  143.6313 H   0  0  0  0  0  0  0  0  0  0  0  0  # atno 7974 bound_to 7965
  154.9723  140.3091  155.4982 H   0  0  0  0  0  0  0  0  0  0  0  0  # atno 8008 bound_to 7997
  156.2964  140.2281  156.4755 H   0  0  0  0  0  0  0  0  0  0  0  0  # atno 8009 bound_to 7997
  154.7865  140.0442  157.1156 H   0  0  0  0  0  0  0  0  0  0  0  0  # atno 8010 bound_to 7997
  140.7006  143.6161  150.8657 H   0  0  0  0  0  0  0  0  0  0  0  0  # atno 10167 bound_to 10162
  157.6556  130.9637  150.1095 H   0  0  0  0  0  0  0  0  0  0  0  0  # atno 10718 bound_to 10713
  153.3463  135.3993  155.1611 H   0  0  0  0  0  0  0  0  0  0  0  0  # atno 10763 bound_to 10752
  154.8653  135.3645  154.5280 H   0  0  0  0  0  0  0  0  0  0  0  0  # atno 10764 bound_to 10752
  153.5728  135.7078  153.5557 H   0  0  0  0  0  0  0  0  0  0  0  0  # atno 10765 bound_to 10752
  139.9108  134.7975  156.2004 H   0  0  0  0  0  0  0  0  0  0  0  0  # atno 11005 bound_to 11000
  146.1776  139.4954  142.9887 LP  0  0  0  0  0  0  0  0  0  0  0  0  # atno 17320 bound_to 7965
  145.6455  141.0275  143.1789 LP  0  0  0  0  0  0  0  0  0  0  0  0  # atno 17321 bound_to 7965
  139.9882  143.5875  152.2919 LP  0  0  0  0  0  0  0  0  0  0  0  0  # atno 17342 bound_to 10162
  139.6521  144.7661  151.2127 LP  0  0  0  0  0  0  0  0  0  0  0  0  # atno 17343 bound_to 10162
  156.1995  130.3659  149.8806 LP  0  0  0  0  0  0  0  0  0  0  0  0  # atno 17370 bound_to 10713
  156.6713  130.8821  151.3562 LP  0  0  0  0  0  0  0  0  0  0  0  0  # atno 17371 bound_to 10713
  141.0528  133.6880  156.1804 LP  0  0  0  0  0  0  0  0  0  0  0  0  # atno 17394 bound_to 11000
  140.6783  134.4794  157.5588 LP  0  0  0  0  0  0  0  0  0  0  0  0  # atno 17395 bound_to 11000

$$$$
