AV-unprocessed.smi:828|AV-procd|sdf|3864|dock1
  -GOLD-   22720 1313D 1   1.00000     0.00000
 Structure written by MMmdl.
 34 35  0  0  0  0  0  0  0  0  3 V2000
  152.6088  143.2299  161.8528 C   0  0  0  0  0  0  0  0  0  0  0  0
  152.5093  142.3926  160.6241 C   0  0  0  0  0  0  0  0  0  0  0  0
  151.3702  142.2379  159.9447 N   0  0  0  0  0  0  0  0  0  0  0  0
  151.5288  141.4162  158.8382 N   0  0  0  0  0  0  0  0  0  0  0  0
  152.7847  140.9714  158.6897 C   0  0  0  0  0  0  0  0  0  0  0  0
  153.1473  140.1624  157.6805 N   0  5  0  0  0  0  0  0  0  0  0  0
  152.2400  139.3291  157.1245 C   0  0  0  0  0  0  0  0  0  0  0  0
  151.2477  138.8505  157.6780 O   0  0  0  0  0  0  0  0  0  0  0  0
  152.5058  139.0264  155.8474 N   0  0  0  0  0  0  0  0  0  0  0  0
  151.7259  138.1259  155.0051 C   0  0  0  0  0  0  0  0  0  0  0  0
  150.5902  138.8803  154.2814 C   0  0  2  0  0  0  0  0  0  0  0  0
  150.1608  140.1714  154.9772 C   0  0  0  0  0  0  0  0  0  0  0  0
  148.8430  140.4893  154.2848 C   0  0  0  0  0  0  0  0  0  0  0  0
  148.2131  139.1092  154.0800 C   0  0  0  0  0  0  0  0  0  0  0  0
  149.3268  138.1275  154.0221 N   0  3  2  0  0  0  0  0  0  0  0  0
  149.0613  136.9362  154.8666 C   0  0  0  0  0  0  0  0  0  0  0  0
  153.8832  141.5322  159.9499 S   0  0  0  0  0  0  0  0  0  0  0  0
  152.7523  144.2754  161.5794 H   0  0  0  0  0  0  0  0  0  0  0  0
  153.4533  142.9079  162.4624 H   0  0  0  0  0  0  0  0  0  0  0  0
  151.6979  143.1427  162.4458 H   0  0  0  0  0  0  0  0  0  0  0  0
  153.3217  139.4533  155.4335 H   0  0  0  0  0  0  0  0  0  0  0  0
  152.3589  137.6040  154.2860 H   0  0  0  0  0  0  0  0  0  0  0  0
  151.2989  137.3572  155.6503 H   0  0  0  0  0  0  0  0  0  0  0  0
  150.9638  139.1660  153.2962 H   0  0  0  0  0  0  0  0  0  0  0  0
  149.9935  139.9945  156.0409 H   0  0  0  0  0  0  0  0  0  0  0  0
  150.8948  140.9714  154.8761 H   0  0  0  0  0  0  0  0  0  0  0  0
  148.2102  141.1627  154.8634 H   0  0  0  0  0  0  0  0  0  0  0  0
  149.0368  140.9571  153.3183 H   0  0  0  0  0  0  0  0  0  0  0  0
  147.5535  138.8912  154.9219 H   0  0  0  0  0  0  0  0  0  0  0  0
  147.6091  139.0677  153.1731 H   0  0  0  0  0  0  0  0  0  0  0  0
  149.0669  137.1927  155.9268 H   0  0  0  0  0  0  0  0  0  0  0  0
  149.7887  136.1447  154.6944 H   0  0  0  0  0  0  0  0  0  0  0  0
  148.0826  136.5184  154.6273 H   0  0  0  0  0  0  0  0  0  0  0  0
  149.3870  137.7909  153.0716 H   0  0  0  0  0  0  0  0  0  0  0  0
  1  2  1  0  0  0  0
  1 18  1  0  0  0  0
  1 19  1  0  0  0  0
  1 20  1  0  0  0  0
  2 17  1  0  0  0  0
  2  3  2  0  0  0  0
  3  4  1  0  0  0  0
  4  5  2  0  0  0  0
  5  6  1  0  0  0  0
  5 17  1  0  0  0  0
  6  7  1  0  0  0  0
  7  8  2  0  0  0  0
  7  9  1  0  0  0  0
  9 10  1  0  0  0  0
  9 21  1  0  0  0  0
 10 11  1  0  0  0  0
 10 22  1  0  0  0  0
 10 23  1  0  0  0  0
 11 15  1  0  0  0  0
 11 12  1  0  0  0  0
 11 24  1  0  0  0  0
 12 13  1  0  0  0  0
 12 25  1  0  0  0  0
 12 26  1  0  0  0  0
 13 14  1  0  0  0  0
 13 27  1  0  0  0  0
 13 28  1  0  0  0  0
 14 15  1  0  0  0  0
 14 29  1  0  0  0  0
 14 30  1  0  0  0  0
 15 16  1  0  0  0  0
 15 34  1  0  0  0  0
 16 31  1  0  0  0  0
 16 32  1  0  0  0  0
 16 33  1  0  0  0  0
M  CHG  1   6  -1
M  CHG  1  15   1
M  END
> <s_m_source_file>
AV-unprocessed.smi

> <i_m_source_file_index>
828

> <i_lp_mmshare_version>
43012

> <i_f3d_flags>
0

> <s_epik_input>
W0NIM11jMW5uYyhzMSlbTkhdQyg9TylbTkhdW0NIMl1bQ0BASF0yW0NIMl1bQ0gyXVtDSDJdTjJbQ0gzXQ==

> <s_epik_cmdline>
J2VwaWtfcHl0aG9uJywgJy1waCcsICc3LjAnLCAnLXRuJywgJzgnLCAnLW1hJywgJzIwMCcsICctbWV0YWxfYmluZGluZycsICctaW1hZScsICc8aW5maWxlLm1hZT4nLCAnLW9tYWUnLCAnPG91dGZpbGUubWFlPic=

> <r_lp_tautomer_probability>
1

> <r_epik_Ionization_Penalty>
3.94379

> <r_epik_Ionization_Penalty_Charging>
3.83377

> <r_epik_Ionization_Penalty_Neutral>
0.110023

> <r_epik_State_Penalty>
3.83036

> <r_epik_Charging_Adjusted_Penalty>
7.66413

> <i_epik_Tot_Q>
0

> <i_epik_Tot_abs_Q>
2

> <r_epik_Metal_State_Penalty>
0.575095

> <b_epik_Metal_Only>
1

> <s_lp_Force_Field>
OPLS_2005

> <r_lp_Energy>
28.5427

> <b_lp_Chiralities_Consistent>
1

> <s_lp_Variant>
AV-unprocessed.smi:828-7

> <Gold.Version>
5.8.1

> <Gold.Id.Protein>
6NUR|6NUR_protein|mol2

> <Gold.PLP.Fitness>
40.9919

> <Gold.PLP.PLP>
-30.8783

> <Gold.PLP.part.hbond>
-3.0000

> <Gold.PLP.part.metal>
0.0000

> <Gold.PLP.part.buried>
-2.7155

> <Gold.PLP.part.nonpolar>
-24.5308

> <Gold.PLP.part.repulsive>
0.2003

> <Gold.PLP.ligand.clash>
0.0000

> <Gold.PLP.ligand.torsion>
0.9764

> <Gold.PLP.Chemscore.Hbond>
4.0000

> <Gold.PLP.Chemscore.CHOScore>
0.0000

> <Gold.PLP.Chemscore.Metal>
0.0000

> <Gold.Chemscore.Hbonds>
donor molecule, donor type, donor heavy atom, donor atom, acceptor molecule, acceptor atom, score
      L1  H    15    34       P1  7948  1.82
      P1  H  7997  8009       L1     6  1.95

> <Gold.PLP.Chemscore.Internal.Correction>
0.0664

> <Gold.Rescore>
     Score         DG    S(hbond)    S(metal)    S(lipo)     H(rot)  DE(clash)    DE(int)     intcor
     15.01     -16.30       1.90        0.00      67.05       1.31       0.04       1.26       ----

> <Gold.Chemscore.Fitness>
15.0114

> <Gold.Chemscore.DG>
-16.3045

> <Gold.Chemscore.ZeroCoef>
-5.4800

> <Gold.Chemscore.Hbond>
1.9000

> <Gold.Chemscore.Metal>
0.0000

> <Gold.Chemscore.Lipo>
67.0480

> <Gold.Chemscore.Internal_Hbond>
0.0000

> <Gold.Chemscore.DEClash>
0.0376

> <Gold.Chemscore.DEInternal>
1.2554

> <Gold.Chemscore.Rot>
1.3149

> <Gold.Chemscore.Internal.Correction>
   9.000000E+99

> <Gold.Chemscore.Hbonds>
donor molecule, donor type, donor heavy atom, donor atom, acceptor molecule, acceptor atom, score
      L1  H    15    34       P1  7948  0.81
      P1  H  7997  8009       L1     6  0.54

> <Gold.Chemscore.Hbond.Weighted>
-6.3460

> <Gold.Chemscore.Metal.Weighted>
-0.0000

> <Gold.Chemscore.Lipo.Weighted>
-7.8446

> <Gold.Chemscore.Internal_Hbond.Weighted>
0.0000

> <Gold.Chemscore.DEClash.Weighted>
0.0376

> <Gold.Chemscore.DEInternal.Weighted>
1.2554

> <Gold.Chemscore.Rot.Weighted>
3.3662

> <Gold.Chemscore.Internal.Correction.Weighted>
   9.000000E+99

> <Gold.Protein.RotatedTorsions>
[ 6907 6896 6895 6894 ] final   40.30 input  -60.11 | X-H torsion
[ 7974 7965 7964 7962 ] final   13.28 input  175.53 | X-H torsion
[ 8008 7997 7996 7995 ] final  172.28 input   59.86 | X-H torsion
[ 10167 10162 10161 10158 ] final -172.21 input  -65.29 | X-H torsion
[ 10718 10713 10712 10709 ] final   -1.47 input   66.30 | X-H torsion
[ 10763 10752 10751 10750 ] final  -21.95 input  -60.55 | X-H torsion
[ 11005 11000 10999 10996 ] final  116.45 input  -57.11 | X-H torsion

> <Gold.Protein.ActiveResidues>
 VAL166  LYS551  ARG553  GLY616  TRP617  ASP618  TYR619  PRO620  LYS621  CYS622 
 ASP623  PHE694  ASN695  SER759  ASP760  ASP761  ALA762  ILE779  LEU786  VAL792 
 PHE793  MET794  SER795  GLU796  ALA797  LYS798  CYS799  TRP800  GLU811  SER814 

> <Gold.Protein.RotatedAtoms>
  152.1807  134.8756  160.0526 H   0  0  0  0  0  0  0  0  0  0  0  0  # atno 6907 bound_to 6896
  151.9681  133.3712  159.4069 H   0  0  0  0  0  0  0  0  0  0  0  0  # atno 6908 bound_to 6896
  150.6917  134.4092  159.5198 H   0  0  0  0  0  0  0  0  0  0  0  0  # atno 6909 bound_to 6896
  146.2333  139.9211  142.8510 H   0  0  0  0  0  0  0  0  0  0  0  0  # atno 7974 bound_to 7965
  156.1190  140.1490  156.9231 H   0  0  0  0  0  0  0  0  0  0  0  0  # atno 8008 bound_to 7997
  154.4822  140.0876  156.7445 H   0  0  0  0  0  0  0  0  0  0  0  0  # atno 8009 bound_to 7997
  155.4462  140.3433  155.4298 H   0  0  0  0  0  0  0  0  0  0  0  0  # atno 8010 bound_to 7997
  139.5757  144.1537  152.1447 H   0  0  0  0  0  0  0  0  0  0  0  0  # atno 10167 bound_to 10162
  156.8051  130.5406  149.5716 H   0  0  0  0  0  0  0  0  0  0  0  0  # atno 10718 bound_to 10713
  153.6443  135.6983  153.5231 H   0  0  0  0  0  0  0  0  0  0  0  0  # atno 10763 bound_to 10752
  153.2757  135.4201  155.1030 H   0  0  0  0  0  0  0  0  0  0  0  0  # atno 10764 bound_to 10752
  154.8492  135.3589  154.5987 H   0  0  0  0  0  0  0  0  0  0  0  0  # atno 10765 bound_to 10752
  139.9042  134.9598  156.7200 H   0  0  0  0  0  0  0  0  0  0  0  0  # atno 11005 bound_to 11000
  145.2135  140.9906  143.4086 LP  0  0  0  0  0  0  0  0  0  0  0  0  # atno 17320 bound_to 7965
  144.9670  139.3919  143.6327 LP  0  0  0  0  0  0  0  0  0  0  0  0  # atno 17321 bound_to 7965
  140.1079  144.5482  150.6944 LP  0  0  0  0  0  0  0  0  0  0  0  0  # atno 17342 bound_to 10162
  140.7040  143.2455  151.4781 LP  0  0  0  0  0  0  0  0  0  0  0  0  # atno 17343 bound_to 10162
  156.1078  130.6017  150.9998 LP  0  0  0  0  0  0  0  0  0  0  0  0  # atno 17370 bound_to 10713
  157.6534  131.0893  150.8001 LP  0  0  0  0  0  0  0  0  0  0  0  0  # atno 17371 bound_to 10713
  140.7008  133.9308  155.8023 LP  0  0  0  0  0  0  0  0  0  0  0  0  # atno 17394 bound_to 11000
  141.0373  134.0671  157.3944 LP  0  0  0  0  0  0  0  0  0  0  0  0  # atno 17395 bound_to 11000

$$$$
