AV-unprocessed.smi:218|AV-procd|sdf|1662|dock7
  -GOLD-   2262020 63D 1   1.00000     0.00000
 Structure written by MMmdl.
 54 57  0  0  0  0  0  0  0  0  1 V2000
  150.8365  140.7493  158.6251 C   0  0  0  0  0  0  0  0  0  0  0  0
  151.8862  139.6993  159.0085 C   0  0  0  0  0  0  0  0  0  0  0  0
  152.9713  140.3030  159.9168 C   0  0  0  0  0  0  0  0  0  0  0  0
  152.4635  139.2267  157.7897 O   0  0  0  0  0  0  0  0  0  0  0  0
  151.6875  138.5477  156.8701 C   0  0  0  0  0  0  0  0  0  0  0  0
  151.0750  137.3433  157.2730 C   0  0  0  0  0  0  0  0  0  0  0  0
  150.2831  136.6344  156.3469 C   0  0  0  0  0  0  0  0  0  0  0  0
  149.6244  135.3279  156.7497 C   0  0  0  0  0  0  0  0  0  0  0  0
  150.2112  134.1494  156.1245 N   0  0  0  0  0  0  0  0  0  0  0  0
  149.4865  133.4159  155.2531 C   0  0  0  0  0  0  0  0  0  0  0  0
  149.8733  132.1613  154.9019 N   0  0  0  0  0  0  0  0  0  0  0  0
  149.1424  131.4548  154.0336 C   0  0  0  0  0  0  0  0  0  0  0  0
  148.0160  131.8075  153.4093 N   0  0  0  0  0  0  0  0  0  0  0  0
  147.6269  133.0674  153.7596 C   0  0  0  0  0  0  0  0  0  0  0  0
  148.2988  133.9279  154.6705 C   0  0  0  0  0  0  0  0  0  0  0  0
  147.6057  135.1263  154.7826 N   0  0  0  0  0  0  0  0  0  0  0  0
  146.5854  134.9778  153.9801 C   0  0  0  0  0  0  0  0  0  0  0  0
  146.5255  133.7679  153.3212 N   0  0  0  0  0  0  0  0  0  0  0  0
  145.5107  133.2724  152.3427 C   0  0  2  0  0  0  0  0  0  0  0  0
  145.2592  131.9280  152.6336 O   0  0  0  0  0  0  0  0  0  0  0  0
  145.5839  131.0943  151.5219 C   0  0  2  0  0  0  0  0  0  0  0  0
  146.1293  129.7464  152.0181 C   0  0  0  0  0  0  0  0  0  0  0  0
  146.9074  129.1389  151.0095 O   0  0  0  0  0  0  0  0  0  0  0  0
  146.6100  131.9199  150.7453 C   0  0  1  0  0  0  0  0  0  0  0  0
  146.7197  131.5473  149.3850 O   0  0  0  0  0  0  0  0  0  0  0  0
  146.0938  133.3395  150.9262 C   0  0  1  0  0  0  0  0  0  0  0  0
  145.0956  133.6929  149.9855 O   0  0  0  0  0  0  0  0  0  0  0  0
  150.1434  137.1570  155.0437 C   0  0  0  0  0  0  0  0  0  0  0  0
  150.7936  138.3668  154.7332 C   0  0  0  0  0  0  0  0  0  0  0  0
  151.5483  139.0511  155.6184 N   0  0  0  0  0  0  0  0  0  0  0  0
  144.6344  133.9008  152.5081 H   0  0  0  0  0  0  0  0  0  0  0  0
  144.6899  130.9578  150.9103 H   0  0  0  0  0  0  0  0  0  0  0  0
  147.5887  131.8297  151.2191 H   0  0  0  0  0  0  0  0  0  0  0  0
  146.8951  134.0775  150.8634 H   0  0  0  0  0  0  0  0  0  0  0  0
  150.3451  141.1559  159.5094 H   0  0  0  0  0  0  0  0  0  0  0  0
  150.0655  140.3144  157.9886 H   0  0  0  0  0  0  0  0  0  0  0  0
  151.2879  141.5797  158.0813 H   0  0  0  0  0  0  0  0  0  0  0  0
  151.3635  138.8982  159.5332 H   0  0  0  0  0  0  0  0  0  0  0  0
  152.5353  140.7004  160.8336 H   0  0  0  0  0  0  0  0  0  0  0  0
  153.4934  141.1189  159.4163 H   0  0  0  0  0  0  0  0  0  0  0  0
  153.7163  139.5622  160.2059 H   0  0  0  0  0  0  0  0  0  0  0  0
  151.2142  136.9718  158.2779 H   0  0  0  0  0  0  0  0  0  0  0  0
  149.6942  135.2350  157.8344 H   0  0  0  0  0  0  0  0  0  0  0  0
  148.5641  135.3721  156.4971 H   0  0  0  0  0  0  0  0  0  0  0  0
  151.1483  133.9090  156.4144 H   0  0  0  0  0  0  0  0  0  0  0  0
  149.5142  130.4666  153.8053 H   0  0  0  0  0  0  0  0  0  0  0  0
  145.8478  135.7555  153.8475 H   0  0  0  0  0  0  0  0  0  0  0  0
  146.7768  129.8994  152.8820 H   0  0  0  0  0  0  0  0  0  0  0  0
  145.3249  129.0802  152.3305 H   0  0  0  0  0  0  0  0  0  0  0  0
  147.7485  129.5686  150.9787 H   0  0  0  0  0  0  0  0  0  0  0  0
  147.5847  131.1924  149.2448 H   0  0  0  0  0  0  0  0  0  0  0  0
  144.4514  134.2309  150.4200 H   0  0  0  0  0  0  0  0  0  0  0  0
  149.5587  136.6457  154.2931 H   0  0  0  0  0  0  0  0  0  0  0  0
  150.7083  138.7948  153.7452 H   0  0  0  0  0  0  0  0  0  0  0  0
  1  2  1  0  0  0  0
  1 35  1  0  0  0  0
  1 36  1  0  0  0  0
  1 37  1  0  0  0  0
  2  3  1  0  0  0  0
  2  4  1  0  0  0  0
  2 38  1  0  0  0  0
  3 39  1  0  0  0  0
  3 40  1  0  0  0  0
  3 41  1  0  0  0  0
  4  5  1  0  0  0  0
  5 30  1  0  0  0  0
  5  6  2  0  0  0  0
  6  7  1  0  0  0  0
  6 42  1  0  0  0  0
  7  8  1  0  0  0  0
  7 28  2  0  0  0  0
  8  9  1  0  0  0  0
  8 43  1  0  0  0  0
  8 44  1  0  0  0  0
  9 10  1  0  0  0  0
  9 45  1  0  0  0  0
 10 15  1  0  0  0  0
 10 11  2  0  0  0  0
 11 12  1  0  0  0  0
 12 13  2  0  0  0  0
 12 46  1  0  0  0  0
 13 14  1  0  0  0  0
 14 18  1  0  0  0  0
 14 15  2  0  0  0  0
 15 16  1  0  0  0  0
 16 17  2  0  0  0  0
 17 18  1  0  0  0  0
 17 47  1  0  0  0  0
 18 19  1  0  0  0  0
 19 31  1  0  0  0  0
 19 26  1  0  0  0  0
 19 20  1  0  0  0  0
 20 21  1  0  0  0  0
 21 32  1  0  0  0  0
 21 22  1  0  0  0  0
 21 24  1  0  0  0  0
 22 23  1  0  0  0  0
 22 48  1  0  0  0  0
 22 49  1  0  0  0  0
 23 50  1  0  0  0  0
 24 33  1  0  0  0  0
 24 25  1  0  0  0  0
 24 26  1  0  0  0  0
 25 51  1  0  0  0  0
 26 34  1  0  0  0  0
 26 27  1  0  0  0  0
 27 52  1  0  0  0  0
 28 29  1  0  0  0  0
 28 53  1  0  0  0  0
 29 30  2  0  0  0  0
 29 54  1  0  0  0  0
M  END
> <s_m_source_file>
AV-unprocessed.smi

> <i_m_source_file_index>
218

> <i_lp_mmshare_version>
43012

> <i_f3d_flags>
0

> <s_epik_input>
W0NIM11bQ0hdKFtDSDNdKU9jMVtjSF1jKFtjSF1bY0hdbjEpW0NIMl1bTkhdYyhuW2NIXW4yKWMoYzIzKW5bY0hdbjNbQ0BASF00T1tDQEhdKFtDSDJdW09IXSlbQ0BASF0oW09IXSlbQ0BIXTRbT0hd

> <s_epik_cmdline>
J2VwaWtfcHl0aG9uJywgJy1waCcsICc3LjAnLCAnLXRuJywgJzgnLCAnLW1hJywgJzIwMCcsICctbWV0YWxfYmluZGluZycsICctaW1hZScsICc8aW5maWxlLm1hZT4nLCAnLW9tYWUnLCAnPG91dGZpbGUubWFlPic=

> <r_lp_tautomer_probability>
1

> <r_epik_Ionization_Penalty>
0.00457014

> <r_epik_Ionization_Penalty_Charging>
0

> <r_epik_Ionization_Penalty_Neutral>
0.00457014

> <r_epik_State_Penalty>
-0

> <r_epik_Charging_Adjusted_Penalty>
0

> <i_epik_Tot_Q>
0

> <i_epik_Tot_abs_Q>
0

> <r_epik_Metal_State_Penalty>
-0

> <b_epik_Metal_Only>
0

> <s_epik_Chemistry_Notes>
This compound contains an acetal/aminal-like group ( X-CH(R)-Y where X, Y are N, S, or O) that may be acid/base labile, releasing an aldehyde.

> <s_lp_Force_Field>
OPLS_2005

> <r_lp_Energy>
38.2737

> <b_lp_Chiralities_Consistent>
1

> <s_lp_Variant>
AV-unprocessed.smi:218-1

> <Gold.Version>
5.8.1

> <Gold.Id.Protein>
6NUR|6NUR_protein|mol2

> <Gold.PLP.Fitness>
50.9552

> <Gold.PLP.PLP>
-39.9159

> <Gold.PLP.part.hbond>
-5.0000

> <Gold.PLP.part.metal>
0.0000

> <Gold.PLP.part.buried>
-4.5969

> <Gold.PLP.part.nonpolar>
-31.3506

> <Gold.PLP.part.repulsive>
1.3699

> <Gold.PLP.ligand.clash>
0.0000

> <Gold.PLP.ligand.torsion>
0.8557

> <Gold.PLP.Chemscore.Hbond>
3.1860

> <Gold.PLP.Chemscore.CHOScore>
1.0000

> <Gold.PLP.Chemscore.Metal>
0.0000

> <Gold.Chemscore.Hbonds>
donor molecule, donor type, donor heavy atom, donor atom, acceptor molecule, acceptor atom, score
      L1  H    23    50       P1 10747  1.00
      L1  H    25    51       P1 10747  0.74
      P1  H  7997  8008       L1     4  0.13

> <Gold.PLP.Chemscore.Internal.Correction>
0.1927

> <Gold.Rescore>
     Score         DG    S(hbond)    S(metal)    S(lipo)     H(rot)  DE(clash)    DE(int)     intcor
      6.02     -11.70       2.74        0.00      82.27       4.90       1.18       4.50       ----

> <Gold.Chemscore.Fitness>
6.0203

> <Gold.Chemscore.DG>
-11.6956

> <Gold.Chemscore.ZeroCoef>
-5.4800

> <Gold.Chemscore.Hbond>
2.7369

> <Gold.Chemscore.Metal>
0.0000

> <Gold.Chemscore.Lipo>
82.2732

> <Gold.Chemscore.Internal_Hbond>
0.0000

> <Gold.Chemscore.DEClash>
1.1767

> <Gold.Chemscore.DEInternal>
4.4987

> <Gold.Chemscore.Rot>
4.9029

> <Gold.Chemscore.Internal.Correction>
   9.000000E+99

> <Gold.Chemscore.Hbonds>
donor molecule, donor type, donor heavy atom, donor atom, acceptor molecule, acceptor atom, score
      L1  H    23    50       P1 10747  0.90
      L1  H    25    51       P1 10747  0.74
      P1  H  7997  8008       L1     4  0.11

> <Gold.Chemscore.Hbond.Weighted>
-9.1412

> <Gold.Chemscore.Metal.Weighted>
-0.0000

> <Gold.Chemscore.Lipo.Weighted>
-9.6260

> <Gold.Chemscore.Internal_Hbond.Weighted>
0.0000

> <Gold.Chemscore.DEClash.Weighted>
1.1767

> <Gold.Chemscore.DEInternal.Weighted>
4.4987

> <Gold.Chemscore.Rot.Weighted>
12.5515

> <Gold.Chemscore.Internal.Correction.Weighted>
   9.000000E+99

> <Gold.Protein.RotatedTorsions>
[ 6907 6896 6895 6894 ] final  -81.23 input  -60.11 | X-H torsion
[ 7974 7965 7964 7962 ] final  140.08 input  175.53 | X-H torsion
[ 8008 7997 7996 7995 ] final  -62.81 input   59.86 | X-H torsion
[ 10167 10162 10161 10158 ] final  143.05 input  -65.29 | X-H torsion
[ 10718 10713 10712 10709 ] final  127.92 input   66.30 | X-H torsion
[ 10763 10752 10751 10750 ] final   99.40 input  -60.55 | X-H torsion
[ 11005 11000 10999 10996 ] final  -96.68 input  -57.11 | X-H torsion

> <Gold.Protein.ActiveResidues>
 VAL166  LYS551  ARG553  GLY616  TRP617  ASP618  TYR619  PRO620  LYS621  CYS622 
 ASP623  PHE694  ASN695  SER759  ASP760  ASP761  ALA762  ILE779  LEU786  VAL792 
 PHE793  MET794  SER795  GLU796  ALA797  LYS798  CYS799  TRP800  GLU811  SER814 

> <Gold.Protein.RotatedAtoms>
  150.6915  134.3849  159.5050 H   0  0  0  0  0  0  0  0  0  0  0  0  # atno 6907 bound_to 6896
  152.1646  134.8881  160.0548 H   0  0  0  0  0  0  0  0  0  0  0  0  # atno 6908 bound_to 6896
  151.9930  133.3763  159.4189 H   0  0  0  0  0  0  0  0  0  0  0  0  # atno 6909 bound_to 6896
  144.9219  139.5157  143.5659 H   0  0  0  0  0  0  0  0  0  0  0  0  # atno 7974 bound_to 7965
  154.4520  140.0988  156.6645 H   0  0  0  0  0  0  0  0  0  0  0  0  # atno 8008 bound_to 7997
  155.5256  140.3480  155.4397 H   0  0  0  0  0  0  0  0  0  0  0  0  # atno 8009 bound_to 7997
  156.0700  140.1347  156.9829 H   0  0  0  0  0  0  0  0  0  0  0  0  # atno 8010 bound_to 7997
  139.4979  144.6066  151.6365 H   0  0  0  0  0  0  0  0  0  0  0  0  # atno 10167 bound_to 10162
  157.5291  131.1098  150.9037 H   0  0  0  0  0  0  0  0  0  0  0  0  # atno 10718 bound_to 10713
  153.3009  135.4115  155.1252 H   0  0  0  0  0  0  0  0  0  0  0  0  # atno 10763 bound_to 10752
  154.8549  135.3541  154.5853 H   0  0  0  0  0  0  0  0  0  0  0  0  # atno 10764 bound_to 10752
  153.6278  135.7062  153.5345 H   0  0  0  0  0  0  0  0  0  0  0  0  # atno 10765 bound_to 10752
  141.1404  133.8115  157.0604 H   0  0  0  0  0  0  0  0  0  0  0  0  # atno 11005 bound_to 11000
  146.3208  139.8105  142.8947 LP  0  0  0  0  0  0  0  0  0  0  0  0  # atno 17320 bound_to 7965
  145.3282  141.0260  143.3461 LP  0  0  0  0  0  0  0  0  0  0  0  0  # atno 17321 bound_to 7965
  140.5729  144.0077  150.6226 LP  0  0  0  0  0  0  0  0  0  0  0  0  # atno 17342 bound_to 10162
  140.3201  143.3142  152.0793 LP  0  0  0  0  0  0  0  0  0  0  0  0  # atno 17343 bound_to 10162
  156.9624  130.5460  149.5286 LP  0  0  0  0  0  0  0  0  0  0  0  0  # atno 17370 bound_to 10713
  156.0409  130.5491  150.8767 LP  0  0  0  0  0  0  0  0  0  0  0  0  # atno 17371 bound_to 10713
  140.0575  134.9772  157.1246 LP  0  0  0  0  0  0  0  0  0  0  0  0  # atno 17394 bound_to 11000
  140.3897  134.2197  155.7166 LP  0  0  0  0  0  0  0  0  0  0  0  0  # atno 17395 bound_to 11000

$$$$
