#       Name:                AV-unprocessed.smi:261
#       Creating user name   scv26
#       Creation time:       Thu Mar 26 21:16:50 2020


#       File generated by GOLD software.
#

@<TRIPOS>MOLECULE
AV-unprocessed.smi:261
    63    66     1
SMALL
NO_CHARGES


@<TRIPOS>ATOM
      1 ****        -5.3859   2.2693  -2.4288 C.3            1 S1                 0.0000
      2 ****        -5.5186   0.8725  -2.2211 O.3            1 S1                 0.0000
      3 ****        -4.3571   0.2728  -1.6669 C.3            1 S1                 0.0000
      4 ****        -4.6230  -1.1791  -1.2896 C.3            1 S1                 0.0000
      5 ****        -3.2145  -1.7871  -1.2428 C.3            1 S1                 0.0000
      6 ****        -3.2353  -3.3046  -1.4760 C.2            1 S1                 0.0000
      7 ****        -3.2980  -4.0785  -0.3900 N.am           1 S1                 0.0000
      8 ****        -3.2109  -3.7746  -2.6124 O.2            1 S1                 0.0000
      9 ****        -2.4804  -1.0741  -2.2923 N.3            1 S1                 0.0000
     10 ****        -1.1558  -0.9268  -2.0685 C.ar           1 S1                 0.0000
     11 ****        -0.3111  -1.6578  -2.8357 N.ar           1 S1                 0.0000
     12 ****         1.0096  -1.5570  -2.6559 C.ar           1 S1                 0.0000
     13 ****         1.6791  -0.8012  -1.7820 N.ar           1 S1                 0.0000
     14 ****         0.8286  -0.0677  -1.0075 C.ar           1 S1                 0.0000
     15 ****        -0.5920  -0.0698  -1.0819 C.ar           1 S1                 0.0000
     16 ****        -1.1198   0.7980  -0.1330 N.2            1 S1                 0.0000
     17 ****        -0.0693   1.2860   0.4688 C.2            1 S1                 0.0000
     18 ****         1.1405   0.8200   0.0067 N.pl3          1 S1                 0.0000
     19 ****         2.4567   1.1906   0.4956 C.3            1 S1                 0.0000
     20 ****         2.8525   0.4181   1.7695 C.3            1 S1                 0.0000
     21 ****         2.8283  -0.9716   1.5041 O.3            1 S1                 0.0000
     22 ****         4.2566   0.8055   2.2686 C.3            1 S1                 0.0000
     23 ****         4.6817   0.1228   3.5681 C.3            1 S1                 0.0000
     24 ****         5.7557   1.0508   4.1078 C.3            1 S1                 0.0000
     25 ****         5.4626   2.3899   3.4242 C.3            1 S1                 0.0000
     26 ****         4.2948   2.1745   2.6413 O.3            1 S1                 0.0000
     27 ****        -3.2016   0.1402  -2.6636 C.3            1 S1                 0.0000
     28 ****        -4.0286   0.8122  -0.7763 H              1 S1                 0.0000
     29 ****        -2.7699  -1.5783  -0.2673 H              1 S1                 0.0000
     30 ****        -6.3171   2.6678  -2.8312 H              1 S1                 0.0000
     31 ****        -4.5917   2.4951  -3.1410 H              1 S1                 0.0000
     32 ****        -5.1755   2.7886  -1.4930 H              1 S1                 0.0000
     33 ****        -5.1545  -1.2721  -0.3420 H              1 S1                 0.0000
     34 ****        -5.2284  -1.6567  -2.0627 H              1 S1                 0.0000
     35 ****        -3.3151  -5.0834  -0.4860 H              1 S1                 0.0000
     36 ****        -3.3289  -3.6536   0.5254 H              1 S1                 0.0000
     37 ****         1.6169  -2.1701  -3.3053 H              1 S1                 0.0000
     38 ****        -0.1478   2.0022   1.2738 H              1 S1                 0.0000
     39 ****         3.1860   1.0207  -0.2974 H              1 S1                 0.0000
     40 ****         2.4552   2.2638   0.6894 H              1 S1                 0.0000
     41 ****         2.1222   0.6206   2.5541 H              1 S1                 0.0000
     42 ****         3.4320  -1.1532   0.8001 H              1 S1                 0.0000
     43 ****         5.0038   0.6288   1.4923 H              1 S1                 0.0000
     44 ****         3.8441   0.0861   4.2658 H              1 S1                 0.0000
     45 ****         5.0390  -0.8959   3.4161 H              1 S1                 0.0000
     46 ****         5.7155   1.1229   5.1949 H              1 S1                 0.0000
     47 ****         6.7490   0.6965   3.8304 H              1 S1                 0.0000
     48 ****         5.2981   3.1948   4.1407 H              1 S1                 0.0000
     49 ****         6.2889   2.6780   2.7731 H              1 S1                 0.0000
     50 ****        -3.5874  -0.0062  -3.6731 H              1 S1                 0.0000
     51 ****        -2.5800   1.0369  -2.6830 H              1 S1                 0.0000
     52 ****        -5.7108   0.4379  -3.1010 LP             1 S1                 0.0000
     53 ****        -6.2846   0.7159  -1.5976 LP             1 S1                 0.0000
     54 ****        -3.1769  -3.1655  -3.4048 LP             1 S1                 0.0000
     55 ****        -3.2251  -4.7658  -2.7440 LP             1 S1                 0.0000
     56 ****        -2.4617  -1.6604  -3.1022 LP             1 S1                 0.0000
     57 ****        -0.6755  -2.2721  -3.5357 LP             1 S1                 0.0000
     58 ****         2.6758  -0.7761  -1.7052 LP             1 S1                 0.0000
     59 ****        -2.0822   1.0015   0.0471 LP             1 S1                 0.0000
     60 ****         1.9052  -1.2479   1.2365 LP             1 S1                 0.0000
     61 ****         3.1031  -1.4761   2.3226 LP             1 S1                 0.0000
     62 ****         3.4815   2.4023   3.1768 LP             1 S1                 0.0000
     63 ****         4.3259   2.7475   1.8223 LP             1 S1                 0.0000
@<TRIPOS>BOND
    1    1    2 1     
    2    1   30 1     
    3    1   31 1     
    4    1   32 1     
    5    2    3 1     
    6    3   28 1     
    7    3   27 1     
    8    3    4 1     
    9    4    5 1     
   10    4   33 1     
   11    4   34 1     
   12    5   29 1     
   13    5    6 1     
   14    5    9 1     
   15    6    7 am    
   16    6    8 2     
   17    7   35 1     
   18    7   36 1     
   19    9   10 1     
   20    9   27 1     
   21   10   15 ar    
   22   10   11 ar    
   23   11   12 ar    
   24   12   13 ar    
   25   12   37 1     
   26   13   14 ar    
   27   14   18 1     
   28   14   15 ar    
   29   15   16 1     
   30   16   17 2     
   31   17   18 1     
   32   17   38 1     
   33   18   19 1     
   34   19   20 1     
   35   19   39 1     
   36   19   40 1     
   37   20   21 1     
   38   20   22 1     
   39   20   41 1     
   40   21   42 1     
   41   22   26 1     
   42   22   23 1     
   43   22   43 1     
   44   23   24 1     
   45   23   44 1     
   46   23   45 1     
   47   24   25 1     
   48   24   46 1     
   49   24   47 1     
   50   25   26 1     
   51   25   48 1     
   52   25   49 1     
   53   27   50 1     
   54   27   51 1     
   55    2   52 1     
   56    2   53 1     
   57    8   54 1     
   58    8   55 1     
   59    9   56 1     
   60   11   57 1     
   61   13   58 1     
   62   16   59 1     
   63   21   60 1     
   64   21   61 1     
   65   26   62 1     
   66   26   63 1     
@<TRIPOS>SUBSTRUCTURE
      1 S1             1
@<TRIPOS>SET
LONE_PAIRS      STATIC     ATOMS    <user>   **** ""
12 52 53 54 55 56 57 58 59 60 61 62 63
DONOR_HYDROGENS      STATIC     ATOMS    <user>   **** ""
3 35 36 42
ATOM$BLUE        STATIC     ATOMS    COLORGROUP SYSTEM
12 52 53 54 55 56 57 58 59 60 61 62 63
ATOM$RED        STATIC     ATOMS    COLORGROUP SYSTEM
3 35 36 42
