AV-unprocessed.smi:2563|AV-procd|sdf|10059|dock3
  -GOLD-   2272014 93D 1   1.00000     0.00000
 Structure written by MMmdl.
 36 37  0  0  0  0  0  0  0  0  3 V2000
  151.5664  139.1194  156.4722 C   0  0  0  0  0  0  0  0  0  0  0  0
  151.8767  140.5294  155.9464 C   0  0  0  0  0  0  0  0  0  0  0  0
  150.8426  141.5043  156.2916 N   0  0  0  0  0  0  0  0  0  0  0  0
  149.4511  141.0425  156.2777 C   0  0  0  0  0  0  0  0  0  0  0  0
  148.9317  140.7055  154.8643 C   0  0  1  0  0  0  0  0  0  0  0  0
  149.2180  139.2338  154.4994 C   0  0  0  0  0  0  0  0  0  0  0  0
  148.6546  138.9104  153.1732 N   0  3  0  0  0  0  0  0  0  0  0  0
  147.2148  139.2239  153.1034 C   0  0  0  0  0  0  0  0  0  0  0  0
  146.9756  140.6850  153.5155 C   0  0  0  0  0  0  0  0  0  0  0  0
  147.5205  140.9033  154.8124 O   0  0  0  0  0  0  0  0  0  0  0  0
  151.2375  142.4519  157.2608 C   0  0  0  0  0  0  0  0  0  0  0  0
  152.0933  142.1054  158.3311 C   0  0  0  0  0  0  0  0  0  0  0  0
  152.4363  143.0945  159.2682 C   0  0  0  0  0  0  0  0  0  0  0  0
  151.8992  144.3799  159.0827 C   0  0  0  0  0  0  0  0  0  0  0  0
  151.0781  144.6970  158.0577 N   0  0  0  0  0  0  0  0  0  0  0  0
  150.7677  143.7265  157.1813 N   0  3  0  0  0  0  0  0  0  0  0  0
  152.3484  138.4194  156.1777 H   0  0  0  0  0  0  0  0  0  0  0  0
  150.6223  138.7435  156.0768 H   0  0  0  0  0  0  0  0  0  0  0  0
  151.5053  139.1030  157.5609 H   0  0  0  0  0  0  0  0  0  0  0  0
  152.8499  140.8533  156.3141 H   0  0  0  0  0  0  0  0  0  0  0  0
  151.9721  140.4954  154.8608 H   0  0  0  0  0  0  0  0  0  0  0  0
  149.3986  140.1379  156.8847 H   0  0  0  0  0  0  0  0  0  0  0  0
  148.7959  141.7621  156.7698 H   0  0  0  0  0  0  0  0  0  0  0  0
  149.4221  141.3575  154.1389 H   0  0  0  0  0  0  0  0  0  0  0  0
  150.2914  139.0425  154.4835 H   0  0  0  0  0  0  0  0  0  0  0  0
  148.7832  138.5651  155.2437 H   0  0  0  0  0  0  0  0  0  0  0  0
  149.1386  139.4543  152.4729 H   0  0  0  0  0  0  0  0  0  0  0  0
  146.8514  139.0433  152.0915 H   0  0  0  0  0  0  0  0  0  0  0  0
  146.6692  138.5513  153.7667 H   0  0  0  0  0  0  0  0  0  0  0  0
  147.4236  141.3744  152.7980 H   0  0  0  0  0  0  0  0  0  0  0  0
  145.9070  140.8993  153.5398 H   0  0  0  0  0  0  0  0  0  0  0  0
  152.4910  141.1062  158.4320 H   0  0  0  0  0  0  0  0  0  0  0  0
  153.0902  142.8770  160.0997 H   0  0  0  0  0  0  0  0  0  0  0  0
  152.1335  145.1763  159.7739 H   0  0  0  0  0  0  0  0  0  0  0  0
  148.7936  137.9287  152.9786 H   0  0  0  0  0  0  0  0  0  0  0  0
  150.1444  143.9594  156.4081 H   0  0  0  0  0  0  0  0  0  0  0  0
  1  2  1  0  0  0  0
  1 17  1  0  0  0  0
  1 18  1  0  0  0  0
  1 19  1  0  0  0  0
  2  3  1  0  0  0  0
  2 20  1  0  0  0  0
  2 21  1  0  0  0  0
  3  4  1  0  0  0  0
  3 11  1  0  0  0  0
  4  5  1  0  0  0  0
  4 22  1  0  0  0  0
  4 23  1  0  0  0  0
  5 10  1  0  0  0  0
  5  6  1  0  0  0  0
  5 24  1  0  0  0  0
  6  7  1  0  0  0  0
  6 25  1  0  0  0  0
  6 26  1  0  0  0  0
  7  8  1  0  0  0  0
  7 27  1  0  0  0  0
  7 35  1  0  0  0  0
  8  9  1  0  0  0  0
  8 28  1  0  0  0  0
  8 29  1  0  0  0  0
  9 10  1  0  0  0  0
  9 30  1  0  0  0  0
  9 31  1  0  0  0  0
 11 16  1  0  0  0  0
 11 12  2  0  0  0  0
 12 13  1  0  0  0  0
 12 32  1  0  0  0  0
 13 14  2  0  0  0  0
 13 33  1  0  0  0  0
 14 15  1  0  0  0  0
 14 34  1  0  0  0  0
 15 16  2  0  0  0  0
 16 36  1  0  0  0  0
M  CHG  1   7   1
M  CHG  1  16   1
M  END
> <s_m_source_file>
AV-unprocessed.smi

> <i_m_source_file_index>
2563

> <i_lp_mmshare_version>
43012

> <i_f3d_flags>
0

> <s_epik_input>
bjFuW2NIXVtjSF1bY0hdYzFOKFtDSDJdW0NIM10pW0NIMl1bQ0BASF0yW0NIMl1bTkhdW0NIMl1bQ0gyXU8y

> <s_epik_cmdline>
J2VwaWtfcHl0aG9uJywgJy1waCcsICc3LjAnLCAnLXRuJywgJzgnLCAnLW1hJywgJzIwMCcsICctbWV0YWxfYmluZGluZycsICctaW1hZScsICc8aW5maWxlLm1hZT4nLCAnLW9tYWUnLCAnPG91dGZpbGUubWFlPic=

> <r_lp_tautomer_probability>
0.966961

> <r_epik_Ionization_Penalty>
1.93862

> <r_epik_Ionization_Penalty_Charging>
1.93862

> <r_epik_Ionization_Penalty_Neutral>
1.19718e-14

> <r_epik_State_Penalty>
1.51688

> <r_epik_Charging_Adjusted_Penalty>
3.4555

> <i_epik_Tot_Q>
2

> <i_epik_Tot_abs_Q>
2

> <r_epik_Metal_State_Penalty>
1.53359

> <b_epik_Metal_Only>
0

> <s_lp_Force_Field>
OPLS_2005

> <r_lp_Energy>
34.4736

> <b_lp_Chiralities_Consistent>
1

> <s_lp_Variant>
AV-unprocessed.smi:2563-4

> <Gold.Version>
5.8.1

> <Gold.Id.Protein>
6NUR|6NUR_protein|mol2

> <Gold.PLP.Fitness>
45.5084

> <Gold.PLP.PLP>
-33.0512

> <Gold.PLP.part.hbond>
-2.9332

> <Gold.PLP.part.metal>
0.0000

> <Gold.PLP.part.buried>
-5.0046

> <Gold.PLP.part.nonpolar>
-24.9376

> <Gold.PLP.part.repulsive>
0.3597

> <Gold.PLP.ligand.clash>
0.0000

> <Gold.PLP.ligand.torsion>
1.6880

> <Gold.PLP.Chemscore.Hbond>
4.9913

> <Gold.PLP.Chemscore.CHOScore>
0.0000

> <Gold.PLP.Chemscore.Metal>
0.0000

> <Gold.Chemscore.Hbonds>
donor molecule, donor type, donor heavy atom, donor atom, acceptor molecule, acceptor atom, score
      L1  H     7    27       P1  7957  0.94
      L1  H     7    35       P1  7948  2.00
      L1  H    16    36       P1  8028  2.00

> <Gold.PLP.Chemscore.Internal.Correction>
0.8595

> <Gold.Rescore>
     Score         DG    S(hbond)    S(metal)    S(lipo)     H(rot)  DE(clash)    DE(int)     intcor
     18.77     -20.45       2.90        0.00      76.75       1.44       0.00       1.68       ----

> <Gold.Chemscore.Fitness>
18.7696

> <Gold.Chemscore.DG>
-20.4476

> <Gold.Chemscore.ZeroCoef>
-5.4800

> <Gold.Chemscore.Hbond>
2.8952

> <Gold.Chemscore.Metal>
0.0000

> <Gold.Chemscore.Lipo>
76.7499

> <Gold.Chemscore.Internal_Hbond>
0.0000

> <Gold.Chemscore.DEClash>
0.0015

> <Gold.Chemscore.DEInternal>
1.6765

> <Gold.Chemscore.Rot>
1.4384

> <Gold.Chemscore.Internal.Correction>
   9.000000E+99

> <Gold.Chemscore.Hbonds>
donor molecule, donor type, donor heavy atom, donor atom, acceptor molecule, acceptor atom, score
      L1  H     7    27       P1  7957  0.90
      L1  H     7    35       P1  7948  0.93
      L1  H    16    36       P1  8028  0.98

> <Gold.Chemscore.Hbond.Weighted>
-9.6701

> <Gold.Chemscore.Metal.Weighted>
-0.0000

> <Gold.Chemscore.Lipo.Weighted>
-8.9797

> <Gold.Chemscore.Internal_Hbond.Weighted>
0.0000

> <Gold.Chemscore.DEClash.Weighted>
0.0015

> <Gold.Chemscore.DEInternal.Weighted>
1.6765

> <Gold.Chemscore.Rot.Weighted>
3.6822

> <Gold.Chemscore.Internal.Correction.Weighted>
   9.000000E+99

> <Gold.Protein.RotatedTorsions>
[ 6907 6896 6895 6894 ] final  132.18 input  -60.11 | X-H torsion
[ 7974 7965 7964 7962 ] final  -44.91 input  175.53 | X-H torsion
[ 8008 7997 7996 7995 ] final  -96.73 input   59.86 | X-H torsion
[ 10167 10162 10161 10158 ] final   74.70 input  -65.29 | X-H torsion
[ 10718 10713 10712 10709 ] final  -55.21 input   66.30 | X-H torsion
[ 10763 10752 10751 10750 ] final -150.75 input  -60.55 | X-H torsion
[ 11005 11000 10999 10996 ] final  -38.49 input  -57.11 | X-H torsion

> <Gold.Protein.ActiveResidues>
 VAL166  LYS551  ARG553  GLY616  TRP617  ASP618  TYR619  PRO620  LYS621  CYS622 
 ASP623  PHE694  ASN695  SER759  ASP760  ASP761  ALA762  ILE779  LEU786  VAL792 
 PHE793  MET794  SER795  GLU796  ALA797  LYS798  CYS799  TRP800  GLU811  SER814 

> <Gold.Protein.RotatedAtoms>
  152.3350  133.6001  159.5836 H   0  0  0  0  0  0  0  0  0  0  0  0  # atno 6907 bound_to 6896
  150.7445  133.9809  159.3585 H   0  0  0  0  0  0  0  0  0  0  0  0  # atno 6908 bound_to 6896
  151.7680  135.0794  160.0406 H   0  0  0  0  0  0  0  0  0  0  0  0  # atno 6909 bound_to 6896
  145.9874  140.7218  142.9334 H   0  0  0  0  0  0  0  0  0  0  0  0  # atno 7974 bound_to 7965
  154.7784  140.0469  157.1107 H   0  0  0  0  0  0  0  0  0  0  0  0  # atno 8008 bound_to 7997
  154.9735  140.3092  155.4958 H   0  0  0  0  0  0  0  0  0  0  0  0  # atno 8009 bound_to 7997
  156.2932  140.2249  156.4829 H   0  0  0  0  0  0  0  0  0  0  0  0  # atno 8010 bound_to 7997
  140.0109  144.5614  150.7659 H   0  0  0  0  0  0  0  0  0  0  0  0  # atno 10167 bound_to 10162
  156.1387  130.4155  150.0141 H   0  0  0  0  0  0  0  0  0  0  0  0  # atno 10718 bound_to 10713
  154.8100  135.3276  154.7331 H   0  0  0  0  0  0  0  0  0  0  0  0  # atno 10763 bound_to 10752
  153.7982  135.6905  153.4864 H   0  0  0  0  0  0  0  0  0  0  0  0  # atno 10764 bound_to 10752
  153.1872  135.4564  155.0049 H   0  0  0  0  0  0  0  0  0  0  0  0  # atno 10765 bound_to 10752
  141.0031  133.6945  156.2060 H   0  0  0  0  0  0  0  0  0  0  0  0  # atno 11005 bound_to 11000
  144.6879  140.3011  143.7263 LP  0  0  0  0  0  0  0  0  0  0  0  0  # atno 17320 bound_to 7965
  145.7681  139.1847  143.2228 LP  0  0  0  0  0  0  0  0  0  0  0  0  # atno 17321 bound_to 7965
  140.7382  143.2775  151.3699 LP  0  0  0  0  0  0  0  0  0  0  0  0  # atno 17342 bound_to 10162
  139.6205  144.0916  152.2387 LP  0  0  0  0  0  0  0  0  0  0  0  0  # atno 17343 bound_to 10162
  156.8032  130.9298  151.3645 LP  0  0  0  0  0  0  0  0  0  0  0  0  # atno 17370 bound_to 10713
  157.6556  130.8921  149.9722 LP  0  0  0  0  0  0  0  0  0  0  0  0  # atno 17371 bound_to 10713
  140.6856  134.4720  157.5589 LP  0  0  0  0  0  0  0  0  0  0  0  0  # atno 17394 bound_to 11000
  139.9049  134.8471  156.1746 LP  0  0  0  0  0  0  0  0  0  0  0  0  # atno 17395 bound_to 11000

$$$$
