AV-unprocessed.smi:240|AV-procd|sdf|1833|dock8
  -GOLD-   2262020443D 1   1.00000     0.00000
 Structure written by MMmdl.
 55 59  0  0  0  0  0  0  0  0  1 V2000
  147.6625  138.6837  155.5745 O   0  0  0  0  0  0  0  0  0  0  0  0
  148.5132  139.4712  154.7662 C   0  0  1  0  0  0  0  0  0  0  0  0
  147.7379  139.8216  153.4906 C   0  0  0  0  0  0  0  0  0  0  0  0
  146.9397  141.0953  153.8209 C   0  0  0  0  0  0  0  0  0  0  0  0
  147.5372  141.6655  155.1183 C   0  0  0  0  0  0  0  0  0  0  0  0
  148.8212  140.8581  155.3593 C   0  0  1  0  0  0  0  0  0  0  0  0
  149.4746  140.9571  156.7787 C   0  0  2  0  0  0  0  0  0  0  0  0
  149.2269  142.3093  157.5009 C   0  0  0  0  0  0  0  0  0  0  0  0
  149.8875  142.3466  158.7602 O   0  0  0  0  0  0  0  0  0  0  0  0
  151.2947  142.2272  158.6235 C   0  0  0  0  0  0  0  0  0  0  0  0
  151.6049  140.8560  158.0166 C   0  0  0  0  0  0  0  0  0  0  0  0
  150.9247  140.6999  156.7356 N   0  0  0  0  0  0  0  0  0  0  0  0
  151.3411  139.5596  156.1375 C   0  0  0  0  0  0  0  0  0  0  0  0
  152.0521  139.6122  154.9798 N   0  0  0  0  0  0  0  0  0  0  0  0
  152.4531  138.4806  154.3925 C   0  0  0  0  0  0  0  0  0  0  0  0
  152.2487  137.2197  154.7818 N   0  0  0  0  0  0  0  0  0  0  0  0
  151.5249  137.1670  155.9371 C   0  0  0  0  0  0  0  0  0  0  0  0
  151.0364  138.2815  156.6734 C   0  0  0  0  0  0  0  0  0  0  0  0
  150.3488  137.8484  157.7990 N   0  0  0  0  0  0  0  0  0  0  0  0
  150.4263  136.5471  157.7327 C   0  0  0  0  0  0  0  0  0  0  0  0
  151.1062  136.0515  156.6417 N   0  0  0  0  0  0  0  0  0  0  0  0
  151.3406  134.6507  156.3231 C   0  0  0  0  0  0  0  0  0  0  0  0
  150.0768  133.7649  156.4443 C   0  0  2  0  0  0  0  0  0  0  0  0
  149.7812  133.5742  157.8164 O   0  0  0  0  0  0  0  0  0  0  0  0
  150.2569  132.3981  155.7797 C   0  0  0  0  0  0  0  0  0  0  0  0
  149.3806  132.4865  154.5362 C   0  0  0  0  0  0  0  0  0  0  0  0
  148.2931  133.2774  154.9806 O   0  0  0  0  0  0  0  0  0  0  0  0
  148.8392  134.3506  155.7341 C   0  0  0  0  0  0  0  0  0  0  0  0
  148.1532  137.9392  155.8879 H   0  0  0  0  0  0  0  0  0  0  0  0
  149.4210  138.9071  154.5497 H   0  0  0  0  0  0  0  0  0  0  0  0
  148.4482  140.0456  152.6935 H   0  0  0  0  0  0  0  0  0  0  0  0
  147.1058  139.0075  153.1331 H   0  0  0  0  0  0  0  0  0  0  0  0
  147.0091  141.8132  153.0030 H   0  0  0  0  0  0  0  0  0  0  0  0
  145.8832  140.8657  153.9630 H   0  0  0  0  0  0  0  0  0  0  0  0
  147.7359  142.7350  155.0419 H   0  0  0  0  0  0  0  0  0  0  0  0
  146.8272  141.5237  155.9321 H   0  0  0  0  0  0  0  0  0  0  0  0
  149.5491  141.2624  154.6554 H   0  0  0  0  0  0  0  0  0  0  0  0
  149.0297  140.1784  157.4001 H   0  0  0  0  0  0  0  0  0  0  0  0
  149.5560  143.1562  156.8986 H   0  0  0  0  0  0  0  0  0  0  0  0
  148.1707  142.4560  157.7126 H   0  0  0  0  0  0  0  0  0  0  0  0
  151.6906  143.0330  158.0032 H   0  0  0  0  0  0  0  0  0  0  0  0
  151.7581  142.3184  159.6058 H   0  0  0  0  0  0  0  0  0  0  0  0
  152.6831  140.7494  157.8868 H   0  0  0  0  0  0  0  0  0  0  0  0
  151.2830  140.0682  158.6996 H   0  0  0  0  0  0  0  0  0  0  0  0
  153.0164  138.6025  153.4791 H   0  0  0  0  0  0  0  0  0  0  0  0
  149.9820  135.9074  158.4815 H   0  0  0  0  0  0  0  0  0  0  0  0
  151.7392  134.5920  155.3095 H   0  0  0  0  0  0  0  0  0  0  0  0
  152.1279  134.2793  156.9805 H   0  0  0  0  0  0  0  0  0  0  0  0
  148.9104  133.2135  157.8865 H   0  0  0  0  0  0  0  0  0  0  0  0
  151.2944  132.1632  155.5393 H   0  0  0  0  0  0  0  0  0  0  0  0
  149.8814  131.5979  156.4198 H   0  0  0  0  0  0  0  0  0  0  0  0
  149.9016  132.9958  153.7235 H   0  0  0  0  0  0  0  0  0  0  0  0
  149.0523  131.5098  154.1804 H   0  0  0  0  0  0  0  0  0  0  0  0
  148.1016  134.7750  156.4165 H   0  0  0  0  0  0  0  0  0  0  0  0
  149.1221  135.1328  155.0295 H   0  0  0  0  0  0  0  0  0  0  0  0
  1  2  1  0  0  0  0
  1 29  1  0  0  0  0
  2  6  1  0  0  0  0
  2  3  1  0  0  0  0
  2 30  1  0  0  0  0
  3  4  1  0  0  0  0
  3 31  1  0  0  0  0
  3 32  1  0  0  0  0
  4  5  1  0  0  0  0
  4 33  1  0  0  0  0
  4 34  1  0  0  0  0
  5  6  1  0  0  0  0
  5 35  1  0  0  0  0
  5 36  1  0  0  0  0
  6  7  1  0  0  0  0
  6 37  1  0  0  0  0
  7 12  1  0  0  0  0
  7  8  1  0  0  0  0
  7 38  1  0  0  0  0
  8  9  1  0  0  0  0
  8 39  1  0  0  0  0
  8 40  1  0  0  0  0
  9 10  1  0  0  0  0
 10 11  1  0  0  0  0
 10 41  1  0  0  0  0
 10 42  1  0  0  0  0
 11 12  1  0  0  0  0
 11 43  1  0  0  0  0
 11 44  1  0  0  0  0
 12 13  1  0  0  0  0
 13 18  1  0  0  0  0
 13 14  2  0  0  0  0
 14 15  1  0  0  0  0
 15 16  2  0  0  0  0
 15 45  1  0  0  0  0
 16 17  1  0  0  0  0
 17 21  1  0  0  0  0
 17 18  2  0  0  0  0
 18 19  1  0  0  0  0
 19 20  2  0  0  0  0
 20 21  1  0  0  0  0
 20 46  1  0  0  0  0
 21 22  1  0  0  0  0
 22 23  1  0  0  0  0
 22 47  1  0  0  0  0
 22 48  1  0  0  0  0
 23 28  1  0  0  0  0
 23 24  1  0  0  0  0
 23 25  1  0  0  0  0
 24 49  1  0  0  0  0
 25 26  1  0  0  0  0
 25 50  1  0  0  0  0
 25 51  1  0  0  0  0
 26 27  1  0  0  0  0
 26 52  1  0  0  0  0
 26 53  1  0  0  0  0
 27 28  1  0  0  0  0
 28 54  1  0  0  0  0
 28 55  1  0  0  0  0
M  END
> <s_m_source_file>
AV-unprocessed.smi

> <i_m_source_file_index>
240

> <i_lp_mmshare_version>
43012

> <i_f3d_flags>
0

> <s_epik_input>
W09IXVtDQEBIXTFbQ0gyXVtDSDJdW0NIMl1bQ0BIXTFbQ0BASF0yW0NIMl1PW0NIMl1bQ0gyXU4yYyhuW2NIXW4zKWMoYzM0KW5bY0hdbjRbQ0gyXVtDQEBdNShbT0hdKVtDSDJdW0NIMl1PW0NIMl01

> <s_epik_cmdline>
J2VwaWtfcHl0aG9uJywgJy1waCcsICc3LjAnLCAnLXRuJywgJzgnLCAnLW1hJywgJzIwMCcsICctbWV0YWxfYmluZGluZycsICctaW1hZScsICc8aW5maWxlLm1hZT4nLCAnLW9tYWUnLCAnPG91dGZpbGUubWFlPic=

> <r_lp_tautomer_probability>
1

> <r_epik_Ionization_Penalty>
0.000130618

> <r_epik_Ionization_Penalty_Charging>
0

> <r_epik_Ionization_Penalty_Neutral>
0.000130618

> <r_epik_State_Penalty>
-0

> <r_epik_Charging_Adjusted_Penalty>
0

> <i_epik_Tot_Q>
0

> <i_epik_Tot_abs_Q>
0

> <r_epik_Metal_State_Penalty>
-0

> <b_epik_Metal_Only>
0

> <s_lp_Force_Field>
OPLS_2005

> <r_lp_Energy>
64.6726

> <b_lp_Chiralities_Consistent>
1

> <s_lp_Variant>
AV-unprocessed.smi:240-10

> <Gold.Version>
5.8.1

> <Gold.Id.Protein>
6NUR|6NUR_protein|mol2

> <Gold.PLP.Fitness>
41.2675

> <Gold.PLP.PLP>
-35.1463

> <Gold.PLP.part.hbond>
-3.5448

> <Gold.PLP.part.metal>
0.0000

> <Gold.PLP.part.buried>
-2.4522

> <Gold.PLP.part.nonpolar>
-29.1912

> <Gold.PLP.part.repulsive>
0.2714

> <Gold.PLP.ligand.clash>
0.0000

> <Gold.PLP.ligand.torsion>
0.9269

> <Gold.PLP.Chemscore.Hbond>
2.5840

> <Gold.PLP.Chemscore.CHOScore>
0.0000

> <Gold.PLP.Chemscore.Metal>
0.0000

> <Gold.Chemscore.Hbonds>
donor molecule, donor type, donor heavy atom, donor atom, acceptor molecule, acceptor atom, score
      P1  H  6896  6909       L1    24  1.00
      P1  H  7989  7998       L1    14  0.90
      P1  H 10752 10764       L1    16  0.78

> <Gold.PLP.Chemscore.Internal.Correction>
0.2230

> <Gold.Rescore>
     Score         DG    S(hbond)    S(metal)    S(lipo)     H(rot)  DE(clash)    DE(int)     intcor
     13.23     -15.69       2.72        0.00      75.36       3.00       1.32       1.14       ----

> <Gold.Chemscore.Fitness>
13.2291

> <Gold.Chemscore.DG>
-15.6913

> <Gold.Chemscore.ZeroCoef>
-5.4800

> <Gold.Chemscore.Hbond>
2.7197

> <Gold.Chemscore.Metal>
0.0000

> <Gold.Chemscore.Lipo>
75.3632

> <Gold.Chemscore.Internal_Hbond>
0.0000

> <Gold.Chemscore.DEClash>
1.3246

> <Gold.Chemscore.DEInternal>
1.1376

> <Gold.Chemscore.Rot>
3.0039

> <Gold.Chemscore.Internal.Correction>
   9.000000E+99

> <Gold.Chemscore.Hbonds>
donor molecule, donor type, donor heavy atom, donor atom, acceptor molecule, acceptor atom, score
      P1  H  6896  6909       L1    24  0.98
      P1  H  7989  7998       L1    14  0.42
      P1  H 10752 10764       L1    16  0.58

> <Gold.Chemscore.Hbond.Weighted>
-9.0837

> <Gold.Chemscore.Metal.Weighted>
-0.0000

> <Gold.Chemscore.Lipo.Weighted>
-8.8175

> <Gold.Chemscore.Internal_Hbond.Weighted>
0.0000

> <Gold.Chemscore.DEClash.Weighted>
1.3246

> <Gold.Chemscore.DEInternal.Weighted>
1.1376

> <Gold.Chemscore.Rot.Weighted>
7.6899

> <Gold.Chemscore.Internal.Correction.Weighted>
   9.000000E+99

> <Gold.Protein.RotatedTorsions>
[ 6907 6896 6895 6894 ] final   -2.17 input  -60.11 | X-H torsion
[ 7974 7965 7964 7962 ] final -152.20 input  175.53 | X-H torsion
[ 8008 7997 7996 7995 ] final -143.75 input   59.86 | X-H torsion
[ 10167 10162 10161 10158 ] final   80.66 input  -65.29 | X-H torsion
[ 10718 10713 10712 10709 ] final  -92.88 input   66.30 | X-H torsion
[ 10763 10752 10751 10750 ] final  -67.91 input  -60.55 | X-H torsion
[ 11005 11000 10999 10996 ] final  113.33 input  -57.11 | X-H torsion

> <Gold.Protein.ActiveResidues>
 VAL166  LYS551  ARG553  GLY616  TRP617  ASP618  TYR619  PRO620  LYS621  CYS622 
 ASP623  PHE694  ASN695  SER759  ASP760  ASP761  ALA762  ILE779  LEU786  VAL792 
 PHE793  MET794  SER795  GLU796  ALA797  LYS798  CYS799  TRP800  GLU811  SER814 

> <Gold.Protein.RotatedAtoms>
  151.5342  135.1068  159.9909 H   0  0  0  0  0  0  0  0  0  0  0  0  # atno 6907 bound_to 6896
  152.4565  133.7729  159.6819 H   0  0  0  0  0  0  0  0  0  0  0  0  # atno 6908 bound_to 6896
  150.8510  133.7721  159.3050 H   0  0  0  0  0  0  0  0  0  0  0  0  # atno 6909 bound_to 6896
  144.7807  140.4695  143.5841 H   0  0  0  0  0  0  0  0  0  0  0  0  # atno 7974 bound_to 7965
  155.5157  140.0587  157.2916 H   0  0  0  0  0  0  0  0  0  0  0  0  # atno 8008 bound_to 7997
  154.4536  140.1961  156.0394 H   0  0  0  0  0  0  0  0  0  0  0  0  # atno 8009 bound_to 7997
  156.0754  140.3254  155.7631 H   0  0  0  0  0  0  0  0  0  0  0  0  # atno 8010 bound_to 7997
  139.9474  144.6049  150.8193 H   0  0  0  0  0  0  0  0  0  0  0  0  # atno 10167 bound_to 10162
  156.0007  130.5004  150.5692 H   0  0  0  0  0  0  0  0  0  0  0  0  # atno 10718 bound_to 10713
  154.3814  135.6073  153.5793 H   0  0  0  0  0  0  0  0  0  0  0  0  # atno 10763 bound_to 10752
  152.9788  135.5862  154.4405 H   0  0  0  0  0  0  0  0  0  0  0  0  # atno 10764 bound_to 10752
  154.4175  135.2845  155.1975 H   0  0  0  0  0  0  0  0  0  0  0  0  # atno 10765 bound_to 10752
  139.8950  134.9548  156.6723 H   0  0  0  0  0  0  0  0  0  0  0  0  # atno 11005 bound_to 11000
  145.6058  139.1508  143.3104 LP  0  0  0  0  0  0  0  0  0  0  0  0  # atno 17320 bound_to 7965
  146.2014  140.6176  142.9101 LP  0  0  0  0  0  0  0  0  0  0  0  0  # atno 17321 bound_to 7965
  140.7593  143.3126  151.2809 LP  0  0  0  0  0  0  0  0  0  0  0  0  # atno 17342 bound_to 10162
  139.6656  144.0112  152.2720 LP  0  0  0  0  0  0  0  0  0  0  0  0  # atno 17343 bound_to 10162
  157.3589  131.0746  151.1652 LP  0  0  0  0  0  0  0  0  0  0  0  0  # atno 17370 bound_to 10713
  157.2444  130.6584  149.5904 LP  0  0  0  0  0  0  0  0  0  0  0  0  # atno 17371 bound_to 10713
  140.7364  133.9015  155.8247 LP  0  0  0  0  0  0  0  0  0  0  0  0  # atno 17394 bound_to 11000
  141.0113  134.1017  157.4218 LP  0  0  0  0  0  0  0  0  0  0  0  0  # atno 17395 bound_to 11000

$$$$
