AV-unprocessed.smi:215|AV-procd|sdf|1657|dock10
  -GOLD-   2262020 53D 1   1.00000     0.00000
 Structure written by MMmdl.
 59 62  0  0  0  0  0  0  0  0  2 V2000
  145.5797  131.9319  152.4391 C   0  0  0  0  0  0  0  0  0  0  0  0
  146.6625  132.9442  152.0022 C   0  0  1  0  0  0  0  0  0  0  0  0
  146.2179  133.8774  150.8561 C   0  0  1  0  0  0  0  0  0  0  0  0
  145.5005  133.2069  149.7306 N   0  3  1  0  0  0  0  0  0  0  0  0
  146.0285  131.8481  149.4460 C   0  0  0  0  0  0  0  0  0  0  0  0
  144.0225  133.2005  149.9180 C   0  0  0  0  0  0  0  0  0  0  0  0
  143.2532  132.7711  148.6547 C   0  0  0  0  0  0  0  0  0  0  0  0
  143.3509  133.7662  147.6586 O   0  0  0  0  0  0  0  0  0  0  0  0
  145.4148  134.9522  151.6085 C   0  0  0  0  0  0  0  0  0  0  0  0
  146.1321  135.0751  152.9586 C   0  0  0  0  0  0  0  0  0  0  0  0
  146.9660  133.8832  153.0740 N   0  0  0  0  0  0  0  0  0  0  0  0
  147.5813  133.5420  154.2390 C   0  0  0  0  0  0  0  0  0  0  0  0
  147.3307  134.2988  155.3402 N   0  0  0  0  0  0  0  0  0  0  0  0
  147.8979  134.0065  156.5134 C   0  0  0  0  0  0  0  0  0  0  0  0
  148.7453  133.0200  156.8053 N   0  0  0  0  0  0  0  0  0  0  0  0
  149.0197  132.2630  155.7053 C   0  0  0  0  0  0  0  0  0  0  0  0
  148.4855  132.4478  154.3962 C   0  0  0  0  0  0  0  0  0  0  0  0
  148.9972  131.4711  153.5478 N   0  0  0  0  0  0  0  0  0  0  0  0
  149.7714  130.7486  154.3090 C   0  0  0  0  0  0  0  0  0  0  0  0
  149.8656  131.1713  155.6144 N   0  0  0  0  0  0  0  0  0  0  0  0
  150.6091  130.5439  156.6674 C   0  0  0  0  0  0  0  0  0  0  0  0
  150.8970  131.2773  157.9796 C   0  0  0  0  0  0  0  0  0  0  0  0
  152.2393  130.5206  158.0992 C   0  0  0  0  0  0  0  0  0  0  0  0
  153.4095  131.3811  158.6071 C   0  0  0  0  0  0  0  0  0  0  0  0
  153.3271  132.7129  158.1433 O   0  0  0  0  0  0  0  0  0  0  0  0
  152.1545  129.2283  158.9391 C   0  0  0  0  0  0  0  0  0  0  0  0
  152.0026  129.4943  160.3184 O   0  0  0  0  0  0  0  0  0  0  0  0
  152.1242  130.3561  156.5662 C   0  0  0  0  0  0  0  0  0  0  0  0
  147.5666  132.4184  151.7008 H   0  0  0  0  0  0  0  0  0  0  0  0
  147.1061  134.3609  150.4440 H   0  0  0  0  0  0  0  0  0  0  0  0
  145.3592  131.2180  151.6474 H   0  0  0  0  0  0  0  0  0  0  0  0
  144.6462  132.4237  152.7128 H   0  0  0  0  0  0  0  0  0  0  0  0
  145.9038  131.3517  153.3027 H   0  0  0  0  0  0  0  0  0  0  0  0
  145.9458  131.2072  150.3248 H   0  0  0  0  0  0  0  0  0  0  0  0
  147.0757  131.8817  149.1467 H   0  0  0  0  0  0  0  0  0  0  0  0
  145.4946  131.3671  148.6284 H   0  0  0  0  0  0  0  0  0  0  0  0
  143.7703  132.5430  150.7514 H   0  0  0  0  0  0  0  0  0  0  0  0
  143.6641  134.1894  150.2020 H   0  0  0  0  0  0  0  0  0  0  0  0
  143.5987  131.8182  148.2568 H   0  0  0  0  0  0  0  0  0  0  0  0
  142.1982  132.6412  148.8977 H   0  0  0  0  0  0  0  0  0  0  0  0
  144.1785  134.2130  147.7574 H   0  0  0  0  0  0  0  0  0  0  0  0
  145.3762  135.9043  151.0782 H   0  0  0  0  0  0  0  0  0  0  0  0
  144.3891  134.6189  151.7729 H   0  0  0  0  0  0  0  0  0  0  0  0
  146.7703  135.9592  152.9777 H   0  0  0  0  0  0  0  0  0  0  0  0
  145.4153  135.1515  153.7770 H   0  0  0  0  0  0  0  0  0  0  0  0
  147.6354  134.6563  157.3353 H   0  0  0  0  0  0  0  0  0  0  0  0
  150.3034  129.8864  153.9334 H   0  0  0  0  0  0  0  0  0  0  0  0
  150.1143  129.5900  156.8572 H   0  0  0  0  0  0  0  0  0  0  0  0
  151.0179  132.3524  157.8332 H   0  0  0  0  0  0  0  0  0  0  0  0
  150.1806  131.0738  158.7762 H   0  0  0  0  0  0  0  0  0  0  0  0
  153.4177  131.4185  159.6968 H   0  0  0  0  0  0  0  0  0  0  0  0
  154.3701  130.9602  158.3085 H   0  0  0  0  0  0  0  0  0  0  0  0
  153.8430  132.7904  157.3556 H   0  0  0  0  0  0  0  0  0  0  0  0
  151.3252  128.6009  158.6118 H   0  0  0  0  0  0  0  0  0  0  0  0
  153.0534  128.6228  158.8212 H   0  0  0  0  0  0  0  0  0  0  0  0
  152.5230  130.2516  160.5382 H   0  0  0  0  0  0  0  0  0  0  0  0
  152.4328  129.3844  156.1793 H   0  0  0  0  0  0  0  0  0  0  0  0
  152.6116  131.1651  156.0182 H   0  0  0  0  0  0  0  0  0  0  0  0
  145.6806  133.7685  148.9100 H   0  0  0  0  0  0  0  0  0  0  0  0
  1  2  1  0  0  0  0
  1 31  1  0  0  0  0
  1 32  1  0  0  0  0
  1 33  1  0  0  0  0
  2 29  1  0  0  0  0
  2 11  1  0  0  0  0
  2  3  1  0  0  0  0
  3 30  1  0  0  0  0
  3  4  1  0  0  0  0
  3  9  1  0  0  0  0
  4  5  1  0  0  0  0
  4  6  1  0  0  0  0
  4 59  1  0  0  0  0
  5 34  1  0  0  0  0
  5 35  1  0  0  0  0
  5 36  1  0  0  0  0
  6  7  1  0  0  0  0
  6 37  1  0  0  0  0
  6 38  1  0  0  0  0
  7  8  1  0  0  0  0
  7 39  1  0  0  0  0
  7 40  1  0  0  0  0
  8 41  1  0  0  0  0
  9 10  1  0  0  0  0
  9 42  1  0  0  0  0
  9 43  1  0  0  0  0
 10 11  1  0  0  0  0
 10 44  1  0  0  0  0
 10 45  1  0  0  0  0
 11 12  1  0  0  0  0
 12 17  1  0  0  0  0
 12 13  2  0  0  0  0
 13 14  1  0  0  0  0
 14 15  2  0  0  0  0
 14 46  1  0  0  0  0
 15 16  1  0  0  0  0
 16 20  1  0  0  0  0
 16 17  2  0  0  0  0
 17 18  1  0  0  0  0
 18 19  2  0  0  0  0
 19 20  1  0  0  0  0
 19 47  1  0  0  0  0
 20 21  1  0  0  0  0
 21 28  1  0  0  0  0
 21 22  1  0  0  0  0
 21 48  1  0  0  0  0
 22 23  1  0  0  0  0
 22 49  1  0  0  0  0
 22 50  1  0  0  0  0
 23 24  1  0  0  0  0
 23 26  1  0  0  0  0
 23 28  1  0  0  0  0
 24 25  1  0  0  0  0
 24 51  1  0  0  0  0
 24 52  1  0  0  0  0
 25 53  1  0  0  0  0
 26 27  1  0  0  0  0
 26 54  1  0  0  0  0
 26 55  1  0  0  0  0
 27 56  1  0  0  0  0
 28 57  1  0  0  0  0
 28 58  1  0  0  0  0
M  CHG  1   4   1
M  END
> <s_m_source_file>
AV-unprocessed.smi

> <i_m_source_file_index>
215

> <i_lp_mmshare_version>
43012

> <i_f3d_flags>
0

> <s_epik_input>
W09IXVtDSDJdW0NIMl1OKFtDSDNdKVtDQEBIXShbQ0BIXTFbQ0gzXSlbQ0gyXVtDSDJdTjFjKG5bY0hdbjIpYyhjMjMpbltjSF1uM1tDSF0oW0NIMl00KVtDSDJdQzQoW0NIMl1bT0hdKVtDSDJdW09IXQ==

> <s_epik_cmdline>
J2VwaWtfcHl0aG9uJywgJy1waCcsICc3LjAnLCAnLXRuJywgJzgnLCAnLW1hJywgJzIwMCcsICctbWV0YWxfYmluZGluZycsICctaW1hZScsICc8aW5maWxlLm1hZT4nLCAnLW9tYWUnLCAnPG91dGZpbGUubWFlPic=

> <r_lp_tautomer_probability>
1

> <r_epik_Ionization_Penalty>
0.0036237

> <r_epik_Ionization_Penalty_Charging>
0.0032725

> <r_epik_Ionization_Penalty_Neutral>
0.000351196

> <r_epik_State_Penalty>
-0

> <r_epik_Charging_Adjusted_Penalty>
0.0032725

> <i_epik_Tot_Q>
1

> <i_epik_Tot_abs_Q>
1

> <r_epik_Metal_State_Penalty>
-0

> <b_epik_Metal_Only>
0

> <s_lp_Force_Field>
OPLS_2005

> <r_lp_Energy>
65.1718

> <b_lp_Chiralities_Consistent>
1

> <s_lp_Variant>
AV-unprocessed.smi:215-8

> <Gold.Version>
5.8.1

> <Gold.Id.Protein>
6NUR|6NUR_protein|mol2

> <Gold.PLP.Fitness>
46.1683

> <Gold.PLP.PLP>
-37.5523

> <Gold.PLP.part.hbond>
-5.7737

> <Gold.PLP.part.metal>
0.0000

> <Gold.PLP.part.buried>
-1.4133

> <Gold.PLP.part.nonpolar>
-30.9102

> <Gold.PLP.part.repulsive>
0.2801

> <Gold.PLP.ligand.clash>
0.0000

> <Gold.PLP.ligand.torsion>
1.4229

> <Gold.PLP.Chemscore.Hbond>
3.5830

> <Gold.PLP.Chemscore.CHOScore>
0.0000

> <Gold.PLP.Chemscore.Metal>
0.0000

> <Gold.Chemscore.Hbonds>
donor molecule, donor type, donor heavy atom, donor atom, acceptor molecule, acceptor atom, score
      L1  H     4    59       P1  7921  1.00
      L1  H     8    41       P1  7921  1.00
      P1  H  6896  6908       L1    25  0.49
      P1  H 10192 10197       L1     8  1.00

> <Gold.PLP.Chemscore.Internal.Correction>
0.7129

> <Gold.Rescore>
     Score         DG    S(hbond)    S(metal)    S(lipo)     H(rot)  DE(clash)    DE(int)     intcor
     10.38     -14.33       3.21        0.00      81.85       4.48       1.57       2.37       ----

> <Gold.Chemscore.Fitness>
10.3795

> <Gold.Chemscore.DG>
-14.3251

> <Gold.Chemscore.ZeroCoef>
-5.4800

> <Gold.Chemscore.Hbond>
3.2137

> <Gold.Chemscore.Metal>
0.0000

> <Gold.Chemscore.Lipo>
81.8542

> <Gold.Chemscore.Internal_Hbond>
0.0000

> <Gold.Chemscore.DEClash>
1.5730

> <Gold.Chemscore.DEInternal>
2.3726

> <Gold.Chemscore.Rot>
4.4787

> <Gold.Chemscore.Internal.Correction>
   9.000000E+99

> <Gold.Chemscore.Hbonds>
donor molecule, donor type, donor heavy atom, donor atom, acceptor molecule, acceptor atom, score
      L1  H     4    59       P1  7921  0.30
      L1  H     8    41       P1  7921  0.94
      P1  H  6896  6908       L1    25  0.29
      P1  H 10192 10197       L1     8  0.58

> <Gold.Chemscore.Hbond.Weighted>
-10.7337

> <Gold.Chemscore.Metal.Weighted>
-0.0000

> <Gold.Chemscore.Lipo.Weighted>
-9.5769

> <Gold.Chemscore.Internal_Hbond.Weighted>
0.0000

> <Gold.Chemscore.DEClash.Weighted>
1.5730

> <Gold.Chemscore.DEInternal.Weighted>
2.3726

> <Gold.Chemscore.Rot.Weighted>
11.4655

> <Gold.Chemscore.Internal.Correction.Weighted>
   9.000000E+99

> <Gold.Protein.RotatedTorsions>
[ 6907 6896 6895 6894 ] final  -11.90 input  -60.11 | X-H torsion
[ 7974 7965 7964 7962 ] final   91.95 input  175.53 | X-H torsion
[ 8008 7997 7996 7995 ] final  -84.39 input   59.86 | X-H torsion
[ 10167 10162 10161 10158 ] final  157.43 input  -65.29 | X-H torsion
[ 10718 10713 10712 10709 ] final  114.38 input   66.30 | X-H torsion
[ 10763 10752 10751 10750 ] final   41.97 input  -60.55 | X-H torsion
[ 11005 11000 10999 10996 ] final -134.89 input  -57.11 | X-H torsion

> <Gold.Protein.ActiveResidues>
 VAL166  LYS551  ARG553  GLY616  TRP617  ASP618  TYR619  PRO620  LYS621  CYS622 
 ASP623  PHE694  ASN695  SER759  ASP760  ASP761  ALA762  ILE779  LEU786  VAL792 
 PHE793  MET794  SER795  GLU796  ALA797  LYS798  CYS799  TRP800  GLU811  SER814 

> <Gold.Protein.RotatedAtoms>
  151.3790  135.0936  159.9489 H   0  0  0  0  0  0  0  0  0  0  0  0  # atno 6907 bound_to 6896
  152.5114  133.9091  159.7489 H   0  0  0  0  0  0  0  0  0  0  0  0  # atno 6908 bound_to 6896
  150.9520  133.6484  159.2799 H   0  0  0  0  0  0  0  0  0  0  0  0  # atno 6909 bound_to 6896
  145.4989  139.2276  143.2788 H   0  0  0  0  0  0  0  0  0  0  0  0  # atno 7974 bound_to 7965
  154.6293  140.0605  156.9713 H   0  0  0  0  0  0  0  0  0  0  0  0  # atno 8008 bound_to 7997
  155.1691  140.3289  155.4378 H   0  0  0  0  0  0  0  0  0  0  0  0  # atno 8009 bound_to 7997
  156.2474  140.1917  156.6794 H   0  0  0  0  0  0  0  0  0  0  0  0  # atno 8010 bound_to 7997
  139.4823  144.4918  151.8298 H   0  0  0  0  0  0  0  0  0  0  0  0  # atno 10167 bound_to 10162
  157.6285  131.0997  150.7177 H   0  0  0  0  0  0  0  0  0  0  0  0  # atno 10718 bound_to 10713
  152.9894  135.6146  154.2873 H   0  0  0  0  0  0  0  0  0  0  0  0  # atno 10763 bound_to 10752
  154.2600  135.2782  155.2784 H   0  0  0  0  0  0  0  0  0  0  0  0  # atno 10764 bound_to 10752
  154.5214  135.5813  153.6741 H   0  0  0  0  0  0  0  0  0  0  0  0  # atno 10765 bound_to 10752
  140.8948  134.1766  157.4502 H   0  0  0  0  0  0  0  0  0  0  0  0  # atno 11005 bound_to 11000
  146.2238  140.5788  142.9005 LP  0  0  0  0  0  0  0  0  0  0  0  0  # atno 17320 bound_to 7965
  144.7791  140.5803  143.6617 LP  0  0  0  0  0  0  0  0  0  0  0  0  # atno 17321 bound_to 7965
  140.4402  144.1996  150.5891 LP  0  0  0  0  0  0  0  0  0  0  0  0  # atno 17342 bound_to 10162
  140.4690  143.2420  151.9115 LP  0  0  0  0  0  0  0  0  0  0  0  0  # atno 17343 bound_to 10162
  156.7521  130.4772  149.5454 LP  0  0  0  0  0  0  0  0  0  0  0  0  # atno 17370 bound_to 10713
  156.1472  130.6285  151.0547 LP  0  0  0  0  0  0  0  0  0  0  0  0  # atno 17371 bound_to 10713
  139.8734  134.9873  156.5365 LP  0  0  0  0  0  0  0  0  0  0  0  0  # atno 17394 bound_to 11000
  140.8303  133.8284  155.8977 LP  0  0  0  0  0  0  0  0  0  0  0  0  # atno 17395 bound_to 11000

$$$$
