AV-unprocessed.smi:2051|AV-procd|sdf|8327|dock7
  -GOLD-   2272010593D 1   1.00000     0.00000
 Structure written by MMmdl.
 33 34  0  0  0  0  0  0  0  0  1 V2000
  150.2603  141.1945  158.1102 O   0  0  0  0  0  0  0  0  0  0  0  0
  150.7777  141.7929  157.1655 C   0  0  0  0  0  0  0  0  0  0  0  0
  151.0547  141.0833  155.8318 C   0  0  0  0  0  0  0  0  0  0  0  0
  149.8345  140.7055  155.0988 N   0  0  0  0  0  0  0  0  0  0  0  0
  148.9579  141.7475  154.7358 C   0  0  0  0  0  0  0  0  0  0  0  0
  147.8168  141.5155  154.0679 C   0  0  0  0  0  0  0  0  0  0  0  0
  147.4952  140.1519  153.7193 C   0  0  0  0  0  0  0  0  0  0  0  0
  148.3252  139.1474  154.0643 C   0  0  0  0  0  0  0  0  0  0  0  0
  149.5721  139.3962  154.7974 C   0  0  0  0  0  0  0  0  0  0  0  0
  150.3333  138.4839  155.1205 O   0  0  0  0  0  0  0  0  0  0  0  0
  151.1219  143.0882  157.2185 N   0  0  0  0  0  0  0  0  0  0  0  0
  150.9436  143.9598  158.3741 C   0  0  0  0  0  0  0  0  0  0  0  0
  152.0202  143.7151  159.4448 C   0  0  1  0  0  0  0  0  0  0  0  0
  151.9023  144.6322  160.6625 C   0  0  0  0  0  0  0  0  0  0  0  0
  152.4869  143.8075  161.8011 C   0  0  0  0  0  0  0  0  0  0  0  0
  152.6735  142.4131  161.1987 C   0  0  0  0  0  0  0  0  0  0  0  0
  151.8847  142.4242  160.0185 O   0  0  0  0  0  0  0  0  0  0  0  0
  151.6767  141.7384  155.2204 H   0  0  0  0  0  0  0  0  0  0  0  0
  151.6704  140.2014  156.0187 H   0  0  0  0  0  0  0  0  0  0  0  0
  149.2681  142.7368  155.0398 H   0  0  0  0  0  0  0  0  0  0  0  0
  147.1555  142.3268  153.8016 H   0  0  0  0  0  0  0  0  0  0  0  0
  146.5847  139.9362  153.1800 H   0  0  0  0  0  0  0  0  0  0  0  0
  148.0682  138.1334  153.7954 H   0  0  0  0  0  0  0  0  0  0  0  0
  151.5339  143.5036  156.3957 H   0  0  0  0  0  0  0  0  0  0  0  0
  150.9595  145.0030  158.0542 H   0  0  0  0  0  0  0  0  0  0  0  0
  149.9521  143.7781  158.7899 H   0  0  0  0  0  0  0  0  0  0  0  0
  153.0198  143.8085  159.0156 H   0  0  0  0  0  0  0  0  0  0  0  0
  152.4201  145.5805  160.5169 H   0  0  0  0  0  0  0  0  0  0  0  0
  150.8553  144.8526  160.8750 H   0  0  0  0  0  0  0  0  0  0  0  0
  153.4353  144.2124  162.1554 H   0  0  0  0  0  0  0  0  0  0  0  0
  151.7968  143.7825  162.6454 H   0  0  0  0  0  0  0  0  0  0  0  0
  153.7180  142.2476  160.9301 H   0  0  0  0  0  0  0  0  0  0  0  0
  152.3659  141.6168  161.8767 H   0  0  0  0  0  0  0  0  0  0  0  0
  1  2  2  0  0  0  0
  2  3  1  0  0  0  0
  2 11  1  0  0  0  0
  3  4  1  0  0  0  0
  3 18  1  0  0  0  0
  3 19  1  0  0  0  0
  4  9  1  0  0  0  0
  4  5  1  0  0  0  0
  5  6  2  0  0  0  0
  5 20  1  0  0  0  0
  6  7  1  0  0  0  0
  6 21  1  0  0  0  0
  7  8  2  0  0  0  0
  7 22  1  0  0  0  0
  8  9  1  0  0  0  0
  8 23  1  0  0  0  0
  9 10  2  0  0  0  0
 11 12  1  0  0  0  0
 11 24  1  0  0  0  0
 12 13  1  0  0  0  0
 12 25  1  0  0  0  0
 12 26  1  0  0  0  0
 13 17  1  0  0  0  0
 13 14  1  0  0  0  0
 13 27  1  0  0  0  0
 14 15  1  0  0  0  0
 14 28  1  0  0  0  0
 14 29  1  0  0  0  0
 15 16  1  0  0  0  0
 15 30  1  0  0  0  0
 15 31  1  0  0  0  0
 16 17  1  0  0  0  0
 16 32  1  0  0  0  0
 16 33  1  0  0  0  0
M  END
> <s_m_source_file>
AV-unprocessed.smi

> <i_m_source_file_index>
2051

> <i_lp_mmshare_version>
43012

> <i_f3d_flags>
0

> <s_epik_input>
TzFbQ0gyXVtDSDJdW0NIMl1bQ0BIXTFbQ0gyXVtOSF1DKD1PKVtDSDJdbjJbY0hdW2NIXVtjSF1bY0hdYzI9Tw==

> <s_epik_cmdline>
J2VwaWtfcHl0aG9uJywgJy1waCcsICc3LjAnLCAnLXRuJywgJzgnLCAnLW1hJywgJzIwMCcsICctbWV0YWxfYmluZGluZycsICctaW1hZScsICc8aW5maWxlLm1hZT4nLCAnLW9tYWUnLCAnPG91dGZpbGUubWFlPic=

> <r_lp_tautomer_probability>
1

> <r_epik_Ionization_Penalty>
3.94187e-07

> <r_epik_Ionization_Penalty_Charging>
3.67328e-07

> <r_epik_Ionization_Penalty_Neutral>
2.6859e-08

> <r_epik_State_Penalty>
-0

> <r_epik_Charging_Adjusted_Penalty>
3.67328e-07

> <i_epik_Tot_Q>
0

> <i_epik_Tot_abs_Q>
0

> <r_epik_Metal_State_Penalty>
-0

> <b_epik_Metal_Only>
0

> <s_lp_Force_Field>
OPLS_2005

> <r_lp_Energy>
26.6962

> <b_lp_Chiralities_Consistent>
1

> <s_lp_Variant>
AV-unprocessed.smi:2051-2

> <Gold.Version>
5.8.1

> <Gold.Id.Protein>
6NUR|6NUR_protein|mol2

> <Gold.PLP.Fitness>
41.5393

> <Gold.PLP.PLP>
-38.9077

> <Gold.PLP.part.hbond>
-0.5708

> <Gold.PLP.part.metal>
0.0000

> <Gold.PLP.part.buried>
-3.6009

> <Gold.PLP.part.nonpolar>
-34.2946

> <Gold.PLP.part.repulsive>
0.1475

> <Gold.PLP.ligand.clash>
0.0000

> <Gold.PLP.ligand.torsion>
0.1917

> <Gold.PLP.Chemscore.Hbond>
0.0000

> <Gold.PLP.Chemscore.CHOScore>
1.0000

> <Gold.PLP.Chemscore.Metal>
0.0000

> <Gold.Chemscore.Hbonds>
donor molecule, donor type, donor heavy atom, donor atom, acceptor molecule, acceptor atom, score
      L1  C     5    20       P1  8028  1.00

> <Gold.PLP.Chemscore.Internal.Correction>
0.0150

> <Gold.Rescore>
     Score         DG    S(hbond)    S(metal)    S(lipo)     H(rot)  DE(clash)    DE(int)     intcor
     10.49     -12.12       0.00        0.00      93.77       1.69       0.06       1.56       ----

> <Gold.Chemscore.Fitness>
10.4929

> <Gold.Chemscore.DG>
-12.1151

> <Gold.Chemscore.ZeroCoef>
-5.4800

> <Gold.Chemscore.Hbond>
0.0000

> <Gold.Chemscore.Metal>
0.0000

> <Gold.Chemscore.Lipo>
93.7671

> <Gold.Chemscore.Internal_Hbond>
0.0000

> <Gold.Chemscore.DEClash>
0.0599

> <Gold.Chemscore.DEInternal>
1.5623

> <Gold.Chemscore.Rot>
1.6936

> <Gold.Chemscore.Internal.Correction>
   9.000000E+99

> <Gold.Chemscore.Hbond.Weighted>
-0.0000

> <Gold.Chemscore.Metal.Weighted>
-0.0000

> <Gold.Chemscore.Lipo.Weighted>
-10.9707

> <Gold.Chemscore.Internal_Hbond.Weighted>
0.0000

> <Gold.Chemscore.DEClash.Weighted>
0.0599

> <Gold.Chemscore.DEInternal.Weighted>
1.5623

> <Gold.Chemscore.Rot.Weighted>
4.3357

> <Gold.Chemscore.Internal.Correction.Weighted>
   9.000000E+99

> <Gold.Protein.RotatedTorsions>
[ 6907 6896 6895 6894 ] final  -46.10 input  -60.11 | X-H torsion
[ 7974 7965 7964 7962 ] final   14.80 input  175.53 | X-H torsion
[ 8008 7997 7996 7995 ] final   11.70 input   59.86 | X-H torsion
[ 10167 10162 10161 10158 ] final  -16.54 input  -65.29 | X-H torsion
[ 10718 10713 10712 10709 ] final  142.58 input   66.30 | X-H torsion
[ 10763 10752 10751 10750 ] final  156.28 input  -60.55 | X-H torsion
[ 11005 11000 10999 10996 ] final  -50.90 input  -57.11 | X-H torsion

> <Gold.Protein.ActiveResidues>
 VAL166  LYS551  ARG553  GLY616  TRP617  ASP618  TYR619  PRO620  LYS621  CYS622 
 ASP623  PHE694  ASN695  SER759  ASP760  ASP761  ALA762  ILE779  LEU786  VAL792 
 PHE793  MET794  SER795  GLU796  ALA797  LYS798  CYS799  TRP800  GLU811  SER814 

> <Gold.Protein.RotatedAtoms>
  150.9149  134.8566  159.7449 H   0  0  0  0  0  0  0  0  0  0  0  0  # atno 6907 bound_to 6896
  152.4963  134.4304  159.9520 H   0  0  0  0  0  0  0  0  0  0  0  0  # atno 6908 bound_to 6896
  151.4343  133.3622  159.2808 H   0  0  0  0  0  0  0  0  0  0  0  0  # atno 6909 bound_to 6896
  146.2295  139.8988  142.8542 H   0  0  0  0  0  0  0  0  0  0  0  0  # atno 7974 bound_to 7965
  154.8105  140.2867  155.5856 H   0  0  0  0  0  0  0  0  0  0  0  0  # atno 8008 bound_to 7997
  156.2987  140.2569  156.2922 H   0  0  0  0  0  0  0  0  0  0  0  0  # atno 8009 bound_to 7997
  154.9453  140.0380  157.2106 H   0  0  0  0  0  0  0  0  0  0  0  0  # atno 8010 bound_to 7997
  140.7235  143.5106  150.9754 H   0  0  0  0  0  0  0  0  0  0  0  0  # atno 10167 bound_to 10162
  157.3790  131.0989  151.0757 H   0  0  0  0  0  0  0  0  0  0  0  0  # atno 10718 bound_to 10713
  154.1819  135.2799  155.3049 H   0  0  0  0  0  0  0  0  0  0  0  0  # atno 10763 bound_to 10752
  154.5996  135.5534  153.7364 H   0  0  0  0  0  0  0  0  0  0  0  0  # atno 10764 bound_to 10752
  153.0136  135.6388  154.1958 H   0  0  0  0  0  0  0  0  0  0  0  0  # atno 10765 bound_to 10752
  141.0842  133.6646  156.3799 H   0  0  0  0  0  0  0  0  0  0  0  0  # atno 11005 bound_to 11000
  145.2344  140.9985  143.3972 LP  0  0  0  0  0  0  0  0  0  0  0  0  # atno 17320 bound_to 7965
  144.9504  139.4089  143.6405 LP  0  0  0  0  0  0  0  0  0  0  0  0  # atno 17321 bound_to 7965
  139.8820  143.7061  152.3156 LP  0  0  0  0  0  0  0  0  0  0  0  0  # atno 17342 bound_to 10162
  139.7346  144.7574  151.0748 LP  0  0  0  0  0  0  0  0  0  0  0  0  # atno 17343 bound_to 10162
  157.1833  130.6319  149.5679 LP  0  0  0  0  0  0  0  0  0  0  0  0  # atno 17370 bound_to 10713
  155.9771  130.4746  150.6574 LP  0  0  0  0  0  0  0  0  0  0  0  0  # atno 17371 bound_to 10713
  140.5401  134.6128  157.5377 LP  0  0  0  0  0  0  0  0  0  0  0  0  # atno 17394 bound_to 11000
  139.9658  134.7375  156.0141 LP  0  0  0  0  0  0  0  0  0  0  0  0  # atno 17395 bound_to 11000

$$$$
