AV-unprocessed.smi:1764|AV-procd|sdf|7132|dock4
  -GOLD-   22720 8363D 1   1.00000     0.00000
 Structure written by MMmdl.
 31 32  0  0  0  0  0  0  0  0  1 V2000
  144.5933  137.0548  151.8383 O   0  0  0  0  0  0  0  0  0  0  0  0
  145.7863  136.7495  151.8342 C   0  0  0  0  0  0  0  0  0  0  0  0
  146.7771  137.6339  152.0198 N   0  0  0  0  0  0  0  0  0  0  0  0
  146.5951  139.0652  152.2352 C   0  0  0  0  0  0  0  0  0  0  0  0
  147.3168  139.5400  153.5072 C   0  0  2  0  0  0  0  0  0  0  0  0
  147.5997  141.0416  153.5309 C   0  0  0  0  0  0  0  0  0  0  0  0
  148.8177  141.1678  154.4341 C   0  0  0  0  0  0  0  0  0  0  0  0
  149.3250  139.7310  154.5826 C   0  0  0  0  0  0  0  0  0  0  0  0
  148.6215  138.9900  153.5968 O   0  0  0  0  0  0  0  0  0  0  0  0
  146.2709  135.5091  151.6466 N   0  0  0  0  0  0  0  0  0  0  0  0
  145.5464  134.3055  151.4349 C   0  0  0  0  0  0  0  0  0  0  0  0
  146.3394  133.1403  151.3297 C   0  0  0  0  0  0  0  0  0  0  0  0
  145.7166  131.8943  151.1213 C   0  0  0  0  0  0  0  0  0  0  0  0
  144.3146  131.8452  151.0242 C   0  0  0  0  0  0  0  0  0  0  0  0
  143.5993  133.0514  151.1403 C   0  0  0  0  0  0  0  0  0  0  0  0
  144.1944  134.2464  151.3398 N   0  0  0  0  0  0  0  0  0  0  0  0
  147.7278  137.2951  152.0032 H   0  0  0  0  0  0  0  0  0  0  0  0
  146.9250  139.6366  151.3657 H   0  0  0  0  0  0  0  0  0  0  0  0
  145.5251  139.2483  152.3353 H   0  0  0  0  0  0  0  0  0  0  0  0
  146.7492  139.2580  154.3962 H   0  0  0  0  0  0  0  0  0  0  0  0
  147.8531  141.3942  152.5299 H   0  0  0  0  0  0  0  0  0  0  0  0
  146.7471  141.6221  153.8844 H   0  0  0  0  0  0  0  0  0  0  0  0
  149.5701  141.8127  153.9788 H   0  0  0  0  0  0  0  0  0  0  0  0
  148.5582  141.5887  155.4062 H   0  0  0  0  0  0  0  0  0  0  0  0
  150.4030  139.6494  154.4420 H   0  0  0  0  0  0  0  0  0  0  0  0
  149.0786  139.3373  155.5698 H   0  0  0  0  0  0  0  0  0  0  0  0
  147.2754  135.4139  151.6615 H   0  0  0  0  0  0  0  0  0  0  0  0
  147.4156  133.1957  151.4074 H   0  0  0  0  0  0  0  0  0  0  0  0
  146.3051  130.9926  151.0380 H   0  0  0  0  0  0  0  0  0  0  0  0
  143.8008  130.9087  150.8651 H   0  0  0  0  0  0  0  0  0  0  0  0
  142.5215  133.0576  151.0720 H   0  0  0  0  0  0  0  0  0  0  0  0
  1  2  2  0  0  0  0
  2  3  1  0  0  0  0
  2 10  1  0  0  0  0
  3  4  1  0  0  0  0
  3 17  1  0  0  0  0
  4  5  1  0  0  0  0
  4 18  1  0  0  0  0
  4 19  1  0  0  0  0
  5  9  1  0  0  0  0
  5  6  1  0  0  0  0
  5 20  1  0  0  0  0
  6  7  1  0  0  0  0
  6 21  1  0  0  0  0
  6 22  1  0  0  0  0
  7  8  1  0  0  0  0
  7 23  1  0  0  0  0
  7 24  1  0  0  0  0
  8  9  1  0  0  0  0
  8 25  1  0  0  0  0
  8 26  1  0  0  0  0
 10 11  1  0  0  0  0
 10 27  1  0  0  0  0
 11 16  1  0  0  0  0
 11 12  2  0  0  0  0
 12 13  1  0  0  0  0
 12 28  1  0  0  0  0
 13 14  2  0  0  0  0
 13 29  1  0  0  0  0
 14 15  1  0  0  0  0
 14 30  1  0  0  0  0
 15 16  2  0  0  0  0
 15 31  1  0  0  0  0
M  END
> <s_m_source_file>
AV-unprocessed.smi

> <i_m_source_file_index>
1764

> <i_lp_mmshare_version>
43012

> <i_f3d_flags>
0

> <s_epik_input>
bjFbY0hdW2NIXVtjSF1bY0hdYzFbTkhdQyg9TylbTkhdW0NIMl1bQ0BASF0yW0NIMl1bQ0gyXVtDSDJdTzI=

> <s_epik_cmdline>
J2VwaWtfcHl0aG9uJywgJy1waCcsICc3LjAnLCAnLXRuJywgJzgnLCAnLW1hJywgJzIwMCcsICctbWV0YWxfYmluZGluZycsICctaW1hZScsICc8aW5maWxlLm1hZT4nLCAnLW9tYWUnLCAnPG91dGZpbGUubWFlPic=

> <r_lp_tautomer_probability>
1

> <r_epik_Ionization_Penalty>
4.47751e-05

> <r_epik_Ionization_Penalty_Charging>
0

> <r_epik_Ionization_Penalty_Neutral>
4.47751e-05

> <r_epik_State_Penalty>
-0

> <r_epik_Charging_Adjusted_Penalty>
0

> <i_epik_Tot_Q>
0

> <i_epik_Tot_abs_Q>
0

> <r_epik_Metal_State_Penalty>
-0

> <b_epik_Metal_Only>
0

> <s_lp_Force_Field>
OPLS_2005

> <r_lp_Energy>
19.1165

> <b_lp_Chiralities_Consistent>
1

> <s_lp_Variant>
AV-unprocessed.smi:1764-1

> <Gold.Version>
5.8.1

> <Gold.Id.Protein>
6NUR|6NUR_protein|mol2

> <Gold.PLP.Fitness>
36.5615

> <Gold.PLP.PLP>
-27.9501

> <Gold.PLP.part.hbond>
-2.0000

> <Gold.PLP.part.metal>
0.0000

> <Gold.PLP.part.buried>
-5.4823

> <Gold.PLP.part.nonpolar>
-26.2385

> <Gold.PLP.part.repulsive>
5.7725

> <Gold.PLP.ligand.clash>
0.0000

> <Gold.PLP.ligand.torsion>
0.1848

> <Gold.PLP.Chemscore.Hbond>
1.9920

> <Gold.PLP.Chemscore.CHOScore>
0.9981

> <Gold.PLP.Chemscore.Metal>
0.0000

> <Gold.Chemscore.Hbonds>
donor molecule, donor type, donor heavy atom, donor atom, acceptor molecule, acceptor atom, score
      L1  H     3    17       P1  7948  1.00
      L1  H    10    27       P1  7948  0.99
      L1  C    15    31       P1 10186  0.99

> <Gold.PLP.Chemscore.Internal.Correction>
0.0108

> <Gold.Rescore>
     Score         DG    S(hbond)    S(metal)    S(lipo)     H(rot)  DE(clash)    DE(int)     intcor
     13.23     -15.97       1.93        0.00      62.34       1.27       1.31       1.43       ----

> <Gold.Chemscore.Fitness>
13.2302

> <Gold.Chemscore.DG>
-15.9718

> <Gold.Chemscore.ZeroCoef>
-5.4800

> <Gold.Chemscore.Hbond>
1.9292

> <Gold.Chemscore.Metal>
0.0000

> <Gold.Chemscore.Lipo>
62.3402

> <Gold.Chemscore.Internal_Hbond>
0.0000

> <Gold.Chemscore.DEClash>
1.3150

> <Gold.Chemscore.DEInternal>
1.4267

> <Gold.Chemscore.Rot>
1.2678

> <Gold.Chemscore.Internal.Correction>
   9.000000E+99

> <Gold.Chemscore.Hbonds>
donor molecule, donor type, donor heavy atom, donor atom, acceptor molecule, acceptor atom, score
      L1  H     3    17       P1  7948  0.98
      L1  H    10    27       P1  7948  0.91

> <Gold.Chemscore.Hbond.Weighted>
-6.4435

> <Gold.Chemscore.Metal.Weighted>
-0.0000

> <Gold.Chemscore.Lipo.Weighted>
-7.2938

> <Gold.Chemscore.Internal_Hbond.Weighted>
0.0000

> <Gold.Chemscore.DEClash.Weighted>
1.3150

> <Gold.Chemscore.DEInternal.Weighted>
1.4267

> <Gold.Chemscore.Rot.Weighted>
3.2455

> <Gold.Chemscore.Internal.Correction.Weighted>
   9.000000E+99

> <Gold.Protein.RotatedTorsions>
[ 6907 6896 6895 6894 ] final   95.55 input  -60.11 | X-H torsion
[ 7974 7965 7964 7962 ] final -168.41 input  175.53 | X-H torsion
[ 8008 7997 7996 7995 ] final  117.68 input   59.86 | X-H torsion
[ 10167 10162 10161 10158 ] final  -42.71 input  -65.29 | X-H torsion
[ 10718 10713 10712 10709 ] final -141.56 input   66.30 | X-H torsion
[ 10763 10752 10751 10750 ] final  -14.28 input  -60.55 | X-H torsion
[ 11005 11000 10999 10996 ] final   49.40 input  -57.11 | X-H torsion

> <Gold.Protein.ActiveResidues>
 VAL166  LYS551  ARG553  GLY616  TRP617  ASP618  TYR619  PRO620  LYS621  CYS622 
 ASP623  PHE694  ASN695  SER759  ASP760  ASP761  ALA762  ILE779  LEU786  VAL792 
 PHE793  MET794  SER795  GLU796  ALA797  LYS798  CYS799  TRP800  GLU811  SER814 

> <Gold.Protein.RotatedAtoms>
  152.5443  134.1023  159.8322 H   0  0  0  0  0  0  0  0  0  0  0  0  # atno 6907 bound_to 6896
  151.1100  133.5173  159.2613 H   0  0  0  0  0  0  0  0  0  0  0  0  # atno 6908 bound_to 6896
  151.1895  135.0406  159.8881 H   0  0  0  0  0  0  0  0  0  0  0  0  # atno 6909 bound_to 6896
  144.7204  140.2375  143.6296 H   0  0  0  0  0  0  0  0  0  0  0  0  # atno 7974 bound_to 7965
  156.2507  140.2891  156.0717 H   0  0  0  0  0  0  0  0  0  0  0  0  # atno 8008 bound_to 7997
  155.1664  140.0401  157.2871 H   0  0  0  0  0  0  0  0  0  0  0  0  # atno 8009 bound_to 7997
  154.6357  140.2510  155.7388 H   0  0  0  0  0  0  0  0  0  0  0  0  # atno 8010 bound_to 7997
  140.6959  143.3022  151.3248 H   0  0  0  0  0  0  0  0  0  0  0  0  # atno 10167 bound_to 10162
  156.3355  130.7609  151.1735 H   0  0  0  0  0  0  0  0  0  0  0  0  # atno 10718 bound_to 10713
  153.5259  135.7015  153.5707 H   0  0  0  0  0  0  0  0  0  0  0  0  # atno 10763 bound_to 10752
  153.3736  135.3938  155.1806 H   0  0  0  0  0  0  0  0  0  0  0  0  # atno 10764 bound_to 10752
  154.8690  135.3818  154.4752 H   0  0  0  0  0  0  0  0  0  0  0  0  # atno 10765 bound_to 10752
  140.1107  134.4959  155.8680 H   0  0  0  0  0  0  0  0  0  0  0  0  # atno 11005 bound_to 11000
  145.8352  139.2104  143.1859 LP  0  0  0  0  0  0  0  0  0  0  0  0  # atno 17320 bound_to 7965
  146.0396  140.8178  142.9835 LP  0  0  0  0  0  0  0  0  0  0  0  0  # atno 17321 bound_to 7965
  139.6415  144.0531  152.2558 LP  0  0  0  0  0  0  0  0  0  0  0  0  # atno 17342 bound_to 10162
  140.0038  144.6274  150.7707 LP  0  0  0  0  0  0  0  0  0  0  0  0  # atno 17343 bound_to 10162
  157.7438  131.0469  150.4918 LP  0  0  0  0  0  0  0  0  0  0  0  0  # atno 17370 bound_to 10713
  156.5090  130.4135  149.6311 LP  0  0  0  0  0  0  0  0  0  0  0  0  # atno 17371 bound_to 10713
  141.2129  133.6726  156.6699 LP  0  0  0  0  0  0  0  0  0  0  0  0  # atno 17394 bound_to 11000
  140.3095  134.8097  157.4165 LP  0  0  0  0  0  0  0  0  0  0  0  0  # atno 17395 bound_to 11000

$$$$
