AV-unprocessed.smi:1033|AV-procd|sdf|4509|dock5
  -GOLD-   22720 2513D 1   1.00000     0.00000
 Structure written by MMmdl.
 57 59  0  0  0  0  0  0  0  0  3 V2000
  153.6404  142.8753  163.4723 C   0  0  0  0  0  0  0  0  0  0  0  0
  153.1215  142.8409  162.0454 C   0  0  0  0  0  0  0  0  0  0  0  0
  152.2296  143.8486  161.6143 C   0  0  0  0  0  0  0  0  0  0  0  0
  151.7248  143.8532  160.2956 C   0  0  0  0  0  0  0  0  0  0  0  0
  150.8565  144.7298  159.6679 N   0  0  0  0  0  0  0  0  0  0  0  0
  150.7759  144.2023  158.4501 C   0  0  0  0  0  0  0  0  0  0  0  0
  151.4942  143.0882  158.2115 N   0  0  0  0  0  0  0  0  0  0  0  0
  151.5669  142.3453  156.9655 C   0  0  0  0  0  0  0  0  0  0  0  0
  150.3284  141.4576  156.7345 C   0  0  1  0  0  0  0  0  0  0  0  0
  149.1664  142.2653  156.7199 O   0  0  0  0  0  0  0  0  0  0  0  0
  150.4130  140.6983  155.3954 C   0  0  0  0  0  0  0  0  0  0  0  0
  149.2396  139.8166  155.1621 N   0  3  2  0  0  0  0  0  0  0  0  0
  149.5533  138.3677  155.2479 C   0  0  0  0  0  0  0  0  0  0  0  0
  148.2796  137.5158  155.0986 C   0  0  0  0  0  0  0  0  0  0  0  0
  147.5617  137.8322  153.8364 N   0  3  1  0  0  0  0  0  0  0  0  0
  146.3549  136.9940  153.6149 C   0  0  0  0  0  0  0  0  0  0  0  0
  145.7912  137.1247  152.1861 C   0  0  1  0  0  0  0  0  0  0  0  0
  144.9936  135.8817  151.7709 C   0  0  0  0  0  0  0  0  0  0  0  0
  144.9264  138.2409  152.1346 O   0  0  0  0  0  0  0  0  0  0  0  0
  147.2614  139.2826  153.7432 C   0  0  0  0  0  0  0  0  0  0  0  0
  148.5371  140.1299  153.8940 C   0  0  0  0  0  0  0  0  0  0  0  0
  152.1403  142.8137  159.4126 C   0  0  0  0  0  0  0  0  0  0  0  0
  153.0263  141.8050  159.8303 C   0  0  0  0  0  0  0  0  0  0  0  0
  153.5208  141.8152  161.1513 C   0  0  0  0  0  0  0  0  0  0  0  0
  154.4775  140.7215  161.5924 C   0  0  0  0  0  0  0  0  0  0  0  0
  153.2821  143.7562  164.0058 H   0  0  0  0  0  0  0  0  0  0  0  0
  154.7302  142.8994  163.4836 H   0  0  0  0  0  0  0  0  0  0  0  0
  153.3068  141.9936  164.0197 H   0  0  0  0  0  0  0  0  0  0  0  0
  151.9250  144.6300  162.2952 H   0  0  0  0  0  0  0  0  0  0  0  0
  150.1612  144.6545  157.6853 H   0  0  0  0  0  0  0  0  0  0  0  0
  151.6922  143.0534  156.1451 H   0  0  0  0  0  0  0  0  0  0  0  0
  152.4694  141.7328  156.9864 H   0  0  0  0  0  0  0  0  0  0  0  0
  150.2460  140.7570  157.5651 H   0  0  0  0  0  0  0  0  0  0  0  0
  149.3758  143.0861  156.2983 H   0  0  0  0  0  0  0  0  0  0  0  0
  150.4821  141.4327  154.5911 H   0  0  0  0  0  0  0  0  0  0  0  0
  151.3285  140.1069  155.3451 H   0  0  0  0  0  0  0  0  0  0  0  0
  150.2718  138.1034  154.4702 H   0  0  0  0  0  0  0  0  0  0  0  0
  150.0241  138.1360  156.2026 H   0  0  0  0  0  0  0  0  0  0  0  0
  148.5541  136.4618  155.1260 H   0  0  0  0  0  0  0  0  0  0  0  0
  147.6161  137.6905  155.9475 H   0  0  0  0  0  0  0  0  0  0  0  0
  146.5929  135.9530  153.8391 H   0  0  0  0  0  0  0  0  0  0  0  0
  145.5732  137.2835  154.3196 H   0  0  0  0  0  0  0  0  0  0  0  0
  146.5921  137.2753  151.4632 H   0  0  0  0  0  0  0  0  0  0  0  0
  145.6244  134.9924  151.7782 H   0  0  0  0  0  0  0  0  0  0  0  0
  144.5910  135.9896  150.7633 H   0  0  0  0  0  0  0  0  0  0  0  0
  144.1564  135.7001  152.4460 H   0  0  0  0  0  0  0  0  0  0  0  0
  144.7009  138.4069  151.2311 H   0  0  0  0  0  0  0  0  0  0  0  0
  146.7970  139.5014  152.7808 H   0  0  0  0  0  0  0  0  0  0  0  0
  146.5381  139.5544  154.5140 H   0  0  0  0  0  0  0  0  0  0  0  0
  148.2695  141.1873  153.8713 H   0  0  0  0  0  0  0  0  0  0  0  0
  149.2088  139.9536  153.0519 H   0  0  0  0  0  0  0  0  0  0  0  0
  153.3248  141.0307  159.1391 H   0  0  0  0  0  0  0  0  0  0  0  0
  154.6443  139.9939  160.7977 H   0  0  0  0  0  0  0  0  0  0  0  0
  154.0780  140.1877  162.4549 H   0  0  0  0  0  0  0  0  0  0  0  0
  155.4435  141.1470  161.8649 H   0  0  0  0  0  0  0  0  0  0  0  0
  148.1900  137.6226  153.0728 H   0  0  0  0  0  0  0  0  0  0  0  0
  148.5873  140.0251  155.9055 H   0  0  0  0  0  0  0  0  0  0  0  0
  1  2  1  0  0  0  0
  1 26  1  0  0  0  0
  1 27  1  0  0  0  0
  1 28  1  0  0  0  0
  2 24  1  0  0  0  0
  2  3  2  0  0  0  0
  3  4  1  0  0  0  0
  3 29  1  0  0  0  0
  4 22  2  0  0  0  0
  4  5  1  0  0  0  0
  5  6  2  0  0  0  0
  6  7  1  0  0  0  0
  6 30  1  0  0  0  0
  7  8  1  0  0  0  0
  7 22  1  0  0  0  0
  8  9  1  0  0  0  0
  8 31  1  0  0  0  0
  8 32  1  0  0  0  0
  9 10  1  0  0  0  0
  9 11  1  0  0  0  0
  9 33  1  0  0  0  0
 10 34  1  0  0  0  0
 11 12  1  0  0  0  0
 11 35  1  0  0  0  0
 11 36  1  0  0  0  0
 12 21  1  0  0  0  0
 12 13  1  0  0  0  0
 12 57  1  0  0  0  0
 13 14  1  0  0  0  0
 13 37  1  0  0  0  0
 13 38  1  0  0  0  0
 14 15  1  0  0  0  0
 14 39  1  0  0  0  0
 14 40  1  0  0  0  0
 15 16  1  0  0  0  0
 15 20  1  0  0  0  0
 15 56  1  0  0  0  0
 16 17  1  0  0  0  0
 16 41  1  0  0  0  0
 16 42  1  0  0  0  0
 17 18  1  0  0  0  0
 17 19  1  0  0  0  0
 17 43  1  0  0  0  0
 18 44  1  0  0  0  0
 18 45  1  0  0  0  0
 18 46  1  0  0  0  0
 19 47  1  0  0  0  0
 20 21  1  0  0  0  0
 20 48  1  0  0  0  0
 20 49  1  0  0  0  0
 21 50  1  0  0  0  0
 21 51  1  0  0  0  0
 22 23  1  0  0  0  0
 23 24  2  0  0  0  0
 23 52  1  0  0  0  0
 24 25  1  0  0  0  0
 25 53  1  0  0  0  0
 25 54  1  0  0  0  0
 25 55  1  0  0  0  0
M  CHG  1  12   1
M  CHG  1  15   1
M  END
> <s_m_source_file>
AV-unprocessed.smi

> <i_m_source_file_index>
1033

> <i_lp_mmshare_version>
43012

> <i_f3d_flags>
0

> <s_epik_input>
W0NIM11jKFtjSF0xKWMoW0NIM10pW2NIXWMoYzEyKW4oW2NIXW4yKVtDSDJdW0NASF0oW09IXSlbQ0gyXU4zW0NIMl1bQ0gyXU4oW0NIMl1bQ0gyXTMpW0NIMl1bQ0BIXShbQ0gzXSlbT0hd

> <s_epik_cmdline>
J2VwaWtfcHl0aG9uJywgJy1waCcsICc3LjAnLCAnLXRuJywgJzgnLCAnLW1hJywgJzIwMCcsICctbWV0YWxfYmluZGluZycsICctaW1hZScsICc8aW5maWxlLm1hZT4nLCAnLW9tYWUnLCAnPG91dGZpbGUubWFlPic=

> <r_epik_Ionization_Penalty>
3.16016

> <r_epik_Ionization_Penalty_Charging>
3.07679

> <r_epik_Ionization_Penalty_Neutral>
0.083365

> <r_epik_State_Penalty>
2.09701

> <r_epik_Charging_Adjusted_Penalty>
5.1738

> <i_epik_Tot_Q>
2

> <i_epik_Tot_abs_Q>
2

> <r_epik_Metal_State_Penalty>
2.02534

> <b_epik_Metal_Only>
0

> <s_lp_Force_Field>
OPLS_2005

> <r_lp_Energy>
27.8385

> <b_lp_Chiralities_Consistent>
1

> <s_lp_Variant>
AV-unprocessed.smi:1033-20

> <Gold.Version>
5.8.1

> <Gold.Id.Protein>
6NUR|6NUR_protein|mol2

> <Gold.PLP.Fitness>
65.1612

> <Gold.PLP.PLP>
-52.3770

> <Gold.PLP.part.hbond>
-4.0000

> <Gold.PLP.part.metal>
0.0000

> <Gold.PLP.part.buried>
-4.8249

> <Gold.PLP.part.nonpolar>
-43.9324

> <Gold.PLP.part.repulsive>
0.1920

> <Gold.PLP.ligand.clash>
0.0000

> <Gold.PLP.ligand.torsion>
1.2878

> <Gold.PLP.Chemscore.Hbond>
3.9840

> <Gold.PLP.Chemscore.CHOScore>
1.0235

> <Gold.PLP.Chemscore.Metal>
0.0000

> <Gold.Chemscore.Hbonds>
donor molecule, donor type, donor heavy atom, donor atom, acceptor molecule, acceptor atom, score
      L1  H    10    34       P1  8028  1.00
      L1  H    15    56       P1  7948  1.92
      L1  H    19    47       P1 10171  1.00
      L1  C     6    30       P1  8028  0.85
      L1  C     6    30       P1  8029  0.19

> <Gold.PLP.Chemscore.Internal.Correction>
0.3373

> <Gold.Rescore>
     Score         DG    S(hbond)    S(metal)    S(lipo)     H(rot)  DE(clash)    DE(int)     intcor
     20.72     -23.50       2.90        0.00     139.91       3.14       1.30       1.48       ----

> <Gold.Chemscore.Fitness>
20.7204

> <Gold.Chemscore.DG>
-23.4954

> <Gold.Chemscore.ZeroCoef>
-5.4800

> <Gold.Chemscore.Hbond>
2.8978

> <Gold.Chemscore.Metal>
0.0000

> <Gold.Chemscore.Lipo>
139.9144

> <Gold.Chemscore.Internal_Hbond>
0.0000

> <Gold.Chemscore.DEClash>
1.2999

> <Gold.Chemscore.DEInternal>
1.4751

> <Gold.Chemscore.Rot>
3.1380

> <Gold.Chemscore.Internal.Correction>
   9.000000E+99

> <Gold.Chemscore.Hbonds>
donor molecule, donor type, donor heavy atom, donor atom, acceptor molecule, acceptor atom, score
      L1  H    10    34       P1  8028  0.95
      L1  H    15    56       P1  7948  0.90
      L1  H    19    47       P1 10171  1.00

> <Gold.Chemscore.Hbond.Weighted>
-9.6786

> <Gold.Chemscore.Metal.Weighted>
-0.0000

> <Gold.Chemscore.Lipo.Weighted>
-16.3700

> <Gold.Chemscore.Internal_Hbond.Weighted>
0.0000

> <Gold.Chemscore.DEClash.Weighted>
1.2999

> <Gold.Chemscore.DEInternal.Weighted>
1.4751

> <Gold.Chemscore.Rot.Weighted>
8.0332

> <Gold.Chemscore.Internal.Correction.Weighted>
   9.000000E+99

> <Gold.Protein.RotatedTorsions>
[ 6907 6896 6895 6894 ] final  169.48 input  -60.11 | X-H torsion
[ 7974 7965 7964 7962 ] final -133.91 input  175.53 | X-H torsion
[ 8008 7997 7996 7995 ] final   51.16 input   59.86 | X-H torsion
[ 10167 10162 10161 10158 ] final   22.20 input  -65.29 | X-H torsion
[ 10718 10713 10712 10709 ] final   57.39 input   66.30 | X-H torsion
[ 10763 10752 10751 10750 ] final  -41.93 input  -60.55 | X-H torsion
[ 11005 11000 10999 10996 ] final -147.01 input  -57.11 | X-H torsion

> <Gold.Protein.ActiveResidues>
 VAL166  LYS551  ARG553  GLY616  TRP617  ASP618  TYR619  PRO620  LYS621  CYS622 
 ASP623  PHE694  ASN695  SER759  ASP760  ASP761  ALA762  ILE779  LEU786  VAL792 
 PHE793  MET794  SER795  GLU796  ALA797  LYS798  CYS799  TRP800  GLU811  SER814 

> <Gold.Protein.RotatedAtoms>
  151.8312  133.3409  159.3613 H   0  0  0  0  0  0  0  0  0  0  0  0  # atno 6907 bound_to 6896
  150.7264  134.5481  159.5790 H   0  0  0  0  0  0  0  0  0  0  0  0  # atno 6908 bound_to 6896
  152.2934  134.7695  160.0424 H   0  0  0  0  0  0  0  0  0  0  0  0  # atno 6909 bound_to 6896
  144.9150  140.6943  143.5001 H   0  0  0  0  0  0  0  0  0  0  0  0  # atno 7974 bound_to 7965
  155.4307  140.3450  155.4280 H   0  0  0  0  0  0  0  0  0  0  0  0  # atno 8008 bound_to 7997
  156.1338  140.1522  156.9056 H   0  0  0  0  0  0  0  0  0  0  0  0  # atno 8009 bound_to 7997
  154.4915  140.0840  156.7585 H   0  0  0  0  0  0  0  0  0  0  0  0  # atno 8010 bound_to 7997
  140.5367  143.9749  150.6495 H   0  0  0  0  0  0  0  0  0  0  0  0  # atno 10167 bound_to 10162
  157.5511  130.8766  149.8964 H   0  0  0  0  0  0  0  0  0  0  0  0  # atno 10718 bound_to 10713
  153.9706  135.6729  153.4747 H   0  0  0  0  0  0  0  0  0  0  0  0  # atno 10763 bound_to 10752
  153.0794  135.4931  154.8469 H   0  0  0  0  0  0  0  0  0  0  0  0  # atno 10764 bound_to 10752
  154.7221  135.3119  154.8991 H   0  0  0  0  0  0  0  0  0  0  0  0  # atno 10765 bound_to 10752
  140.7761  134.3133  157.5060 H   0  0  0  0  0  0  0  0  0  0  0  0  # atno 11005 bound_to 11000
  145.3390  139.1737  143.4496 LP  0  0  0  0  0  0  0  0  0  0  0  0  # atno 17320 bound_to 7965
  146.3177  140.3429  142.8649 LP  0  0  0  0  0  0  0  0  0  0  0  0  # atno 17321 bound_to 7965
  140.3138  143.3181  152.0852 LP  0  0  0  0  0  0  0  0  0  0  0  0  # atno 17342 bound_to 10162
  139.4973  144.6619  151.6445 LP  0  0  0  0  0  0  0  0  0  0  0  0  # atno 17343 bound_to 10162
  156.0577  130.3705  150.1053 LP  0  0  0  0  0  0  0  0  0  0  0  0  # atno 17370 bound_to 10713
  156.9226  130.9688  151.3546 LP  0  0  0  0  0  0  0  0  0  0  0  0  # atno 17371 bound_to 10713
  139.8749  134.9290  156.3466 LP  0  0  0  0  0  0  0  0  0  0  0  0  # atno 17394 bound_to 11000
  140.9527  133.7440  156.0294 LP  0  0  0  0  0  0  0  0  0  0  0  0  # atno 17395 bound_to 11000

$$$$
