AV-unprocessed.smi:2068|AV-procd|sdf|8430|dock4
  -GOLD-   2272011123D 1   1.00000     0.00000
 Structure written by MMmdl.
 32 33  0  0  0  0  0  0  0  0  2 V2000
  150.2030  135.5859  154.3276 N   0  0  0  0  0  0  0  0  0  0  0  0
  151.1606  136.3961  154.7891 C   0  0  0  0  0  0  0  0  0  0  0  0
  151.7509  136.1781  155.8454 O   0  0  0  0  0  0  0  0  0  0  0  0
  151.4943  137.6381  153.9575 C   0  0  0  0  0  0  0  0  0  0  0  0
  151.1920  138.8928  154.7258 C   0  0  0  0  0  0  0  0  0  0  0  0
  150.7337  140.0820  154.2199 C   0  0  0  0  0  0  0  0  0  0  0  0
  150.5066  141.2694  155.4720 S   0  0  0  0  0  0  0  0  0  0  0  0
  151.0511  140.0940  156.6699 C   0  0  0  0  0  0  0  0  0  0  0  0
  151.1477  140.3259  157.9879 N   0  5  0  0  0  0  0  0  0  0  0  0
  152.3721  140.4092  158.5622 C   0  0  0  0  0  0  0  0  0  0  0  0
  153.3586  139.6930  158.3846 O   0  0  0  0  0  0  0  0  0  0  0  0
  152.4732  141.5854  159.5436 C   0  0  0  0  0  0  0  0  0  0  0  0
  151.6734  142.8250  159.0859 C   0  0  1  0  0  0  0  0  0  0  0  0
  151.5048  143.8754  160.1572 C   0  0  0  0  0  0  0  0  0  0  0  0
  151.8855  145.0856  159.7547 C   0  0  0  0  0  0  0  0  0  0  0  0
  152.3857  145.0896  158.3369 C   0  0  0  0  0  0  0  0  0  0  0  0
  152.3535  143.5998  157.9282 C   0  0  0  0  0  0  0  0  0  0  0  0
  151.3788  138.9241  156.1108 N   0  0  0  0  0  0  0  0  0  0  0  0
  149.9672  134.7447  154.8334 H   0  0  0  0  0  0  0  0  0  0  0  0
  149.7334  135.8081  153.4608 H   0  0  0  0  0  0  0  0  0  0  0  0
  152.5463  137.5993  153.6713 H   0  0  0  0  0  0  0  0  0  0  0  0
  150.9225  137.6150  153.0290 H   0  0  0  0  0  0  0  0  0  0  0  0
  150.5108  140.3288  153.1928 H   0  0  0  0  0  0  0  0  0  0  0  0
  152.1535  141.2857  160.5440 H   0  0  0  0  0  0  0  0  0  0  0  0
  153.5270  141.8508  159.6357 H   0  0  0  0  0  0  0  0  0  0  0  0
  150.6734  142.5183  158.7752 H   0  0  0  0  0  0  0  0  0  0  0  0
  151.1023  143.6458  161.1333 H   0  0  0  0  0  0  0  0  0  0  0  0
  151.8404  145.9836  160.3530 H   0  0  0  0  0  0  0  0  0  0  0  0
  151.7257  145.6939  157.7136 H   0  0  0  0  0  0  0  0  0  0  0  0
  153.3930  145.5035  158.2844 H   0  0  0  0  0  0  0  0  0  0  0  0
  153.3727  143.2440  157.7714 H   0  0  0  0  0  0  0  0  0  0  0  0
  151.8190  143.4567  156.9885 H   0  0  0  0  0  0  0  0  0  0  0  0
  1  2  1  0  0  0  0
  1 19  1  0  0  0  0
  1 20  1  0  0  0  0
  2  3  2  0  0  0  0
  2  4  1  0  0  0  0
  4  5  1  0  0  0  0
  4 21  1  0  0  0  0
  4 22  1  0  0  0  0
  5 18  1  0  0  0  0
  5  6  2  0  0  0  0
  6  7  1  0  0  0  0
  6 23  1  0  0  0  0
  7  8  1  0  0  0  0
  8  9  1  0  0  0  0
  8 18  2  0  0  0  0
  9 10  1  0  0  0  0
 10 11  2  0  0  0  0
 10 12  1  0  0  0  0
 12 13  1  0  0  0  0
 12 24  1  0  0  0  0
 12 25  1  0  0  0  0
 13 17  1  0  0  0  0
 13 14  1  0  0  0  0
 13 26  1  0  0  0  0
 14 15  2  0  0  0  0
 14 27  1  0  0  0  0
 15 16  1  0  0  0  0
 15 28  1  0  0  0  0
 16 17  1  0  0  0  0
 16 29  1  0  0  0  0
 16 30  1  0  0  0  0
 17 31  1  0  0  0  0
 17 32  1  0  0  0  0
M  CHG  1   9  -1
M  END
> <s_m_source_file>
AV-unprocessed.smi

> <i_m_source_file_index>
2068

> <i_lp_mmshare_version>
43012

> <i_f3d_flags>
0

> <s_epik_input>
W05IMl1DKD1PKVtDSDJdYzFbY0hdc2MobjEpW05IXUMoPU8pW0NIMl1bQ0BASF0yW0NIXT1bQ0hdW0NIMl1bQ0gyXTI=

> <s_epik_cmdline>
J2VwaWtfcHl0aG9uJywgJy1waCcsICc3LjAnLCAnLXRuJywgJzgnLCAnLW1hJywgJzIwMCcsICctbWV0YWxfYmluZGluZycsICctaW1hZScsICc8aW5maWxlLm1hZT4nLCAnLW9tYWUnLCAnPG91dGZpbGUubWFlPic=

> <r_lp_tautomer_probability>
1

> <r_epik_Ionization_Penalty>
4.99584

> <r_epik_Ionization_Penalty_Charging>
4.63763

> <r_epik_Ionization_Penalty_Neutral>
0.358213

> <r_epik_State_Penalty>
4.63739

> <r_epik_Charging_Adjusted_Penalty>
9.27502

> <i_epik_Tot_Q>
-1

> <i_epik_Tot_abs_Q>
1

> <r_epik_Metal_State_Penalty>
0.891949

> <b_epik_Metal_Only>
1

> <s_lp_Force_Field>
OPLS_2005

> <r_lp_Energy>
14.2455

> <b_lp_Chiralities_Consistent>
1

> <s_lp_Variant>
AV-unprocessed.smi:2068-4

> <Gold.Version>
5.8.1

> <Gold.Id.Protein>
6NUR|6NUR_protein|mol2

> <Gold.PLP.Fitness>
48.6091

> <Gold.PLP.PLP>
-40.4698

> <Gold.PLP.part.hbond>
-3.3988

> <Gold.PLP.part.metal>
0.0000

> <Gold.PLP.part.buried>
-0.8915

> <Gold.PLP.part.nonpolar>
-35.7060

> <Gold.PLP.part.repulsive>
0.0950

> <Gold.PLP.ligand.clash>
0.0000

> <Gold.PLP.ligand.torsion>
1.8144

> <Gold.PLP.Chemscore.Hbond>
3.0000

> <Gold.PLP.Chemscore.CHOScore>
0.8581

> <Gold.PLP.Chemscore.Metal>
0.0000

> <Gold.Chemscore.Hbonds>
donor molecule, donor type, donor heavy atom, donor atom, acceptor molecule, acceptor atom, score
      L1  H     1    20       P1  7948  0.70
      P1  H  7997  8009       L1    11  1.00
      P1  H 10752 10763       L1     3  0.80
      L1  C     6    23       P1  7957  1.00

> <Gold.PLP.Chemscore.Internal.Correction>
0.1936

> <Gold.Rescore>
     Score         DG    S(hbond)    S(metal)    S(lipo)     H(rot)  DE(clash)    DE(int)     intcor
     16.94     -20.19       2.63        0.00      98.13       2.17       0.10       3.15       ----

> <Gold.Chemscore.Fitness>
16.9385

> <Gold.Chemscore.DG>
-20.1913

> <Gold.Chemscore.ZeroCoef>
-5.4800

> <Gold.Chemscore.Hbond>
2.6264

> <Gold.Chemscore.Metal>
0.0000

> <Gold.Chemscore.Lipo>
98.1345

> <Gold.Chemscore.Internal_Hbond>
0.0000

> <Gold.Chemscore.DEClash>
0.1036

> <Gold.Chemscore.DEInternal>
3.1493

> <Gold.Chemscore.Rot>
2.1650

> <Gold.Chemscore.Internal.Correction>
   9.000000E+99

> <Gold.Chemscore.Hbonds>
donor molecule, donor type, donor heavy atom, donor atom, acceptor molecule, acceptor atom, score
      L1  H     1    20       P1  7948  0.07
      P1  H  7997  8009       L1    11  0.99
      P1  H 10752 10763       L1     3  0.12

> <Gold.Chemscore.Hbond.Weighted>
-8.7721

> <Gold.Chemscore.Metal.Weighted>
-0.0000

> <Gold.Chemscore.Lipo.Weighted>
-11.4817

> <Gold.Chemscore.Internal_Hbond.Weighted>
0.0000

> <Gold.Chemscore.DEClash.Weighted>
0.1036

> <Gold.Chemscore.DEInternal.Weighted>
3.1493

> <Gold.Chemscore.Rot.Weighted>
5.5425

> <Gold.Chemscore.Internal.Correction.Weighted>
   9.000000E+99

> <Gold.Protein.RotatedTorsions>
[ 6907 6896 6895 6894 ] final  178.33 input  -60.11 | X-H torsion
[ 7974 7965 7964 7962 ] final   57.00 input  175.53 | X-H torsion
[ 8008 7997 7996 7995 ] final  152.09 input   59.86 | X-H torsion
[ 10167 10162 10161 10158 ] final   93.37 input  -65.29 | X-H torsion
[ 10718 10713 10712 10709 ] final  -39.44 input   66.30 | X-H torsion
[ 10763 10752 10751 10750 ] final   94.40 input  -60.55 | X-H torsion
[ 11005 11000 10999 10996 ] final -179.66 input  -57.11 | X-H torsion

> <Gold.Protein.ActiveResidues>
 VAL166  LYS551  ARG553  GLY616  TRP617  ASP618  TYR619  PRO620  LYS621  CYS622 
 ASP623  PHE694  ASN695  SER759  ASP760  ASP761  ALA762  ILE779  LEU786  VAL792 
 PHE793  MET794  SER795  GLU796  ALA797  LYS798  CYS799  TRP800  GLU811  SER814 

> <Gold.Protein.RotatedAtoms>
  151.6895  133.3311  159.3239 H   0  0  0  0  0  0  0  0  0  0  0  0  # atno 6907 bound_to 6896
  150.7785  134.6711  159.6401 H   0  0  0  0  0  0  0  0  0  0  0  0  # atno 6908 bound_to 6896
  152.3835  134.6556  160.0186 H   0  0  0  0  0  0  0  0  0  0  0  0  # atno 6909 bound_to 6896
  145.9338  139.3830  143.0405 H   0  0  0  0  0  0  0  0  0  0  0  0  # atno 7974 bound_to 7965
  156.2645  140.2030  156.6278 H   0  0  0  0  0  0  0  0  0  0  0  0  # atno 8008 bound_to 7997
  154.6706  140.0550  157.0186 H   0  0  0  0  0  0  0  0  0  0  0  0  # atno 8009 bound_to 7997
  155.1142  140.3218  155.4516 H   0  0  0  0  0  0  0  0  0  0  0  0  # atno 8010 bound_to 7997
  139.8187  144.6741  150.9547 H   0  0  0  0  0  0  0  0  0  0  0  0  # atno 10167 bound_to 10162
  156.2925  130.4230  149.8224 H   0  0  0  0  0  0  0  0  0  0  0  0  # atno 10718 bound_to 10713
  153.2412  135.4291  155.0700 H   0  0  0  0  0  0  0  0  0  0  0  0  # atno 10763 bound_to 10752
  154.8341  135.3403  154.6646 H   0  0  0  0  0  0  0  0  0  0  0  0  # atno 10764 bound_to 10752
  153.7070  135.7025  153.5104 H   0  0  0  0  0  0  0  0  0  0  0  0  # atno 10765 bound_to 10752
  140.4161  134.6648  157.4640 H   0  0  0  0  0  0  0  0  0  0  0  0  # atno 11005 bound_to 11000
  145.8391  140.9590  143.0809 LP  0  0  0  0  0  0  0  0  0  0  0  0  # atno 17320 bound_to 7965
  144.6768  140.0261  143.7483 LP  0  0  0  0  0  0  0  0  0  0  0  0  # atno 17321 bound_to 7965
  140.7814  143.4113  151.0988 LP  0  0  0  0  0  0  0  0  0  0  0  0  # atno 17342 bound_to 10162
  139.7775  143.8403  152.3132 LP  0  0  0  0  0  0  0  0  0  0  0  0  # atno 17343 bound_to 10162
  156.5632  130.8392  151.3335 LP  0  0  0  0  0  0  0  0  0  0  0  0  # atno 17370 bound_to 10713
  157.7346  130.9749  150.2039 LP  0  0  0  0  0  0  0  0  0  0  0  0  # atno 17371 bound_to 10713
  140.0233  134.6515  155.9209 LP  0  0  0  0  0  0  0  0  0  0  0  0  # atno 17394 bound_to 11000
  141.1802  133.6545  156.4990 LP  0  0  0  0  0  0  0  0  0  0  0  0  # atno 17395 bound_to 11000

$$$$
