#       Name:                AV-unprocessed.smi:2424
#       Creating user name   scv26
#       Creation time:       Fri Mar 27 13:19:41 2020


#       File generated by GOLD software.
#

@<TRIPOS>MOLECULE
AV-unprocessed.smi:2424
    56    57     1
SMALL
NO_CHARGES


@<TRIPOS>ATOM
      1 ****        -1.5527  -3.6330   1.6746 C.3            1 S1                 0.0000
      2 ****        -0.8893  -2.5116   0.8574 C.3            1 S1                 0.0000
      3 ****        -1.8368  -1.3636   0.4179 C.3            1 S1                 0.0000
      4 ****        -2.4066  -0.6731   1.6783 C.3            1 S1                 0.0000
      5 ****        -1.3661   0.0191   2.5735 C.3            1 S1                 0.0000
      6 ****        -1.2963  -0.3876  -0.6617 C.3            1 S1                 0.0000
      7 ****         0.1607  -0.3107  -0.7325 N.am           1 S1                 0.0000
      8 ****         0.8874   0.7946  -0.5216 C.2            1 S1                 0.0000
      9 ****         0.3913   1.8878  -0.2535 O.2            1 S1                 0.0000
     10 ****         2.2008   0.5299  -0.6425 N.am           1 S1                 0.0000
     11 ****         3.2980   1.3903  -0.4951 C.2            1 S1                 0.0000
     12 ****         4.5243   0.8765  -0.6925 C.2            1 S1                 0.0000
     13 ****         5.6758   1.6573  -0.5687 N.am           1 S1                 0.0000
     14 ****         5.6726   2.9704  -0.2459 C.2            1 S1                 0.0000
     15 ****         6.7296   3.5922  -0.1554 O.2            1 S1                 0.0000
     16 ****         4.3442   3.5632  -0.0208 C.2            1 S1                 0.0000
     17 ****         4.2735   5.0342   0.3490 C.3            1 S1                 0.0000
     18 ****         3.2294   2.8049  -0.1415 C.2            1 S1                 0.0000
     19 ****        -1.8860  -1.2856  -1.7526 C.3            1 S1                 0.0000
     20 ****        -2.4093  -0.6697  -3.0443 C.3            1 S1                 0.0000
     21 ****        -2.8674  -1.7752  -0.6758 C.3            1 S1                 0.0000
     22 ****        -4.0539  -0.9895  -0.6870 O.3            1 S1                 0.0000
     23 ****        -5.1492  -1.6348  -0.0595 C.3            1 S1                 0.0000
     24 ****         6.5607   1.1999  -0.7341 H              1 S1                 0.0000
     25 ****        -0.8536  -4.4545   1.8305 H              1 S1                 0.0000
     26 ****        -2.4272  -4.0399   1.1673 H              1 S1                 0.0000
     27 ****        -1.8637  -3.2887   2.6604 H              1 S1                 0.0000
     28 ****        -0.0385  -2.1230   1.4158 H              1 S1                 0.0000
     29 ****        -0.4443  -2.9808  -0.0201 H              1 S1                 0.0000
     30 ****        -3.1208   0.0950   1.3808 H              1 S1                 0.0000
     31 ****        -2.9881  -1.3711   2.2788 H              1 S1                 0.0000
     32 ****        -1.8588   0.5541   3.3852 H              1 S1                 0.0000
     33 ****        -0.7795   0.7468   2.0145 H              1 S1                 0.0000
     34 ****        -0.6796  -0.6922   3.0310 H              1 S1                 0.0000
     35 ****        -1.8024   0.5805  -0.6333 H              1 S1                 0.0000
     36 ****         0.6493  -1.1668  -0.9494 H              1 S1                 0.0000
     37 ****         2.4417  -0.4234  -0.8709 H              1 S1                 0.0000
     38 ****         4.7189  -0.1528  -0.9572 H              1 S1                 0.0000
     39 ****         3.2428   5.3634   0.4847 H              1 S1                 0.0000
     40 ****         4.7219   5.6464  -0.4341 H              1 S1                 0.0000
     41 ****         4.8108   5.2190   1.2797 H              1 S1                 0.0000
     42 ****         2.2824   3.2866   0.0371 H              1 S1                 0.0000
     43 ****        -1.1944  -2.0977  -1.9847 H              1 S1                 0.0000
     44 ****        -3.0373   0.2001  -2.8499 H              1 S1                 0.0000
     45 ****        -3.0038  -1.3870  -3.6101 H              1 S1                 0.0000
     46 ****        -1.5885  -0.3432  -3.6831 H              1 S1                 0.0000
     47 ****        -3.0578  -2.8466  -0.7588 H              1 S1                 0.0000
     48 ****        -6.0127  -0.9697  -0.0560 H              1 S1                 0.0000
     49 ****        -4.9232  -1.8991   0.9735 H              1 S1                 0.0000
     50 ****        -5.4270  -2.5419  -0.5973 H              1 S1                 0.0000
     51 ****        -0.6018   1.9826  -0.1837 LP             1 S1                 0.0000
     52 ****         0.9810   2.6817  -0.1053 LP             1 S1                 0.0000
     53 ****         7.5991   3.1269  -0.3209 LP             1 S1                 0.0000
     54 ****         6.7196   4.5631   0.0837 LP             1 S1                 0.0000
     55 ****        -4.2993  -0.7958  -1.6369 LP             1 S1                 0.0000
     56 ****        -3.8724  -0.1307  -0.2078 LP             1 S1                 0.0000
@<TRIPOS>BOND
    1    1    2 1     
    2    1   25 1     
    3    1   26 1     
    4    1   27 1     
    5    2    3 1     
    6    2   28 1     
    7    2   29 1     
    8    3   21 1     
    9    3    4 1     
   10    3    6 1     
   11    4    5 1     
   12    4   30 1     
   13    4   31 1     
   14    5   32 1     
   15    5   33 1     
   16    5   34 1     
   17    6    7 1     
   18    6   19 1     
   19    6   35 1     
   20    7    8 am    
   21    7   36 1     
   22    8    9 2     
   23    8   10 am    
   24   10   11 1     
   25   10   37 1     
   26   11   18 1     
   27   11   12 2     
   28   12   13 1     
   29   12   38 1     
   30   13   24 1     
   31   13   14 am    
   32   14   15 2     
   33   14   16 1     
   34   16   17 1     
   35   16   18 2     
   36   17   39 1     
   37   17   40 1     
   38   17   41 1     
   39   18   42 1     
   40   19   20 1     
   41   19   21 1     
   42   19   43 1     
   43   20   44 1     
   44   20   45 1     
   45   20   46 1     
   46   21   22 1     
   47   21   47 1     
   48   22   23 1     
   49   23   48 1     
   50   23   49 1     
   51   23   50 1     
   52    9   51 1     
   53    9   52 1     
   54   15   53 1     
   55   15   54 1     
   56   22   55 1     
   57   22   56 1     
@<TRIPOS>SUBSTRUCTURE
      1 S1             1
@<TRIPOS>SET
LONE_PAIRS      STATIC     ATOMS    <user>   **** ""
6 51 52 53 54 55 56
DONOR_HYDROGENS      STATIC     ATOMS    <user>   **** ""
3 36 37 24
ATOM$BLUE        STATIC     ATOMS    COLORGROUP SYSTEM
6 51 52 53 54 55 56
ATOM$RED        STATIC     ATOMS    COLORGROUP SYSTEM
3 36 37 24
