#       Name:                AV-unprocessed.smi:3017
#       Creating user name   scv26
#       Creation time:       Fri Mar 27 16:41:08 2020


#       File generated by GOLD software.
#

@<TRIPOS>MOLECULE
AV-unprocessed.smi:3017
    43    44     1
SMALL
NO_CHARGES


@<TRIPOS>ATOM
      1 ****        -3.3044   1.2390  -1.7856 C.3            1 S1                 0.0000
      2 ****        -2.3630   1.1507  -0.5760 C.3            1 S1                 0.0000
      3 ****        -3.1328   1.2987   0.7503 C.3            1 S1                 0.0000
      4 ****        -2.1908   1.2185   1.9621 C.3            1 S1                 0.0000
      5 ****        -1.0660   2.2614   1.8644 C.3            1 S1                 0.0000
      6 ****        -0.2789   2.1280   0.5440 C.3            1 S1                 0.0000
      7 ****         0.4117   0.8864   0.4764 O.3            1 S1                 0.0000
      8 ****         1.6433   0.8475   1.1849 C.3            1 S1                 0.0000
      9 ****         2.2632  -0.5412   1.0321 C.2            1 S1                 0.0000
     10 ****         2.8491  -1.0480   1.9886 O.2            1 S1                 0.0000
     11 ****         2.1348  -1.1163  -0.1786 N.am           1 S1                 0.0000
     12 ****         2.5839  -2.3966  -0.5950 C.ar           1 S1                 0.0000
     13 ****         2.3026  -2.7390  -1.9386 C.ar           1 S1                 0.0000
     14 ****         2.6613  -3.9246  -2.4797 N.ar           1 S1                 0.0000
     15 ****         3.3119  -4.7859  -1.6689 C.ar           1 S1                 0.0000
     16 ****         3.6014  -4.4617  -0.3285 C.ar           1 S1                 0.0000
     17 ****         3.2402  -3.2748   0.2060 N.ar           1 S1                 0.0000
     18 ****        -1.2314   2.1958  -0.6642 C.3            1 S1                 0.0000
     19 ****        -3.7980   2.2102  -1.8348 H              1 S1                 0.0000
     20 ****        -4.0791   0.4732  -1.7367 H              1 S1                 0.0000
     21 ****        -2.7584   1.0946  -2.7183 H              1 S1                 0.0000
     22 ****        -1.9088   0.1588  -0.5909 H              1 S1                 0.0000
     23 ****        -3.6619   2.2524   0.7654 H              1 S1                 0.0000
     24 ****        -3.8944   0.5221   0.8285 H              1 S1                 0.0000
     25 ****        -2.7569   1.3687   2.8816 H              1 S1                 0.0000
     26 ****        -1.7593   0.2188   2.0259 H              1 S1                 0.0000
     27 ****        -1.5015   3.2598   1.9194 H              1 S1                 0.0000
     28 ****        -0.4044   2.1784   2.7259 H              1 S1                 0.0000
     29 ****         0.4382   2.9463   0.4584 H              1 S1                 0.0000
     30 ****         2.3355   1.5909   0.7873 H              1 S1                 0.0000
     31 ****         1.4945   1.0605   2.2435 H              1 S1                 0.0000
     32 ****         1.6397  -0.5785  -0.8752 H              1 S1                 0.0000
     33 ****         1.7812  -2.0537  -2.5912 H              1 S1                 0.0000
     34 ****         3.6026  -5.7368  -2.0902 H              1 S1                 0.0000
     35 ****         4.1222  -5.1548   0.3154 H              1 S1                 0.0000
     36 ****        -0.6641   2.0564  -1.5853 H              1 S1                 0.0000
     37 ****        -1.6649   3.1952  -0.7219 H              1 S1                 0.0000
     38 ****         0.6002   0.6877  -0.4854 LP             1 S1                 0.0000
     39 ****        -0.1854   0.1779   0.8523 LP             1 S1                 0.0000
     40 ****         2.9158  -0.5517   2.8542 LP             1 S1                 0.0000
     41 ****         3.2585  -1.9561   1.9001 LP             1 S1                 0.0000
     42 ****         2.4554  -4.1520  -3.4315 LP             1 S1                 0.0000
     43 ****         3.4489  -3.0509   1.1580 LP             1 S1                 0.0000
@<TRIPOS>BOND
    1    1    2 1     
    2    1   19 1     
    3    1   20 1     
    4    1   21 1     
    5    2   18 1     
    6    2    3 1     
    7    2   22 1     
    8    3    4 1     
    9    3   23 1     
   10    3   24 1     
   11    4    5 1     
   12    4   25 1     
   13    4   26 1     
   14    5    6 1     
   15    5   27 1     
   16    5   28 1     
   17    6    7 1     
   18    6   18 1     
   19    6   29 1     
   20    7    8 1     
   21    8    9 1     
   22    8   30 1     
   23    8   31 1     
   24    9   10 2     
   25    9   11 am    
   26   11   12 1     
   27   11   32 1     
   28   12   17 ar    
   29   12   13 ar    
   30   13   14 ar    
   31   13   33 1     
   32   14   15 ar    
   33   15   16 ar    
   34   15   34 1     
   35   16   17 ar    
   36   16   35 1     
   37   18   36 1     
   38   18   37 1     
   39    7   38 1     
   40    7   39 1     
   41   10   40 1     
   42   10   41 1     
   43   14   42 1     
   44   17   43 1     
@<TRIPOS>SUBSTRUCTURE
      1 S1             1
@<TRIPOS>SET
LONE_PAIRS      STATIC     ATOMS    <user>   **** ""
6 38 39 40 41 42 43
DONOR_HYDROGENS      STATIC     ATOMS    <user>   **** ""
1 32
ATOM$BLUE        STATIC     ATOMS    COLORGROUP SYSTEM
6 38 39 40 41 42 43
ATOM$RED        STATIC     ATOMS    COLORGROUP SYSTEM
1 32
