AV-unprocessed.smi:3091|AV-procd|sdf|11779|dock1
  -GOLD-   2272017163D 1   1.00000     0.00000
 Structure written by MMmdl.
 29 30  0  0  0  0  0  0  0  0  2 V2000
  148.3895  142.2763  155.4393 N   0  3  0  0  0  0  0  0  0  0  0  0
  149.0934  141.1471  154.8109 C   0  0  0  0  0  0  0  0  0  0  0  0
  150.2799  140.7211  155.6506 C   0  0  0  0  0  0  0  0  0  0  0  0
  151.1118  139.6617  155.2359 C   0  0  0  0  0  0  0  0  0  0  0  0
  152.1990  139.3035  156.0569 C   0  0  0  0  0  0  0  0  0  0  0  0
  152.4816  139.9230  157.2222 N   0  0  0  0  0  0  0  0  0  0  0  0
  151.6814  140.9427  157.6213 C   0  0  0  0  0  0  0  0  0  0  0  0
  151.9556  141.5871  158.8114 O   0  0  0  0  0  0  0  0  0  0  0  0
  152.7307  142.7868  158.7984 C   0  0  1  0  0  0  0  0  0  0  0  0
  152.0187  143.9103  158.0473 C   0  0  0  0  0  0  0  0  0  0  0  0
  152.1797  145.1119  158.9688 C   0  0  0  0  0  0  0  0  0  0  0  0
  152.0878  144.5263  160.2549 O   0  0  0  0  0  0  0  0  0  0  0  0
  152.8573  143.3321  160.2281 C   0  0  0  0  0  0  0  0  0  0  0  0
  150.5696  141.3717  156.8674 C   0  0  0  0  0  0  0  0  0  0  0  0
  148.8773  143.1363  155.2332 H   0  0  0  0  0  0  0  0  0  0  0  0
  148.3584  142.1368  156.4391 H   0  0  0  0  0  0  0  0  0  0  0  0
  148.4022  140.3124  154.6896 H   0  0  0  0  0  0  0  0  0  0  0  0
  149.4270  141.4380  153.8142 H   0  0  0  0  0  0  0  0  0  0  0  0
  150.9272  139.1342  154.3114 H   0  0  0  0  0  0  0  0  0  0  0  0
  152.8580  138.4974  155.7705 H   0  0  0  0  0  0  0  0  0  0  0  0
  153.7336  142.6103  158.4055 H   0  0  0  0  0  0  0  0  0  0  0  0
  152.4277  144.0848  157.0517 H   0  0  0  0  0  0  0  0  0  0  0  0
  150.9582  143.6786  157.9394 H   0  0  0  0  0  0  0  0  0  0  0  0
  153.1588  145.5768  158.8422 H   0  0  0  0  0  0  0  0  0  0  0  0
  151.4116  145.8697  158.8133 H   0  0  0  0  0  0  0  0  0  0  0  0
  152.5121  142.6279  160.9857 H   0  0  0  0  0  0  0  0  0  0  0  0
  153.8968  143.5783  160.4496 H   0  0  0  0  0  0  0  0  0  0  0  0
  149.9551  142.1873  157.2201 H   0  0  0  0  0  0  0  0  0  0  0  0
  147.4476  142.3270  155.0782 H   0  0  0  0  0  0  0  0  0  0  0  0
  1  2  1  0  0  0  0
  1 15  1  0  0  0  0
  1 16  1  0  0  0  0
  1 29  1  0  0  0  0
  2  3  1  0  0  0  0
  2 17  1  0  0  0  0
  2 18  1  0  0  0  0
  3 14  1  0  0  0  0
  3  4  2  0  0  0  0
  4  5  1  0  0  0  0
  4 19  1  0  0  0  0
  5  6  2  0  0  0  0
  5 20  1  0  0  0  0
  6  7  1  0  0  0  0
  7  8  1  0  0  0  0
  7 14  2  0  0  0  0
  8  9  1  0  0  0  0
  9 13  1  0  0  0  0
  9 10  1  0  0  0  0
  9 21  1  0  0  0  0
 10 11  1  0  0  0  0
 10 22  1  0  0  0  0
 10 23  1  0  0  0  0
 11 12  1  0  0  0  0
 11 24  1  0  0  0  0
 11 25  1  0  0  0  0
 12 13  1  0  0  0  0
 13 26  1  0  0  0  0
 13 27  1  0  0  0  0
 14 28  1  0  0  0  0
M  CHG  1   1   1
M  END
> <s_m_source_file>
AV-unprocessed.smi

> <i_m_source_file_index>
3091

> <i_lp_mmshare_version>
43012

> <i_f3d_flags>
0

> <s_epik_input>
W05IMl1bQ0gyXWMxW2NIXVtjSF1uYyhbY0hdMSlPW0NAQEhdMltDSDJdW0NIMl1PW0NIMl0y

> <s_epik_cmdline>
J2VwaWtfcHl0aG9uJywgJy1waCcsICc3LjAnLCAnLXRuJywgJzgnLCAnLW1hJywgJzIwMCcsICctbWV0YWxfYmluZGluZycsICctaW1hZScsICc8aW5maWxlLm1hZT4nLCAnLW9tYWUnLCAnPG91dGZpbGUubWFlPic=

> <r_lp_tautomer_probability>
1

> <r_epik_Ionization_Penalty>
0.0773124

> <r_epik_Ionization_Penalty_Charging>
0.0773118

> <r_epik_Ionization_Penalty_Neutral>
5.92883e-07

> <r_epik_State_Penalty>
0.0682686

> <r_epik_Charging_Adjusted_Penalty>
0.14558

> <i_epik_Tot_Q>
1

> <i_epik_Tot_abs_Q>
1

> <r_epik_Metal_State_Penalty>
0.0682821

> <b_epik_Metal_Only>
0

> <s_lp_Force_Field>
OPLS_2005

> <r_lp_Energy>
12.8261

> <b_lp_Chiralities_Consistent>
1

> <s_lp_Variant>
AV-unprocessed.smi:3091-2

> <Gold.Version>
5.8.1

> <Gold.Id.Protein>
6NUR|6NUR_protein|mol2

> <Gold.PLP.Fitness>
42.2193

> <Gold.PLP.PLP>
-33.9161

> <Gold.PLP.part.hbond>
-1.8991

> <Gold.PLP.part.metal>
0.0000

> <Gold.PLP.part.buried>
-2.4367

> <Gold.PLP.part.nonpolar>
-29.7894

> <Gold.PLP.part.repulsive>
0.1896

> <Gold.PLP.ligand.clash>
0.0000

> <Gold.PLP.ligand.torsion>
0.3548

> <Gold.PLP.Chemscore.Hbond>
3.0000

> <Gold.PLP.Chemscore.CHOScore>
0.0000

> <Gold.PLP.Chemscore.Metal>
0.0000

> <Gold.Chemscore.Hbonds>
donor molecule, donor type, donor heavy atom, donor atom, acceptor molecule, acceptor atom, score
      L1  H     1    15       P1  8028  1.63
      P1  H  7997  8008       L1     6  0.65

> <Gold.PLP.Chemscore.Internal.Correction>
0.0129

> <Gold.Rescore>
     Score         DG    S(hbond)    S(metal)    S(lipo)     H(rot)  DE(clash)    DE(int)     intcor
     16.01     -16.52       1.56        0.00      84.71       1.59       0.15       0.36       ----

> <Gold.Chemscore.Fitness>
16.0071

> <Gold.Chemscore.DG>
-16.5240

> <Gold.Chemscore.ZeroCoef>
-5.4800

> <Gold.Chemscore.Hbond>
1.5597

> <Gold.Chemscore.Metal>
0.0000

> <Gold.Chemscore.Lipo>
84.7107

> <Gold.Chemscore.Internal_Hbond>
0.0000

> <Gold.Chemscore.DEClash>
0.1521

> <Gold.Chemscore.DEInternal>
0.3648

> <Gold.Chemscore.Rot>
1.5924

> <Gold.Chemscore.Internal.Correction>
   9.000000E+99

> <Gold.Chemscore.Hbonds>
donor molecule, donor type, donor heavy atom, donor atom, acceptor molecule, acceptor atom, score
      L1  H     1    15       P1  8028  0.81
      P1  H  7997  8008       L1     6  0.05

> <Gold.Chemscore.Hbond.Weighted>
-5.2094

> <Gold.Chemscore.Metal.Weighted>
-0.0000

> <Gold.Chemscore.Lipo.Weighted>
-9.9111

> <Gold.Chemscore.Internal_Hbond.Weighted>
0.0000

> <Gold.Chemscore.DEClash.Weighted>
0.1521

> <Gold.Chemscore.DEInternal.Weighted>
0.3648

> <Gold.Chemscore.Rot.Weighted>
4.0765

> <Gold.Chemscore.Internal.Correction.Weighted>
   9.000000E+99

> <Gold.Protein.RotatedTorsions>
[ 6907 6896 6895 6894 ] final -173.46 input  -60.11 | X-H torsion
[ 7974 7965 7964 7962 ] final  102.39 input  175.53 | X-H torsion
[ 8008 7997 7996 7995 ] final  -69.85 input   59.86 | X-H torsion
[ 10167 10162 10161 10158 ] final    8.75 input  -65.29 | X-H torsion
[ 10718 10713 10712 10709 ] final  -22.80 input   66.30 | X-H torsion
[ 10763 10752 10751 10750 ] final  110.97 input  -60.55 | X-H torsion
[ 11005 11000 10999 10996 ] final -146.92 input  -57.11 | X-H torsion

> <Gold.Protein.ActiveResidues>
 VAL166  LYS551  ARG553  GLY616  TRP617  ASP618  TYR619  PRO620  LYS621  CYS622 
 ASP623  PHE694  ASN695  SER759  ASP760  ASP761  ALA762  ILE779  LEU786  VAL792 
 PHE793  MET794  SER795  GLU796  ALA797  LYS798  CYS799  TRP800  GLU811  SER814 

> <Gold.Protein.RotatedAtoms>
  151.5565  133.3409  159.2962 H   0  0  0  0  0  0  0  0  0  0  0  0  # atno 6907 bound_to 6896
  150.8448  134.7755  159.6972 H   0  0  0  0  0  0  0  0  0  0  0  0  # atno 6908 bound_to 6896
  152.4508  134.5405  159.9889 H   0  0  0  0  0  0  0  0  0  0  0  0  # atno 6909 bound_to 6896
  145.3598  139.2420  143.3513 H   0  0  0  0  0  0  0  0  0  0  0  0  # atno 7974 bound_to 7965
  154.4969  140.0845  156.7715 H   0  0  0  0  0  0  0  0  0  0  0  0  # atno 8008 bound_to 7997
  155.4096  140.3441  155.4244 H   0  0  0  0  0  0  0  0  0  0  0  0  # atno 8009 bound_to 7997
  156.1405  140.1528  156.8916 H   0  0  0  0  0  0  0  0  0  0  0  0  # atno 8010 bound_to 7997
  140.6296  143.8024  150.7278 H   0  0  0  0  0  0  0  0  0  0  0  0  # atno 10167 bound_to 10162
  156.4996  130.4585  149.6708 H   0  0  0  0  0  0  0  0  0  0  0  0  # atno 10718 bound_to 10713
  153.4566  135.3732  155.2314 H   0  0  0  0  0  0  0  0  0  0  0  0  # atno 10763 bound_to 10752
  154.8757  135.3898  154.3975 H   0  0  0  0  0  0  0  0  0  0  0  0  # atno 10764 bound_to 10752
  153.4542  135.7086  153.6154 H   0  0  0  0  0  0  0  0  0  0  0  0  # atno 10765 bound_to 10752
  140.7770  134.3123  157.5057 H   0  0  0  0  0  0  0  0  0  0  0  0  # atno 11005 bound_to 11000
  146.2932  140.4229  142.8731 LP  0  0  0  0  0  0  0  0  0  0  0  0  # atno 17320 bound_to 7965
  144.8655  140.7200  143.6080 LP  0  0  0  0  0  0  0  0  0  0  0  0  # atno 17321 bound_to 7965
  140.1632  143.4257  152.2052 LP  0  0  0  0  0  0  0  0  0  0  0  0  # atno 17342 bound_to 10162
  139.5512  144.7338  151.4431 LP  0  0  0  0  0  0  0  0  0  0  0  0  # atno 17343 bound_to 10162
  156.3346  130.7349  151.2285 LP  0  0  0  0  0  0  0  0  0  0  0  0  # atno 17370 bound_to 10713
  157.7464  131.0420  150.4676 LP  0  0  0  0  0  0  0  0  0  0  0  0  # atno 17371 bound_to 10713
  139.8747  134.9295  156.3479 LP  0  0  0  0  0  0  0  0  0  0  0  0  # atno 17394 bound_to 11000
  140.9519  133.7445  156.0283 LP  0  0  0  0  0  0  0  0  0  0  0  0  # atno 17395 bound_to 11000

$$$$
