AV-unprocessed.smi:3041|AV-procd|sdf|11597|dock6
  -GOLD-   2272016573D 1   1.00000     0.00000
 Structure written by MMmdl.
 38 39  0  0  0  0  0  0  0  0  1 V2000
  152.8827  138.5768  154.5367 C   0  0  0  0  0  0  0  0  0  0  0  0
  151.6005  139.2481  154.5436 N   0  0  0  0  0  0  0  0  0  0  0  0
  150.4217  138.8599  153.9435 C   0  0  0  0  0  0  0  0  0  0  0  0
  149.4844  139.8130  154.2273 C   0  0  0  0  0  0  0  0  0  0  0  0
  148.0398  139.8678  153.8154 C   0  0  0  0  0  0  0  0  0  0  0  0
  147.2325  138.7172  154.4379 C   0  0  0  0  0  0  0  0  0  0  0  0
  147.0366  137.6250  153.4917 N   0  0  0  0  0  0  0  0  0  0  0  0
  145.8641  137.0223  153.2491 C   0  0  0  0  0  0  0  0  0  0  0  0
  144.8057  137.3243  153.8009 O   0  0  0  0  0  0  0  0  0  0  0  0
  145.9824  136.0535  152.3308 N   0  0  0  0  0  0  0  0  0  0  0  0
  144.8879  135.2163  151.8508 C   0  0  0  0  0  0  0  0  0  0  0  0
  145.3553  134.1963  150.7946 C   0  0  2  0  0  0  0  0  0  0  0  0
  144.2833  133.2127  150.3739 C   0  0  0  0  0  0  0  0  0  0  0  0
  145.1108  132.1000  149.7384 C   0  0  0  0  0  0  0  0  0  0  0  0
  146.3489  132.0860  150.4434 O   0  0  0  0  0  0  0  0  0  0  0  0
  146.4600  133.2470  151.2619 C   0  0  0  0  0  0  0  0  0  0  0  0
  150.2010  140.7561  155.0178 C   0  0  0  0  0  0  0  0  0  0  0  0
  151.4660  140.4163  155.2041 N   0  0  0  0  0  0  0  0  0  0  0  0
  152.7895  137.5964  154.0692 H   0  0  0  0  0  0  0  0  0  0  0  0
  153.2394  138.4484  155.5594 H   0  0  0  0  0  0  0  0  0  0  0  0
  153.6060  139.1702  153.9768 H   0  0  0  0  0  0  0  0  0  0  0  0
  150.3468  137.9466  153.3717 H   0  0  0  0  0  0  0  0  0  0  0  0
  147.6004  140.8218  154.1095 H   0  0  0  0  0  0  0  0  0  0  0  0
  147.9512  139.8246  152.7291 H   0  0  0  0  0  0  0  0  0  0  0  0
  147.7588  138.3213  155.3070 H   0  0  0  0  0  0  0  0  0  0  0  0
  146.2671  139.0777  154.7976 H   0  0  0  0  0  0  0  0  0  0  0  0
  147.8511  137.3065  152.9871 H   0  0  0  0  0  0  0  0  0  0  0  0
  146.8952  135.8798  151.9360 H   0  0  0  0  0  0  0  0  0  0  0  0
  144.4611  134.6981  152.7098 H   0  0  0  0  0  0  0  0  0  0  0  0
  144.0929  135.8431  151.4436 H   0  0  0  0  0  0  0  0  0  0  0  0
  145.7024  134.7235  149.9043 H   0  0  0  0  0  0  0  0  0  0  0  0
  143.7515  132.8300  151.2465 H   0  0  0  0  0  0  0  0  0  0  0  0
  143.5513  133.6411  149.6887 H   0  0  0  0  0  0  0  0  0  0  0  0
  144.6131  131.1313  149.7869 H   0  0  0  0  0  0  0  0  0  0  0  0
  145.3103  132.3263  148.6903 H   0  0  0  0  0  0  0  0  0  0  0  0
  147.4520  133.6929  151.1853 H   0  0  0  0  0  0  0  0  0  0  0  0
  146.3026  132.9508  152.2999 H   0  0  0  0  0  0  0  0  0  0  0  0
  149.8395  141.6727  155.4599 H   0  0  0  0  0  0  0  0  0  0  0  0
  1  2  1  0  0  0  0
  1 19  1  0  0  0  0
  1 20  1  0  0  0  0
  1 21  1  0  0  0  0
  2 18  1  0  0  0  0
  2  3  1  0  0  0  0
  3  4  2  0  0  0  0
  3 22  1  0  0  0  0
  4  5  1  0  0  0  0
  4 17  1  0  0  0  0
  5  6  1  0  0  0  0
  5 23  1  0  0  0  0
  5 24  1  0  0  0  0
  6  7  1  0  0  0  0
  6 25  1  0  0  0  0
  6 26  1  0  0  0  0
  7  8  1  0  0  0  0
  7 27  1  0  0  0  0
  8  9  2  0  0  0  0
  8 10  1  0  0  0  0
 10 11  1  0  0  0  0
 10 28  1  0  0  0  0
 11 12  1  0  0  0  0
 11 29  1  0  0  0  0
 11 30  1  0  0  0  0
 12 16  1  0  0  0  0
 12 13  1  0  0  0  0
 12 31  1  0  0  0  0
 13 14  1  0  0  0  0
 13 32  1  0  0  0  0
 13 33  1  0  0  0  0
 14 15  1  0  0  0  0
 14 34  1  0  0  0  0
 14 35  1  0  0  0  0
 15 16  1  0  0  0  0
 16 36  1  0  0  0  0
 16 37  1  0  0  0  0
 17 18  2  0  0  0  0
 17 38  1  0  0  0  0
M  END
> <s_m_source_file>
AV-unprocessed.smi

> <i_m_source_file_index>
3041

> <i_lp_mmshare_version>
43012

> <i_f3d_flags>
0

> <s_epik_input>
W0NIM11uMVtjSF1jKFtjSF1uMSlbQ0gyXVtDSDJdW05IXUMoPU8pW05IXVtDSDJdW0NAQEhdMltDSDJdW0NIMl1PW0NIMl0y

> <s_epik_cmdline>
J2VwaWtfcHl0aG9uJywgJy1waCcsICc3LjAnLCAnLXRuJywgJzgnLCAnLW1hJywgJzIwMCcsICctbWV0YWxfYmluZGluZycsICctaW1hZScsICc8aW5maWxlLm1hZT4nLCAnLW9tYWUnLCAnPG91dGZpbGUubWFlPic=

> <r_lp_tautomer_probability>
1

> <r_epik_Ionization_Penalty>
0.000557811

> <r_epik_Ionization_Penalty_Charging>
0

> <r_epik_Ionization_Penalty_Neutral>
0.000557811

> <r_epik_State_Penalty>
-0

> <r_epik_Charging_Adjusted_Penalty>
0

> <i_epik_Tot_Q>
0

> <i_epik_Tot_abs_Q>
0

> <r_epik_Metal_State_Penalty>
-0

> <b_epik_Metal_Only>
0

> <s_lp_Force_Field>
OPLS_2005

> <r_lp_Energy>
13.0487

> <b_lp_Chiralities_Consistent>
1

> <s_lp_Variant>
AV-unprocessed.smi:3041-1

> <Gold.Version>
5.8.1

> <Gold.Id.Protein>
6NUR|6NUR_protein|mol2

> <Gold.PLP.Fitness>
40.2184

> <Gold.PLP.PLP>
-32.6349

> <Gold.PLP.part.hbond>
-3.0000

> <Gold.PLP.part.metal>
0.0000

> <Gold.PLP.part.buried>
-3.1786

> <Gold.PLP.part.nonpolar>
-27.6462

> <Gold.PLP.part.repulsive>
1.1564

> <Gold.PLP.ligand.clash>
0.0000

> <Gold.PLP.ligand.torsion>
0.3784

> <Gold.PLP.Chemscore.Hbond>
1.8938

> <Gold.PLP.Chemscore.CHOScore>
0.8799

> <Gold.PLP.Chemscore.Metal>
0.0000

> <Gold.Chemscore.Hbonds>
donor molecule, donor type, donor heavy atom, donor atom, acceptor molecule, acceptor atom, score
      L1  H     7    27       P1  7948  1.00
      L1  H    10    28       P1  7948  0.93
      L1  C     3    22       P1  7948  0.70
      L1  C     3    22       P1  7949  0.11

> <Gold.PLP.Chemscore.Internal.Correction>
0.0195

> <Gold.Rescore>
     Score         DG    S(hbond)    S(metal)    S(lipo)     H(rot)  DE(clash)    DE(int)     intcor
     15.34     -15.98       1.96        0.00      74.43       1.85       0.20       0.44       ----

> <Gold.Chemscore.Fitness>
15.3417

> <Gold.Chemscore.DG>
-15.9799

> <Gold.Chemscore.ZeroCoef>
-5.4800

> <Gold.Chemscore.Hbond>
1.9564

> <Gold.Chemscore.Metal>
0.0000

> <Gold.Chemscore.Lipo>
74.4349

> <Gold.Chemscore.Internal_Hbond>
0.0000

> <Gold.Chemscore.DEClash>
0.2008

> <Gold.Chemscore.DEInternal>
0.4374

> <Gold.Chemscore.Rot>
1.8528

> <Gold.Chemscore.Internal.Correction>
   9.000000E+99

> <Gold.Chemscore.Hbonds>
donor molecule, donor type, donor heavy atom, donor atom, acceptor molecule, acceptor atom, score
      L1  H     7    27       P1  7948  0.99
      L1  H    10    28       P1  7948  0.86

> <Gold.Chemscore.Hbond.Weighted>
-6.5343

> <Gold.Chemscore.Metal.Weighted>
-0.0000

> <Gold.Chemscore.Lipo.Weighted>
-8.7089

> <Gold.Chemscore.Internal_Hbond.Weighted>
0.0000

> <Gold.Chemscore.DEClash.Weighted>
0.2008

> <Gold.Chemscore.DEInternal.Weighted>
0.4374

> <Gold.Chemscore.Rot.Weighted>
4.7433

> <Gold.Chemscore.Internal.Correction.Weighted>
   9.000000E+99

> <Gold.Protein.RotatedTorsions>
[ 6907 6896 6895 6894 ] final   63.15 input  -60.11 | X-H torsion
[ 7974 7965 7964 7962 ] final  -47.14 input  175.53 | X-H torsion
[ 8008 7997 7996 7995 ] final  -46.68 input   59.86 | X-H torsion
[ 10167 10162 10161 10158 ] final -134.30 input  -65.29 | X-H torsion
[ 10718 10713 10712 10709 ] final -170.75 input   66.30 | X-H torsion
[ 10763 10752 10751 10750 ] final    6.08 input  -60.55 | X-H torsion
[ 11005 11000 10999 10996 ] final  124.19 input  -57.11 | X-H torsion

> <Gold.Protein.ActiveResidues>
 VAL166  LYS551  ARG553  GLY616  TRP617  ASP618  TYR619  PRO620  LYS621  CYS622 
 ASP623  PHE694  ASN695  SER759  ASP760  ASP761  ALA762  ILE779  LEU786  VAL792 
 PHE793  MET794  SER795  GLU796  ALA797  LYS798  CYS799  TRP800  GLU811  SER814 

> <Gold.Protein.RotatedAtoms>
  152.4230  134.5920  159.9976 H   0  0  0  0  0  0  0  0  0  0  0  0  # atno 6907 bound_to 6896
  151.6065  133.3345  159.3066 H   0  0  0  0  0  0  0  0  0  0  0  0  # atno 6908 bound_to 6896
  150.8118  134.7315  159.6760 H   0  0  0  0  0  0  0  0  0  0  0  0  # atno 6909 bound_to 6896
  145.9646  140.7444  142.9440 H   0  0  0  0  0  0  0  0  0  0  0  0  # atno 7974 bound_to 7965
  154.4009  140.1365  156.4051 H   0  0  0  0  0  0  0  0  0  0  0  0  # atno 8008 bound_to 7997
  155.7787  140.3482  155.5265 H   0  0  0  0  0  0  0  0  0  0  0  0  # atno 8009 bound_to 7997
  155.8695  140.0969  157.1550 H   0  0  0  0  0  0  0  0  0  0  0  0  # atno 8010 bound_to 7997
  139.8894  143.6741  152.2614 H   0  0  0  0  0  0  0  0  0  0  0  0  # atno 10167 bound_to 10162
  156.7308  130.9305  151.3104 H   0  0  0  0  0  0  0  0  0  0  0  0  # atno 10718 bound_to 10713
  153.2519  135.6914  153.7670 H   0  0  0  0  0  0  0  0  0  0  0  0  # atno 10763 bound_to 10752
  153.6761  135.3336  155.3167 H   0  0  0  0  0  0  0  0  0  0  0  0  # atno 10764 bound_to 10752
  154.8397  135.4511  154.1479 H   0  0  0  0  0  0  0  0  0  0  0  0  # atno 10765 bound_to 10752
  139.9347  134.9640  156.8372 H   0  0  0  0  0  0  0  0  0  0  0  0  # atno 11005 bound_to 11000
  144.6823  140.2648  143.7314 LP  0  0  0  0  0  0  0  0  0  0  0  0  # atno 17320 bound_to 7965
  145.7991  139.1957  143.2058 LP  0  0  0  0  0  0  0  0  0  0  0  0  # atno 17321 bound_to 7965
  139.7123  144.7618  151.1091 LP  0  0  0  0  0  0  0  0  0  0  0  0  # atno 17342 bound_to 10162
  140.7729  143.5314  150.9419 LP  0  0  0  0  0  0  0  0  0  0  0  0  # atno 17343 bound_to 10162
  157.6859  130.9185  150.0386 LP  0  0  0  0  0  0  0  0  0  0  0  0  # atno 17370 bound_to 10713
  156.1530  130.3642  149.9410 LP  0  0  0  0  0  0  0  0  0  0  0  0  # atno 17371 bound_to 10713
  140.6107  134.0085  155.7575 LP  0  0  0  0  0  0  0  0  0  0  0  0  # atno 17394 bound_to 11000
  141.0955  133.9850  157.3167 LP  0  0  0  0  0  0  0  0  0  0  0  0  # atno 17395 bound_to 11000

$$$$
