AV-unprocessed.smi:2257|AV-procd|sdf|9128|dock7
  -GOLD-   2272012333D 1   1.00000     0.00000
 Structure written by MMmdl.
 40 42  0  0  0  0  0  0  0  0  1 V2000
  149.0646  131.7465  154.3037 C   0  0  0  0  0  0  0  0  0  0  0  0
  148.6795  132.3618  153.0797 O   0  0  0  0  0  0  0  0  0  0  0  0
  147.3542  132.8910  153.0293 C   0  0  0  0  0  0  0  0  0  0  0  0
  147.1169  133.9371  154.1327 C   0  0  0  0  0  0  0  0  0  0  0  0
  147.9549  135.1176  153.9474 N   0  0  0  0  0  0  0  0  0  0  0  0
  148.2432  136.0281  154.8869 C   0  0  0  0  0  0  0  0  0  0  0  0
  147.8057  135.9861  156.0361 O   0  0  0  0  0  0  0  0  0  0  0  0
  149.0459  136.9877  154.3972 N   0  0  0  0  0  0  0  0  0  0  0  0
  149.5955  138.1082  155.0750 C   0  0  0  0  0  0  0  0  0  0  0  0
  150.2484  139.1079  154.3240 C   0  0  0  0  0  0  0  0  0  0  0  0
  150.8083  140.1900  154.9056 N   0  0  0  0  0  0  0  0  0  0  0  0
  150.7340  140.2645  156.2373 C   0  0  0  0  0  0  0  0  0  0  0  0
  151.3220  141.4837  156.8774 C   0  0  0  0  0  0  0  0  0  0  0  0
  151.4635  141.5814  158.3830 C   0  0  0  0  0  0  0  0  0  0  0  0
  150.4515  142.4357  157.6721 C   0  0  0  0  0  0  0  0  0  0  0  0
  150.1445  139.3853  157.0520 N   0  0  0  0  0  0  0  0  0  0  0  0
  149.5792  138.3006  156.4786 C   0  0  0  0  0  0  0  0  0  0  0  0
  147.0634  133.3043  151.5726 C   0  0  0  0  0  0  0  0  0  0  0  0
  145.6973  132.6275  151.6948 C   0  0  0  0  0  0  0  0  0  0  0  0
  146.3006  131.7830  152.8181 C   0  0  0  0  0  0  0  0  0  0  0  0
  150.0824  131.3695  154.2063 H   0  0  0  0  0  0  0  0  0  0  0  0
  148.4263  130.9000  154.5556 H   0  0  0  0  0  0  0  0  0  0  0  0
  149.0572  132.4446  155.1392 H   0  0  0  0  0  0  0  0  0  0  0  0
  146.0820  134.2786  154.1028 H   0  0  0  0  0  0  0  0  0  0  0  0
  147.2467  133.5161  155.1298 H   0  0  0  0  0  0  0  0  0  0  0  0
  148.3602  135.2412  153.0313 H   0  0  0  0  0  0  0  0  0  0  0  0
  149.2567  136.9310  153.4115 H   0  0  0  0  0  0  0  0  0  0  0  0
  150.3190  139.0440  153.2479 H   0  0  0  0  0  0  0  0  0  0  0  0
  152.1121  141.9106  156.2626 H   0  0  0  0  0  0  0  0  0  0  0  0
  151.0869  140.7562  158.9842 H   0  0  0  0  0  0  0  0  0  0  0  0
  152.3532  142.0724  158.7717 H   0  0  0  0  0  0  0  0  0  0  0  0
  150.6625  143.4996  157.5858 H   0  0  0  0  0  0  0  0  0  0  0  0
  149.4020  142.1776  157.7996 H   0  0  0  0  0  0  0  0  0  0  0  0
  149.1370  137.5912  157.1605 H   0  0  0  0  0  0  0  0  0  0  0  0
  147.0183  134.3786  151.3932 H   0  0  0  0  0  0  0  0  0  0  0  0
  147.7102  132.8078  150.8469 H   0  0  0  0  0  0  0  0  0  0  0  0
  144.9159  133.3046  152.0436 H   0  0  0  0  0  0  0  0  0  0  0  0
  145.3850  132.0643  150.8149 H   0  0  0  0  0  0  0  0  0  0  0  0
  146.7183  130.8464  152.4447 H   0  0  0  0  0  0  0  0  0  0  0  0
  145.6352  131.6149  153.6654 H   0  0  0  0  0  0  0  0  0  0  0  0
  1  2  1  0  0  0  0
  1 21  1  0  0  0  0
  1 22  1  0  0  0  0
  1 23  1  0  0  0  0
  2  3  1  0  0  0  0
  3 20  1  0  0  0  0
  3  4  1  0  0  0  0
  3 18  1  0  0  0  0
  4  5  1  0  0  0  0
  4 24  1  0  0  0  0
  4 25  1  0  0  0  0
  5  6  1  0  0  0  0
  5 26  1  0  0  0  0
  6  7  2  0  0  0  0
  6  8  1  0  0  0  0
  8  9  1  0  0  0  0
  8 27  1  0  0  0  0
  9 17  1  0  0  0  0
  9 10  2  0  0  0  0
 10 11  1  0  0  0  0
 10 28  1  0  0  0  0
 11 12  2  0  0  0  0
 12 13  1  0  0  0  0
 12 16  1  0  0  0  0
 13 15  1  0  0  0  0
 13 14  1  0  0  0  0
 13 29  1  0  0  0  0
 14 15  1  0  0  0  0
 14 30  1  0  0  0  0
 14 31  1  0  0  0  0
 15 32  1  0  0  0  0
 15 33  1  0  0  0  0
 16 17  2  0  0  0  0
 17 34  1  0  0  0  0
 18 19  1  0  0  0  0
 18 35  1  0  0  0  0
 18 36  1  0  0  0  0
 19 20  1  0  0  0  0
 19 37  1  0  0  0  0
 19 38  1  0  0  0  0
 20 39  1  0  0  0  0
 20 40  1  0  0  0  0
M  END
> <s_m_source_file>
AV-unprocessed.smi

> <i_m_source_file_index>
2257

> <i_lp_mmshare_version>
43012

> <i_f3d_flags>
0

> <s_epik_input>
W0NIMl0xW0NIMl1bQ0gyXUMxKE9bQ0gzXSlbQ0gyXVtOSF1DKD1PKVtOSF1jMltjSF1uYyhuW2NIXTIpW0NIXTNbQ0gyXVtDSDJdMw==

> <s_epik_cmdline>
J2VwaWtfcHl0aG9uJywgJy1waCcsICc3LjAnLCAnLXRuJywgJzgnLCAnLW1hJywgJzIwMCcsICctbWV0YWxfYmluZGluZycsICctaW1hZScsICc8aW5maWxlLm1hZT4nLCAnLW9tYWUnLCAnPG91dGZpbGUubWFlPic=

> <r_lp_tautomer_probability>
1

> <r_epik_Ionization_Penalty>
2.49679e-05

> <r_epik_Ionization_Penalty_Charging>
0

> <r_epik_Ionization_Penalty_Neutral>
2.49679e-05

> <r_epik_State_Penalty>
-0

> <r_epik_Charging_Adjusted_Penalty>
0

> <i_epik_Tot_Q>
0

> <i_epik_Tot_abs_Q>
0

> <r_epik_Metal_State_Penalty>
-0

> <b_epik_Metal_Only>
0

> <s_lp_Force_Field>
OPLS_2005

> <r_lp_Energy>
15.4086

> <b_lp_Chiralities_Consistent>
1

> <s_lp_Variant>
AV-unprocessed.smi:2257-1

> <Gold.Version>
5.8.1

> <Gold.Id.Protein>
6NUR|6NUR_protein|mol2

> <Gold.PLP.Fitness>
38.4554

> <Gold.PLP.PLP>
-26.9009

> <Gold.PLP.part.hbond>
-3.0000

> <Gold.PLP.part.metal>
0.0000

> <Gold.PLP.part.buried>
-4.6612

> <Gold.PLP.part.nonpolar>
-20.3069

> <Gold.PLP.part.repulsive>
0.2580

> <Gold.PLP.ligand.clash>
0.0000

> <Gold.PLP.ligand.torsion>
0.4212

> <Gold.PLP.Chemscore.Hbond>
3.0000

> <Gold.PLP.Chemscore.CHOScore>
1.0000

> <Gold.PLP.Chemscore.Metal>
0.0000

> <Gold.Chemscore.Hbonds>
donor molecule, donor type, donor heavy atom, donor atom, acceptor molecule, acceptor atom, score
      L1  H     5    26       P1  7948  1.00
      L1  H     8    27       P1  7948  1.00
      P1  H  7989  7998       L1    11  0.95
      L1  C    10    28       P1  7957  1.00

> <Gold.PLP.Chemscore.Internal.Correction>
0.3968

> <Gold.Rescore>
     Score         DG    S(hbond)    S(metal)    S(lipo)     H(rot)  DE(clash)    DE(int)     intcor
     15.91     -17.79       2.69        0.00      63.92       1.62       0.15       1.73       ----

> <Gold.Chemscore.Fitness>
15.9142

> <Gold.Chemscore.DG>
-17.7900

> <Gold.Chemscore.ZeroCoef>
-5.4800

> <Gold.Chemscore.Hbond>
2.6904

> <Gold.Chemscore.Metal>
0.0000

> <Gold.Chemscore.Lipo>
63.9204

> <Gold.Chemscore.Internal_Hbond>
0.0000

> <Gold.Chemscore.DEClash>
0.1465

> <Gold.Chemscore.DEInternal>
1.7292

> <Gold.Chemscore.Rot>
1.6229

> <Gold.Chemscore.Internal.Correction>
   9.000000E+99

> <Gold.Chemscore.Hbonds>
donor molecule, donor type, donor heavy atom, donor atom, acceptor molecule, acceptor atom, score
      L1  H     5    26       P1  7948  0.90
      L1  H     8    27       P1  7948  0.93
      P1  H  7989  7998       L1    11  0.22

> <Gold.Chemscore.Hbond.Weighted>
-8.9858

> <Gold.Chemscore.Metal.Weighted>
-0.0000

> <Gold.Chemscore.Lipo.Weighted>
-7.4787

> <Gold.Chemscore.Internal_Hbond.Weighted>
0.0000

> <Gold.Chemscore.DEClash.Weighted>
0.1465

> <Gold.Chemscore.DEInternal.Weighted>
1.7292

> <Gold.Chemscore.Rot.Weighted>
4.1545

> <Gold.Chemscore.Internal.Correction.Weighted>
   9.000000E+99

> <Gold.Protein.RotatedTorsions>
[ 6907 6896 6895 6894 ] final    4.26 input  -60.11 | X-H torsion
[ 7974 7965 7964 7962 ] final  -16.98 input  175.53 | X-H torsion
[ 8008 7997 7996 7995 ] final -144.67 input   59.86 | X-H torsion
[ 10167 10162 10161 10158 ] final  176.52 input  -65.29 | X-H torsion
[ 10718 10713 10712 10709 ] final   84.89 input   66.30 | X-H torsion
[ 10763 10752 10751 10750 ] final   40.54 input  -60.55 | X-H torsion
[ 11005 11000 10999 10996 ] final  100.37 input  -57.11 | X-H torsion

> <Gold.Protein.ActiveResidues>
 VAL166  LYS551  ARG553  GLY616  TRP617  ASP618  TYR619  PRO620  LYS621  CYS622 
 ASP623  PHE694  ASN695  SER759  ASP760  ASP761  ALA762  ILE779  LEU786  VAL792 
 PHE793  MET794  SER795  GLU796  ALA797  LYS798  CYS799  TRP800  GLU811  SER814 

> <Gold.Protein.RotatedAtoms>
  151.6384  135.1015  160.0135 H   0  0  0  0  0  0  0  0  0  0  0  0  # atno 6907 bound_to 6896
  152.4068  133.6897  159.6371 H   0  0  0  0  0  0  0  0  0  0  0  0  # atno 6908 bound_to 6896
  150.7962  133.8612  159.3273 H   0  0  0  0  0  0  0  0  0  0  0  0  # atno 6909 bound_to 6896
  146.1962  140.3713  142.8439 H   0  0  0  0  0  0  0  0  0  0  0  0  # atno 7974 bound_to 7965
  155.5306  140.0599  157.2889 H   0  0  0  0  0  0  0  0  0  0  0  0  # atno 8008 bound_to 7997
  154.4485  140.1936  156.0535 H   0  0  0  0  0  0  0  0  0  0  0  0  # atno 8009 bound_to 7997
  156.0655  140.3267  155.7516 H   0  0  0  0  0  0  0  0  0  0  0  0  # atno 8010 bound_to 7997
  139.5217  144.2906  152.0467 H   0  0  0  0  0  0  0  0  0  0  0  0  # atno 10167 bound_to 10162
  157.6906  131.0152  150.2741 H   0  0  0  0  0  0  0  0  0  0  0  0  # atno 10718 bound_to 10713
  152.9933  135.6188  154.2643 H   0  0  0  0  0  0  0  0  0  0  0  0  # atno 10763 bound_to 10752
  154.2378  135.2789  155.2867 H   0  0  0  0  0  0  0  0  0  0  0  0  # atno 10764 bound_to 10752
  154.5395  135.5765  153.6885 H   0  0  0  0  0  0  0  0  0  0  0  0  # atno 10765 bound_to 10752
  139.8771  134.9137  156.4746 H   0  0  0  0  0  0  0  0  0  0  0  0  # atno 11005 bound_to 11000
  144.8586  140.7107  143.6122 LP  0  0  0  0  0  0  0  0  0  0  0  0  # atno 17320 bound_to 7965
  145.3634  139.1676  143.4371 LP  0  0  0  0  0  0  0  0  0  0  0  0  # atno 17321 bound_to 7965
  140.2357  144.4321  150.6281 LP  0  0  0  0  0  0  0  0  0  0  0  0  # atno 17342 bound_to 10162
  140.6325  143.2189  151.6466 LP  0  0  0  0  0  0  0  0  0  0  0  0  # atno 17343 bound_to 10162
  156.3299  130.3798  149.7500 LP  0  0  0  0  0  0  0  0  0  0  0  0  # atno 17370 bound_to 10713
  156.5044  130.8143  151.3145 LP  0  0  0  0  0  0  0  0  0  0  0  0  # atno 17371 bound_to 10713
  140.8771  133.7945  155.9426 LP  0  0  0  0  0  0  0  0  0  0  0  0  # atno 17394 bound_to 11000
  140.8892  134.2516  157.5103 LP  0  0  0  0  0  0  0  0  0  0  0  0  # atno 17395 bound_to 11000

$$$$
