AV-unprocessed.smi:171|AV-procd|sdf|1421|dock4
  -GOLD-   2262019193D 1   1.00000     0.00000
 Structure written by MMmdl.
 56 59  0  0  0  0  0  0  0  0  1 V2000
  146.6948  134.9117  161.4110 C   0  0  0  0  0  0  0  0  0  0  0  0
  147.9157  135.7830  161.7460 C   0  0  0  0  0  0  0  0  0  0  0  0
  147.7448  136.4230  163.1326 C   0  0  0  0  0  0  0  0  0  0  0  0
  148.2167  136.8654  160.6829 C   0  0  0  0  0  0  0  0  0  0  0  0
  148.1683  136.3767  159.2031 C   0  0  1  0  0  0  0  0  0  0  0  0
  147.2298  137.1816  158.2693 C   0  0  0  0  0  0  0  0  0  0  0  0
  146.2595  137.7871  158.7192 O   0  0  0  0  0  0  0  0  0  0  0  0
  147.5068  137.1941  156.9529 N   0  0  0  0  0  0  0  0  0  0  0  0
  148.6577  136.5541  156.3104 C   0  0  0  0  0  0  0  0  0  0  0  0
  149.4762  135.6532  157.2596 C   0  0  0  0  0  0  0  0  0  0  0  0
  149.5078  136.2086  158.6107 N   0  0  0  0  0  0  0  0  0  0  0  0
  150.4580  137.1727  158.7552 C   0  0  0  0  0  0  0  0  0  0  0  0
  151.5650  136.9492  159.5130 N   0  0  0  0  0  0  0  0  0  0  0  0
  152.4852  137.9059  159.6629 C   0  0  0  0  0  0  0  0  0  0  0  0
  152.4954  139.1401  159.1563 N   0  0  0  0  0  0  0  0  0  0  0  0
  151.3856  139.3723  158.3986 C   0  0  0  0  0  0  0  0  0  0  0  0
  150.3300  138.4515  158.1466 C   0  0  0  0  0  0  0  0  0  0  0  0
  149.3764  139.0363  157.3223 N   0  0  0  0  0  0  0  0  0  0  0  0
  149.8393  140.2368  157.1039 C   0  0  0  0  0  0  0  0  0  0  0  0
  151.0353  140.5272  157.7215 N   0  0  0  0  0  0  0  0  0  0  0  0
  151.7684  141.7825  157.6591 C   0  0  0  0  0  0  0  0  0  0  0  0
  151.2953  142.8243  158.7070 C   0  0  2  0  0  0  0  0  0  0  0  0
  149.9140  142.6129  158.9478 O   0  0  0  0  0  0  0  0  0  0  0  0
  151.4711  144.2702  158.2474 C   0  0  0  0  0  0  0  0  0  0  0  0
  151.6840  145.0235  159.5511 C   0  0  0  0  0  0  0  0  0  0  0  0
  152.4981  144.1290  160.2878 O   0  0  0  0  0  0  0  0  0  0  0  0
  152.0233  142.8014  160.0814 C   0  0  2  0  0  0  0  0  0  0  0  0
  153.2192  141.8464  160.2189 C   0  0  0  0  0  0  0  0  0  0  0  0
  145.7956  135.5167  161.2905 H   0  0  0  0  0  0  0  0  0  0  0  0
  146.5022  134.1870  162.2024 H   0  0  0  0  0  0  0  0  0  0  0  0
  146.8474  134.3455  160.4927 H   0  0  0  0  0  0  0  0  0  0  0  0
  148.7831  135.1242  161.8054 H   0  0  0  0  0  0  0  0  0  0  0  0
  146.8911  137.1014  163.1529 H   0  0  0  0  0  0  0  0  0  0  0  0
  148.6298  136.9925  163.4177 H   0  0  0  0  0  0  0  0  0  0  0  0
  147.5850  135.6643  163.8994 H   0  0  0  0  0  0  0  0  0  0  0  0
  147.5602  137.7245  160.8286 H   0  0  0  0  0  0  0  0  0  0  0  0
  149.2180  137.2375  160.9028 H   0  0  0  0  0  0  0  0  0  0  0  0
  147.7528  135.3683  159.2208 H   0  0  0  0  0  0  0  0  0  0  0  0
  146.8857  137.7156  156.3514 H   0  0  0  0  0  0  0  0  0  0  0  0
  148.3251  135.9892  155.4392 H   0  0  0  0  0  0  0  0  0  0  0  0
  149.2970  137.3544  155.9363 H   0  0  0  0  0  0  0  0  0  0  0  0
  149.0097  134.6689  157.3150 H   0  0  0  0  0  0  0  0  0  0  0  0
  150.4748  135.4831  156.8555 H   0  0  0  0  0  0  0  0  0  0  0  0
  153.3336  137.6456  160.2783 H   0  0  0  0  0  0  0  0  0  0  0  0
  149.3141  140.9501  156.4856 H   0  0  0  0  0  0  0  0  0  0  0  0
  152.8289  141.5639  157.7901 H   0  0  0  0  0  0  0  0  0  0  0  0
  151.6561  142.1783  156.6495 H   0  0  0  0  0  0  0  0  0  0  0  0
  149.8003  142.3803  159.8565 H   0  0  0  0  0  0  0  0  0  0  0  0
  152.3725  144.3639  157.6404 H   0  0  0  0  0  0  0  0  0  0  0  0
  150.6349  144.6533  157.6606 H   0  0  0  0  0  0  0  0  0  0  0  0
  152.1710  145.9883  159.4080 H   0  0  0  0  0  0  0  0  0  0  0  0
  150.7396  145.1830  160.0737 H   0  0  0  0  0  0  0  0  0  0  0  0
  151.3151  142.5805  160.8823 H   0  0  0  0  0  0  0  0  0  0  0  0
  152.9161  140.8076  160.0877 H   0  0  0  0  0  0  0  0  0  0  0  0
  153.6654  141.9320  161.2097 H   0  0  0  0  0  0  0  0  0  0  0  0
  153.9991  142.0706  159.4908 H   0  0  0  0  0  0  0  0  0  0  0  0
  1  2  1  0  0  0  0
  1 29  1  0  0  0  0
  1 30  1  0  0  0  0
  1 31  1  0  0  0  0
  2  3  1  0  0  0  0
  2  4  1  0  0  0  0
  2 32  1  0  0  0  0
  3 33  1  0  0  0  0
  3 34  1  0  0  0  0
  3 35  1  0  0  0  0
  4  5  1  0  0  0  0
  4 36  1  0  0  0  0
  4 37  1  0  0  0  0
  5 11  1  0  0  0  0
  5  6  1  0  0  0  0
  5 38  1  0  0  0  0
  6  7  2  0  0  0  0
  6  8  1  0  0  0  0
  8  9  1  0  0  0  0
  8 39  1  0  0  0  0
  9 10  1  0  0  0  0
  9 40  1  0  0  0  0
  9 41  1  0  0  0  0
 10 11  1  0  0  0  0
 10 42  1  0  0  0  0
 10 43  1  0  0  0  0
 11 12  1  0  0  0  0
 12 17  1  0  0  0  0
 12 13  2  0  0  0  0
 13 14  1  0  0  0  0
 14 15  2  0  0  0  0
 14 44  1  0  0  0  0
 15 16  1  0  0  0  0
 16 20  1  0  0  0  0
 16 17  2  0  0  0  0
 17 18  1  0  0  0  0
 18 19  2  0  0  0  0
 19 20  1  0  0  0  0
 19 45  1  0  0  0  0
 20 21  1  0  0  0  0
 21 22  1  0  0  0  0
 21 46  1  0  0  0  0
 21 47  1  0  0  0  0
 22 27  1  0  0  0  0
 22 23  1  0  0  0  0
 22 24  1  0  0  0  0
 23 48  1  0  0  0  0
 24 25  1  0  0  0  0
 24 49  1  0  0  0  0
 24 50  1  0  0  0  0
 25 26  1  0  0  0  0
 25 51  1  0  0  0  0
 25 52  1  0  0  0  0
 26 27  1  0  0  0  0
 27 28  1  0  0  0  0
 27 53  1  0  0  0  0
 28 54  1  0  0  0  0
 28 55  1  0  0  0  0
 28 56  1  0  0  0  0
M  END
> <s_m_source_file>
AV-unprocessed.smi

> <i_m_source_file_index>
171

> <i_lp_mmshare_version>
43012

> <i_f3d_flags>
0

> <s_epik_input>
W0NIM11bQ0hdKFtDSDNdKVtDSDJdW0NAQEhdMUMoPU8pW05IXVtDSDJdW0NIMl1OMWMobltjSF1uMiljKGMyMyluW2NIXW4zW0NIMl1bQ0BAXTQoW09IXSlbQ0gyXVtDSDJdT1tDQEhdNFtDSDNd

> <s_epik_cmdline>
J2VwaWtfcHl0aG9uJywgJy1waCcsICc3LjAnLCAnLXRuJywgJzgnLCAnLW1hJywgJzIwMCcsICctbWV0YWxfYmluZGluZycsICctaW1hZScsICc8aW5maWxlLm1hZT4nLCAnLW9tYWUnLCAnPG91dGZpbGUubWFlPic=

> <r_lp_tautomer_probability>
1

> <r_epik_Ionization_Penalty>
0.000670584

> <r_epik_Ionization_Penalty_Charging>
0

> <r_epik_Ionization_Penalty_Neutral>
0.000670584

> <r_epik_State_Penalty>
0.000304767

> <r_epik_Charging_Adjusted_Penalty>
0.000304767

> <i_epik_Tot_Q>
0

> <i_epik_Tot_abs_Q>
0

> <r_epik_Metal_State_Penalty>
-0

> <b_epik_Metal_Only>
0

> <s_lp_Force_Field>
OPLS_2005

> <r_lp_Energy>
45.2633

> <b_lp_Chiralities_Consistent>
1

> <s_lp_Variant>
AV-unprocessed.smi:171-8

> <Gold.Version>
5.8.1

> <Gold.Id.Protein>
6NUR|6NUR_protein|mol2

> <Gold.PLP.Fitness>
43.3844

> <Gold.PLP.PLP>
-43.6566

> <Gold.PLP.part.hbond>
-2.4619

> <Gold.PLP.part.metal>
0.0000

> <Gold.PLP.part.buried>
-4.7895

> <Gold.PLP.part.nonpolar>
-36.0594

> <Gold.PLP.part.repulsive>
0.0468

> <Gold.PLP.ligand.clash>
0.0000

> <Gold.PLP.ligand.torsion>
1.8279

> <Gold.PLP.Chemscore.Hbond>
1.0000

> <Gold.PLP.Chemscore.CHOScore>
0.0000

> <Gold.PLP.Chemscore.Metal>
0.0000

> <Gold.Chemscore.Hbonds>
donor molecule, donor type, donor heavy atom, donor atom, acceptor molecule, acceptor atom, score
      P1  H  6896  6908       L1    13  1.00

> <Gold.PLP.Chemscore.Internal.Correction>
0.3837

> <Gold.Rescore>
     Score         DG    S(hbond)    S(metal)    S(lipo)     H(rot)  DE(clash)    DE(int)     intcor
      7.01     -13.86       0.90        0.00     103.10       2.61       0.04       6.82       ----

> <Gold.Chemscore.Fitness>
7.0071

> <Gold.Chemscore.DG>
-13.8626

> <Gold.Chemscore.ZeroCoef>
-5.4800

> <Gold.Chemscore.Hbond>
0.8965

> <Gold.Chemscore.Metal>
0.0000

> <Gold.Chemscore.Lipo>
103.1025

> <Gold.Chemscore.Internal_Hbond>
0.0000

> <Gold.Chemscore.DEClash>
0.0360

> <Gold.Chemscore.DEInternal>
6.8194

> <Gold.Chemscore.Rot>
2.6074

> <Gold.Chemscore.Internal.Correction>
   9.000000E+99

> <Gold.Chemscore.Hbonds>
donor molecule, donor type, donor heavy atom, donor atom, acceptor molecule, acceptor atom, score
      P1  H  6896  6908       L1    13  0.30

> <Gold.Chemscore.Hbond.Weighted>
-2.9944

> <Gold.Chemscore.Metal.Weighted>
-0.0000

> <Gold.Chemscore.Lipo.Weighted>
-12.0630

> <Gold.Chemscore.Internal_Hbond.Weighted>
0.0000

> <Gold.Chemscore.DEClash.Weighted>
0.0360

> <Gold.Chemscore.DEInternal.Weighted>
6.8194

> <Gold.Chemscore.Rot.Weighted>
6.6748

> <Gold.Chemscore.Internal.Correction.Weighted>
   9.000000E+99

> <Gold.Protein.RotatedTorsions>
[ 6907 6896 6895 6894 ] final -135.18 input  -60.11 | X-H torsion
[ 7974 7965 7964 7962 ] final   86.72 input  175.53 | X-H torsion
[ 8008 7997 7996 7995 ] final -118.51 input   59.86 | X-H torsion
[ 10167 10162 10161 10158 ] final  -81.52 input  -65.29 | X-H torsion
[ 10718 10713 10712 10709 ] final  161.33 input   66.30 | X-H torsion
[ 10763 10752 10751 10750 ] final -146.10 input  -60.55 | X-H torsion
[ 11005 11000 10999 10996 ] final -100.40 input  -57.11 | X-H torsion

> <Gold.Protein.ActiveResidues>
 VAL166  LYS551  ARG553  GLY616  TRP617  ASP618  TYR619  PRO620  LYS621  CYS622 
 ASP623  PHE694  ASN695  SER759  ASP760  ASP761  ALA762  ILE779  LEU786  VAL792 
 PHE793  MET794  SER795  GLU796  ALA797  LYS798  CYS799  TRP800  GLU811  SER814 

> <Gold.Protein.RotatedAtoms>
  150.9948  133.6114  159.2702 H   0  0  0  0  0  0  0  0  0  0  0  0  # atno 6907 bound_to 6896
  151.3322  135.0843  159.9352 H   0  0  0  0  0  0  0  0  0  0  0  0  # atno 6908 bound_to 6896
  152.5256  133.9575  159.7755 H   0  0  0  0  0  0  0  0  0  0  0  0  # atno 6909 bound_to 6896
  145.5685  139.2311  143.2419 H   0  0  0  0  0  0  0  0  0  0  0  0  # atno 7974 bound_to 7965
  155.1009  140.0396  157.2696 H   0  0  0  0  0  0  0  0  0  0  0  0  # atno 8008 bound_to 7997
  154.6759  140.2622  155.6933 H   0  0  0  0  0  0  0  0  0  0  0  0  # atno 8009 bound_to 7997
  156.2676  140.2788  156.1285 H   0  0  0  0  0  0  0  0  0  0  0  0  # atno 8010 bound_to 7997
  140.4404  143.2516  151.8633 H   0  0  0  0  0  0  0  0  0  0  0  0  # atno 10167 bound_to 10162
  157.1381  131.0533  151.2340 H   0  0  0  0  0  0  0  0  0  0  0  0  # atno 10718 bound_to 10713
  154.8352  135.3395  154.6608 H   0  0  0  0  0  0  0  0  0  0  0  0  # atno 10763 bound_to 10752
  153.7223  135.6957  153.5014 H   0  0  0  0  0  0  0  0  0  0  0  0  # atno 10764 bound_to 10752
  153.2372  135.4396  155.0612 H   0  0  0  0  0  0  0  0  0  0  0  0  # atno 10765 bound_to 10752
  141.1272  133.8396  157.1098 H   0  0  0  0  0  0  0  0  0  0  0  0  # atno 11005 bound_to 11000
  146.1801  140.6511  142.9193 LP  0  0  0  0  0  0  0  0  0  0  0  0  # atno 17320 bound_to 7965
  144.7449  140.5041  143.6843 LP  0  0  0  0  0  0  0  0  0  0  0  0  # atno 17321 bound_to 7965
  139.4789  144.5235  151.8768 LP  0  0  0  0  0  0  0  0  0  0  0  0  # atno 17342 bound_to 10162
  140.4324  144.2097  150.5888 LP  0  0  0  0  0  0  0  0  0  0  0  0  # atno 17343 bound_to 10162
  157.4332  130.7502  149.7007 LP  0  0  0  0  0  0  0  0  0  0  0  0  # atno 17370 bound_to 10713
  155.9794  130.4040  150.3589 LP  0  0  0  0  0  0  0  0  0  0  0  0  # atno 17371 bound_to 10713
  140.0282  134.9914  157.0728 LP  0  0  0  0  0  0  0  0  0  0  0  0  # atno 17394 bound_to 11000
  140.4328  134.1763  155.7169 LP  0  0  0  0  0  0  0  0  0  0  0  0  # atno 17395 bound_to 11000

$$$$
