AV-unprocessed.smi:3272|AV-procd|sdf|12519|dock10
  -GOLD-   2272018433D 1   1.00000     0.00000
 Structure written by MMmdl.
 35 36  0  0  0  0  0  0  0  0  1 V2000
  145.8818  142.9198  153.8931 C   0  0  0  0  0  0  0  0  0  0  0  0
  147.3190  142.5186  153.5405 C   0  0  0  0  0  0  0  0  0  0  0  0
  147.4797  141.0783  153.5001 N   0  0  0  0  0  0  0  0  0  0  0  0
  146.7908  140.1646  152.7276 C   0  0  0  0  0  0  0  0  0  0  0  0
  147.3103  138.9427  153.0497 C   0  0  0  0  0  0  0  0  0  0  0  0
  146.9682  137.6602  152.5512 N   0  0  0  0  0  0  0  0  0  0  0  0
  145.7397  137.1270  152.4493 C   0  0  0  0  0  0  0  0  0  0  0  0
  144.6951  137.6914  152.7750 O   0  0  0  0  0  0  0  0  0  0  0  0
  145.7877  135.8837  151.9498 N   0  0  0  0  0  0  0  0  0  0  0  0
  144.6348  135.0146  151.7334 C   0  0  0  0  0  0  0  0  0  0  0  0
  144.9020  133.9732  150.6302 C   0  0  1  0  0  0  0  0  0  0  0  0
  146.1611  133.1464  150.8103 C   0  0  0  0  0  0  0  0  0  0  0  0
  145.8900  131.9528  149.8995 C   0  0  0  0  0  0  0  0  0  0  0  0
  144.4762  131.7754  149.8978 O   0  0  0  0  0  0  0  0  0  0  0  0
  143.8449  132.8724  150.5514 C   0  0  0  0  0  0  0  0  0  0  0  0
  148.3121  139.1924  154.0234 C   0  0  0  0  0  0  0  0  0  0  0  0
  148.4084  140.4858  154.2909 N   0  0  0  0  0  0  0  0  0  0  0  0
  145.7807  144.0044  153.9310 H   0  0  0  0  0  0  0  0  0  0  0  0
  145.5905  142.5236  154.8664 H   0  0  0  0  0  0  0  0  0  0  0  0
  145.1738  142.5459  153.1528 H   0  0  0  0  0  0  0  0  0  0  0  0
  147.6028  142.9322  152.5719 H   0  0  0  0  0  0  0  0  0  0  0  0
  148.0143  142.9262  154.2752 H   0  0  0  0  0  0  0  0  0  0  0  0
  146.0161  140.4650  152.0378 H   0  0  0  0  0  0  0  0  0  0  0  0
  147.7414  137.0845  152.2514 H   0  0  0  0  0  0  0  0  0  0  0  0
  146.6919  135.5042  151.7096 H   0  0  0  0  0  0  0  0  0  0  0  0
  144.3359  134.5249  152.6620 H   0  0  0  0  0  0  0  0  0  0  0  0
  143.7955  135.6456  151.4403 H   0  0  0  0  0  0  0  0  0  0  0  0
  144.9503  134.4755  149.6624 H   0  0  0  0  0  0  0  0  0  0  0  0
  147.0717  133.6830  150.5426 H   0  0  0  0  0  0  0  0  0  0  0  0
  146.2527  132.8132  151.8451 H   0  0  0  0  0  0  0  0  0  0  0  0
  146.2117  132.1713  148.8805 H   0  0  0  0  0  0  0  0  0  0  0  0
  146.4058  131.0515  150.2314 H   0  0  0  0  0  0  0  0  0  0  0  0
  143.5469  132.5505  151.5504 H   0  0  0  0  0  0  0  0  0  0  0  0
  142.9489  133.1906  150.0182 H   0  0  0  0  0  0  0  0  0  0  0  0
  148.9586  138.4943  154.5346 H   0  0  0  0  0  0  0  0  0  0  0  0
  1  2  1  0  0  0  0
  1 18  1  0  0  0  0
  1 19  1  0  0  0  0
  1 20  1  0  0  0  0
  2  3  1  0  0  0  0
  2 21  1  0  0  0  0
  2 22  1  0  0  0  0
  3 17  1  0  0  0  0
  3  4  1  0  0  0  0
  4  5  2  0  0  0  0
  4 23  1  0  0  0  0
  5  6  1  0  0  0  0
  5 16  1  0  0  0  0
  6  7  1  0  0  0  0
  6 24  1  0  0  0  0
  7  8  2  0  0  0  0
  7  9  1  0  0  0  0
  9 10  1  0  0  0  0
  9 25  1  0  0  0  0
 10 11  1  0  0  0  0
 10 26  1  0  0  0  0
 10 27  1  0  0  0  0
 11 15  1  0  0  0  0
 11 12  1  0  0  0  0
 11 28  1  0  0  0  0
 12 13  1  0  0  0  0
 12 29  1  0  0  0  0
 12 30  1  0  0  0  0
 13 14  1  0  0  0  0
 13 31  1  0  0  0  0
 13 32  1  0  0  0  0
 14 15  1  0  0  0  0
 15 33  1  0  0  0  0
 15 34  1  0  0  0  0
 16 17  2  0  0  0  0
 16 35  1  0  0  0  0
M  END
> <s_m_source_file>
AV-unprocessed.smi

> <i_m_source_file_index>
3272

> <i_lp_mmshare_version>
43012

> <i_f3d_flags>
0

> <s_epik_input>
W0NIM11bQ0gyXW4xW2NIXWMoW2NIXW4xKVtOSF1DKD1PKVtOSF1bQ0gyXVtDQEBIXTJbQ0gyXVtDSDJdT1tDSDJdMg==

> <s_epik_cmdline>
J2VwaWtfcHl0aG9uJywgJy1waCcsICc3LjAnLCAnLXRuJywgJzgnLCAnLW1hJywgJzIwMCcsICctbWV0YWxfYmluZGluZycsICctaW1hZScsICc8aW5maWxlLm1hZT4nLCAnLW9tYWUnLCAnPG91dGZpbGUubWFlPic=

> <r_lp_tautomer_probability>
1

> <r_epik_Ionization_Penalty>
0.000182896

> <r_epik_Ionization_Penalty_Charging>
0

> <r_epik_Ionization_Penalty_Neutral>
0.000182896

> <r_epik_State_Penalty>
-0

> <r_epik_Charging_Adjusted_Penalty>
0

> <i_epik_Tot_Q>
0

> <i_epik_Tot_abs_Q>
0

> <r_epik_Metal_State_Penalty>
-0

> <b_epik_Metal_Only>
0

> <s_lp_Force_Field>
OPLS_2005

> <r_lp_Energy>
22.1585

> <b_lp_Chiralities_Consistent>
1

> <s_lp_Variant>
AV-unprocessed.smi:3272-2

> <Gold.Version>
5.8.1

> <Gold.Id.Protein>
6NUR|6NUR_protein|mol2

> <Gold.PLP.Fitness>
37.3519

> <Gold.PLP.PLP>
-31.9014

> <Gold.PLP.part.hbond>
-2.4684

> <Gold.PLP.part.metal>
0.0000

> <Gold.PLP.part.buried>
-4.1293

> <Gold.PLP.part.nonpolar>
-27.2321

> <Gold.PLP.part.repulsive>
1.1985

> <Gold.PLP.ligand.clash>
0.0000

> <Gold.PLP.ligand.torsion>
0.6675

> <Gold.PLP.Chemscore.Hbond>
1.2596

> <Gold.PLP.Chemscore.CHOScore>
1.0000

> <Gold.PLP.Chemscore.Metal>
0.0000

> <Gold.Chemscore.Hbonds>
donor molecule, donor type, donor heavy atom, donor atom, acceptor molecule, acceptor atom, score
      L1  H     6    24       P1  7948  0.98
      L1  H     9    25       P1  7948  0.16
      P1  H 10785 10796       L1    14  0.09
      L1  C     4    23       P1 10175  0.88

> <Gold.PLP.Chemscore.Internal.Correction>
0.0068

> <Gold.Rescore>
     Score         DG    S(hbond)    S(metal)    S(lipo)     H(rot)  DE(clash)    DE(int)     intcor
     14.42     -15.25       1.54        0.00      70.42       1.41       0.19       0.64       ----

> <Gold.Chemscore.Fitness>
14.4189

> <Gold.Chemscore.DG>
-15.2507

> <Gold.Chemscore.ZeroCoef>
-5.4800

> <Gold.Chemscore.Hbond>
1.5366

> <Gold.Chemscore.Metal>
0.0000

> <Gold.Chemscore.Lipo>
70.4187

> <Gold.Chemscore.Internal_Hbond>
0.0000

> <Gold.Chemscore.DEClash>
0.1915

> <Gold.Chemscore.DEInternal>
0.6403

> <Gold.Chemscore.Rot>
1.4064

> <Gold.Chemscore.Internal.Correction>
   9.000000E+99

> <Gold.Chemscore.Hbonds>
donor molecule, donor type, donor heavy atom, donor atom, acceptor molecule, acceptor atom, score
      L1  H     6    24       P1  7948  0.91
      L1  H     9    25       P1  7948  0.17
      P1  H 10785 10796       L1    14  0.09

> <Gold.Chemscore.Hbond.Weighted>
-5.1322

> <Gold.Chemscore.Metal.Weighted>
-0.0000

> <Gold.Chemscore.Lipo.Weighted>
-8.2390

> <Gold.Chemscore.Internal_Hbond.Weighted>
0.0000

> <Gold.Chemscore.DEClash.Weighted>
0.1915

> <Gold.Chemscore.DEInternal.Weighted>
0.6403

> <Gold.Chemscore.Rot.Weighted>
3.6004

> <Gold.Chemscore.Internal.Correction.Weighted>
   9.000000E+99

> <Gold.Protein.RotatedTorsions>
[ 6907 6896 6895 6894 ] final -131.20 input  -60.11 | X-H torsion
[ 7974 7965 7964 7962 ] final -168.84 input  175.53 | X-H torsion
[ 8008 7997 7996 7995 ] final  104.67 input   59.86 | X-H torsion
[ 10167 10162 10161 10158 ] final  -54.80 input  -65.29 | X-H torsion
[ 10718 10713 10712 10709 ] final -104.27 input   66.30 | X-H torsion
[ 10763 10752 10751 10750 ] final -123.30 input  -60.55 | X-H torsion
[ 11005 11000 10999 10996 ] final  -45.21 input  -57.11 | X-H torsion

> <Gold.Protein.ActiveResidues>
 VAL166  LYS551  ARG553  GLY616  TRP617  ASP618  TYR619  PRO620  LYS621  CYS622 
 ASP623  PHE694  ASN695  SER759  ASP760  ASP761  ALA762  ILE779  LEU786  VAL792 
 PHE793  MET794  SER795  GLU796  ALA797  LYS798  CYS799  TRP800  GLU811  SER814 

> <Gold.Protein.RotatedAtoms>
  150.9482  133.6579  159.2776 H   0  0  0  0  0  0  0  0  0  0  0  0  # atno 6907 bound_to 6896
  151.3944  135.0960  159.9546 H   0  0  0  0  0  0  0  0  0  0  0  0  # atno 6908 bound_to 6896
  152.5099  133.8990  159.7486 H   0  0  0  0  0  0  0  0  0  0  0  0  # atno 6909 bound_to 6896
  144.7196  140.2310  143.6304 H   0  0  0  0  0  0  0  0  0  0  0  0  # atno 7974 bound_to 7965
  156.1593  140.3144  155.8779 H   0  0  0  0  0  0  0  0  0  0  0  0  # atno 8008 bound_to 7997
  155.3815  140.0488  157.3060 H   0  0  0  0  0  0  0  0  0  0  0  0  # atno 8009 bound_to 7997
  154.5131  140.2171  155.9129 H   0  0  0  0  0  0  0  0  0  0  0  0  # atno 8010 bound_to 7997
  140.6410  143.2508  151.4988 H   0  0  0  0  0  0  0  0  0  0  0  0  # atno 10167 bound_to 10162
  156.0297  130.5507  150.7372 H   0  0  0  0  0  0  0  0  0  0  0  0  # atno 10718 bound_to 10713
  154.8705  135.4103  154.2922 H   0  0  0  0  0  0  0  0  0  0  0  0  # atno 10763 bound_to 10752
  153.3796  135.7011  153.6581 H   0  0  0  0  0  0  0  0  0  0  0  0  # atno 10764 bound_to 10752
  153.5409  135.3648  155.2689 H   0  0  0  0  0  0  0  0  0  0  0  0  # atno 10765 bound_to 10752
  141.0500  133.6746  156.2981 H   0  0  0  0  0  0  0  0  0  0  0  0  # atno 11005 bound_to 11000
  145.8410  139.2130  143.1827 LP  0  0  0  0  0  0  0  0  0  0  0  0  # atno 17320 bound_to 7965
  146.0346  140.8225  142.9859 LP  0  0  0  0  0  0  0  0  0  0  0  0  # atno 17321 bound_to 7965
  139.5620  144.2134  152.1706 LP  0  0  0  0  0  0  0  0  0  0  0  0  # atno 17342 bound_to 10162
  140.1405  144.5207  150.6747 LP  0  0  0  0  0  0  0  0  0  0  0  0  # atno 17343 bound_to 10162
  157.4950  131.0914  151.0383 LP  0  0  0  0  0  0  0  0  0  0  0  0  # atno 17370 bound_to 10713
  157.0779  130.5891  149.5415 LP  0  0  0  0  0  0  0  0  0  0  0  0  # atno 17371 bound_to 10713
  140.6073  134.5494  157.5527 LP  0  0  0  0  0  0  0  0  0  0  0  0  # atno 17394 bound_to 11000
  139.9343  134.7905  156.0845 LP  0  0  0  0  0  0  0  0  0  0  0  0  # atno 17395 bound_to 11000

$$$$
