AV-unprocessed.smi:254|AV-procd|sdf|1947|dock6
  -GOLD-   2262021 83D 1   1.00000     0.00000
 Structure written by MMmdl.
 50 53  0  0  0  0  0  0  0  0  1 V2000
  152.4397  140.1370  158.3168 O   0  0  0  0  0  0  0  0  0  0  0  0
  151.7371  140.7078  157.4844 C   0  0  0  0  0  0  0  0  0  0  0  0
  151.4983  140.1689  156.0878 C   0  0  0  0  0  0  0  0  0  0  0  0
  150.6156  141.1746  155.5000 N   0  0  0  0  0  0  0  0  0  0  0  0
  149.5724  140.6673  154.8066 C   0  0  0  0  0  0  0  0  0  0  0  0
  148.9294  141.4325  153.8856 N   0  0  0  0  0  0  0  0  0  0  0  0
  147.8899  140.9305  153.2117 C   0  0  0  0  0  0  0  0  0  0  0  0
  147.3413  139.7168  153.3054 N   0  0  0  0  0  0  0  0  0  0  0  0
  147.9822  138.9529  154.2365 C   0  0  0  0  0  0  0  0  0  0  0  0
  149.0961  139.3492  155.0271 C   0  0  0  0  0  0  0  0  0  0  0  0
  149.4815  138.3119  155.8660 N   0  0  0  0  0  0  0  0  0  0  0  0
  148.6438  137.3512  155.5840 C   0  0  0  0  0  0  0  0  0  0  0  0
  147.6996  137.6556  154.6279 N   0  0  0  0  0  0  0  0  0  0  0  0
  146.6641  136.7742  154.1175 C   0  0  0  0  0  0  0  0  0  0  0  0
  145.4058  137.5004  153.5743 C   0  0  2  0  0  0  0  0  0  0  0  0
  144.5080  137.8635  154.7826 C   0  0  0  0  0  0  0  0  0  0  0  0
  143.3438  138.5591  154.3876 O   0  0  0  0  0  0  0  0  0  0  0  0
  144.6403  136.6666  152.5007 C   0  0  1  0  0  0  0  0  0  0  0  0
  145.4631  136.2355  151.2964 C   0  0  0  0  0  0  0  0  0  0  0  0
  144.6119  135.1231  150.7035 C   0  0  0  0  0  0  0  0  0  0  0  0
  144.0978  134.4362  151.8333 O   0  0  0  0  0  0  0  0  0  0  0  0
  144.1002  135.3030  152.9641 C   0  0  0  0  0  0  0  0  0  0  0  0
  150.3118  142.2240  156.4747 C   0  0  0  0  0  0  0  0  0  0  0  0
  151.0760  141.8544  157.6538 N   0  0  0  0  0  0  0  0  0  0  0  0
  151.0324  142.6703  158.8654 C   0  0  0  0  0  0  0  0  0  0  0  0
  152.2580  143.5917  158.9982 C   0  0  0  0  0  0  0  0  0  0  0  0
  152.0972  144.3746  160.0641 F   0  0  0  0  0  0  0  0  0  0  0  0
  153.3775  142.8862  159.1576 F   0  0  0  0  0  0  0  0  0  0  0  0
  152.3766  144.3640  157.9180 F   0  0  0  0  0  0  0  0  0  0  0  0
  152.4350  140.1118  155.5331 H   0  0  0  0  0  0  0  0  0  0  0  0
  151.0534  139.1731  156.1351 H   0  0  0  0  0  0  0  0  0  0  0  0
  147.4315  141.5967  152.4959 H   0  0  0  0  0  0  0  0  0  0  0  0
  148.6872  136.3893  156.0740 H   0  0  0  0  0  0  0  0  0  0  0  0
  147.0896  136.1359  153.3422 H   0  0  0  0  0  0  0  0  0  0  0  0
  146.3900  136.1110  154.9388 H   0  0  0  0  0  0  0  0  0  0  0  0
  145.7351  138.4363  153.1204 H   0  0  0  0  0  0  0  0  0  0  0  0
  144.2329  136.9717  155.3463 H   0  0  0  0  0  0  0  0  0  0  0  0
  145.0354  138.5202  155.4749 H   0  0  0  0  0  0  0  0  0  0  0  0
  143.6013  139.3090  153.8734 H   0  0  0  0  0  0  0  0  0  0  0  0
  143.8010  137.2576  152.1302 H   0  0  0  0  0  0  0  0  0  0  0  0
  145.6409  137.0422  150.5849 H   0  0  0  0  0  0  0  0  0  0  0  0
  146.4270  135.8348  151.6133 H   0  0  0  0  0  0  0  0  0  0  0  0
  143.7812  135.5388  150.1317 H   0  0  0  0  0  0  0  0  0  0  0  0
  145.1787  134.4584  150.0515 H   0  0  0  0  0  0  0  0  0  0  0  0
  144.7435  134.8598  153.7247 H   0  0  0  0  0  0  0  0  0  0  0  0
  143.0932  135.3788  153.3722 H   0  0  0  0  0  0  0  0  0  0  0  0
  150.6489  143.1886  156.0937 H   0  0  0  0  0  0  0  0  0  0  0  0
  149.2514  142.3065  156.7184 H   0  0  0  0  0  0  0  0  0  0  0  0
  150.1223  143.2718  158.8552 H   0  0  0  0  0  0  0  0  0  0  0  0
  150.9564  142.0212  159.7392 H   0  0  0  0  0  0  0  0  0  0  0  0
  1  2  2  0  0  0  0
  2 24  1  0  0  0  0
  2  3  1  0  0  0  0
  3  4  1  0  0  0  0
  3 30  1  0  0  0  0
  3 31  1  0  0  0  0
  4  5  1  0  0  0  0
  4 23  1  0  0  0  0
  5 10  1  0  0  0  0
  5  6  2  0  0  0  0
  6  7  1  0  0  0  0
  7  8  2  0  0  0  0
  7 32  1  0  0  0  0
  8  9  1  0  0  0  0
  9 13  1  0  0  0  0
  9 10  2  0  0  0  0
 10 11  1  0  0  0  0
 11 12  2  0  0  0  0
 12 13  1  0  0  0  0
 12 33  1  0  0  0  0
 13 14  1  0  0  0  0
 14 15  1  0  0  0  0
 14 34  1  0  0  0  0
 14 35  1  0  0  0  0
 15 16  1  0  0  0  0
 15 18  1  0  0  0  0
 15 36  1  0  0  0  0
 16 17  1  0  0  0  0
 16 37  1  0  0  0  0
 16 38  1  0  0  0  0
 17 39  1  0  0  0  0
 18 22  1  0  0  0  0
 18 19  1  0  0  0  0
 18 40  1  0  0  0  0
 19 20  1  0  0  0  0
 19 41  1  0  0  0  0
 19 42  1  0  0  0  0
 20 21  1  0  0  0  0
 20 43  1  0  0  0  0
 20 44  1  0  0  0  0
 21 22  1  0  0  0  0
 22 45  1  0  0  0  0
 22 46  1  0  0  0  0
 23 24  1  0  0  0  0
 23 47  1  0  0  0  0
 23 48  1  0  0  0  0
 24 25  1  0  0  0  0
 25 26  1  0  0  0  0
 25 49  1  0  0  0  0
 25 50  1  0  0  0  0
 26 27  1  0  0  0  0
 26 28  1  0  0  0  0
 26 29  1  0  0  0  0
M  END
> <s_m_source_file>
AV-unprocessed.smi

> <i_m_source_file_index>
254

> <i_lp_mmshare_version>
43012

> <i_f3d_flags>
0

> <s_epik_input>
RkMoRikoRilbQ0gyXU4xW0NIMl1OKFtDSDJdQzE9TyljKG5bY0hdbjIpYyhjMjMpbltjSF1uM1tDSDJdW0NASF0oW0NIMl1bT0hdKVtDQEBIXTRbQ0gyXVtDSDJdT1tDSDJdNA==

> <s_epik_cmdline>
J2VwaWtfcHl0aG9uJywgJy1waCcsICc3LjAnLCAnLXRuJywgJzgnLCAnLW1hJywgJzIwMCcsICctbWV0YWxfYmluZGluZycsICctaW1hZScsICc8aW5maWxlLm1hZT4nLCAnLW9tYWUnLCAnPG91dGZpbGUubWFlPic=

> <r_lp_tautomer_probability>
1

> <r_epik_Ionization_Penalty>
0.000292924

> <r_epik_Ionization_Penalty_Charging>
0

> <r_epik_Ionization_Penalty_Neutral>
0.000292924

> <r_epik_State_Penalty>
-0

> <r_epik_Charging_Adjusted_Penalty>
0

> <i_epik_Tot_Q>
0

> <i_epik_Tot_abs_Q>
0

> <r_epik_Metal_State_Penalty>
-0

> <b_epik_Metal_Only>
0

> <s_epik_Chemistry_Notes>
This compound contains an acetal/aminal-like group ( X-CH(R)-Y where X, Y are N, S, or O) that may be acid/base labile, releasing an aldehyde.

> <s_lp_Force_Field>
OPLS_2005

> <r_lp_Energy>
43.3232

> <b_lp_Chiralities_Consistent>
1

> <s_lp_Variant>
AV-unprocessed.smi:254-3

> <Gold.Version>
5.8.1

> <Gold.Id.Protein>
6NUR|6NUR_protein|mol2

> <Gold.PLP.Fitness>
47.8696

> <Gold.PLP.PLP>
-44.3730

> <Gold.PLP.part.hbond>
-3.2454

> <Gold.PLP.part.metal>
0.0000

> <Gold.PLP.part.buried>
-2.9511

> <Gold.PLP.part.nonpolar>
-40.9985

> <Gold.PLP.part.repulsive>
2.0640

> <Gold.PLP.ligand.clash>
0.0000

> <Gold.PLP.ligand.torsion>
1.3330

> <Gold.PLP.Chemscore.Hbond>
1.8812

> <Gold.PLP.Chemscore.CHOScore>
0.0000

> <Gold.PLP.Chemscore.Metal>
0.0000

> <Gold.Chemscore.Hbonds>
donor molecule, donor type, donor heavy atom, donor atom, acceptor molecule, acceptor atom, score
      L1  H    17    39       P1 10175  1.00
      P1  H  7989  7998       L1     4  0.01
      P1  H  8011  8017       L1     6  0.63

> <Gold.PLP.Chemscore.Internal.Correction>
0.5191

> <Gold.Rescore>
     Score         DG    S(hbond)    S(metal)    S(lipo)     H(rot)  DE(clash)    DE(int)     intcor
     -1.11      -5.45       1.04        0.00      52.80       3.78       1.62       4.94       ----

> <Gold.Chemscore.Fitness>
-1.1097

> <Gold.Chemscore.DG>
-5.4480

> <Gold.Chemscore.ZeroCoef>
-5.4800

> <Gold.Chemscore.Hbond>
1.0410

> <Gold.Chemscore.Metal>
0.0000

> <Gold.Chemscore.Lipo>
52.8036

> <Gold.Chemscore.Internal_Hbond>
0.0000

> <Gold.Chemscore.DEClash>
1.6153

> <Gold.Chemscore.DEInternal>
4.9424

> <Gold.Chemscore.Rot>
3.7840

> <Gold.Chemscore.Internal.Correction>
   9.000000E+99

> <Gold.Chemscore.Hbonds>
donor molecule, donor type, donor heavy atom, donor atom, acceptor molecule, acceptor atom, score
      L1  H    17    39       P1 10175  0.99
      P1  H  8011  8017       L1     6  0.10

> <Gold.Chemscore.Hbond.Weighted>
-3.4771

> <Gold.Chemscore.Metal.Weighted>
-0.0000

> <Gold.Chemscore.Lipo.Weighted>
-6.1780

> <Gold.Chemscore.Internal_Hbond.Weighted>
0.0000

> <Gold.Chemscore.DEClash.Weighted>
1.6153

> <Gold.Chemscore.DEInternal.Weighted>
4.9424

> <Gold.Chemscore.Rot.Weighted>
9.6871

> <Gold.Chemscore.Internal.Correction.Weighted>
   9.000000E+99

> <Gold.Protein.RotatedTorsions>
[ 6907 6896 6895 6894 ] final  131.84 input  -60.11 | X-H torsion
[ 7974 7965 7964 7962 ] final   41.79 input  175.53 | X-H torsion
[ 8008 7997 7996 7995 ] final  161.92 input   59.86 | X-H torsion
[ 10167 10162 10161 10158 ] final -124.05 input  -65.29 | X-H torsion
[ 10718 10713 10712 10709 ] final   66.08 input   66.30 | X-H torsion
[ 10763 10752 10751 10750 ] final  131.25 input  -60.55 | X-H torsion
[ 11005 11000 10999 10996 ] final  -81.17 input  -57.11 | X-H torsion

> <Gold.Protein.ActiveResidues>
 VAL166  LYS551  ARG553  GLY616  TRP617  ASP618  TYR619  PRO620  LYS621  CYS622 
 ASP623  PHE694  ASN695  SER759  ASP760  ASP761  ALA762  ILE779  LEU786  VAL792 
 PHE793  MET794  SER795  GLU796  ALA797  LYS798  CYS799  TRP800  GLU811  SER814 

> <Gold.Protein.RotatedAtoms>
  152.3385  133.6039  159.5859 H   0  0  0  0  0  0  0  0  0  0  0  0  # atno 6907 bound_to 6896
  150.7464  133.9759  159.3569 H   0  0  0  0  0  0  0  0  0  0  0  0  # atno 6908 bound_to 6896
  151.7626  135.0807  160.0399 H   0  0  0  0  0  0  0  0  0  0  0  0  # atno 6909 bound_to 6896
  146.0794  139.5375  142.9546 H   0  0  0  0  0  0  0  0  0  0  0  0  # atno 7974 bound_to 7965
  156.2069  140.1764  156.7780 H   0  0  0  0  0  0  0  0  0  0  0  0  # atno 8008 bound_to 7997
  154.5667  140.0689  156.8933 H   0  0  0  0  0  0  0  0  0  0  0  0  # atno 8009 bound_to 7997
  155.2747  140.3345  155.4265 H   0  0  0  0  0  0  0  0  0  0  0  0  # atno 8010 bound_to 7997
  139.9969  143.5581  152.2319 H   0  0  0  0  0  0  0  0  0  0  0  0  # atno 10167 bound_to 10162
  157.6146  130.9248  150.0061 H   0  0  0  0  0  0  0  0  0  0  0  0  # atno 10718 bound_to 10713
  153.7713  135.3181  155.3352 H   0  0  0  0  0  0  0  0  0  0  0  0  # atno 10763 bound_to 10752
  154.8195  135.4613  154.0742 H   0  0  0  0  0  0  0  0  0  0  0  0  # atno 10764 bound_to 10752
  153.2002  135.6921  153.8325 H   0  0  0  0  0  0  0  0  0  0  0  0  # atno 10765 bound_to 10752
  141.1667  133.7184  156.8382 H   0  0  0  0  0  0  0  0  0  0  0  0  # atno 11005 bound_to 11000
  145.6245  141.0316  143.1897 LP  0  0  0  0  0  0  0  0  0  0  0  0  # atno 17320 bound_to 7965
  144.7283  139.7804  143.7356 LP  0  0  0  0  0  0  0  0  0  0  0  0  # atno 17321 bound_to 7965
  139.6299  144.7643  151.2558 LP  0  0  0  0  0  0  0  0  0  0  0  0  # atno 17342 bound_to 10162
  140.7433  143.6497  150.8259 LP  0  0  0  0  0  0  0  0  0  0  0  0  # atno 17343 bound_to 10162
  156.1263  130.3644  149.9804 LP  0  0  0  0  0  0  0  0  0  0  0  0  # atno 17370 bound_to 10713
  156.7874  130.9244  151.3646 LP  0  0  0  0  0  0  0  0  0  0  0  0  # atno 17371 bound_to 10713
  140.2002  134.8902  157.3160 LP  0  0  0  0  0  0  0  0  0  0  0  0  # atno 17394 bound_to 11000
  140.2196  134.4040  155.7572 LP  0  0  0  0  0  0  0  0  0  0  0  0  # atno 17395 bound_to 11000

$$$$
