AV-unprocessed.smi:3122|AV-procd|sdf|11898|dock6
  -GOLD-   2272017283D 1   1.00000     0.00000
 Structure written by MMmdl.
 29 30  0  0  0  0  0  0  0  0  1 V2000
  152.0206  143.8646  161.3898 C   0  0  0  0  0  0  0  0  0  0  0  0
  152.3413  143.8752  159.8877 C   0  0  0  0  0  0  0  0  0  0  0  0
  151.6123  145.0040  159.1453 C   0  0  0  0  0  0  0  0  0  0  0  0
  152.0867  142.5462  159.2489 C   0  0  0  0  0  0  0  0  0  0  0  0
  151.6136  141.4402  159.8307 N   0  0  0  0  0  0  0  0  0  0  0  0
  151.4519  140.5217  158.8183 N   0  0  0  0  0  0  0  0  0  0  0  0
  151.8244  141.1455  157.6970 C   0  0  0  0  0  0  0  0  0  0  0  0
  151.7791  140.6220  156.2976 C   0  0  2  0  0  0  0  0  0  0  0  0
  150.3383  140.3690  155.8140 C   0  0  0  0  0  0  0  0  0  0  0  0
  150.3494  139.7804  154.4756 N   0  0  0  0  0  0  0  0  0  0  0  0
  151.1656  138.5675  154.4379 C   0  0  0  0  0  0  0  0  0  0  0  0
  152.5833  138.8580  154.9628 C   0  0  0  0  0  0  0  0  0  0  0  0
  152.5049  139.3956  156.2786 O   0  0  0  0  0  0  0  0  0  0  0  0
  152.1957  142.4362  157.8993 O   0  0  0  0  0  0  0  0  0  0  0  0
  152.5907  143.0919  161.9064 H   0  0  0  0  0  0  0  0  0  0  0  0
  150.9618  143.6749  161.5703 H   0  0  0  0  0  0  0  0  0  0  0  0
  152.2693  144.8207  161.8511 H   0  0  0  0  0  0  0  0  0  0  0  0
  153.4106  144.0689  159.7951 H   0  0  0  0  0  0  0  0  0  0  0  0
  151.9100  145.0386  158.0967 H   0  0  0  0  0  0  0  0  0  0  0  0
  151.8396  145.9754  159.5850 H   0  0  0  0  0  0  0  0  0  0  0  0
  150.5309  144.8668  159.1800 H   0  0  0  0  0  0  0  0  0  0  0  0
  152.2734  141.3476  155.6491 H   0  0  0  0  0  0  0  0  0  0  0  0
  149.8293  139.6987  156.5078 H   0  0  0  0  0  0  0  0  0  0  0  0
  149.7743  141.3021  155.8078 H   0  0  0  0  0  0  0  0  0  0  0  0
  149.3996  139.5600  154.1931 H   0  0  0  0  0  0  0  0  0  0  0  0
  150.7029  137.7896  155.0464 H   0  0  0  0  0  0  0  0  0  0  0  0
  151.2148  138.1808  153.4199 H   0  0  0  0  0  0  0  0  0  0  0  0
  153.1673  137.9382  154.9931 H   0  0  0  0  0  0  0  0  0  0  0  0
  153.1113  139.5486  154.3032 H   0  0  0  0  0  0  0  0  0  0  0  0
  1  2  1  0  0  0  0
  1 15  1  0  0  0  0
  1 16  1  0  0  0  0
  1 17  1  0  0  0  0
  2  3  1  0  0  0  0
  2  4  1  0  0  0  0
  2 18  1  0  0  0  0
  3 19  1  0  0  0  0
  3 20  1  0  0  0  0
  3 21  1  0  0  0  0
  4 14  1  0  0  0  0
  4  5  2  0  0  0  0
  5  6  1  0  0  0  0
  6  7  2  0  0  0  0
  7  8  1  0  0  0  0
  7 14  1  0  0  0  0
  8 13  1  0  0  0  0
  8  9  1  0  0  0  0
  8 22  1  0  0  0  0
  9 10  1  0  0  0  0
  9 23  1  0  0  0  0
  9 24  1  0  0  0  0
 10 11  1  0  0  0  0
 10 25  1  0  0  0  0
 11 12  1  0  0  0  0
 11 26  1  0  0  0  0
 11 27  1  0  0  0  0
 12 13  1  0  0  0  0
 12 28  1  0  0  0  0
 12 29  1  0  0  0  0
M  END
> <s_m_source_file>
AV-unprocessed.smi

> <i_m_source_file_index>
3122

> <i_lp_mmshare_version>
43012

> <i_f3d_flags>
0

> <s_epik_input>
W0NIM11bQ0hdKFtDSDNdKWMxbm5jKG8xKVtDQEBIXTJbQ0gyXVtOSF1bQ0gyXVtDSDJdTzI=

> <s_epik_cmdline>
J2VwaWtfcHl0aG9uJywgJy1waCcsICc3LjAnLCAnLXRuJywgJzgnLCAnLW1hJywgJzIwMCcsICctbWV0YWxfYmluZGluZycsICctaW1hZScsICc8aW5maWxlLm1hZT4nLCAnLW9tYWUnLCAnPG91dGZpbGUubWFlPic=

> <r_lp_tautomer_probability>
1

> <r_epik_Ionization_Penalty>
1.64488

> <r_epik_Ionization_Penalty_Charging>
0

> <r_epik_Ionization_Penalty_Neutral>
1.64488

> <r_epik_State_Penalty>
1.74649

> <r_epik_Charging_Adjusted_Penalty>
1.74649

> <i_epik_Tot_Q>
0

> <i_epik_Tot_abs_Q>
0

> <r_epik_Metal_State_Penalty>
1.74649

> <b_epik_Metal_Only>
0

> <s_lp_Force_Field>
OPLS_2005

> <r_lp_Energy>
11.6401

> <b_lp_Chiralities_Consistent>
1

> <s_lp_Variant>
AV-unprocessed.smi:3122-3

> <Gold.Version>
5.8.1

> <Gold.Id.Protein>
6NUR|6NUR_protein|mol2

> <Gold.PLP.Fitness>
35.1042

> <Gold.PLP.PLP>
-30.1849

> <Gold.PLP.part.hbond>
-2.6939

> <Gold.PLP.part.metal>
0.0000

> <Gold.PLP.part.buried>
-2.7621

> <Gold.PLP.part.nonpolar>
-24.1901

> <Gold.PLP.part.repulsive>
0.0196

> <Gold.PLP.ligand.clash>
0.0000

> <Gold.PLP.ligand.torsion>
0.2306

> <Gold.PLP.Chemscore.Hbond>
1.7500

> <Gold.PLP.Chemscore.CHOScore>
0.0000

> <Gold.PLP.Chemscore.Metal>
0.0000

> <Gold.Chemscore.Hbonds>
donor molecule, donor type, donor heavy atom, donor atom, acceptor molecule, acceptor atom, score
      P1  H  7989  7998       L1    10  0.75
      P1  H  7997  8010       L1    13  1.00

> <Gold.PLP.Chemscore.Internal.Correction>
0.1306

> <Gold.Rescore>
     Score         DG    S(hbond)    S(metal)    S(lipo)     H(rot)  DE(clash)    DE(int)     intcor
     10.56     -10.92       0.32        0.00      64.60       1.24       0.11       0.25       ----

> <Gold.Chemscore.Fitness>
10.5595

> <Gold.Chemscore.DG>
-10.9225

> <Gold.Chemscore.ZeroCoef>
-5.4800

> <Gold.Chemscore.Hbond>
0.3187

> <Gold.Chemscore.Metal>
0.0000

> <Gold.Chemscore.Lipo>
64.5974

> <Gold.Chemscore.Internal_Hbond>
0.0000

> <Gold.Chemscore.DEClash>
0.1147

> <Gold.Chemscore.DEInternal>
0.2483

> <Gold.Chemscore.Rot>
1.2422

> <Gold.Chemscore.Internal.Correction>
   9.000000E+99

> <Gold.Chemscore.Hbonds>
donor molecule, donor type, donor heavy atom, donor atom, acceptor molecule, acceptor atom, score
      P1  H  7989  7998       L1    10  0.04
      P1  H  7997  8010       L1    13  0.06

> <Gold.Chemscore.Hbond.Weighted>
-1.0646

> <Gold.Chemscore.Metal.Weighted>
-0.0000

> <Gold.Chemscore.Lipo.Weighted>
-7.5579

> <Gold.Chemscore.Internal_Hbond.Weighted>
0.0000

> <Gold.Chemscore.DEClash.Weighted>
0.1147

> <Gold.Chemscore.DEInternal.Weighted>
0.2483

> <Gold.Chemscore.Rot.Weighted>
3.1799

> <Gold.Chemscore.Internal.Correction.Weighted>
   9.000000E+99

> <Gold.Protein.RotatedTorsions>
[ 6907 6896 6895 6894 ] final   83.69 input  -60.11 | X-H torsion
[ 7974 7965 7964 7962 ] final   44.19 input  175.53 | X-H torsion
[ 8008 7997 7996 7995 ] final   68.72 input   59.86 | X-H torsion
[ 10167 10162 10161 10158 ] final  -82.62 input  -65.29 | X-H torsion
[ 10718 10713 10712 10709 ] final -112.59 input   66.30 | X-H torsion
[ 10763 10752 10751 10750 ] final   13.98 input  -60.55 | X-H torsion
[ 11005 11000 10999 10996 ] final -127.96 input  -57.11 | X-H torsion

> <Gold.Protein.ActiveResidues>
 VAL166  LYS551  ARG553  GLY616  TRP617  ASP618  TYR619  PRO620  LYS621  CYS622 
 ASP623  PHE694  ASN695  SER759  ASP760  ASP761  ALA762  ILE779  LEU786  VAL792 
 PHE793  MET794  SER795  GLU796  ALA797  LYS798  CYS799  TRP800  GLU811  SER814 

> <Gold.Protein.RotatedAtoms>
  152.5333  134.2857  159.9023 H   0  0  0  0  0  0  0  0  0  0  0  0  # atno 6907 bound_to 6896
  151.2810  133.4203  159.2634 H   0  0  0  0  0  0  0  0  0  0  0  0  # atno 6908 bound_to 6896
  151.0283  134.9536  159.8154 H   0  0  0  0  0  0  0  0  0  0  0  0  # atno 6909 bound_to 6896
  146.0590  139.5103  142.9670 H   0  0  0  0  0  0  0  0  0  0  0  0  # atno 7974 bound_to 7965
  155.7127  140.3494  155.4981 H   0  0  0  0  0  0  0  0  0  0  0  0  # atno 8008 bound_to 7997
  155.9341  140.1089  157.1130 H   0  0  0  0  0  0  0  0  0  0  0  0  # atno 8009 bound_to 7997
  154.4090  140.1225  156.4828 H   0  0  0  0  0  0  0  0  0  0  0  0  # atno 8010 bound_to 7997
  140.4302  143.2551  151.8769 H   0  0  0  0  0  0  0  0  0  0  0  0  # atno 10167 bound_to 10162
  156.0715  130.5928  150.8529 H   0  0  0  0  0  0  0  0  0  0  0  0  # atno 10718 bound_to 10713
  153.1667  135.6805  153.8666 H   0  0  0  0  0  0  0  0  0  0  0  0  # atno 10763 bound_to 10752
  153.8043  135.3151  155.3395 H   0  0  0  0  0  0  0  0  0  0  0  0  # atno 10764 bound_to 10752
  154.7970  135.4801  154.0275 H   0  0  0  0  0  0  0  0  0  0  0  0  # atno 10765 bound_to 10752
  140.9556  134.1007  157.4020 H   0  0  0  0  0  0  0  0  0  0  0  0  # atno 11005 bound_to 11000
  145.6592  141.0244  143.1718 LP  0  0  0  0  0  0  0  0  0  0  0  0  # atno 17320 bound_to 7965
  144.7164  139.8181  143.7397 LP  0  0  0  0  0  0  0  0  0  0  0  0  # atno 17321 bound_to 7965
  139.4785  144.5342  151.8622 LP  0  0  0  0  0  0  0  0  0  0  0  0  # atno 17342 bound_to 10162
  140.4435  144.1953  150.5892 LP  0  0  0  0  0  0  0  0  0  0  0  0  # atno 17343 bound_to 10162
  157.5788  131.0946  150.9304 LP  0  0  0  0  0  0  0  0  0  0  0  0  # atno 17370 bound_to 10713
  156.9504  130.5417  149.5282 LP  0  0  0  0  0  0  0  0  0  0  0  0  # atno 17371 bound_to 10713
  139.8861  135.0078  156.6477 LP  0  0  0  0  0  0  0  0  0  0  0  0  # atno 17394 bound_to 11000
  140.7541  133.8872  155.8369 LP  0  0  0  0  0  0  0  0  0  0  0  0  # atno 17395 bound_to 11000

$$$$
