AV-unprocessed.smi:98|AV-procd|sdf|863|dock3
  -GOLD-   2262017313D 1   1.00000     0.00000
 Structure written by MMmdl.
 56 59  0  0  0  0  0  0  0  0  1 V2000
  151.3168  136.8949  159.2045 O   0  0  0  0  0  0  0  0  0  0  0  0
  151.0480  137.5831  158.2192 C   0  0  0  0  0  0  0  0  0  0  0  0
  152.1270  138.4590  157.5621 C   0  0  0  0  0  0  0  0  0  0  0  0
  152.5004  139.6435  158.3665 N   0  0  0  0  0  0  0  0  0  0  0  0
  153.5885  139.5319  159.2677 C   0  0  0  0  0  0  0  0  0  0  0  0
  154.2006  138.4712  159.4012 O   0  0  0  0  0  0  0  0  0  0  0  0
  153.9279  140.7471  159.9988 C   0  0  0  0  0  0  0  0  0  0  0  0
  154.9570  140.7393  160.8629 F   0  0  0  0  0  0  0  0  0  0  0  0
  153.2261  141.8847  159.8178 C   0  0  0  0  0  0  0  0  0  0  0  0
  152.1523  141.9743  158.9544 N   0  0  0  0  0  0  0  0  0  0  0  0
  151.4526  143.3028  158.7831 C   0  0  2  0  0  0  0  0  0  0  0  0
  152.3833  144.4322  158.3025 C   0  0  0  0  0  0  0  0  0  0  0  0
  152.2502  145.4732  159.4020 C   0  0  0  0  0  0  0  0  0  0  0  0
  150.9250  145.1054  160.0600 C   0  0  0  0  0  0  0  0  0  0  0  0
  150.9182  143.6872  160.0123 O   0  0  0  0  0  0  0  0  0  0  0  0
  151.7848  140.8506  158.1784 C   0  0  0  0  0  0  0  0  0  0  0  0
  150.8716  140.9196  157.3545 O   0  0  0  0  0  0  0  0  0  0  0  0
  149.8329  137.6515  157.6450 N   0  0  0  0  0  0  0  0  0  0  0  0
  148.6328  136.9859  158.0155 C   0  0  0  0  0  0  0  0  0  0  0  0
  147.4170  137.6185  157.6786 C   0  0  0  0  0  0  0  0  0  0  0  0
  146.1843  137.0174  157.9972 C   0  0  0  0  0  0  0  0  0  0  0  0
  146.1664  135.7657  158.6426 C   0  0  0  0  0  0  0  0  0  0  0  0
  144.6020  134.9978  159.0527 S   0  0  0  0  0  0  0  0  0  0  0  0
  143.5282  135.9704  158.7957 O   0  0  0  0  0  0  0  0  0  0  0  0
  144.5569  133.6713  158.4175 O   0  0  0  0  0  0  0  0  0  0  0  0
  144.7029  134.7603  160.7734 N   0  0  0  0  0  0  0  0  0  0  0  0
  144.9515  135.9142  161.6552 C   0  0  0  0  0  0  0  0  0  0  0  0
  146.4193  135.9526  162.1166 C   0  0  0  0  0  0  0  0  0  0  0  0
  146.7772  134.7111  162.7068 O   0  0  0  0  0  0  0  0  0  0  0  0
  146.6765  133.6382  161.7816 C   0  0  0  0  0  0  0  0  0  0  0  0
  145.2209  133.4875  161.3047 C   0  0  0  0  0  0  0  0  0  0  0  0
  147.3715  135.1193  158.9790 C   0  0  0  0  0  0  0  0  0  0  0  0
  148.6023  135.7231  158.6579 C   0  0  0  0  0  0  0  0  0  0  0  0
  152.9953  137.8324  157.3530 H   0  0  0  0  0  0  0  0  0  0  0  0
  151.7782  138.7626  156.5735 H   0  0  0  0  0  0  0  0  0  0  0  0
  153.5225  142.7586  160.3795 H   0  0  0  0  0  0  0  0  0  0  0  0
  150.6386  143.1256  158.0786 H   0  0  0  0  0  0  0  0  0  0  0  0
  153.4101  144.0962  158.1552 H   0  0  0  0  0  0  0  0  0  0  0  0
  152.0052  144.8128  157.3531 H   0  0  0  0  0  0  0  0  0  0  0  0
  153.0633  145.3669  160.1205 H   0  0  0  0  0  0  0  0  0  0  0  0
  152.2668  146.4958  159.0246 H   0  0  0  0  0  0  0  0  0  0  0  0
  150.8444  145.4752  161.0824 H   0  0  0  0  0  0  0  0  0  0  0  0
  150.0837  145.4940  159.4840 H   0  0  0  0  0  0  0  0  0  0  0  0
  149.7412  138.3201  156.8940 H   0  0  0  0  0  0  0  0  0  0  0  0
  147.4250  138.5753  157.1766 H   0  0  0  0  0  0  0  0  0  0  0  0
  145.2613  137.5142  157.7373 H   0  0  0  0  0  0  0  0  0  0  0  0
  144.6806  136.8447  161.1572 H   0  0  0  0  0  0  0  0  0  0  0  0
  144.3012  135.8268  162.5261 H   0  0  0  0  0  0  0  0  0  0  0  0
  147.0912  136.1775  161.2885 H   0  0  0  0  0  0  0  0  0  0  0  0
  146.5563  136.7441  162.8535 H   0  0  0  0  0  0  0  0  0  0  0  0
  147.3539  133.8039  160.9440 H   0  0  0  0  0  0  0  0  0  0  0  0
  147.0035  132.7211  162.2718 H   0  0  0  0  0  0  0  0  0  0  0  0
  144.5946  133.1868  162.1451 H   0  0  0  0  0  0  0  0  0  0  0  0
  145.1401  132.6976  160.5585 H   0  0  0  0  0  0  0  0  0  0  0  0
  147.3580  134.1568  159.4687 H   0  0  0  0  0  0  0  0  0  0  0  0
  149.5086  135.1918  158.9031 H   0  0  0  0  0  0  0  0  0  0  0  0
  1  2  2  0  0  0  0
  2  3  1  0  0  0  0
  2 18  1  0  0  0  0
  3  4  1  0  0  0  0
  3 34  1  0  0  0  0
  3 35  1  0  0  0  0
  4 16  1  0  0  0  0
  4  5  1  0  0  0  0
  5  6  2  0  0  0  0
  5  7  1  0  0  0  0
  7  8  1  0  0  0  0
  7  9  2  0  0  0  0
  9 10  1  0  0  0  0
  9 36  1  0  0  0  0
 10 11  1  0  0  0  0
 10 16  1  0  0  0  0
 11 15  1  0  0  0  0
 11 12  1  0  0  0  0
 11 37  1  0  0  0  0
 12 13  1  0  0  0  0
 12 38  1  0  0  0  0
 12 39  1  0  0  0  0
 13 14  1  0  0  0  0
 13 40  1  0  0  0  0
 13 41  1  0  0  0  0
 14 15  1  0  0  0  0
 14 42  1  0  0  0  0
 14 43  1  0  0  0  0
 16 17  2  0  0  0  0
 18 19  1  0  0  0  0
 18 44  1  0  0  0  0
 19 33  1  0  0  0  0
 19 20  2  0  0  0  0
 20 21  1  0  0  0  0
 20 45  1  0  0  0  0
 21 22  2  0  0  0  0
 21 46  1  0  0  0  0
 22 23  1  0  0  0  0
 22 32  1  0  0  0  0
 23 24  2  0  0  0  0
 23 25  2  0  0  0  0
 23 26  1  0  0  0  0
 26 31  1  0  0  0  0
 26 27  1  0  0  0  0
 27 28  1  0  0  0  0
 27 47  1  0  0  0  0
 27 48  1  0  0  0  0
 28 29  1  0  0  0  0
 28 49  1  0  0  0  0
 28 50  1  0  0  0  0
 29 30  1  0  0  0  0
 30 31  1  0  0  0  0
 30 51  1  0  0  0  0
 30 52  1  0  0  0  0
 31 53  1  0  0  0  0
 31 54  1  0  0  0  0
 32 33  2  0  0  0  0
 32 55  1  0  0  0  0
 33 56  1  0  0  0  0
M  END
> <s_m_source_file>
AV-unprocessed.smi

> <i_m_source_file_index>
98

> <i_lp_mmshare_version>
43012

> <i_f3d_flags>
0

> <s_epik_input>
TzFbQ0gyXVtDSDJdW0NIMl1bQ0BIXTFuKGMyPU8pW2NIXWMoRiljKD1PKW4yW0NIMl1DKD1PKVtOSF1jM1tjSF1bY0hdYyhbY0hdW2NIXTMpUyg9TykoPU8pTjRbQ0gyXVtDSDJdT1tDSDJdW0NIMl00

> <s_epik_cmdline>
J2VwaWtfcHl0aG9uJywgJy1waCcsICc3LjAnLCAnLXRuJywgJzgnLCAnLW1hJywgJzIwMCcsICctbWV0YWxfYmluZGluZycsICctaW1hZScsICc8aW5maWxlLm1hZT4nLCAnLW9tYWUnLCAnPG91dGZpbGUubWFlPic=

> <r_lp_tautomer_probability>
1

> <r_epik_Ionization_Penalty>
1.9271e-06

> <r_epik_Ionization_Penalty_Charging>
3.88729e-08

> <r_epik_Ionization_Penalty_Neutral>
1.88823e-06

> <r_epik_State_Penalty>
-0

> <r_epik_Charging_Adjusted_Penalty>
3.88729e-08

> <i_epik_Tot_Q>
0

> <i_epik_Tot_abs_Q>
0

> <r_epik_Metal_State_Penalty>
-0

> <b_epik_Metal_Only>
0

> <s_epik_Chemistry_Notes>
This compound contains an acetal/aminal-like group ( X-CH(R)-Y where X, Y are N, S, or O) that may be acid/base labile, releasing an aldehyde.

> <s_lp_Force_Field>
OPLS_2005

> <r_lp_Energy>
27.1293

> <b_lp_Chiralities_Consistent>
1

> <s_lp_Variant>
AV-unprocessed.smi:98-1

> <Gold.Version>
5.8.1

> <Gold.Id.Protein>
6NUR|6NUR_protein|mol2

> <Gold.PLP.Fitness>
55.2041

> <Gold.PLP.PLP>
-53.6201

> <Gold.PLP.part.hbond>
-2.7655

> <Gold.PLP.part.metal>
0.0000

> <Gold.PLP.part.buried>
-6.2560

> <Gold.PLP.part.nonpolar>
-43.6951

> <Gold.PLP.part.repulsive>
0.2086

> <Gold.PLP.ligand.clash>
0.0000

> <Gold.PLP.ligand.torsion>
2.8059

> <Gold.PLP.Chemscore.Hbond>
1.0000

> <Gold.PLP.Chemscore.CHOScore>
0.0000

> <Gold.PLP.Chemscore.Metal>
0.0000

> <Gold.Chemscore.Hbonds>
donor molecule, donor type, donor heavy atom, donor atom, acceptor molecule, acceptor atom, score
      P1  H  6896  6909       L1     1  1.00

> <Gold.PLP.Chemscore.Internal.Correction>
4.1957

> <Gold.Rescore>
     Score         DG    S(hbond)    S(metal)    S(lipo)     H(rot)  DE(clash)    DE(int)     intcor
     13.49     -17.68       1.00        0.00     112.32       1.67       0.41       3.77       ----

> <Gold.Chemscore.Fitness>
13.4941

> <Gold.Chemscore.DG>
-17.6788

> <Gold.Chemscore.ZeroCoef>
-5.4800

> <Gold.Chemscore.Hbond>
1.0011

> <Gold.Chemscore.Metal>
0.0000

> <Gold.Chemscore.Lipo>
112.3224

> <Gold.Chemscore.Internal_Hbond>
0.0000

> <Gold.Chemscore.DEClash>
0.4145

> <Gold.Chemscore.DEInternal>
3.7702

> <Gold.Chemscore.Rot>
1.6744

> <Gold.Chemscore.Internal.Correction>
   9.000000E+99

> <Gold.Chemscore.Hbonds>
donor molecule, donor type, donor heavy atom, donor atom, acceptor molecule, acceptor atom, score
      P1  H  6896  6909       L1     1  0.98

> <Gold.Chemscore.Hbond.Weighted>
-3.3436

> <Gold.Chemscore.Metal.Weighted>
-0.0000

> <Gold.Chemscore.Lipo.Weighted>
-13.1417

> <Gold.Chemscore.Internal_Hbond.Weighted>
0.0000

> <Gold.Chemscore.DEClash.Weighted>
0.4145

> <Gold.Chemscore.DEInternal.Weighted>
3.7702

> <Gold.Chemscore.Rot.Weighted>
4.2865

> <Gold.Chemscore.Internal.Correction.Weighted>
   9.000000E+99

> <Gold.Protein.RotatedTorsions>
[ 6907 6896 6895 6894 ] final  114.63 input  -60.11 | X-H torsion
[ 7974 7965 7964 7962 ] final  136.84 input  175.53 | X-H torsion
[ 8008 7997 7996 7995 ] final  -98.53 input   59.86 | X-H torsion
[ 10167 10162 10161 10158 ] final   77.71 input  -65.29 | X-H torsion
[ 10718 10713 10712 10709 ] final  -51.26 input   66.30 | X-H torsion
[ 10763 10752 10751 10750 ] final   84.83 input  -60.55 | X-H torsion
[ 11005 11000 10999 10996 ] final  173.86 input  -57.11 | X-H torsion

> <Gold.Protein.ActiveResidues>
 VAL166  LYS551  ARG553  GLY616  TRP617  ASP618  TYR619  PRO620  LYS621  CYS622 
 ASP623  PHE694  ASN695  SER759  ASP760  ASP761  ALA762  ILE779  LEU786  VAL792 
 PHE793  MET794  SER795  GLU796  ALA797  LYS798  CYS799  TRP800  GLU811  SER814 

> <Gold.Protein.RotatedAtoms>
  152.4791  133.8209  159.7052 H   0  0  0  0  0  0  0  0  0  0  0  0  # atno 6907 bound_to 6896
  150.8827  133.7340  159.2934 H   0  0  0  0  0  0  0  0  0  0  0  0  # atno 6908 bound_to 6896
  151.4839  135.1057  159.9837 H   0  0  0  0  0  0  0  0  0  0  0  0  # atno 6909 bound_to 6896
  144.9526  139.4801  143.5518 H   0  0  0  0  0  0  0  0  0  0  0  0  # atno 7974 bound_to 7965
  154.8024  140.0454  157.1283 H   0  0  0  0  0  0  0  0  0  0  0  0  # atno 8008 bound_to 7997
  154.9463  140.3059  155.5076 H   0  0  0  0  0  0  0  0  0  0  0  0  # atno 8009 bound_to 7997
  156.2963  140.2296  156.4537 H   0  0  0  0  0  0  0  0  0  0  0  0  # atno 8010 bound_to 7997
  139.9787  144.5842  150.7920 H   0  0  0  0  0  0  0  0  0  0  0  0  # atno 10167 bound_to 10162
  156.1726  130.4149  149.9625 H   0  0  0  0  0  0  0  0  0  0  0  0  # atno 10718 bound_to 10713
  153.1418  135.4639  154.9507 H   0  0  0  0  0  0  0  0  0  0  0  0  # atno 10763 bound_to 10752
  154.7753  135.3171  154.8106 H   0  0  0  0  0  0  0  0  0  0  0  0  # atno 10764 bound_to 10752
  153.8628  135.6911  153.4835 H   0  0  0  0  0  0  0  0  0  0  0  0  # atno 10765 bound_to 10752
  140.3450  134.7244  157.4229 H   0  0  0  0  0  0  0  0  0  0  0  0  # atno 11005 bound_to 11000
  146.3326  139.8621  142.8854 LP  0  0  0  0  0  0  0  0  0  0  0  0  # atno 17320 bound_to 7965
  145.2821  141.0142  143.3711 LP  0  0  0  0  0  0  0  0  0  0  0  0  # atno 17321 bound_to 7965
  140.7497  143.2942  151.3248 LP  0  0  0  0  0  0  0  0  0  0  0  0  # atno 17342 bound_to 10162
  139.6426  144.0511  152.2566 LP  0  0  0  0  0  0  0  0  0  0  0  0  # atno 17343 bound_to 10162
  156.7420  130.9083  151.3632 LP  0  0  0  0  0  0  0  0  0  0  0  0  # atno 17370 bound_to 10713
  157.6813  130.9143  150.0275 LP  0  0  0  0  0  0  0  0  0  0  0  0  # atno 17371 bound_to 10713
  140.0750  134.5810  155.8601 LP  0  0  0  0  0  0  0  0  0  0  0  0  # atno 17394 bound_to 11000
  141.2028  133.6627  156.6026 LP  0  0  0  0  0  0  0  0  0  0  0  0  # atno 17395 bound_to 11000

$$$$
