AV-unprocessed.smi:265|AV-procd|sdf|2015|dock6
  -GOLD-   2262021213D 1   1.00000     0.00000
 Structure written by MMmdl.
 52 56  0  0  0  0  0  0  0  0  1 V2000
  149.9711  141.6062  156.2865 C   0  0  0  0  0  0  0  0  0  0  0  0
  149.2469  141.4153  154.9454 C   0  0  2  0  0  0  0  0  0  0  0  0
  147.9463  141.9975  154.9862 O   0  0  0  0  0  0  0  0  0  0  0  0
  147.0322  141.2157  154.2221 C   0  0  0  0  0  0  0  0  0  0  0  0
  147.8835  140.1764  153.4996 C   0  0  0  0  0  0  0  0  0  0  0  0
  149.0380  139.9639  154.4713 C   0  0  1  0  0  0  0  0  0  0  0  0
  150.1712  139.5159  153.7509 O   0  0  0  0  0  0  0  0  0  0  0  0
  148.7225  138.9614  155.6144 C   0  0  0  0  0  0  0  0  0  0  0  0
  148.2382  137.6709  155.1488 N   0  0  0  0  0  0  0  0  0  0  0  0
  146.9742  137.3773  154.6894 C   0  0  0  0  0  0  0  0  0  0  0  0
  146.7892  136.1386  154.3221 N   0  0  0  0  0  0  0  0  0  0  0  0
  148.0199  135.5309  154.5422 C   0  0  0  0  0  0  0  0  0  0  0  0
  148.5229  134.2121  154.3551 C   0  0  0  0  0  0  0  0  0  0  0  0
  147.7588  133.1946  153.8827 N   0  0  0  0  0  0  0  0  0  0  0  0
  146.5943  133.5469  153.0626 C   0  0  0  0  0  0  0  0  0  0  0  0
  145.6470  132.3450  152.8882 C   0  0  0  0  0  0  0  0  0  0  0  0
  146.4271  131.1409  152.3459 C   0  0  2  0  0  0  0  0  0  0  0  0
  145.6183  129.9774  152.2594 O   0  0  0  0  0  0  0  0  0  0  0  0
  146.2706  128.8801  151.6106 C   0  0  0  0  0  0  0  0  0  0  0  0
  147.7037  128.6420  152.1329 C   0  0  0  0  0  0  0  0  0  0  0  0
  148.2918  127.6001  151.8531 O   0  0  0  0  0  0  0  0  0  0  0  0
  148.2861  129.6149  152.8529 N   0  0  0  0  0  0  0  0  0  0  0  0
  147.5795  130.8058  153.3054 C   0  0  1  0  0  0  0  0  0  0  0  0
  148.5144  132.0176  153.4469 C   0  0  0  0  0  0  0  0  0  0  0  0
  149.8271  133.9902  154.6713 N   0  0  0  0  0  0  0  0  0  0  0  0
  150.5857  134.9825  155.1462 C   0  0  0  0  0  0  0  0  0  0  0  0
  150.2492  136.2528  155.3762 N   0  0  0  0  0  0  0  0  0  0  0  0
  148.9448  136.4847  155.0535 C   0  0  0  0  0  0  0  0  0  0  0  0
  146.8104  131.3894  151.3537 H   0  0  0  0  0  0  0  0  0  0  0  0
  147.1674  130.5702  154.2883 H   0  0  0  0  0  0  0  0  0  0  0  0
  150.9542  141.1356  156.2717 H   0  0  0  0  0  0  0  0  0  0  0  0
  149.4048  141.1839  157.1166 H   0  0  0  0  0  0  0  0  0  0  0  0
  150.1144  142.6660  156.4979 H   0  0  0  0  0  0  0  0  0  0  0  0
  149.7967  141.9603  154.1756 H   0  0  0  0  0  0  0  0  0  0  0  0
  146.3312  140.7327  154.9036 H   0  0  0  0  0  0  0  0  0  0  0  0
  146.4592  141.8343  153.5312 H   0  0  0  0  0  0  0  0  0  0  0  0
  147.3308  139.2744  153.2388 H   0  0  0  0  0  0  0  0  0  0  0  0
  148.2504  140.6093  152.5671 H   0  0  0  0  0  0  0  0  0  0  0  0
  149.9074  139.3326  152.8621 H   0  0  0  0  0  0  0  0  0  0  0  0
  149.6100  138.7859  156.2237 H   0  0  0  0  0  0  0  0  0  0  0  0
  147.9732  139.3796  156.2874 H   0  0  0  0  0  0  0  0  0  0  0  0
  146.1875  138.1158  154.6361 H   0  0  0  0  0  0  0  0  0  0  0  0
  146.0499  134.3721  153.5240 H   0  0  0  0  0  0  0  0  0  0  0  0
  146.9353  133.8923  152.0856 H   0  0  0  0  0  0  0  0  0  0  0  0
  145.1919  132.0921  153.8469 H   0  0  0  0  0  0  0  0  0  0  0  0
  144.8314  132.6035  152.2127 H   0  0  0  0  0  0  0  0  0  0  0  0
  145.6725  127.9791  151.7492 H   0  0  0  0  0  0  0  0  0  0  0  0
  146.3175  129.0738  150.5383 H   0  0  0  0  0  0  0  0  0  0  0  0
  149.2358  129.4829  153.1695 H   0  0  0  0  0  0  0  0  0  0  0  0
  148.9900  132.2400  152.4905 H   0  0  0  0  0  0  0  0  0  0  0  0
  149.3142  131.7784  154.1470 H   0  0  0  0  0  0  0  0  0  0  0  0
  151.6089  134.7217  155.3732 H   0  0  0  0  0  0  0  0  0  0  0  0
  1  2  1  0  0  0  0
  1 31  1  0  0  0  0
  1 32  1  0  0  0  0
  1 33  1  0  0  0  0
  2  6  1  0  0  0  0
  2  3  1  0  0  0  0
  2 34  1  0  0  0  0
  3  4  1  0  0  0  0
  4  5  1  0  0  0  0
  4 35  1  0  0  0  0
  4 36  1  0  0  0  0
  5  6  1  0  0  0  0
  5 37  1  0  0  0  0
  5 38  1  0  0  0  0
  6  7  1  0  0  0  0
  6  8  1  0  0  0  0
  7 39  1  0  0  0  0
  8  9  1  0  0  0  0
  8 40  1  0  0  0  0
  8 41  1  0  0  0  0
  9 28  1  0  0  0  0
  9 10  1  0  0  0  0
 10 11  2  0  0  0  0
 10 42  1  0  0  0  0
 11 12  1  0  0  0  0
 12 28  2  0  0  0  0
 12 13  1  0  0  0  0
 13 14  1  0  0  0  0
 13 25  2  0  0  0  0
 14 24  1  0  0  0  0
 14 15  1  0  0  0  0
 15 16  1  0  0  0  0
 15 43  1  0  0  0  0
 15 44  1  0  0  0  0
 16 17  1  0  0  0  0
 16 45  1  0  0  0  0
 16 46  1  0  0  0  0
 17 29  1  0  0  0  0
 17 23  1  0  0  0  0
 17 18  1  0  0  0  0
 18 19  1  0  0  0  0
 19 20  1  0  0  0  0
 19 47  1  0  0  0  0
 19 48  1  0  0  0  0
 20 21  2  0  0  0  0
 20 22  1  0  0  0  0
 22 23  1  0  0  0  0
 22 49  1  0  0  0  0
 23 30  1  0  0  0  0
 23 24  1  0  0  0  0
 24 50  1  0  0  0  0
 24 51  1  0  0  0  0
 25 26  1  0  0  0  0
 26 27  2  0  0  0  0
 26 52  1  0  0  0  0
 27 28  1  0  0  0  0
M  END
> <s_m_source_file>
AV-unprocessed.smi

> <i_m_source_file_index>
265

> <i_lp_mmshare_version>
43012

> <i_f3d_flags>
0

> <s_epik_input>
W0NIMl0xW0NIMl1PW0NAQEhdKFtDSDNdKVtDQEBdMShbT0hdKVtDSDJdbihbY0hdbjIpYyhjMjMpbltjSF1uYzNOKFtDSDJdW0NIMl00KVtDSDJdW0NAQEhdKFtDQEhdNDUpW05IXUMoPU8pW0NIMl1PNQ==

> <s_epik_cmdline>
J2VwaWtfcHl0aG9uJywgJy1waCcsICc3LjAnLCAnLXRuJywgJzgnLCAnLW1hJywgJzIwMCcsICctbWV0YWxfYmluZGluZycsICctaW1hZScsICc8aW5maWxlLm1hZT4nLCAnLW9tYWUnLCAnPG91dGZpbGUubWFlPic=

> <r_lp_tautomer_probability>
1

> <r_epik_Ionization_Penalty>
0.00221504

> <r_epik_Ionization_Penalty_Charging>
0

> <r_epik_Ionization_Penalty_Neutral>
0.00221504

> <r_epik_State_Penalty>
-0

> <r_epik_Charging_Adjusted_Penalty>
0

> <i_epik_Tot_Q>
0

> <i_epik_Tot_abs_Q>
0

> <r_epik_Metal_State_Penalty>
-0

> <b_epik_Metal_Only>
0

> <s_lp_Force_Field>
OPLS_2005

> <r_lp_Energy>
45.3858

> <b_lp_Chiralities_Consistent>
1

> <s_lp_Variant>
AV-unprocessed.smi:265-1

> <Gold.Version>
5.8.1

> <Gold.Id.Protein>
6NUR|6NUR_protein|mol2

> <Gold.PLP.Fitness>
37.8750

> <Gold.PLP.PLP>
-33.5131

> <Gold.PLP.part.hbond>
-3.0000

> <Gold.PLP.part.metal>
0.0000

> <Gold.PLP.part.buried>
-1.9139

> <Gold.PLP.part.nonpolar>
-29.6361

> <Gold.PLP.part.repulsive>
1.8579

> <Gold.PLP.ligand.clash>
0.0000

> <Gold.PLP.ligand.torsion>
0.8262

> <Gold.PLP.Chemscore.Hbond>
1.8637

> <Gold.PLP.Chemscore.CHOScore>
0.0000

> <Gold.PLP.Chemscore.Metal>
0.0000

> <Gold.Chemscore.Hbonds>
donor molecule, donor type, donor heavy atom, donor atom, acceptor molecule, acceptor atom, score
      L1  H     7    39       P1  7957  0.93
      P1  H  7989  7998       L1     7  0.93

> <Gold.PLP.Chemscore.Internal.Correction>
0.4232

> <Gold.Rescore>
     Score         DG    S(hbond)    S(metal)    S(lipo)     H(rot)  DE(clash)    DE(int)     intcor
     10.73     -12.16       1.15        0.00      73.47       2.25       0.93       0.50       ----

> <Gold.Chemscore.Fitness>
10.7293

> <Gold.Chemscore.DG>
-12.1612

> <Gold.Chemscore.ZeroCoef>
-5.4800

> <Gold.Chemscore.Hbond>
1.1477

> <Gold.Chemscore.Metal>
0.0000

> <Gold.Chemscore.Lipo>
73.4675

> <Gold.Chemscore.Internal_Hbond>
0.0000

> <Gold.Chemscore.DEClash>
0.9306

> <Gold.Chemscore.DEInternal>
0.5013

> <Gold.Chemscore.Rot>
2.2453

> <Gold.Chemscore.Internal.Correction>
   9.000000E+99

> <Gold.Chemscore.Hbonds>
donor molecule, donor type, donor heavy atom, donor atom, acceptor molecule, acceptor atom, score
      L1  H     7    39       P1  7957  0.88
      P1  H  7989  7998       L1     7  0.24

> <Gold.Chemscore.Hbond.Weighted>
-3.8334

> <Gold.Chemscore.Metal.Weighted>
-0.0000

> <Gold.Chemscore.Lipo.Weighted>
-8.5957

> <Gold.Chemscore.Internal_Hbond.Weighted>
0.0000

> <Gold.Chemscore.DEClash.Weighted>
0.9306

> <Gold.Chemscore.DEInternal.Weighted>
0.5013

> <Gold.Chemscore.Rot.Weighted>
5.7479

> <Gold.Chemscore.Internal.Correction.Weighted>
   9.000000E+99

> <Gold.Protein.RotatedTorsions>
[ 6907 6896 6895 6894 ] final  179.58 input  -60.11 | X-H torsion
[ 7974 7965 7964 7962 ] final -116.22 input  175.53 | X-H torsion
[ 8008 7997 7996 7995 ] final   80.82 input   59.86 | X-H torsion
[ 10167 10162 10161 10158 ] final   -2.13 input  -65.29 | X-H torsion
[ 10718 10713 10712 10709 ] final  158.44 input   66.30 | X-H torsion
[ 10763 10752 10751 10750 ] final  -49.98 input  -60.55 | X-H torsion
[ 11005 11000 10999 10996 ] final -145.47 input  -57.11 | X-H torsion

> <Gold.Protein.ActiveResidues>
 VAL166  LYS551  ARG553  GLY616  TRP617  ASP618  TYR619  PRO620  LYS621  CYS622 
 ASP623  PHE694  ASN695  SER759  ASP760  ASP761  ALA762  ILE779  LEU786  VAL792 
 PHE793  MET794  SER795  GLU796  ALA797  LYS798  CYS799  TRP800  GLU811  SER814 

> <Gold.Protein.RotatedAtoms>
  151.6693  133.3314  159.3192 H   0  0  0  0  0  0  0  0  0  0  0  0  # atno 6907 bound_to 6896
  150.7875  134.6876  159.6488 H   0  0  0  0  0  0  0  0  0  0  0  0  # atno 6908 bound_to 6896
  152.3948  134.6386  160.0145 H   0  0  0  0  0  0  0  0  0  0  0  0  # atno 6909 bound_to 6896
  145.0993  140.8541  143.3936 H   0  0  0  0  0  0  0  0  0  0  0  0  # atno 7974 bound_to 7965
  155.8887  140.3440  155.5940 H   0  0  0  0  0  0  0  0  0  0  0  0  # atno 8008 bound_to 7997
  155.7636  140.0836  157.2162 H   0  0  0  0  0  0  0  0  0  0  0  0  # atno 8009 bound_to 7997
  154.4031  140.1531  156.2848 H   0  0  0  0  0  0  0  0  0  0  0  0  # atno 8010 bound_to 7997
  140.6838  143.6693  150.8199 H   0  0  0  0  0  0  0  0  0  0  0  0  # atno 10167 bound_to 10162
  157.1778  131.0625  151.2148 H   0  0  0  0  0  0  0  0  0  0  0  0  # atno 10718 bound_to 10713
  154.1029  135.6560  153.4871 H   0  0  0  0  0  0  0  0  0  0  0  0  # atno 10763 bound_to 10752
  153.0282  135.5229  154.7268 H   0  0  0  0  0  0  0  0  0  0  0  0  # atno 10764 bound_to 10752
  154.6426  135.2990  155.0054 H   0  0  0  0  0  0  0  0  0  0  0  0  # atno 10765 bound_to 10752
  140.7920  134.2958  157.5010 H   0  0  0  0  0  0  0  0  0  0  0  0  # atno 11005 bound_to 11000
  145.0974  139.2846  143.5703 LP  0  0  0  0  0  0  0  0  0  0  0  0  # atno 17320 bound_to 7965
  146.3530  140.0531  142.8634 LP  0  0  0  0  0  0  0  0  0  0  0  0  # atno 17321 bound_to 7965
  140.0397  143.5358  152.2723 LP  0  0  0  0  0  0  0  0  0  0  0  0  # atno 17342 bound_to 10162
  139.6181  144.7623  151.2801 LP  0  0  0  0  0  0  0  0  0  0  0  0  # atno 17343 bound_to 10162
  157.3982  130.7319  149.6747 LP  0  0  0  0  0  0  0  0  0  0  0  0  # atno 17370 bound_to 10713
  155.9729  130.4128  150.4050 LP  0  0  0  0  0  0  0  0  0  0  0  0  # atno 17371 bound_to 10713
  139.8730  134.9380  156.3702 LP  0  0  0  0  0  0  0  0  0  0  0  0  # atno 17394 bound_to 11000
  140.9380  133.7533  156.0110 LP  0  0  0  0  0  0  0  0  0  0  0  0  # atno 17395 bound_to 11000

$$$$
