AV-unprocessed.smi:2944|AV-procd|sdf|11272|dock8
  -GOLD-   2272016163D 1   1.00000     0.00000
 Structure written by MMmdl.
 44 46  0  0  0  0  0  0  0  0  1 V2000
  148.7738  140.9009  154.5026 C   0  0  0  0  0  0  0  0  0  0  0  0
  150.1224  140.7716  154.9143 O   0  0  0  0  0  0  0  0  0  0  0  0
  150.2623  140.7571  156.3253 C   0  0  0  0  0  0  0  0  0  0  0  0
  151.7046  140.3879  156.6985 C   0  0  0  0  0  0  0  0  0  0  0  0
  152.0928  140.9439  157.9864 N   0  0  0  0  0  0  0  0  0  0  0  0
  152.5740  140.2931  159.0748 C   0  0  0  0  0  0  0  0  0  0  0  0
  152.8277  138.5454  159.0758 S   0  0  0  0  0  0  0  0  0  0  0  0
  153.5625  138.3456  160.7293 C   0  0  2  0  0  0  0  0  0  0  0  0
  154.7946  139.2569  160.8876 C   0  0  0  0  0  0  0  0  0  0  0  0
  153.8893  136.8629  161.0016 C   0  0  0  0  0  0  0  0  0  0  0  0
  153.7862  136.0684  160.0629 O   0  0  0  0  0  0  0  0  0  0  0  0
  154.2581  136.4928  162.2607 N   0  0  0  0  0  0  0  0  0  0  0  0
  154.4076  137.4248  163.3819 C   0  0  0  0  0  0  0  0  0  0  0  0
  154.7793  136.5418  164.5667 C   0  0  0  0  0  0  0  0  0  0  0  0
  154.8322  135.2356  163.9612 N   0  0  0  0  0  0  0  0  0  0  0  0
  154.5335  135.2269  162.6602 C   0  0  0  0  0  0  0  0  0  0  0  0
  154.5194  134.2019  161.9774 O   0  0  0  0  0  0  0  0  0  0  0  0
  152.8505  141.0629  160.1285 N   0  0  0  0  0  0  0  0  0  0  0  0
  152.5217  142.3270  159.6816 C   0  0  0  0  0  0  0  0  0  0  0  0
  152.5912  143.5797  160.3322 C   0  0  0  0  0  0  0  0  0  0  0  0
  152.1955  144.7552  159.6605 C   0  0  0  0  0  0  0  0  0  0  0  0
  151.7268  144.6951  158.3321 C   0  0  0  0  0  0  0  0  0  0  0  0
  151.6501  143.4572  157.6659 C   0  0  0  0  0  0  0  0  0  0  0  0
  152.0447  142.2872  158.3418 C   0  0  0  0  0  0  0  0  0  0  0  0
  148.7225  140.8991  153.4141 H   0  0  0  0  0  0  0  0  0  0  0  0
  148.3412  141.8369  154.8585 H   0  0  0  0  0  0  0  0  0  0  0  0
  148.1680  140.0717  154.8703 H   0  0  0  0  0  0  0  0  0  0  0  0
  150.0115  141.7369  156.7349 H   0  0  0  0  0  0  0  0  0  0  0  0
  149.5713  140.0346  156.7617 H   0  0  0  0  0  0  0  0  0  0  0  0
  151.8105  139.3038  156.7455 H   0  0  0  0  0  0  0  0  0  0  0  0
  152.3965  140.7256  155.9273 H   0  0  0  0  0  0  0  0  0  0  0  0
  152.8412  138.6787  161.4738 H   0  0  0  0  0  0  0  0  0  0  0  0
  155.2658  139.1218  161.8618 H   0  0  0  0  0  0  0  0  0  0  0  0
  154.5206  140.3083  160.8051 H   0  0  0  0  0  0  0  0  0  0  0  0
  155.5444  139.0549  160.1217 H   0  0  0  0  0  0  0  0  0  0  0  0
  155.2007  138.1479  163.1855 H   0  0  0  0  0  0  0  0  0  0  0  0
  153.4829  137.9668  163.5809 H   0  0  0  0  0  0  0  0  0  0  0  0
  155.7460  136.8099  164.9941 H   0  0  0  0  0  0  0  0  0  0  0  0
  154.0221  136.5686  165.3510 H   0  0  0  0  0  0  0  0  0  0  0  0
  155.0696  134.4063  164.4863 H   0  0  0  0  0  0  0  0  0  0  0  0
  152.9504  143.6368  161.3491 H   0  0  0  0  0  0  0  0  0  0  0  0
  152.2528  145.7080  160.1665 H   0  0  0  0  0  0  0  0  0  0  0  0
  151.4266  145.6001  157.8244 H   0  0  0  0  0  0  0  0  0  0  0  0
  151.2937  143.4081  156.6477 H   0  0  0  0  0  0  0  0  0  0  0  0
  1  2  1  0  0  0  0
  1 25  1  0  0  0  0
  1 26  1  0  0  0  0
  1 27  1  0  0  0  0
  2  3  1  0  0  0  0
  3  4  1  0  0  0  0
  3 28  1  0  0  0  0
  3 29  1  0  0  0  0
  4  5  1  0  0  0  0
  4 30  1  0  0  0  0
  4 31  1  0  0  0  0
  5 24  1  0  0  0  0
  5  6  1  0  0  0  0
  6  7  1  0  0  0  0
  6 18  2  0  0  0  0
  7  8  1  0  0  0  0
  8  9  1  0  0  0  0
  8 10  1  0  0  0  0
  8 32  1  0  0  0  0
  9 33  1  0  0  0  0
  9 34  1  0  0  0  0
  9 35  1  0  0  0  0
 10 11  2  0  0  0  0
 10 12  1  0  0  0  0
 12 16  1  0  0  0  0
 12 13  1  0  0  0  0
 13 14  1  0  0  0  0
 13 36  1  0  0  0  0
 13 37  1  0  0  0  0
 14 15  1  0  0  0  0
 14 38  1  0  0  0  0
 14 39  1  0  0  0  0
 15 16  1  0  0  0  0
 15 40  1  0  0  0  0
 16 17  2  0  0  0  0
 18 19  1  0  0  0  0
 19 24  2  0  0  0  0
 19 20  1  0  0  0  0
 20 21  2  0  0  0  0
 20 41  1  0  0  0  0
 21 22  1  0  0  0  0
 21 42  1  0  0  0  0
 22 23  2  0  0  0  0
 22 43  1  0  0  0  0
 23 24  1  0  0  0  0
 23 44  1  0  0  0  0
M  END
> <s_m_source_file>
AV-unprocessed.smi

> <i_m_source_file_index>
2944

> <i_lp_mmshare_version>
43012

> <i_f3d_flags>
0

> <s_epik_input>
W2NIXTFbY0hdW2NIXVtjSF1jKGMxMiluKFtDSDJdW0NIMl1PW0NIM10pYyhuMilTW0NASF0oW0NIM10pQyg9TylOM1tDSDJdW0NIMl1bTkhdQzM9Tw==

> <s_epik_cmdline>
J2VwaWtfcHl0aG9uJywgJy1waCcsICc3LjAnLCAnLXRuJywgJzgnLCAnLW1hJywgJzIwMCcsICctbWV0YWxfYmluZGluZycsICctaW1hZScsICc8aW5maWxlLm1hZT4nLCAnLW9tYWUnLCAnPG91dGZpbGUubWFlPic=

> <r_lp_tautomer_probability>
0.9999

> <r_epik_Ionization_Penalty>
0.0250226

> <r_epik_Ionization_Penalty_Charging>
0

> <r_epik_Ionization_Penalty_Neutral>
0.0250226

> <r_epik_State_Penalty>
0.0203222

> <r_epik_Charging_Adjusted_Penalty>
0.0203222

> <i_epik_Tot_Q>
0

> <i_epik_Tot_abs_Q>
0

> <r_epik_Metal_State_Penalty>
0.0194901

> <b_epik_Metal_Only>
0

> <s_lp_Force_Field>
OPLS_2005

> <r_lp_Energy>
42.2169

> <b_lp_Chiralities_Consistent>
1

> <s_lp_Variant>
AV-unprocessed.smi:2944-1

> <Gold.Version>
5.8.1

> <Gold.Id.Protein>
6NUR|6NUR_protein|mol2

> <Gold.PLP.Fitness>
55.0585

> <Gold.PLP.PLP>
-50.2344

> <Gold.PLP.part.hbond>
-2.0000

> <Gold.PLP.part.metal>
0.0000

> <Gold.PLP.part.buried>
-6.9543

> <Gold.PLP.part.nonpolar>
-41.8602

> <Gold.PLP.part.repulsive>
0.1020

> <Gold.PLP.ligand.clash>
0.0000

> <Gold.PLP.ligand.torsion>
0.3264

> <Gold.PLP.Chemscore.Hbond>
1.8000

> <Gold.PLP.Chemscore.CHOScore>
0.0000

> <Gold.PLP.Chemscore.Metal>
0.0000

> <Gold.Chemscore.Hbonds>
donor molecule, donor type, donor heavy atom, donor atom, acceptor molecule, acceptor atom, score
      P1  H  6896  6908       L1    11  1.00
      P1  H  7989  7998       L1     2  0.76

> <Gold.PLP.Chemscore.Internal.Correction>
0.0769

> <Gold.Rescore>
     Score         DG    S(hbond)    S(metal)    S(lipo)     H(rot)  DE(clash)    DE(int)     intcor
     16.81     -20.00       1.86        0.00     119.92       2.24       0.11       3.08       ----

> <Gold.Chemscore.Fitness>
16.8067

> <Gold.Chemscore.DG>
-19.9976

> <Gold.Chemscore.ZeroCoef>
-5.4800

> <Gold.Chemscore.Hbond>
1.8595

> <Gold.Chemscore.Metal>
0.0000

> <Gold.Chemscore.Lipo>
119.9156

> <Gold.Chemscore.Internal_Hbond>
0.0000

> <Gold.Chemscore.DEClash>
0.1130

> <Gold.Chemscore.DEInternal>
3.0779

> <Gold.Chemscore.Rot>
2.2357

> <Gold.Chemscore.Internal.Correction>
   9.000000E+99

> <Gold.Chemscore.Hbonds>
donor molecule, donor type, donor heavy atom, donor atom, acceptor molecule, acceptor atom, score
      P1  H  6896  6908       L1    11  0.98
      P1  H  7989  7998       L1     2  0.68

> <Gold.Chemscore.Hbond.Weighted>
-6.2109

> <Gold.Chemscore.Metal.Weighted>
-0.0000

> <Gold.Chemscore.Lipo.Weighted>
-14.0301

> <Gold.Chemscore.Internal_Hbond.Weighted>
0.0000

> <Gold.Chemscore.DEClash.Weighted>
0.1130

> <Gold.Chemscore.DEInternal.Weighted>
3.0779

> <Gold.Chemscore.Rot.Weighted>
5.7234

> <Gold.Chemscore.Internal.Correction.Weighted>
   9.000000E+99

> <Gold.Protein.RotatedTorsions>
[ 6907 6896 6895 6894 ] final  -55.77 input  -60.11 | X-H torsion
[ 7974 7965 7964 7962 ] final -179.39 input  175.53 | X-H torsion
[ 8008 7997 7996 7995 ] final  -27.77 input   59.86 | X-H torsion
[ 10167 10162 10161 10158 ] final  169.88 input  -65.29 | X-H torsion
[ 10718 10713 10712 10709 ] final  -78.96 input   66.30 | X-H torsion
[ 10763 10752 10751 10750 ] final -103.08 input  -60.55 | X-H torsion
[ 11005 11000 10999 10996 ] final  173.62 input  -57.11 | X-H torsion

> <Gold.Protein.ActiveResidues>
 VAL166  LYS551  ARG553  GLY616  TRP617  ASP618  TYR619  PRO620  LYS621  CYS622 
 ASP623  PHE694  ASN695  SER759  ASP760  ASP761  ALA762  ILE779  LEU786  VAL792 
 PHE793  MET794  SER795  GLU796  ALA797  LYS798  CYS799  TRP800  GLU811  SER814 

> <Gold.Protein.RotatedAtoms>
  150.8223  134.7437  159.6782 H   0  0  0  0  0  0  0  0  0  0  0  0  # atno 6907 bound_to 6896
  152.4338  134.5724  159.9934 H   0  0  0  0  0  0  0  0  0  0  0  0  # atno 6908 bound_to 6896
  151.5905  133.3330  159.3062 H   0  0  0  0  0  0  0  0  0  0  0  0  # atno 6909 bound_to 6896
  144.7136  140.0725  143.6429 H   0  0  0  0  0  0  0  0  0  0  0  0  # atno 7974 bound_to 7965
  154.4362  140.1863  156.0984 H   0  0  0  0  0  0  0  0  0  0  0  0  # atno 8008 bound_to 7997
  156.0311  140.3330  155.7115 H   0  0  0  0  0  0  0  0  0  0  0  0  # atno 8009 bound_to 7997
  155.5838  140.0624  157.2767 H   0  0  0  0  0  0  0  0  0  0  0  0  # atno 8010 bound_to 7997
  139.5004  144.3658  151.9777 H   0  0  0  0  0  0  0  0  0  0  0  0  # atno 10167 bound_to 10162
  156.0104  130.4532  150.3575 H   0  0  0  0  0  0  0  0  0  0  0  0  # atno 10718 bound_to 10713
  154.7781  135.4836  153.9787 H   0  0  0  0  0  0  0  0  0  0  0  0  # atno 10763 bound_to 10752
  153.1457  135.6781  153.8966 H   0  0  0  0  0  0  0  0  0  0  0  0  # atno 10764 bound_to 10752
  153.8627  135.3153  155.3417 H   0  0  0  0  0  0  0  0  0  0  0  0  # atno 10765 bound_to 10752
  140.3424  134.7265  157.4211 H   0  0  0  0  0  0  0  0  0  0  0  0  # atno 11005 bound_to 11000
  145.9771  139.2913  143.1064 LP  0  0  0  0  0  0  0  0  0  0  0  0  # atno 17320 bound_to 7965
  145.9052  140.9217  143.0482 LP  0  0  0  0  0  0  0  0  0  0  0  0  # atno 17321 bound_to 7965
  140.3094  144.3555  150.6038 LP  0  0  0  0  0  0  0  0  0  0  0  0  # atno 17342 bound_to 10162
  140.5811  143.2173  151.7427 LP  0  0  0  0  0  0  0  0  0  0  0  0  # atno 17343 bound_to 10162
  157.1665  131.0358  151.2816 LP  0  0  0  0  0  0  0  0  0  0  0  0  # atno 17370 bound_to 10713
  157.4266  130.7467  149.6956 LP  0  0  0  0  0  0  0  0  0  0  0  0  # atno 17371 bound_to 10713
  140.0770  134.5784  155.8581 LP  0  0  0  0  0  0  0  0  0  0  0  0  # atno 17394 bound_to 11000
  141.2035  133.6632  156.6065 LP  0  0  0  0  0  0  0  0  0  0  0  0  # atno 17395 bound_to 11000

$$$$
