AV-unprocessed.smi:1999|AV-procd|sdf|8098|dock4
  -GOLD-   2272010313D 1   1.00000     0.00000
 Structure written by MMmdl.
 38 39  0  0  0  0  0  0  0  0  3 V2000
  148.4342  140.5606  155.5507 C   0  0  0  0  0  0  0  0  0  0  0  0
  148.8828  139.1724  155.2459 C   0  0  0  0  0  0  0  0  0  0  0  0
  148.1028  138.1025  155.4195 N   0  0  0  0  0  0  0  0  0  0  0  0
  148.7447  136.9248  155.0663 N   0  0  0  0  0  0  0  0  0  0  0  0
  150.0020  137.1184  154.6429 C   0  0  0  0  0  0  0  0  0  0  0  0
  150.7945  136.1045  154.2583 N   0  5  0  0  0  0  0  0  0  0  0  0
  150.3696  134.8300  154.3979 C   0  0  0  0  0  0  0  0  0  0  0  0
  150.7400  134.0287  155.2584 O   0  0  0  0  0  0  0  0  0  0  0  0
  149.4318  134.4744  153.5065 N   0  0  0  0  0  0  0  0  0  0  0  0
  148.6984  133.2078  153.4661 C   0  0  2  0  0  0  0  0  0  0  0  0
  149.6981  132.0454  153.4024 C   0  0  0  0  0  0  0  0  0  0  0  0
  147.7204  133.1803  152.2692 C   0  0  0  0  0  0  0  0  0  0  0  0
  146.8154  134.3570  152.2433 N   0  3  0  0  0  0  0  0  0  0  0  0
  145.8008  134.3013  151.1665 C   0  0  0  0  0  0  0  0  0  0  0  0
  144.9855  135.6058  151.1466 C   0  0  0  0  0  0  0  0  0  0  0  0
  144.3855  135.8165  152.4199 O   0  0  0  0  0  0  0  0  0  0  0  0
  145.3558  135.9421  153.4535 C   0  0  0  0  0  0  0  0  0  0  0  0
  146.1730  134.6434  153.5478 C   0  0  0  0  0  0  0  0  0  0  0  0
  150.4880  138.8129  154.6326 S   0  0  0  0  0  0  0  0  0  0  0  0
  148.8494  140.8839  156.5053 H   0  0  0  0  0  0  0  0  0  0  0  0
  147.3462  140.6084  155.6066 H   0  0  0  0  0  0  0  0  0  0  0  0
  148.7729  141.2432  154.7711 H   0  0  0  0  0  0  0  0  0  0  0  0
  149.1747  135.1657  152.8166 H   0  0  0  0  0  0  0  0  0  0  0  0
  148.1320  133.0860  154.3904 H   0  0  0  0  0  0  0  0  0  0  0  0
  149.1823  131.0849  153.3964 H   0  0  0  0  0  0  0  0  0  0  0  0
  150.3653  132.0547  154.2651 H   0  0  0  0  0  0  0  0  0  0  0  0
  150.3146  132.0982  152.5043 H   0  0  0  0  0  0  0  0  0  0  0  0
  148.3120  133.1695  151.3523 H   0  0  0  0  0  0  0  0  0  0  0  0
  147.1351  132.2596  152.2632 H   0  0  0  0  0  0  0  0  0  0  0  0
  146.2899  134.1625  150.2015 H   0  0  0  0  0  0  0  0  0  0  0  0
  145.1435  133.4447  151.3236 H   0  0  0  0  0  0  0  0  0  0  0  0
  145.6184  136.4558  150.8853 H   0  0  0  0  0  0  0  0  0  0  0  0
  144.2016  135.5484  150.3913 H   0  0  0  0  0  0  0  0  0  0  0  0
  146.0048  136.7982  153.2606 H   0  0  0  0  0  0  0  0  0  0  0  0
  144.8453  136.1346  154.3972 H   0  0  0  0  0  0  0  0  0  0  0  0
  145.5256  133.8121  153.8308 H   0  0  0  0  0  0  0  0  0  0  0  0
  146.9260  134.7415  154.3293 H   0  0  0  0  0  0  0  0  0  0  0  0
  147.4042  135.1506  152.0286 H   0  0  0  0  0  0  0  0  0  0  0  0
  1  2  1  0  0  0  0
  1 20  1  0  0  0  0
  1 21  1  0  0  0  0
  1 22  1  0  0  0  0
  2 19  1  0  0  0  0
  2  3  2  0  0  0  0
  3  4  1  0  0  0  0
  4  5  2  0  0  0  0
  5  6  1  0  0  0  0
  5 19  1  0  0  0  0
  6  7  1  0  0  0  0
  7  8  2  0  0  0  0
  7  9  1  0  0  0  0
  9 10  1  0  0  0  0
  9 23  1  0  0  0  0
 10 11  1  0  0  0  0
 10 12  1  0  0  0  0
 10 24  1  0  0  0  0
 11 25  1  0  0  0  0
 11 26  1  0  0  0  0
 11 27  1  0  0  0  0
 12 13  1  0  0  0  0
 12 28  1  0  0  0  0
 12 29  1  0  0  0  0
 13 18  1  0  0  0  0
 13 14  1  0  0  0  0
 13 38  1  0  0  0  0
 14 15  1  0  0  0  0
 14 30  1  0  0  0  0
 14 31  1  0  0  0  0
 15 16  1  0  0  0  0
 15 32  1  0  0  0  0
 15 33  1  0  0  0  0
 16 17  1  0  0  0  0
 17 18  1  0  0  0  0
 17 34  1  0  0  0  0
 17 35  1  0  0  0  0
 18 36  1  0  0  0  0
 18 37  1  0  0  0  0
M  CHG  1   6  -1
M  CHG  1  13   1
M  END
> <s_m_source_file>
AV-unprocessed.smi

> <i_m_source_file_index>
1999

> <i_lp_mmshare_version>
43012

> <i_f3d_flags>
0

> <s_epik_input>
W0NIM11jMW5uYyhzMSlbTkhdQyg9TylbTkhdW0NASF0oW0NIM10pW0NIMl1OMltDSDJdW0NIMl1PW0NIMl1bQ0gyXTI=

> <s_epik_cmdline>
J2VwaWtfcHl0aG9uJywgJy1waCcsICc3LjAnLCAnLXRuJywgJzgnLCAnLW1hJywgJzIwMCcsICctbWV0YWxfYmluZGluZycsICctaW1hZScsICc8aW5maWxlLm1hZT4nLCAnLW9tYWUnLCAnPG91dGZpbGUubWFlPic=

> <r_lp_tautomer_probability>
1

> <r_epik_Ionization_Penalty>
3.39984

> <r_epik_Ionization_Penalty_Charging>
3.28696

> <r_epik_Ionization_Penalty_Neutral>
0.11288

> <r_epik_State_Penalty>
3.47917

> <r_epik_Charging_Adjusted_Penalty>
6.76613

> <i_epik_Tot_Q>
0

> <i_epik_Tot_abs_Q>
2

> <r_epik_Metal_State_Penalty>
1.13142

> <b_epik_Metal_Only>
1

> <s_lp_Force_Field>
OPLS_2005

> <r_lp_Energy>
12.288

> <b_lp_Chiralities_Consistent>
1

> <s_lp_Variant>
AV-unprocessed.smi:1999-7

> <Gold.Version>
5.8.1

> <Gold.Id.Protein>
6NUR|6NUR_protein|mol2

> <Gold.PLP.Fitness>
42.5045

> <Gold.PLP.PLP>
-30.3724

> <Gold.PLP.part.hbond>
-3.0000

> <Gold.PLP.part.metal>
0.0000

> <Gold.PLP.part.buried>
-4.1948

> <Gold.PLP.part.nonpolar>
-24.2618

> <Gold.PLP.part.repulsive>
0.6380

> <Gold.PLP.ligand.clash>
0.0000

> <Gold.PLP.ligand.torsion>
0.7703

> <Gold.PLP.Chemscore.Hbond>
4.5000

> <Gold.PLP.Chemscore.CHOScore>
0.0000

> <Gold.PLP.Chemscore.Metal>
0.0000

> <Gold.Chemscore.Hbonds>
donor molecule, donor type, donor heavy atom, donor atom, acceptor molecule, acceptor atom, score
      L1  H     9    23       P1  7948  0.33
      L1  H    13    38       P1  7948  2.00
      P1  H 10752 10765       L1     6  1.01

> <Gold.PLP.Chemscore.Internal.Correction>
0.1727

> <Gold.Rescore>
     Score         DG    S(hbond)    S(metal)    S(lipo)     H(rot)  DE(clash)    DE(int)     intcor
     11.95     -14.01       2.02        0.00      50.38       1.60       0.00       2.06       ----

> <Gold.Chemscore.Fitness>
11.9485

> <Gold.Chemscore.DG>
-14.0097

> <Gold.Chemscore.ZeroCoef>
-5.4800

> <Gold.Chemscore.Hbond>
2.0181

> <Gold.Chemscore.Metal>
0.0000

> <Gold.Chemscore.Lipo>
50.3812

> <Gold.Chemscore.Internal_Hbond>
0.0000

> <Gold.Chemscore.DEClash>
0.0000

> <Gold.Chemscore.DEInternal>
2.0613

> <Gold.Chemscore.Rot>
1.6036

> <Gold.Chemscore.Internal.Correction>
   9.000000E+99

> <Gold.Chemscore.Hbonds>
donor molecule, donor type, donor heavy atom, donor atom, acceptor molecule, acceptor atom, score
      L1  H     9    23       P1  7948  0.02
      L1  H    13    38       P1  7948  0.97
      P1  H 10752 10765       L1     6  0.07

> <Gold.Chemscore.Hbond.Weighted>
-6.7404

> <Gold.Chemscore.Metal.Weighted>
-0.0000

> <Gold.Chemscore.Lipo.Weighted>
-5.8946

> <Gold.Chemscore.Internal_Hbond.Weighted>
0.0000

> <Gold.Chemscore.DEClash.Weighted>
0.0000

> <Gold.Chemscore.DEInternal.Weighted>
2.0613

> <Gold.Chemscore.Rot.Weighted>
4.1053

> <Gold.Chemscore.Internal.Correction.Weighted>
   9.000000E+99

> <Gold.Protein.RotatedTorsions>
[ 6907 6896 6895 6894 ] final  -48.47 input  -60.11 | X-H torsion
[ 7974 7965 7964 7962 ] final  -29.79 input  175.53 | X-H torsion
[ 8008 7997 7996 7995 ] final   46.04 input   59.86 | X-H torsion
[ 10167 10162 10161 10158 ] final -130.88 input  -65.29 | X-H torsion
[ 10718 10713 10712 10709 ] final   33.03 input   66.30 | X-H torsion
[ 10763 10752 10751 10750 ] final  164.85 input  -60.55 | X-H torsion
[ 11005 11000 10999 10996 ] final  101.90 input  -57.11 | X-H torsion

> <Gold.Protein.ActiveResidues>
 VAL166  LYS551  ARG553  GLY616  TRP617  ASP618  TYR619  PRO620  LYS621  CYS622 
 ASP623  PHE694  ASN695  SER759  ASP760  ASP761  ALA762  ILE779  LEU786  VAL792 
 PHE793  MET794  SER795  GLU796  ALA797  LYS798  CYS799  TRP800  GLU811  SER814 

> <Gold.Protein.RotatedAtoms>
  150.8902  134.8305  159.7287 H   0  0  0  0  0  0  0  0  0  0  0  0  # atno 6907 bound_to 6896
  152.4832  134.4659  159.9630 H   0  0  0  0  0  0  0  0  0  0  0  0  # atno 6908 bound_to 6896
  151.4723  133.3527  159.2861 H   0  0  0  0  0  0  0  0  0  0  0  0  # atno 6909 bound_to 6896
  146.1191  140.5458  142.8743 H   0  0  0  0  0  0  0  0  0  0  0  0  # atno 7974 bound_to 7965
  155.3459  140.3411  155.4239 H   0  0  0  0  0  0  0  0  0  0  0  0  # atno 8008 bound_to 7997
  156.1789  140.1657  156.8347 H   0  0  0  0  0  0  0  0  0  0  0  0  # atno 8009 bound_to 7997
  154.5312  140.0745  156.8331 H   0  0  0  0  0  0  0  0  0  0  0  0  # atno 8010 bound_to 7997
  139.9248  143.6341  152.2545 H   0  0  0  0  0  0  0  0  0  0  0  0  # atno 10167 bound_to 10162
  157.2927  130.7310  149.6620 H   0  0  0  0  0  0  0  0  0  0  0  0  # atno 10718 bound_to 10713
  154.3151  135.2756  155.2547 H   0  0  0  0  0  0  0  0  0  0  0  0  # atno 10763 bound_to 10752
  154.4924  135.5830  153.6473 H   0  0  0  0  0  0  0  0  0  0  0  0  # atno 10764 bound_to 10752
  152.9883  135.6138  154.3332 H   0  0  0  0  0  0  0  0  0  0  0  0  # atno 10765 bound_to 10752
  139.8775  134.9202  156.4976 H   0  0  0  0  0  0  0  0  0  0  0  0  # atno 11005 bound_to 11000
  144.7580  140.5354  143.6755 LP  0  0  0  0  0  0  0  0  0  0  0  0  # atno 17320 bound_to 7965
  145.5505  139.1476  143.3397 LP  0  0  0  0  0  0  0  0  0  0  0  0  # atno 17321 bound_to 7965
  139.6832  144.7654  151.1572 LP  0  0  0  0  0  0  0  0  0  0  0  0  # atno 17342 bound_to 10162
  140.7653  143.5695  150.9011 LP  0  0  0  0  0  0  0  0  0  0  0  0  # atno 17343 bound_to 10162
  155.9668  130.4304  150.4874 LP  0  0  0  0  0  0  0  0  0  0  0  0  # atno 17370 bound_to 10713
  157.2840  131.0613  151.2178 LP  0  0  0  0  0  0  0  0  0  0  0  0  # atno 17371 bound_to 10713
  140.8613  133.8058  155.9268 LP  0  0  0  0  0  0  0  0  0  0  0  0  # atno 17394 bound_to 11000
  140.9046  134.2335  157.5021 LP  0  0  0  0  0  0  0  0  0  0  0  0  # atno 17395 bound_to 11000

$$$$
