AV-unprocessed.smi:2178|AV-procd|sdf|8855|dock10
  -GOLD-   2272012 53D 1   1.00000     0.00000
 Structure written by MMmdl.
 47 49  0  0  0  0  0  0  0  0  2 V2000
  148.2984  136.4978  154.9410 C   0  0  0  0  0  0  0  0  0  0  0  0
  148.9789  135.1424  154.9884 C   0  0  0  0  0  0  0  0  0  0  0  0
  148.4422  134.0706  154.2458 C   0  0  0  0  0  0  0  0  0  0  0  0
  149.0521  132.8033  154.2877 C   0  0  0  0  0  0  0  0  0  0  0  0
  150.1988  132.5998  155.0773 C   0  0  0  0  0  0  0  0  0  0  0  0
  150.7444  133.6641  155.8243 C   0  0  0  0  0  0  0  0  0  0  0  0
  151.9746  133.4261  156.6805 C   0  0  0  0  0  0  0  0  0  0  0  0
  150.1422  134.9433  155.7692 C   0  0  0  0  0  0  0  0  0  0  0  0
  150.6713  135.9783  156.4954 O   0  0  0  0  0  0  0  0  0  0  0  0
  151.2139  137.0194  155.6948 C   0  0  0  0  0  0  0  0  0  0  0  0
  151.6137  138.2082  156.5821 C   0  0  1  0  0  0  0  0  0  0  0  0
  152.4639  139.0696  155.8517 O   0  0  0  0  0  0  0  0  0  0  0  0
  150.4075  138.9610  157.1801 C   0  0  0  0  0  0  0  0  0  0  0  0
  150.4654  140.4125  156.9418 N   0  0  0  0  0  0  0  0  0  0  0  0
  149.9152  141.1635  155.9441 C   0  0  0  0  0  0  0  0  0  0  0  0
  149.0786  140.6757  154.8075 C   0  0  0  0  0  0  0  0  0  0  0  0
  149.6774  140.9267  153.5556 O   0  0  0  0  0  0  0  0  0  0  0  0
  150.2590  142.4611  156.1791 N   0  3  0  0  0  0  0  0  0  0  0  0
  151.0367  142.5430  157.3345 C   0  0  0  0  0  0  0  0  0  0  0  0
  151.6144  143.6392  157.9676 C   0  0  0  0  0  0  0  0  0  0  0  0
  152.3498  143.3769  159.1420 C   0  0  0  0  0  0  0  0  0  0  0  0
  152.4865  142.0669  159.6450 C   0  0  0  0  0  0  0  0  0  0  0  0
  151.8955  140.9635  158.9950 C   0  0  0  0  0  0  0  0  0  0  0  0
  151.1729  141.2305  157.8318 C   0  0  0  0  0  0  0  0  0  0  0  0
  147.2561  136.4021  154.6350 H   0  0  0  0  0  0  0  0  0  0  0  0
  148.8038  137.1494  154.2283 H   0  0  0  0  0  0  0  0  0  0  0  0
  148.3150  136.9778  155.9199 H   0  0  0  0  0  0  0  0  0  0  0  0
  147.5581  134.2167  153.6425 H   0  0  0  0  0  0  0  0  0  0  0  0
  148.6364  131.9853  153.7178 H   0  0  0  0  0  0  0  0  0  0  0  0
  150.6569  131.6221  155.1086 H   0  0  0  0  0  0  0  0  0  0  0  0
  151.8822  133.9339  157.6410 H   0  0  0  0  0  0  0  0  0  0  0  0
  152.8651  133.8020  156.1765 H   0  0  0  0  0  0  0  0  0  0  0  0
  152.1176  132.3632  156.8776 H   0  0  0  0  0  0  0  0  0  0  0  0
  152.1007  136.6493  155.1782 H   0  0  0  0  0  0  0  0  0  0  0  0
  150.5086  137.3322  154.9236 H   0  0  0  0  0  0  0  0  0  0  0  0
  152.2183  137.8177  157.4010 H   0  0  0  0  0  0  0  0  0  0  0  0
  152.9356  138.5541  155.2158 H   0  0  0  0  0  0  0  0  0  0  0  0
  149.4637  138.5754  156.7948 H   0  0  0  0  0  0  0  0  0  0  0  0
  150.3727  138.8052  158.2585 H   0  0  0  0  0  0  0  0  0  0  0  0
  148.9142  139.6029  154.9132 H   0  0  0  0  0  0  0  0  0  0  0  0
  148.0992  141.1525  154.8394 H   0  0  0  0  0  0  0  0  0  0  0  0
  149.4764  140.2079  152.9756 H   0  0  0  0  0  0  0  0  0  0  0  0
  151.5091  144.6441  157.5858 H   0  0  0  0  0  0  0  0  0  0  0  0
  152.8169  144.1967  159.6683 H   0  0  0  0  0  0  0  0  0  0  0  0
  153.0550  141.9039  160.5492 H   0  0  0  0  0  0  0  0  0  0  0  0
  152.0025  139.9657  159.3946 H   0  0  0  0  0  0  0  0  0  0  0  0
  149.9758  143.2341  155.5906 H   0  0  0  0  0  0  0  0  0  0  0  0
  1  2  1  0  0  0  0
  1 25  1  0  0  0  0
  1 26  1  0  0  0  0
  1 27  1  0  0  0  0
  2  8  1  0  0  0  0
  2  3  2  0  0  0  0
  3  4  1  0  0  0  0
  3 28  1  0  0  0  0
  4  5  2  0  0  0  0
  4 29  1  0  0  0  0
  5  6  1  0  0  0  0
  5 30  1  0  0  0  0
  6  7  1  0  0  0  0
  6  8  2  0  0  0  0
  7 31  1  0  0  0  0
  7 32  1  0  0  0  0
  7 33  1  0  0  0  0
  8  9  1  0  0  0  0
  9 10  1  0  0  0  0
 10 11  1  0  0  0  0
 10 34  1  0  0  0  0
 10 35  1  0  0  0  0
 11 12  1  0  0  0  0
 11 13  1  0  0  0  0
 11 36  1  0  0  0  0
 12 37  1  0  0  0  0
 13 14  1  0  0  0  0
 13 38  1  0  0  0  0
 13 39  1  0  0  0  0
 14 24  1  0  0  0  0
 14 15  1  0  0  0  0
 15 16  1  0  0  0  0
 15 18  2  0  0  0  0
 16 17  1  0  0  0  0
 16 40  1  0  0  0  0
 16 41  1  0  0  0  0
 17 42  1  0  0  0  0
 18 19  1  0  0  0  0
 18 47  1  0  0  0  0
 19 24  2  0  0  0  0
 19 20  1  0  0  0  0
 20 21  2  0  0  0  0
 20 43  1  0  0  0  0
 21 22  1  0  0  0  0
 21 44  1  0  0  0  0
 22 23  2  0  0  0  0
 22 45  1  0  0  0  0
 23 24  1  0  0  0  0
 23 46  1  0  0  0  0
M  CHG  1  18   1
M  END
> <s_m_source_file>
AV-unprocessed.smi

> <i_m_source_file_index>
2178

> <i_lp_mmshare_version>
43012

> <i_f3d_flags>
0

> <s_epik_input>
W0NIM11jMVtjSF1bY0hdW2NIXWMoW0NIM10pYzFPW0NIMl1bQ0BIXShbT0hdKVtDSDJdbihjKG4yKVtDSDJdW09IXSljKGMyMylbY0hdW2NIXVtjSF1bY0hdMw==

> <s_epik_cmdline>
J2VwaWtfcHl0aG9uJywgJy1waCcsICc3LjAnLCAnLXRuJywgJzgnLCAnLW1hJywgJzIwMCcsICctbWV0YWxfYmluZGluZycsICctaW1hZScsICc8aW5maWxlLm1hZT4nLCAnLW9tYWUnLCAnPG91dGZpbGUubWFlPic=

> <r_lp_tautomer_probability>
1

> <r_epik_Ionization_Penalty>
1.43125

> <r_epik_Ionization_Penalty_Charging>
1.43039

> <r_epik_Ionization_Penalty_Neutral>
0.000858184

> <r_epik_State_Penalty>
1.51493

> <r_epik_Charging_Adjusted_Penalty>
2.94531

> <i_epik_Tot_Q>
1

> <i_epik_Tot_abs_Q>
1

> <r_epik_Metal_State_Penalty>
5.5599

> <b_epik_Metal_Only>
0

> <s_lp_Force_Field>
OPLS_2005

> <r_lp_Energy>
23.7174

> <b_lp_Chiralities_Consistent>
1

> <s_lp_Variant>
AV-unprocessed.smi:2178-4

> <Gold.Version>
5.8.1

> <Gold.Id.Protein>
6NUR|6NUR_protein|mol2

> <Gold.PLP.Fitness>
51.1717

> <Gold.PLP.PLP>
-41.7582

> <Gold.PLP.part.hbond>
-4.1447

> <Gold.PLP.part.metal>
0.0000

> <Gold.PLP.part.buried>
-5.8809

> <Gold.PLP.part.nonpolar>
-32.1383

> <Gold.PLP.part.repulsive>
0.1081

> <Gold.PLP.ligand.clash>
0.0000

> <Gold.PLP.ligand.torsion>
1.2332

> <Gold.PLP.Chemscore.Hbond>
3.9046

> <Gold.PLP.Chemscore.CHOScore>
0.0000

> <Gold.PLP.Chemscore.Metal>
0.0000

> <Gold.Chemscore.Hbonds>
donor molecule, donor type, donor heavy atom, donor atom, acceptor molecule, acceptor atom, score
      L1  H    17    42       P1  7957  0.62
      L1  H    18    47       P1  8028  1.60
      P1  H  7989  7998       L1    17  0.32
      P1  H  7997  8009       L1    12  0.26
      P1  H  8011  8017       L1    17  1.00

> <Gold.PLP.Chemscore.Internal.Correction>
0.1662

> <Gold.Rescore>
     Score         DG    S(hbond)    S(metal)    S(lipo)     H(rot)  DE(clash)    DE(int)     intcor
     16.08     -17.48       2.06        0.00     110.42       3.05       0.09       1.31       ----

> <Gold.Chemscore.Fitness>
16.0776

> <Gold.Chemscore.DG>
-17.4799

> <Gold.Chemscore.ZeroCoef>
-5.4800

> <Gold.Chemscore.Hbond>
2.0605

> <Gold.Chemscore.Metal>
0.0000

> <Gold.Chemscore.Lipo>
110.4240

> <Gold.Chemscore.Internal_Hbond>
0.0000

> <Gold.Chemscore.DEClash>
0.0922

> <Gold.Chemscore.DEInternal>
1.3100

> <Gold.Chemscore.Rot>
3.0476

> <Gold.Chemscore.Internal.Correction>
   9.000000E+99

> <Gold.Chemscore.Hbonds>
donor molecule, donor type, donor heavy atom, donor atom, acceptor molecule, acceptor atom, score
      L1  H    17    42       P1  7957  0.62
      L1  H    18    47       P1  8028  0.80
      P1  H  7989  7998       L1    17  0.08
      P1  H  7997  8009       L1    12  0.01
      P1  H  8011  8017       L1    17  0.33

> <Gold.Chemscore.Hbond.Weighted>
-6.8821

> <Gold.Chemscore.Metal.Weighted>
-0.0000

> <Gold.Chemscore.Lipo.Weighted>
-12.9196

> <Gold.Chemscore.Internal_Hbond.Weighted>
0.0000

> <Gold.Chemscore.DEClash.Weighted>
0.0922

> <Gold.Chemscore.DEInternal.Weighted>
1.3100

> <Gold.Chemscore.Rot.Weighted>
7.8018

> <Gold.Chemscore.Internal.Correction.Weighted>
   9.000000E+99

> <Gold.Protein.RotatedTorsions>
[ 6907 6896 6895 6894 ] final  148.85 input  -60.11 | X-H torsion
[ 7974 7965 7964 7962 ] final  -19.47 input  175.53 | X-H torsion
[ 8008 7997 7996 7995 ] final -164.24 input   59.86 | X-H torsion
[ 10167 10162 10161 10158 ] final  -83.52 input  -65.29 | X-H torsion
[ 10718 10713 10712 10709 ] final -166.61 input   66.30 | X-H torsion
[ 10763 10752 10751 10750 ] final   -5.66 input  -60.55 | X-H torsion
[ 11005 11000 10999 10996 ] final  -18.21 input  -57.11 | X-H torsion

> <Gold.Protein.ActiveResidues>
 VAL166  LYS551  ARG553  GLY616  TRP617  ASP618  TYR619  PRO620  LYS621  CYS622 
 ASP623  PHE694  ASN695  SER759  ASP760  ASP761  ALA762  ILE779  LEU786  VAL792 
 PHE793  MET794  SER795  GLU796  ALA797  LYS798  CYS799  TRP800  GLU811  SER814 

> <Gold.Protein.RotatedAtoms>
  152.1360  133.4435  159.4743 H   0  0  0  0  0  0  0  0  0  0  0  0  # atno 6907 bound_to 6896
  150.6882  134.2363  159.4463 H   0  0  0  0  0  0  0  0  0  0  0  0  # atno 6908 bound_to 6896
  152.0250  134.9800  160.0622 H   0  0  0  0  0  0  0  0  0  0  0  0  # atno 6909 bound_to 6896
  146.1839  140.4067  142.8484 H   0  0  0  0  0  0  0  0  0  0  0  0  # atno 7974 bound_to 7965
  155.8327  140.0936  157.1782 H   0  0  0  0  0  0  0  0  0  0  0  0  # atno 8008 bound_to 7997
  154.3980  140.1416  156.3695 H   0  0  0  0  0  0  0  0  0  0  0  0  # atno 8009 bound_to 7997
  155.8148  140.3448  155.5481 H   0  0  0  0  0  0  0  0  0  0  0  0  # atno 8010 bound_to 7997
  140.4218  143.2581  151.8879 H   0  0  0  0  0  0  0  0  0  0  0  0  # atno 10167 bound_to 10162
  156.6704  130.9082  151.3043 H   0  0  0  0  0  0  0  0  0  0  0  0  # atno 10718 bound_to 10713
  153.4016  135.7005  153.6422 H   0  0  0  0  0  0  0  0  0  0  0  0  # atno 10763 bound_to 10752
  153.4953  135.3664  155.2513 H   0  0  0  0  0  0  0  0  0  0  0  0  # atno 10764 bound_to 10752
  154.8711  135.4098  154.3352 H   0  0  0  0  0  0  0  0  0  0  0  0  # atno 10765 bound_to 10752
  140.8245  133.8043  155.9694 H   0  0  0  0  0  0  0  0  0  0  0  0  # atno 11005 bound_to 11000
  144.8363  140.6787  143.6258 LP  0  0  0  0  0  0  0  0  0  0  0  0  # atno 17320 bound_to 7965
  145.3995  139.1600  143.4185 LP  0  0  0  0  0  0  0  0  0  0  0  0  # atno 17321 bound_to 7965
  139.4783  144.5429  151.8502 LP  0  0  0  0  0  0  0  0  0  0  0  0  # atno 17342 bound_to 10162
  140.4525  144.1836  150.5898 LP  0  0  0  0  0  0  0  0  0  0  0  0  # atno 17343 bound_to 10162
  157.7079  130.9406  150.0991 LP  0  0  0  0  0  0  0  0  0  0  0  0  # atno 17370 bound_to 10713
  156.1943  130.3656  149.8870 LP  0  0  0  0  0  0  0  0  0  0  0  0  # atno 17371 bound_to 10713
  140.9064  134.2315  157.5012 LP  0  0  0  0  0  0  0  0  0  0  0  0  # atno 17394 bound_to 11000
  139.8707  134.9730  156.4793 LP  0  0  0  0  0  0  0  0  0  0  0  0  # atno 17395 bound_to 11000

$$$$
