AV-unprocessed.smi:402|AV-procd|sdf|2495|dock10
  -GOLD-   2262022443D 1   1.00000     0.00000
 Structure written by MMmdl.
 38 39  0  0  0  0  0  0  0  0  1 V2000
  150.3528  136.3143  158.8260 O   0  0  0  0  0  0  0  0  0  0  0  0
  149.4940  137.1948  158.8591 C   0  0  0  0  0  0  0  0  0  0  0  0
  148.0195  136.7953  159.0469 C   0  0  0  0  0  0  0  0  0  0  0  0
  147.7748  135.7892  160.0970 N   0  0  0  0  0  0  0  0  0  0  0  0
  147.6470  134.4493  159.6798 C   0  0  0  0  0  0  0  0  0  0  0  0
  147.4280  133.4518  160.5510 C   0  0  0  0  0  0  0  0  0  0  0  0
  147.3225  133.7809  161.9527 C   0  0  0  0  0  0  0  0  0  0  0  0
  147.4466  135.0586  162.3633 C   0  0  0  0  0  0  0  0  0  0  0  0
  147.6897  136.1517  161.4148 C   0  0  0  0  0  0  0  0  0  0  0  0
  147.8181  137.3194  161.7825 O   0  0  0  0  0  0  0  0  0  0  0  0
  149.7872  138.4988  158.7337 N   0  0  0  0  0  0  0  0  0  0  0  0
  151.1185  139.0419  158.5028 C   0  0  0  0  0  0  0  0  0  0  0  0
  151.1294  140.5742  158.6624 C   0  0  0  0  0  0  0  0  0  0  0  0
  150.7224  141.3050  157.3621 C   0  0  0  0  0  0  0  0  0  0  0  0
  150.7586  142.8324  157.5317 C   0  0  0  0  0  0  0  0  0  0  0  0
  152.1372  143.3081  158.0138 C   0  0  0  0  0  0  0  0  0  0  0  0
  152.5442  142.5942  159.3114 C   0  0  0  0  0  0  0  0  0  0  0  0
  152.5106  141.0668  159.1398 C   0  0  0  0  0  0  0  0  0  0  0  0
  147.4419  137.6987  159.2507 H   0  0  0  0  0  0  0  0  0  0  0  0
  147.6444  136.4353  158.0879 H   0  0  0  0  0  0  0  0  0  0  0  0
  147.7442  134.2875  158.6160 H   0  0  0  0  0  0  0  0  0  0  0  0
  147.3355  132.4304  160.2127 H   0  0  0  0  0  0  0  0  0  0  0  0
  147.1434  132.9986  162.6758 H   0  0  0  0  0  0  0  0  0  0  0  0
  147.3655  135.2857  163.4162 H   0  0  0  0  0  0  0  0  0  0  0  0
  149.0266  139.1615  158.7748 H   0  0  0  0  0  0  0  0  0  0  0  0
  151.8080  138.5833  159.2129 H   0  0  0  0  0  0  0  0  0  0  0  0
  151.4632  138.7714  157.5030 H   0  0  0  0  0  0  0  0  0  0  0  0
  150.4019  140.8327  159.4338 H   0  0  0  0  0  0  0  0  0  0  0  0
  151.3930  141.0137  156.5524 H   0  0  0  0  0  0  0  0  0  0  0  0
  149.7201  141.0073  157.0519 H   0  0  0  0  0  0  0  0  0  0  0  0
  150.5081  143.3167  156.5874 H   0  0  0  0  0  0  0  0  0  0  0  0
  149.9950  143.1382  158.2479 H   0  0  0  0  0  0  0  0  0  0  0  0
  152.8820  143.1147  157.2408 H   0  0  0  0  0  0  0  0  0  0  0  0
  152.1254  144.3871  158.1699 H   0  0  0  0  0  0  0  0  0  0  0  0
  153.5426  142.9125  159.6127 H   0  0  0  0  0  0  0  0  0  0  0  0
  151.8701  142.8871  160.1172 H   0  0  0  0  0  0  0  0  0  0  0  0
  152.7702  140.5897  160.0856 H   0  0  0  0  0  0  0  0  0  0  0  0
  153.2768  140.7660  158.4237 H   0  0  0  0  0  0  0  0  0  0  0  0
  1  2  2  0  0  0  0
  2  3  1  0  0  0  0
  2 11  1  0  0  0  0
  3  4  1  0  0  0  0
  3 19  1  0  0  0  0
  3 20  1  0  0  0  0
  4  9  1  0  0  0  0
  4  5  1  0  0  0  0
  5  6  2  0  0  0  0
  5 21  1  0  0  0  0
  6  7  1  0  0  0  0
  6 22  1  0  0  0  0
  7  8  2  0  0  0  0
  7 23  1  0  0  0  0
  8  9  1  0  0  0  0
  8 24  1  0  0  0  0
  9 10  2  0  0  0  0
 11 12  1  0  0  0  0
 11 25  1  0  0  0  0
 12 13  1  0  0  0  0
 12 26  1  0  0  0  0
 12 27  1  0  0  0  0
 13 18  1  0  0  0  0
 13 14  1  0  0  0  0
 13 28  1  0  0  0  0
 14 15  1  0  0  0  0
 14 29  1  0  0  0  0
 14 30  1  0  0  0  0
 15 16  1  0  0  0  0
 15 31  1  0  0  0  0
 15 32  1  0  0  0  0
 16 17  1  0  0  0  0
 16 33  1  0  0  0  0
 16 34  1  0  0  0  0
 17 18  1  0  0  0  0
 17 35  1  0  0  0  0
 17 36  1  0  0  0  0
 18 37  1  0  0  0  0
 18 38  1  0  0  0  0
M  END
> <s_m_source_file>
AV-unprocessed.smi

> <i_m_source_file_index>
402

> <i_lp_mmshare_version>
43012

> <i_f3d_flags>
0

> <s_epik_input>
W0NIMl0xW0NIMl1bQ0gyXVtDSDJdW0NIMl1bQ0hdMVtDSDJdW05IXUMoPU8pW0NIMl1uMltjSF1bY0hdW2NIXVtjSF1jMj1P

> <s_epik_cmdline>
J2VwaWtfcHl0aG9uJywgJy1waCcsICc3LjAnLCAnLXRuJywgJzgnLCAnLW1hJywgJzIwMCcsICctbWV0YWxfYmluZGluZycsICctaW1hZScsICc8aW5maWxlLm1hZT4nLCAnLW9tYWUnLCAnPG91dGZpbGUubWFlPic=

> <r_lp_tautomer_probability>
1

> <r_epik_Ionization_Penalty>
3.79717e-07

> <r_epik_Ionization_Penalty_Charging>
3.5992e-07

> <r_epik_Ionization_Penalty_Neutral>
1.97978e-08

> <r_epik_State_Penalty>
-0

> <r_epik_Charging_Adjusted_Penalty>
3.5992e-07

> <i_epik_Tot_Q>
0

> <i_epik_Tot_abs_Q>
0

> <r_epik_Metal_State_Penalty>
-0

> <b_epik_Metal_Only>
0

> <s_lp_Force_Field>
OPLS_2005

> <r_lp_Energy>
19.8269

> <b_lp_Chiralities_Consistent>
1

> <s_lp_Variant>
AV-unprocessed.smi:402-1

> <Gold.Version>
5.8.1

> <Gold.Id.Protein>
6NUR|6NUR_protein|mol2

> <Gold.PLP.Fitness>
43.7237

> <Gold.PLP.PLP>
-37.3710

> <Gold.PLP.part.hbond>
-2.8237

> <Gold.PLP.part.metal>
0.0000

> <Gold.PLP.part.buried>
-4.2671

> <Gold.PLP.part.nonpolar>
-31.2268

> <Gold.PLP.part.repulsive>
0.2206

> <Gold.PLP.ligand.clash>
0.0000

> <Gold.PLP.ligand.torsion>
0.8745

> <Gold.PLP.Chemscore.Hbond>
2.6960

> <Gold.PLP.Chemscore.CHOScore>
0.0000

> <Gold.PLP.Chemscore.Metal>
0.0000

> <Gold.Chemscore.Hbonds>
donor molecule, donor type, donor heavy atom, donor atom, acceptor molecule, acceptor atom, score
      P1  H  6896  6907       L1     1  1.00
      P1  H  6931  6943       L1    10  1.00
      P1  H  6934  6947       L1    10  0.61

> <Gold.PLP.Chemscore.Internal.Correction>
0.0138

> <Gold.Rescore>
     Score         DG    S(hbond)    S(metal)    S(lipo)     H(rot)  DE(clash)    DE(int)     intcor
     19.48     -20.02       2.71        0.00      81.28       1.57       0.00       0.54       ----

> <Gold.Chemscore.Fitness>
19.4781

> <Gold.Chemscore.DG>
-20.0192

> <Gold.Chemscore.ZeroCoef>
-5.4800

> <Gold.Chemscore.Hbond>
2.7103

> <Gold.Chemscore.Metal>
0.0000

> <Gold.Chemscore.Lipo>
81.2813

> <Gold.Chemscore.Internal_Hbond>
0.0000

> <Gold.Chemscore.DEClash>
0.0048

> <Gold.Chemscore.DEInternal>
0.5363

> <Gold.Chemscore.Rot>
1.5715

> <Gold.Chemscore.Internal.Correction>
   9.000000E+99

> <Gold.Chemscore.Hbonds>
donor molecule, donor type, donor heavy atom, donor atom, acceptor molecule, acceptor atom, score
      P1  H  6896  6907       L1     1  0.99
      P1  H  6931  6943       L1    10  0.88
      P1  H  6934  6947       L1    10  0.58

> <Gold.Chemscore.Hbond.Weighted>
-9.0524

> <Gold.Chemscore.Metal.Weighted>
-0.0000

> <Gold.Chemscore.Lipo.Weighted>
-9.5099

> <Gold.Chemscore.Internal_Hbond.Weighted>
0.0000

> <Gold.Chemscore.DEClash.Weighted>
0.0048

> <Gold.Chemscore.DEInternal.Weighted>
0.5363

> <Gold.Chemscore.Rot.Weighted>
4.0231

> <Gold.Chemscore.Internal.Correction.Weighted>
   9.000000E+99

> <Gold.Protein.RotatedTorsions>
[ 6907 6896 6895 6894 ] final  -40.33 input  -60.11 | X-H torsion
[ 7974 7965 7964 7962 ] final   18.96 input  175.53 | X-H torsion
[ 8008 7997 7996 7995 ] final   38.93 input   59.86 | X-H torsion
[ 10167 10162 10161 10158 ] final  111.79 input  -65.29 | X-H torsion
[ 10718 10713 10712 10709 ] final   93.05 input   66.30 | X-H torsion
[ 10763 10752 10751 10750 ] final  -87.85 input  -60.55 | X-H torsion
[ 11005 11000 10999 10996 ] final -135.17 input  -57.11 | X-H torsion

> <Gold.Protein.ActiveResidues>
 VAL166  LYS551  ARG553  GLY616  TRP617  ASP618  TYR619  PRO620  LYS621  CYS622 
 ASP623  PHE694  ASN695  SER759  ASP760  ASP761  ALA762  ILE779  LEU786  VAL792 
 PHE793  MET794  SER795  GLU796  ALA797  LYS798  CYS799  TRP800  GLU811  SER814 

> <Gold.Protein.RotatedAtoms>
  150.9797  134.9155  159.7836 H   0  0  0  0  0  0  0  0  0  0  0  0  # atno 6907 bound_to 6896
  152.5218  134.3427  159.9233 H   0  0  0  0  0  0  0  0  0  0  0  0  # atno 6908 bound_to 6896
  151.3434  133.3912  159.2708 H   0  0  0  0  0  0  0  0  0  0  0  0  # atno 6909 bound_to 6896
  146.2166  139.8382  142.8646 H   0  0  0  0  0  0  0  0  0  0  0  0  # atno 7974 bound_to 7965
  155.2283  140.3336  155.4306 H   0  0  0  0  0  0  0  0  0  0  0  0  # atno 8008 bound_to 7997
  156.2305  140.1848  156.7300 H   0  0  0  0  0  0  0  0  0  0  0  0  # atno 8009 bound_to 7997
  154.5970  140.0629  156.9303 H   0  0  0  0  0  0  0  0  0  0  0  0  # atno 8010 bound_to 7997
  139.6585  144.7129  151.1911 H   0  0  0  0  0  0  0  0  0  0  0  0  # atno 10167 bound_to 10162
  157.6956  131.0465  150.3975 H   0  0  0  0  0  0  0  0  0  0  0  0  # atno 10718 bound_to 10713
  154.6382  135.5398  153.7758 H   0  0  0  0  0  0  0  0  0  0  0  0  # atno 10763 bound_to 10752
  153.0319  135.6452  154.1200 H   0  0  0  0  0  0  0  0  0  0  0  0  # atno 10764 bound_to 10752
  154.1126  135.2925  155.3207 H   0  0  0  0  0  0  0  0  0  0  0  0  # atno 10765 bound_to 10752
  140.8922  134.1797  157.4519 H   0  0  0  0  0  0  0  0  0  0  0  0  # atno 11005 bound_to 11000
  145.2926  141.0171  143.3654 LP  0  0  0  0  0  0  0  0  0  0  0  0  # atno 17320 bound_to 7965
  144.9066  139.4582  143.6607 LP  0  0  0  0  0  0  0  0  0  0  0  0  # atno 17321 bound_to 7965
  140.7569  143.6033  150.8678 LP  0  0  0  0  0  0  0  0  0  0  0  0  # atno 17342 bound_to 10162
  139.9688  143.6080  152.2980 LP  0  0  0  0  0  0  0  0  0  0  0  0  # atno 17343 bound_to 10162
  156.4372  130.3984  149.6721 LP  0  0  0  0  0  0  0  0  0  0  0  0  # atno 17370 bound_to 10713
  156.3917  130.7630  151.2632 LP  0  0  0  0  0  0  0  0  0  0  0  0  # atno 17371 bound_to 10713
  139.8731  134.9863  156.5320 LP  0  0  0  0  0  0  0  0  0  0  0  0  # atno 17394 bound_to 11000
  140.8332  133.8262  155.9004 LP  0  0  0  0  0  0  0  0  0  0  0  0  # atno 17395 bound_to 11000

$$$$
