AV-unprocessed.smi:2864|AV-procd|sdf|11014|dock1
  -GOLD-   2272015473D 1   1.00000     0.00000
 Structure written by MMmdl.
 37 38  0  0  0  0  0  0  0  0  1 V2000
  153.7563  139.5381  160.2188 C   0  0  0  0  0  0  0  0  0  0  0  0
  153.1679  140.8881  159.8636 C   0  0  0  0  0  0  0  0  0  0  0  0
  153.6309  142.0567  160.4961 C   0  0  0  0  0  0  0  0  0  0  0  0
  153.0822  143.3053  160.1528 C   0  0  0  0  0  0  0  0  0  0  0  0
  152.0656  143.4044  159.1784 C   0  0  0  0  0  0  0  0  0  0  0  0
  151.5288  144.7871  158.8442 C   0  0  0  0  0  0  0  0  0  0  0  0
  151.5838  142.2242  158.5456 C   0  0  0  0  0  0  0  0  0  0  0  0
  150.4902  142.2342  157.4766 C   0  0  1  0  0  0  0  0  0  0  0  0
  150.7681  143.1277  156.4170 O   0  0  0  0  0  0  0  0  0  0  0  0
  150.2085  140.8192  156.9151 C   0  0  0  0  0  0  0  0  0  0  0  0
  149.3113  140.8664  155.7561 N   0  0  0  0  0  0  0  0  0  0  0  0
  148.1224  141.5354  155.9900 N   0  0  0  0  0  0  0  0  0  0  0  0
  147.2396  141.6834  155.0554 C   0  0  0  0  0  0  0  0  0  0  0  0
  145.9788  142.4357  155.4032 C   0  0  0  0  0  0  0  0  0  0  0  0
  144.9114  141.6393  155.3379 F   0  0  0  0  0  0  0  0  0  0  0  0
  146.0650  142.9276  156.6395 F   0  0  0  0  0  0  0  0  0  0  0  0
  145.8026  143.4503  154.5557 F   0  0  0  0  0  0  0  0  0  0  0  0
  147.5059  141.1279  153.7386 C   0  0  0  0  0  0  0  0  0  0  0  0
  148.6715  140.4852  153.5114 C   0  0  0  0  0  0  0  0  0  0  0  0
  149.6795  140.3294  154.5570 C   0  0  0  0  0  0  0  0  0  0  0  0
  150.7621  139.7737  154.3738 O   0  0  0  0  0  0  0  0  0  0  0  0
  152.1498  140.9773  158.8949 C   0  0  0  0  0  0  0  0  0  0  0  0
  154.6353  139.6425  160.8557 H   0  0  0  0  0  0  0  0  0  0  0  0
  154.0539  139.0042  159.3160 H   0  0  0  0  0  0  0  0  0  0  0  0
  153.0196  138.9341  160.7489 H   0  0  0  0  0  0  0  0  0  0  0  0
  154.4095  142.0022  161.2428 H   0  0  0  0  0  0  0  0  0  0  0  0
  153.4521  144.1938  160.6436 H   0  0  0  0  0  0  0  0  0  0  0  0
  150.5333  144.9222  159.2672 H   0  0  0  0  0  0  0  0  0  0  0  0
  151.4759  144.9436  157.7678 H   0  0  0  0  0  0  0  0  0  0  0  0
  152.1701  145.5681  159.2537 H   0  0  0  0  0  0  0  0  0  0  0  0
  149.5822  142.6254  157.9386 H   0  0  0  0  0  0  0  0  0  0  0  0
  150.0697  143.7622  156.3703 H   0  0  0  0  0  0  0  0  0  0  0  0
  151.1363  140.2995  156.6675 H   0  0  0  0  0  0  0  0  0  0  0  0
  149.7495  140.1936  157.6835 H   0  0  0  0  0  0  0  0  0  0  0  0
  146.7756  141.2305  152.9499 H   0  0  0  0  0  0  0  0  0  0  0  0
  148.8657  140.0746  152.5313 H   0  0  0  0  0  0  0  0  0  0  0  0
  151.8034  140.0743  158.4130 H   0  0  0  0  0  0  0  0  0  0  0  0
  1  2  1  0  0  0  0
  1 23  1  0  0  0  0
  1 24  1  0  0  0  0
  1 25  1  0  0  0  0
  2 22  1  0  0  0  0
  2  3  2  0  0  0  0
  3  4  1  0  0  0  0
  3 26  1  0  0  0  0
  4  5  2  0  0  0  0
  4 27  1  0  0  0  0
  5  6  1  0  0  0  0
  5  7  1  0  0  0  0
  6 28  1  0  0  0  0
  6 29  1  0  0  0  0
  6 30  1  0  0  0  0
  7  8  1  0  0  0  0
  7 22  2  0  0  0  0
  8  9  1  0  0  0  0
  8 10  1  0  0  0  0
  8 31  1  0  0  0  0
  9 32  1  0  0  0  0
 10 11  1  0  0  0  0
 10 33  1  0  0  0  0
 10 34  1  0  0  0  0
 11 20  1  0  0  0  0
 11 12  1  0  0  0  0
 12 13  2  0  0  0  0
 13 14  1  0  0  0  0
 13 18  1  0  0  0  0
 14 15  1  0  0  0  0
 14 16  1  0  0  0  0
 14 17  1  0  0  0  0
 18 19  2  0  0  0  0
 18 35  1  0  0  0  0
 19 20  1  0  0  0  0
 19 36  1  0  0  0  0
 20 21  2  0  0  0  0
 22 37  1  0  0  0  0
M  END
> <s_m_source_file>
AV-unprocessed.smi

> <i_m_source_file_index>
2864

> <i_lp_mmshare_version>
43012

> <i_f3d_flags>
0

> <s_epik_input>
W0NIM11jMVtjSF1bY0hdYyhbQ0gzXSljKFtjSF0xKVtDQEhdKFtPSF0pW0NIMl1uMm5jKEMoRikoRilGKVtjSF1bY0hdYzI9Tw==

> <s_epik_cmdline>
J2VwaWtfcHl0aG9uJywgJy1waCcsICc3LjAnLCAnLXRuJywgJzgnLCAnLW1hJywgJzIwMCcsICctbWV0YWxfYmluZGluZycsICctaW1hZScsICc8aW5maWxlLm1hZT4nLCAnLW9tYWUnLCAnPG91dGZpbGUubWFlPic=

> <r_lp_tautomer_probability>
1

> <r_epik_Ionization_Penalty>
5.25156e-08

> <r_epik_Ionization_Penalty_Charging>
3.92872e-09

> <r_epik_Ionization_Penalty_Neutral>
4.85868e-08

> <r_epik_State_Penalty>
-0

> <r_epik_Charging_Adjusted_Penalty>
3.92872e-09

> <i_epik_Tot_Q>
0

> <i_epik_Tot_abs_Q>
0

> <r_epik_Metal_State_Penalty>
-0

> <b_epik_Metal_Only>
0

> <s_lp_Force_Field>
OPLS_2005

> <r_lp_Energy>
33.8366

> <b_lp_Chiralities_Consistent>
1

> <s_lp_Variant>
AV-unprocessed.smi:2864-2

> <Gold.Version>
5.8.1

> <Gold.Id.Protein>
6NUR|6NUR_protein|mol2

> <Gold.PLP.Fitness>
50.9281

> <Gold.PLP.PLP>
-45.3188

> <Gold.PLP.part.hbond>
-2.0000

> <Gold.PLP.part.metal>
0.0000

> <Gold.PLP.part.buried>
-2.6577

> <Gold.PLP.part.nonpolar>
-40.7950

> <Gold.PLP.part.repulsive>
0.2373

> <Gold.PLP.ligand.clash>
0.0000

> <Gold.PLP.ligand.torsion>
0.2270

> <Gold.PLP.Chemscore.Hbond>
2.0000

> <Gold.PLP.Chemscore.CHOScore>
0.0000

> <Gold.PLP.Chemscore.Metal>
0.0000

> <Gold.Chemscore.Hbonds>
donor molecule, donor type, donor heavy atom, donor atom, acceptor molecule, acceptor atom, score
      L1  H     9    32       P1  8028  1.00
      P1  H  7989  7998       L1    21  1.00

> <Gold.PLP.Chemscore.Internal.Correction>
0.0634

> <Gold.Rescore>
     Score         DG    S(hbond)    S(metal)    S(lipo)     H(rot)  DE(clash)    DE(int)     intcor
     19.44     -19.57       1.95        0.00     109.75       2.05       0.03       0.10       ----

> <Gold.Chemscore.Fitness>
19.4398

> <Gold.Chemscore.DG>
-19.5731

> <Gold.Chemscore.ZeroCoef>
-5.4800

> <Gold.Chemscore.Hbond>
1.9475

> <Gold.Chemscore.Metal>
0.0000

> <Gold.Chemscore.Lipo>
109.7504

> <Gold.Chemscore.Internal_Hbond>
0.0000

> <Gold.Chemscore.DEClash>
0.0332

> <Gold.Chemscore.DEInternal>
0.1001

> <Gold.Chemscore.Rot>
2.0517

> <Gold.Chemscore.Internal.Correction>
   9.000000E+99

> <Gold.Chemscore.Hbonds>
donor molecule, donor type, donor heavy atom, donor atom, acceptor molecule, acceptor atom, score
      L1  H     9    32       P1  8028  0.99
      P1  H  7989  7998       L1    21  0.45

> <Gold.Chemscore.Hbond.Weighted>
-6.5047

> <Gold.Chemscore.Metal.Weighted>
-0.0000

> <Gold.Chemscore.Lipo.Weighted>
-12.8408

> <Gold.Chemscore.Internal_Hbond.Weighted>
0.0000

> <Gold.Chemscore.DEClash.Weighted>
0.0332

> <Gold.Chemscore.DEInternal.Weighted>
0.1001

> <Gold.Chemscore.Rot.Weighted>
5.2524

> <Gold.Chemscore.Internal.Correction.Weighted>
   9.000000E+99

> <Gold.Protein.RotatedTorsions>
[ 6907 6896 6895 6894 ] final  130.57 input  -60.11 | X-H torsion
[ 7974 7965 7964 7962 ] final   32.06 input  175.53 | X-H torsion
[ 8008 7997 7996 7995 ] final  -40.18 input   59.86 | X-H torsion
[ 10167 10162 10161 10158 ] final  -76.27 input  -65.29 | X-H torsion
[ 10718 10713 10712 10709 ] final  120.13 input   66.30 | X-H torsion
[ 10763 10752 10751 10750 ] final  -42.75 input  -60.55 | X-H torsion
[ 11005 11000 10999 10996 ] final  -72.27 input  -57.11 | X-H torsion

> <Gold.Protein.ActiveResidues>
 VAL166  LYS551  ARG553  GLY616  TRP617  ASP618  TYR619  PRO620  LYS621  CYS622 
 ASP623  PHE694  ASN695  SER759  ASP760  ASP761  ALA762  ILE779  LEU786  VAL792 
 PHE793  MET794  SER795  GLU796  ALA797  LYS798  CYS799  TRP800  GLU811  SER814 

> <Gold.Protein.RotatedAtoms>
  152.3513  133.6183  159.5946 H   0  0  0  0  0  0  0  0  0  0  0  0  # atno 6907 bound_to 6896
  150.7539  133.9570  159.3512 H   0  0  0  0  0  0  0  0  0  0  0  0  # atno 6908 bound_to 6896
  151.7421  135.0852  160.0368 H   0  0  0  0  0  0  0  0  0  0  0  0  # atno 6909 bound_to 6896
  146.1510  139.6575  142.9098 H   0  0  0  0  0  0  0  0  0  0  0  0  # atno 7974 bound_to 7965
  154.4015  140.1532  156.2984 H   0  0  0  0  0  0  0  0  0  0  0  0  # atno 8008 bound_to 7997
  155.8723  140.3448  155.5808 H   0  0  0  0  0  0  0  0  0  0  0  0  # atno 8009 bound_to 7997
  155.7761  140.0837  157.2074 H   0  0  0  0  0  0  0  0  0  0  0  0  # atno 8010 bound_to 7997
  140.4872  143.2388  151.7965 H   0  0  0  0  0  0  0  0  0  0  0  0  # atno 10167 bound_to 10162
  157.5913  131.1064  150.7992 H   0  0  0  0  0  0  0  0  0  0  0  0  # atno 10718 bound_to 10713
  153.9842  135.6713  153.4751 H   0  0  0  0  0  0  0  0  0  0  0  0  # atno 10763 bound_to 10752
  153.0734  135.4961  154.8350 H   0  0  0  0  0  0  0  0  0  0  0  0  # atno 10764 bound_to 10752
  154.7147  135.3104  154.9104 H   0  0  0  0  0  0  0  0  0  0  0  0  # atno 10765 bound_to 10752
  141.1606  133.6842  156.7033 H   0  0  0  0  0  0  0  0  0  0  0  0  # atno 11005 bound_to 11000
  145.4823  141.0438  143.2639 LP  0  0  0  0  0  0  0  0  0  0  0  0  # atno 17320 bound_to 7965
  144.7904  139.6340  143.7115 LP  0  0  0  0  0  0  0  0  0  0  0  0  # atno 17321 bound_to 7965
  139.4844  144.4697  151.9440 LP  0  0  0  0  0  0  0  0  0  0  0  0  # atno 17342 bound_to 10162
  140.3783  144.2768  150.5911 LP  0  0  0  0  0  0  0  0  0  0  0  0  # atno 17343 bound_to 10162
  156.8413  130.5049  149.5321 LP  0  0  0  0  0  0  0  0  0  0  0  0  # atno 17370 bound_to 10713
  156.0968  130.5938  150.9827 LP  0  0  0  0  0  0  0  0  0  0  0  0  # atno 17371 bound_to 10713
  140.2942  134.8216  157.4043 LP  0  0  0  0  0  0  0  0  0  0  0  0  # atno 17394 bound_to 11000
  140.1319  134.5083  155.8098 LP  0  0  0  0  0  0  0  0  0  0  0  0  # atno 17395 bound_to 11000

$$$$
