AV-unprocessed.smi:2030|AV-procd|sdf|8224|dock3
  -GOLD-   2272010493D 1   1.00000     0.00000
 Structure written by MMmdl.
 35 36  0  0  0  0  0  0  0  0  1 V2000
  152.3087  143.2036  161.3708 C   0  0  0  0  0  0  0  0  0  0  0  0
  152.1036  143.2681  159.9251 N   0  0  0  0  0  0  0  0  0  0  0  0
  152.3040  142.0768  159.2590 N   0  0  0  0  0  0  0  0  0  0  0  0
  151.9459  141.9102  158.0243 C   0  0  0  0  0  0  0  0  0  0  0  0
  152.1662  140.5999  157.3584 C   0  0  0  0  0  0  0  0  0  0  0  0
  152.8191  139.7099  157.9038 O   0  0  0  0  0  0  0  0  0  0  0  0
  151.6228  140.4663  156.1355 N   0  0  0  0  0  0  0  0  0  0  0  0
  151.7873  139.3094  155.2613 C   0  0  0  0  0  0  0  0  0  0  0  0
  150.4390  138.6684  154.8770 C   0  0  0  0  0  0  0  0  0  0  0  0
  149.3770  139.6842  154.4900 C   0  0  0  0  0  0  0  0  0  0  0  0
  148.0613  139.2718  154.1873 C   0  0  0  0  0  0  0  0  0  0  0  0
  147.1207  140.2498  153.8112 C   0  0  0  0  0  0  0  0  0  0  0  0
  147.5289  141.5964  153.7553 C   0  0  0  0  0  0  0  0  0  0  0  0
  148.8652  141.9058  154.0787 C   0  0  0  0  0  0  0  0  0  0  0  0
  149.7758  140.9752  154.4378 N   0  0  0  0  0  0  0  0  0  0  0  0
  151.2739  143.0314  157.2580 C   0  0  0  0  0  0  0  0  0  0  0  0
  151.6687  144.4203  157.7990 C   0  0  0  0  0  0  0  0  0  0  0  0
  151.7732  144.4399  159.3270 C   0  0  0  0  0  0  0  0  0  0  0  0
  151.5853  145.4912  159.9389 O   0  0  0  0  0  0  0  0  0  0  0  0
  151.4036  143.5012  161.9015 H   0  0  0  0  0  0  0  0  0  0  0  0
  153.1175  143.8696  161.6737 H   0  0  0  0  0  0  0  0  0  0  0  0
  152.5689  142.1972  161.7033 H   0  0  0  0  0  0  0  0  0  0  0  0
  151.0980  141.2459  155.7651 H   0  0  0  0  0  0  0  0  0  0  0  0
  152.3505  139.5819  154.3676 H   0  0  0  0  0  0  0  0  0  0  0  0
  152.3951  138.5807  155.7980 H   0  0  0  0  0  0  0  0  0  0  0  0
  150.5851  137.9767  154.0465 H   0  0  0  0  0  0  0  0  0  0  0  0
  150.0697  138.0652  155.7073 H   0  0  0  0  0  0  0  0  0  0  0  0
  147.7812  138.2293  154.2329 H   0  0  0  0  0  0  0  0  0  0  0  0
  146.1058  139.9716  153.5686 H   0  0  0  0  0  0  0  0  0  0  0  0
  146.8351  142.3737  153.4714 H   0  0  0  0  0  0  0  0  0  0  0  0
  149.2123  142.9280  154.0465 H   0  0  0  0  0  0  0  0  0  0  0  0
  151.5370  142.9838  156.2004 H   0  0  0  0  0  0  0  0  0  0  0  0
  150.1921  142.9050  157.3118 H   0  0  0  0  0  0  0  0  0  0  0  0
  152.6432  144.7060  157.4012 H   0  0  0  0  0  0  0  0  0  0  0  0
  150.9580  145.1752  157.4611 H   0  0  0  0  0  0  0  0  0  0  0  0
  1  2  1  0  0  0  0
  1 20  1  0  0  0  0
  1 21  1  0  0  0  0
  1 22  1  0  0  0  0
  2 18  1  0  0  0  0
  2  3  1  0  0  0  0
  3  4  2  0  0  0  0
  4  5  1  0  0  0  0
  4 16  1  0  0  0  0
  5  6  2  0  0  0  0
  5  7  1  0  0  0  0
  7  8  1  0  0  0  0
  7 23  1  0  0  0  0
  8  9  1  0  0  0  0
  8 24  1  0  0  0  0
  8 25  1  0  0  0  0
  9 10  1  0  0  0  0
  9 26  1  0  0  0  0
  9 27  1  0  0  0  0
 10 15  1  0  0  0  0
 10 11  2  0  0  0  0
 11 12  1  0  0  0  0
 11 28  1  0  0  0  0
 12 13  2  0  0  0  0
 12 29  1  0  0  0  0
 13 14  1  0  0  0  0
 13 30  1  0  0  0  0
 14 15  2  0  0  0  0
 14 31  1  0  0  0  0
 16 17  1  0  0  0  0
 16 32  1  0  0  0  0
 16 33  1  0  0  0  0
 17 18  1  0  0  0  0
 17 34  1  0  0  0  0
 17 35  1  0  0  0  0
 18 19  2  0  0  0  0
M  END
> <s_m_source_file>
AV-unprocessed.smi

> <i_m_source_file_index>
2030

> <i_lp_mmshare_version>
43012

> <i_f3d_flags>
0

> <s_epik_input>
Tz1DMVtDSDJdW0NIMl1DKD1OTjFbQ0gzXSlDKD1PKVtOSF1bQ0gyXVtDSDJdYzJbY0hdW2NIXVtjSF1bY0hdbjI=

> <s_epik_cmdline>
J2VwaWtfcHl0aG9uJywgJy1waCcsICc3LjAnLCAnLXRuJywgJzgnLCAnLW1hJywgJzIwMCcsICctbWV0YWxfYmluZGluZycsICctaW1hZScsICc8aW5maWxlLm1hZT4nLCAnLW9tYWUnLCAnPG91dGZpbGUubWFlPic=

> <r_epik_Ionization_Penalty>
0.0175455

> <r_epik_Ionization_Penalty_Charging>
0

> <r_epik_Ionization_Penalty_Neutral>
0.0175455

> <r_epik_State_Penalty>
0.0138544

> <r_epik_Charging_Adjusted_Penalty>
0.0138544

> <i_epik_Tot_Q>
0

> <i_epik_Tot_abs_Q>
0

> <r_epik_Metal_State_Penalty>
0.0690211

> <b_epik_Metal_Only>
0

> <s_epik_Chemistry_Notes>
This compound has an imine and may undergo hydrolysis.

> <s_lp_Force_Field>
OPLS_2005

> <r_lp_Energy>
15.1803

> <b_lp_Chiralities_Consistent>
1

> <s_lp_Variant>
AV-unprocessed.smi:2030-1

> <Gold.Version>
5.8.1

> <Gold.Id.Protein>
6NUR|6NUR_protein|mol2

> <Gold.PLP.Fitness>
48.4446

> <Gold.PLP.PLP>
-40.9254

> <Gold.PLP.part.hbond>
-2.0000

> <Gold.PLP.part.metal>
0.0000

> <Gold.PLP.part.buried>
-3.0242

> <Gold.PLP.part.nonpolar>
-34.4386

> <Gold.PLP.part.repulsive>
0.4519

> <Gold.PLP.ligand.clash>
0.0000

> <Gold.PLP.ligand.torsion>
0.1045

> <Gold.PLP.Chemscore.Hbond>
1.5730

> <Gold.PLP.Chemscore.CHOScore>
1.0000

> <Gold.PLP.Chemscore.Metal>
0.0000

> <Gold.Chemscore.Hbonds>
donor molecule, donor type, donor heavy atom, donor atom, acceptor molecule, acceptor atom, score
      P1  H  7989  7998       L1    15  0.54
      P1  H  7997  8009       L1     6  1.00
      L1  C    14    31       P1  8028  1.00

> <Gold.PLP.Chemscore.Internal.Correction>
0.0091

> <Gold.Rescore>
     Score         DG    S(hbond)    S(metal)    S(lipo)     H(rot)  DE(clash)    DE(int)     intcor
     13.11     -16.52       1.16        0.00      93.00       1.45       1.78       1.64       ----

> <Gold.Chemscore.Fitness>
13.1057

> <Gold.Chemscore.DG>
-16.5244

> <Gold.Chemscore.ZeroCoef>
-5.4800

> <Gold.Chemscore.Hbond>
1.1590

> <Gold.Chemscore.Metal>
0.0000

> <Gold.Chemscore.Lipo>
92.9953

> <Gold.Chemscore.Internal_Hbond>
0.0000

> <Gold.Chemscore.DEClash>
1.7802

> <Gold.Chemscore.DEInternal>
1.6386

> <Gold.Chemscore.Rot>
1.4480

> <Gold.Chemscore.Internal.Correction>
   9.000000E+99

> <Gold.Chemscore.Hbonds>
donor molecule, donor type, donor heavy atom, donor atom, acceptor molecule, acceptor atom, score
      P1  H  7989  7998       L1    15  0.22
      P1  H  7997  8009       L1     6  0.23

> <Gold.Chemscore.Hbond.Weighted>
-3.8709

> <Gold.Chemscore.Metal.Weighted>
-0.0000

> <Gold.Chemscore.Lipo.Weighted>
-10.8805

> <Gold.Chemscore.Internal_Hbond.Weighted>
0.0000

> <Gold.Chemscore.DEClash.Weighted>
1.7802

> <Gold.Chemscore.DEInternal.Weighted>
1.6386

> <Gold.Chemscore.Rot.Weighted>
3.7070

> <Gold.Chemscore.Internal.Correction.Weighted>
   9.000000E+99

> <Gold.Protein.RotatedTorsions>
[ 6907 6896 6895 6894 ] final   87.03 input  -60.11 | X-H torsion
[ 7974 7965 7964 7962 ] final  -79.68 input  175.53 | X-H torsion
[ 8008 7997 7996 7995 ] final  150.02 input   59.86 | X-H torsion
[ 10167 10162 10161 10158 ] final   84.59 input  -65.29 | X-H torsion
[ 10718 10713 10712 10709 ] final   -2.34 input   66.30 | X-H torsion
[ 10763 10752 10751 10750 ] final -164.63 input  -60.55 | X-H torsion
[ 11005 11000 10999 10996 ] final   89.74 input  -57.11 | X-H torsion

> <Gold.Protein.ActiveResidues>
 VAL166  LYS551  ARG553  GLY616  TRP617  ASP618  TYR619  PRO620  LYS621  CYS622 
 ASP623  PHE694  ASN695  SER759  ASP760  ASP761  ALA762  ILE779  LEU786  VAL792 
 PHE793  MET794  SER795  GLU796  ALA797  LYS798  CYS799  TRP800  GLU811  SER814 

> <Gold.Protein.RotatedAtoms>
  152.5404  134.2340  159.8835 H   0  0  0  0  0  0  0  0  0  0  0  0  # atno 6907 bound_to 6896
  151.2310  133.4443  159.2611 H   0  0  0  0  0  0  0  0  0  0  0  0  # atno 6908 bound_to 6896
  151.0715  134.9815  159.8367 H   0  0  0  0  0  0  0  0  0  0  0  0  # atno 6909 bound_to 6896
  145.5700  140.9467  143.1401 H   0  0  0  0  0  0  0  0  0  0  0  0  # atno 7974 bound_to 7965
  156.2732  140.2086  156.5951 H   0  0  0  0  0  0  0  0  0  0  0  0  # atno 8008 bound_to 7997
  154.6951  140.0526  157.0426 H   0  0  0  0  0  0  0  0  0  0  0  0  # atno 8009 bound_to 7997
  155.0812  140.3187  155.4604 H   0  0  0  0  0  0  0  0  0  0  0  0  # atno 8010 bound_to 7997
  139.9065  144.6298  150.8582 H   0  0  0  0  0  0  0  0  0  0  0  0  # atno 10167 bound_to 10162
  156.7922  130.5365  149.5734 H   0  0  0  0  0  0  0  0  0  0  0  0  # atno 10718 bound_to 10713
  154.7010  135.2988  154.9341 H   0  0  0  0  0  0  0  0  0  0  0  0  # atno 10763 bound_to 10752
  154.0274  135.6674  153.4781 H   0  0  0  0  0  0  0  0  0  0  0  0  # atno 10764 bound_to 10752
  153.0681  135.5076  154.8153 H   0  0  0  0  0  0  0  0  0  0  0  0  # atno 10765 bound_to 10752
  139.8869  134.8570  156.3185 H   0  0  0  0  0  0  0  0  0  0  0  0  # atno 11005 bound_to 11000
  144.7442  139.7365  143.7299 LP  0  0  0  0  0  0  0  0  0  0  0  0  # atno 17320 bound_to 7965
  146.1791  139.4975  142.9878 LP  0  0  0  0  0  0  0  0  0  0  0  0  # atno 17321 bound_to 7965
  140.7695  143.3397  151.2233 LP  0  0  0  0  0  0  0  0  0  0  0  0  # atno 17342 bound_to 10162
  139.6979  143.9581  152.2892 LP  0  0  0  0  0  0  0  0  0  0  0  0  # atno 17343 bound_to 10162
  156.1152  130.6069  151.0109 LP  0  0  0  0  0  0  0  0  0  0  0  0  # atno 17370 bound_to 10713
  157.6595  131.0883  150.7872 LP  0  0  0  0  0  0  0  0  0  0  0  0  # atno 17371 bound_to 10713
  140.9803  133.7272  156.0662 LP  0  0  0  0  0  0  0  0  0  0  0  0  # atno 17394 bound_to 11000
  140.7758  134.3781  157.5498 LP  0  0  0  0  0  0  0  0  0  0  0  0  # atno 17395 bound_to 11000

$$$$
