#       Name:                AV-unprocessed.smi:290
#       Creating user name   scv26
#       Creation time:       Thu Mar 26 22:12:31 2020


#       File generated by GOLD software.
#

@<TRIPOS>MOLECULE
AV-unprocessed.smi:290
    68    71     1
SMALL
NO_CHARGES


@<TRIPOS>ATOM
      1 ****        -4.0350  -0.2223  -1.1586 C.3            1 S1                 0.0000
      2 ****        -4.8320  -1.0829  -0.1624 C.3            1 S1                 0.0000
      3 ****        -6.2173  -1.0763  -0.5048 O.3            1 S1                 0.0000
      4 ****        -6.6673  -2.4020  -0.7424 C.3            1 S1                 0.0000
      5 ****        -5.7548  -3.2647   0.1189 C.3            1 S1                 0.0000
      6 ****        -4.4105  -2.5680  -0.0248 C.3            1 S1                 0.0000
      7 ****        -3.7997  -3.0339  -1.2178 O.3            1 S1                 0.0000
      8 ****        -3.4616  -2.8628   1.1623 C.3            1 S1                 0.0000
      9 ****        -2.1939  -2.1551   1.0783 N.pl3          1 S1                 0.0000
     10 ****        -1.0801  -2.5461   0.3727 C.2            1 S1                 0.0000
     11 ****        -0.0678  -1.7267   0.4380 N.2            1 S1                 0.0000
     12 ****        -0.5073  -0.6932   1.2592 C.ar           1 S1                 0.0000
     13 ****         0.0695   0.5210   1.7409 C.ar           1 S1                 0.0000
     14 ****         1.3189   0.9640   1.4309 N.pl3          1 S1                 0.0000
     15 ****         1.8093   2.2578   1.8954 C.3            1 S1                 0.0000
     16 ****         3.0868   2.5357   1.0919 C.3            1 S1                 0.0000
     17 ****         3.4373   1.1783   0.4573 C.3            1 S1                 0.0000
     18 ****         4.2968   1.2286  -0.7630 N.4            1 S1                 1.0000
     19 ****         4.6013  -0.1295  -1.2829 C.3            1 S1                 0.0000
     20 ****         5.5332   2.0452  -0.6091 C.3            1 S1                 0.0000
     21 ****         6.0415   2.5925  -1.9543 C.3            1 S1                 0.0000
     22 ****         5.1039   3.5047  -2.4864 O.3            1 S1                 0.0000
     23 ****         2.0406   0.5619   0.2310 C.3            1 S1                 0.0000
     24 ****         1.3314   1.0775  -1.0447 C.3            1 S1                 0.0000
     25 ****        -0.6924   1.2772   2.5753 N.ar           1 S1                 0.0000
     26 ****        -1.9310   0.8986   2.9007 C.ar           1 S1                 0.0000
     27 ****        -2.5982  -0.1876   2.5117 N.ar           1 S1                 0.0000
     28 ****        -1.8405  -0.9629   1.6858 C.ar           1 S1                 0.0000
     29 ****         3.9581   0.5858   1.2126 H              1 S1                 0.0000
     30 ****         2.1378  -0.5217   0.1942 H              1 S1                 0.0000
     31 ****        -2.9715  -0.2180  -0.9212 H              1 S1                 0.0000
     32 ****        -4.3805   0.8113  -1.1345 H              1 S1                 0.0000
     33 ****        -4.1515  -0.5807  -2.1818 H              1 S1                 0.0000
     34 ****        -4.7796  -0.6097   0.8182 H              1 S1                 0.0000
     35 ****        -7.7214  -2.5191  -0.4907 H              1 S1                 0.0000
     36 ****        -6.5394  -2.6398  -1.7993 H              1 S1                 0.0000
     37 ****        -6.0956  -3.2216   1.1543 H              1 S1                 0.0000
     38 ****        -5.7419  -4.3124  -0.1848 H              1 S1                 0.0000
     39 ****        -3.0329  -2.5075  -1.3844 H              1 S1                 0.0000
     40 ****        -3.9410  -2.5948   2.1046 H              1 S1                 0.0000
     41 ****        -3.2525  -3.9317   1.2219 H              1 S1                 0.0000
     42 ****        -1.0459  -3.4591  -0.2040 H              1 S1                 0.0000
     43 ****         1.0749   3.0501   1.7441 H              1 S1                 0.0000
     44 ****         2.0299   2.1938   2.9616 H              1 S1                 0.0000
     45 ****         2.8816   3.2784   0.3196 H              1 S1                 0.0000
     46 ****         3.8805   2.9258   1.7298 H              1 S1                 0.0000
     47 ****         5.1880  -0.6990  -0.5609 H              1 S1                 0.0000
     48 ****         5.1643  -0.0867  -2.2139 H              1 S1                 0.0000
     49 ****         3.6945  -0.6943  -1.4952 H              1 S1                 0.0000
     50 ****         5.3750   2.9019   0.0430 H              1 S1                 0.0000
     51 ****         6.3064   1.4455  -0.1268 H              1 S1                 0.0000
     52 ****         6.9833   3.1212  -1.8045 H              1 S1                 0.0000
     53 ****         6.2371   1.8028  -2.6787 H              1 S1                 0.0000
     54 ****         5.4534   3.8646  -3.2880 H              1 S1                 0.0000
     55 ****         1.8686   0.7940  -1.9490 H              1 S1                 0.0000
     56 ****         1.2340   2.1632  -1.0465 H              1 S1                 0.0000
     57 ****         0.3271   0.6641  -1.1354 H              1 S1                 0.0000
     58 ****        -2.4642   1.5629   3.5647 H              1 S1                 0.0000
     59 ****         3.7442   1.6993  -1.4657 H              1 S1                 0.0000
     60 ****        -6.3514  -0.5284  -1.3306 LP             1 S1                 0.0000
     61 ****        -6.7422  -0.6787   0.2478 LP             1 S1                 0.0000
     62 ****        -4.4403  -2.9489  -1.9810 LP             1 S1                 0.0000
     63 ****        -3.5349  -3.9921  -1.1100 LP             1 S1                 0.0000
     64 ****         0.8246  -1.8202  -0.0034 LP             1 S1                 0.0000
     65 ****         4.9405   4.2411  -1.8299 LP             1 S1                 0.0000
     66 ****         4.2440   3.0311  -2.6768 LP             1 S1                 0.0000
     67 ****        -0.3210   2.1269   2.9497 LP             1 S1                 0.0000
     68 ****        -3.5337  -0.4055   2.7898 LP             1 S1                 0.0000
@<TRIPOS>BOND
    1    1    2 1     
    2    1   31 1     
    3    1   32 1     
    4    1   33 1     
    5    2    6 1     
    6    2    3 1     
    7    2   34 1     
    8    3    4 1     
    9    4    5 1     
   10    4   35 1     
   11    4   36 1     
   12    5    6 1     
   13    5   37 1     
   14    5   38 1     
   15    6    7 1     
   16    6    8 1     
   17    7   39 1     
   18    8    9 1     
   19    8   40 1     
   20    8   41 1     
   21    9   28 1     
   22    9   10 1     
   23   10   11 2     
   24   10   42 1     
   25   11   12 1     
   26   12   28 ar    
   27   12   13 ar    
   28   13   14 1     
   29   13   25 ar    
   30   14   23 1     
   31   14   15 1     
   32   15   16 1     
   33   15   43 1     
   34   15   44 1     
   35   16   17 1     
   36   16   45 1     
   37   16   46 1     
   38   17   29 1     
   39   17   18 1     
   40   17   23 1     
   41   18   19 1     
   42   18   20 1     
   43   18   59 1     
   44   19   47 1     
   45   19   48 1     
   46   19   49 1     
   47   20   21 1     
   48   20   50 1     
   49   20   51 1     
   50   21   22 1     
   51   21   52 1     
   52   21   53 1     
   53   22   54 1     
   54   23   30 1     
   55   23   24 1     
   56   24   55 1     
   57   24   56 1     
   58   24   57 1     
   59   25   26 ar    
   60   26   27 ar    
   61   26   58 1     
   62   27   28 ar    
   63    3   60 1     
   64    3   61 1     
   65    7   62 1     
   66    7   63 1     
   67   11   64 1     
   68   22   65 1     
   69   22   66 1     
   70   25   67 1     
   71   27   68 1     
@<TRIPOS>SUBSTRUCTURE
      1 S1             1
@<TRIPOS>SET
LONE_PAIRS      STATIC     ATOMS    <user>   **** ""
9 60 61 62 63 64 65 66 67 68
DONOR_HYDROGENS      STATIC     ATOMS    <user>   **** ""
3 39 59 54
ATOM$BLUE        STATIC     ATOMS    COLORGROUP SYSTEM
9 60 61 62 63 64 65 66 67 68
ATOM$RED        STATIC     ATOMS    COLORGROUP SYSTEM
3 39 59 54
