AV-unprocessed.smi:249|AV-procd|sdf|1903|dock1
  -GOLD-   2262020583D 1   1.00000     0.00000
 Structure written by MMmdl.
 64 67  0  0  0  0  0  0  0  0  2 V2000
  145.8188  131.1820  151.4130 C   0  0  0  0  0  0  0  0  0  0  0  0
  146.6414  131.0119  152.6992 C   0  0  0  0  0  0  0  0  0  0  0  0
  147.9426  131.7432  152.6641 N   0  3  1  0  0  0  0  0  0  0  0  0
  147.8083  133.2255  152.5907 C   0  0  0  0  0  0  0  0  0  0  0  0
  147.3343  133.8253  153.9279 C   0  0  0  0  0  0  0  0  0  0  0  0
  148.2858  133.4330  155.0791 C   0  0  1  0  0  0  0  0  0  0  0  0
  147.9082  134.0030  156.3791 N   0  0  0  0  0  0  0  0  0  0  0  0
  146.8412  133.3396  157.1194 C   0  0  0  0  0  0  0  0  0  0  0  0
  147.8972  135.3528  156.4905 C   0  0  0  0  0  0  0  0  0  0  0  0
  146.8280  136.0134  155.9803 N   0  0  0  0  0  0  0  0  0  0  0  0
  146.7634  137.3459  156.0584 C   0  0  0  0  0  0  0  0  0  0  0  0
  147.6447  138.1946  156.5915 N   0  0  0  0  0  0  0  0  0  0  0  0
  148.7259  137.5344  157.0966 C   0  0  0  0  0  0  0  0  0  0  0  0
  148.9320  136.1262  157.0903 C   0  0  0  0  0  0  0  0  0  0  0  0
  150.1405  135.8229  157.7069 N   0  0  0  0  0  0  0  0  0  0  0  0
  150.6221  136.9846  158.0550 C   0  0  0  0  0  0  0  0  0  0  0  0
  149.8460  138.0677  157.7097 N   0  0  0  0  0  0  0  0  0  0  0  0
  150.1390  139.4646  157.9760 C   0  0  0  0  0  0  0  0  0  0  0  0
  151.4736  139.9726  157.3697 C   0  0  1  0  0  0  0  0  0  0  0  0
  151.3584  139.9848  155.8278 C   0  0  0  0  0  0  0  0  0  0  0  0
  152.6286  139.9321  155.2092 O   0  0  0  0  0  0  0  0  0  0  0  0
  151.9638  141.3352  157.9423 C   0  0  2  0  0  0  0  0  0  0  0  0
  152.3509  141.3044  159.4128 C   0  0  0  0  0  0  0  0  0  0  0  0
  152.3256  142.7798  159.7819 C   0  0  0  0  0  0  0  0  0  0  0  0
  151.2065  143.2959  159.0790 O   0  0  0  0  0  0  0  0  0  0  0  0
  150.9275  142.4721  157.9503 C   0  0  0  0  0  0  0  0  0  0  0  0
  148.4687  131.8990  155.1117 C   0  0  0  0  0  0  0  0  0  0  0  0
  148.9140  131.3638  153.7352 C   0  0  1  0  0  0  0  0  0  0  0  0
  149.2417  129.8601  153.7670 C   0  0  0  0  0  0  0  0  0  0  0  0
  144.9563  130.5152  151.4229 H   0  0  0  0  0  0  0  0  0  0  0  0
  146.4107  130.9402  150.5296 H   0  0  0  0  0  0  0  0  0  0  0  0
  145.4335  132.1947  151.3001 H   0  0  0  0  0  0  0  0  0  0  0  0
  146.0485  131.3063  153.5647 H   0  0  0  0  0  0  0  0  0  0  0  0
  146.8224  129.9443  152.8066 H   0  0  0  0  0  0  0  0  0  0  0  0
  148.7815  133.6465  152.3347 H   0  0  0  0  0  0  0  0  0  0  0  0
  147.1443  133.5250  151.7815 H   0  0  0  0  0  0  0  0  0  0  0  0
  147.2882  134.9116  153.8432 H   0  0  0  0  0  0  0  0  0  0  0  0
  146.3166  133.4925  154.1295 H   0  0  0  0  0  0  0  0  0  0  0  0
  149.2585  133.8664  154.8415 H   0  0  0  0  0  0  0  0  0  0  0  0
  146.6781  133.8185  158.0859 H   0  0  0  0  0  0  0  0  0  0  0  0
  147.1074  132.2993  157.3067 H   0  0  0  0  0  0  0  0  0  0  0  0
  145.9012  133.3527  156.5684 H   0  0  0  0  0  0  0  0  0  0  0  0
  145.8799  137.7970  155.6312 H   0  0  0  0  0  0  0  0  0  0  0  0
  151.5699  137.0843  158.5641 H   0  0  0  0  0  0  0  0  0  0  0  0
  149.3061  140.0482  157.5820 H   0  0  0  0  0  0  0  0  0  0  0  0
  150.1344  139.6178  159.0559 H   0  0  0  0  0  0  0  0  0  0  0  0
  152.2404  139.2325  157.6008 H   0  0  0  0  0  0  0  0  0  0  0  0
  150.7569  139.1493  155.4705 H   0  0  0  0  0  0  0  0  0  0  0  0
  150.8474  140.8884  155.4936 H   0  0  0  0  0  0  0  0  0  0  0  0
  152.7070  139.1081  154.7528 H   0  0  0  0  0  0  0  0  0  0  0  0
  152.8348  141.6690  157.3761 H   0  0  0  0  0  0  0  0  0  0  0  0
  151.6047  140.7618  159.9950 H   0  0  0  0  0  0  0  0  0  0  0  0
  153.3256  140.8499  159.5924 H   0  0  0  0  0  0  0  0  0  0  0  0
  152.2383  142.9470  160.8554 H   0  0  0  0  0  0  0  0  0  0  0  0
  153.2291  143.2788  159.4284 H   0  0  0  0  0  0  0  0  0  0  0  0
  150.9684  143.0681  157.0396 H   0  0  0  0  0  0  0  0  0  0  0  0
  149.9130  142.0869  158.0583 H   0  0  0  0  0  0  0  0  0  0  0  0
  149.2137  131.6290  155.8603 H   0  0  0  0  0  0  0  0  0  0  0  0
  147.5424  131.4086  155.4110 H   0  0  0  0  0  0  0  0  0  0  0  0
  149.8502  131.8634  153.4805 H   0  0  0  0  0  0  0  0  0  0  0  0
  150.1022  129.6707  154.4095 H   0  0  0  0  0  0  0  0  0  0  0  0
  149.4886  129.4859  152.7730 H   0  0  0  0  0  0  0  0  0  0  0  0
  148.4180  129.2654  154.1620 H   0  0  0  0  0  0  0  0  0  0  0  0
  148.3761  131.4623  151.7961 H   0  0  0  0  0  0  0  0  0  0  0  0
  1  2  1  0  0  0  0
  1 30  1  0  0  0  0
  1 31  1  0  0  0  0
  1 32  1  0  0  0  0
  2  3  1  0  0  0  0
  2 33  1  0  0  0  0
  2 34  1  0  0  0  0
  3 28  1  0  0  0  0
  3  4  1  0  0  0  0
  3 64  1  0  0  0  0
  4  5  1  0  0  0  0
  4 35  1  0  0  0  0
  4 36  1  0  0  0  0
  5  6  1  0  0  0  0
  5 37  1  0  0  0  0
  5 38  1  0  0  0  0
  6  7  1  0  0  0  0
  6 27  1  0  0  0  0
  6 39  1  0  0  0  0
  7  8  1  0  0  0  0
  7  9  1  0  0  0  0
  8 40  1  0  0  0  0
  8 41  1  0  0  0  0
  8 42  1  0  0  0  0
  9 14  1  0  0  0  0
  9 10  2  0  0  0  0
 10 11  1  0  0  0  0
 11 12  2  0  0  0  0
 11 43  1  0  0  0  0
 12 13  1  0  0  0  0
 13 17  1  0  0  0  0
 13 14  2  0  0  0  0
 14 15  1  0  0  0  0
 15 16  2  0  0  0  0
 16 17  1  0  0  0  0
 16 44  1  0  0  0  0
 17 18  1  0  0  0  0
 18 19  1  0  0  0  0
 18 45  1  0  0  0  0
 18 46  1  0  0  0  0
 19 20  1  0  0  0  0
 19 22  1  0  0  0  0
 19 47  1  0  0  0  0
 20 21  1  0  0  0  0
 20 48  1  0  0  0  0
 20 49  1  0  0  0  0
 21 50  1  0  0  0  0
 22 26  1  0  0  0  0
 22 23  1  0  0  0  0
 22 51  1  0  0  0  0
 23 24  1  0  0  0  0
 23 52  1  0  0  0  0
 23 53  1  0  0  0  0
 24 25  1  0  0  0  0
 24 54  1  0  0  0  0
 24 55  1  0  0  0  0
 25 26  1  0  0  0  0
 26 56  1  0  0  0  0
 26 57  1  0  0  0  0
 27 28  1  0  0  0  0
 27 58  1  0  0  0  0
 27 59  1  0  0  0  0
 28 29  1  0  0  0  0
 28 60  1  0  0  0  0
 29 61  1  0  0  0  0
 29 62  1  0  0  0  0
 29 63  1  0  0  0  0
M  CHG  1   3   1
M  END
> <s_m_source_file>
AV-unprocessed.smi

> <i_m_source_file_index>
249

> <i_lp_mmshare_version>
43012

> <i_f3d_flags>
0

> <s_epik_input>
W0NIM11bQ0gyXU4xW0NIMl1bQ0gyXVtDQEhdKFtDSDJdW0NASF0xW0NIM10pTihbQ0gzXSljKG5bY0hdbjIpYyhjMjMpbltjSF1uM1tDSDJdW0NASF0oW0NIMl1bT0hdKVtDQEBIXTRbQ0gyXVtDSDJdT1tDSDJdNA==

> <s_epik_cmdline>
J2VwaWtfcHl0aG9uJywgJy1waCcsICc3LjAnLCAnLXRuJywgJzgnLCAnLW1hJywgJzIwMCcsICctbWV0YWxfYmluZGluZycsICctaW1hZScsICc8aW5maWxlLm1hZT4nLCAnLW9tYWUnLCAnPG91dGZpbGUubWFlPic=

> <r_lp_tautomer_probability>
1

> <r_epik_Ionization_Penalty>
0.00294688

> <r_epik_Ionization_Penalty_Charging>
0.00169971

> <r_epik_Ionization_Penalty_Neutral>
0.00124717

> <r_epik_State_Penalty>
-0

> <r_epik_Charging_Adjusted_Penalty>
0.00169971

> <i_epik_Tot_Q>
1

> <i_epik_Tot_abs_Q>
1

> <r_epik_Metal_State_Penalty>
-0

> <b_epik_Metal_Only>
0

> <s_lp_Force_Field>
OPLS_2005

> <r_lp_Energy>
55.2795

> <b_lp_Chiralities_Consistent>
1

> <s_lp_Variant>
AV-unprocessed.smi:249-6

> <Gold.Version>
5.8.1

> <Gold.Id.Protein>
6NUR|6NUR_protein|mol2

> <Gold.PLP.Fitness>
42.8643

> <Gold.PLP.PLP>
-35.6500

> <Gold.PLP.part.hbond>
-4.0000

> <Gold.PLP.part.metal>
0.0000

> <Gold.PLP.part.buried>
-5.3344

> <Gold.PLP.part.nonpolar>
-27.4329

> <Gold.PLP.part.repulsive>
0.0441

> <Gold.PLP.ligand.clash>
0.0000

> <Gold.PLP.ligand.torsion>
0.8444

> <Gold.PLP.Chemscore.Hbond>
2.6497

> <Gold.PLP.Chemscore.CHOScore>
0.0000

> <Gold.PLP.Chemscore.Metal>
0.0000

> <Gold.Chemscore.Hbonds>
donor molecule, donor type, donor heavy atom, donor atom, acceptor molecule, acceptor atom, score
      L1  H     3    64       P1 10747  1.00
      P1  H  6896  6909       L1    15  0.26
      P1  H  7989  7998       L1    21  0.08
      P1  H  7997  8008       L1    21  1.00

> <Gold.PLP.Chemscore.Internal.Correction>
0.9539

> <Gold.Rescore>
     Score         DG    S(hbond)    S(metal)    S(lipo)     H(rot)  DE(clash)    DE(int)     intcor
     15.69     -16.68       2.23        0.00      95.65       2.90       0.00       0.99       ----

> <Gold.Chemscore.Fitness>
15.6901

> <Gold.Chemscore.DG>
-16.6785

> <Gold.Chemscore.ZeroCoef>
-5.4800

> <Gold.Chemscore.Hbond>
2.2256

> <Gold.Chemscore.Metal>
0.0000

> <Gold.Chemscore.Lipo>
95.6464

> <Gold.Chemscore.Internal_Hbond>
0.0000

> <Gold.Chemscore.DEClash>
0.0015

> <Gold.Chemscore.DEInternal>
0.9869

> <Gold.Chemscore.Rot>
2.9006

> <Gold.Chemscore.Internal.Correction>
   9.000000E+99

> <Gold.Chemscore.Hbonds>
donor molecule, donor type, donor heavy atom, donor atom, acceptor molecule, acceptor atom, score
      L1  H     3    64       P1 10747  1.00
      P1  H  6896  6909       L1    15  0.11
      P1  H  7997  8008       L1    21  0.47

> <Gold.Chemscore.Hbond.Weighted>
-7.4336

> <Gold.Chemscore.Metal.Weighted>
-0.0000

> <Gold.Chemscore.Lipo.Weighted>
-11.1906

> <Gold.Chemscore.Internal_Hbond.Weighted>
0.0000

> <Gold.Chemscore.DEClash.Weighted>
0.0015

> <Gold.Chemscore.DEInternal.Weighted>
0.9869

> <Gold.Chemscore.Rot.Weighted>
7.4256

> <Gold.Chemscore.Internal.Correction.Weighted>
   9.000000E+99

> <Gold.Protein.RotatedTorsions>
[ 6907 6896 6895 6894 ] final   43.38 input  -60.11 | X-H torsion
[ 7974 7965 7964 7962 ] final  -19.53 input  175.53 | X-H torsion
[ 8008 7997 7996 7995 ] final  -36.33 input   59.86 | X-H torsion
[ 10167 10162 10161 10158 ] final  179.98 input  -65.29 | X-H torsion
[ 10718 10713 10712 10709 ] final   17.35 input   66.30 | X-H torsion
[ 10763 10752 10751 10750 ] final   -5.03 input  -60.55 | X-H torsion
[ 11005 11000 10999 10996 ] final   87.94 input  -57.11 | X-H torsion

> <Gold.Protein.ActiveResidues>
 VAL166  LYS551  ARG553  GLY616  TRP617  ASP618  TYR619  PRO620  LYS621  CYS622 
 ASP623  PHE694  ASN695  SER759  ASP760  ASP761  ALA762  ILE779  LEU786  VAL792 
 PHE793  MET794  SER795  GLU796  ALA797  LYS798  CYS799  TRP800  GLU811  SER814 

> <Gold.Protein.RotatedAtoms>
  152.2195  134.8426  160.0487 H   0  0  0  0  0  0  0  0  0  0  0  0  # atno 6907 bound_to 6896
  151.9215  133.3581  159.3907 H   0  0  0  0  0  0  0  0  0  0  0  0  # atno 6908 bound_to 6896
  150.6996  134.4555  159.5400 H   0  0  0  0  0  0  0  0  0  0  0  0  # atno 6909 bound_to 6896
  146.1836  140.4075  142.8485 H   0  0  0  0  0  0  0  0  0  0  0  0  # atno 7974 bound_to 7965
  154.4075  140.1633  156.2356 H   0  0  0  0  0  0  0  0  0  0  0  0  # atno 8008 bound_to 7997
  155.9245  140.3419  155.6177 H   0  0  0  0  0  0  0  0  0  0  0  0  # atno 8009 bound_to 7997
  155.7181  140.0765  157.2333 H   0  0  0  0  0  0  0  0  0  0  0  0  # atno 8010 bound_to 7997
  139.5360  144.2496  152.0795 H   0  0  0  0  0  0  0  0  0  0  0  0  # atno 10167 bound_to 10162
  157.0809  130.6387  149.5826 H   0  0  0  0  0  0  0  0  0  0  0  0  # atno 10718 bound_to 10713
  153.3929  135.7002  153.6482 H   0  0  0  0  0  0  0  0  0  0  0  0  # atno 10763 bound_to 10752
  153.5047  135.3645  155.2557 H   0  0  0  0  0  0  0  0  0  0  0  0  # atno 10764 bound_to 10752
  154.8704  135.4120  154.3249 H   0  0  0  0  0  0  0  0  0  0  0  0  # atno 10765 bound_to 10752
  139.8908  134.8455  156.2931 H   0  0  0  0  0  0  0  0  0  0  0  0  # atno 11005 bound_to 11000
  144.8358  140.6780  143.6261 LP  0  0  0  0  0  0  0  0  0  0  0  0  # atno 17320 bound_to 7965
  145.4003  139.1599  143.4181 LP  0  0  0  0  0  0  0  0  0  0  0  0  # atno 17321 bound_to 7965
  140.1967  144.4699  150.6452 LP  0  0  0  0  0  0  0  0  0  0  0  0  # atno 17342 bound_to 10162
  140.6567  143.2239  151.5953 LP  0  0  0  0  0  0  0  0  0  0  0  0  # atno 17343 bound_to 10162
  155.9924  130.4982  150.7338 LP  0  0  0  0  0  0  0  0  0  0  0  0  # atno 17370 bound_to 10713
  157.4801  131.0901  151.0546 LP  0  0  0  0  0  0  0  0  0  0  0  0  # atno 17371 bound_to 10713
  140.9963  133.7178  156.0891 LP  0  0  0  0  0  0  0  0  0  0  0  0  # atno 17394 bound_to 11000
  140.7558  134.3995  157.5534 LP  0  0  0  0  0  0  0  0  0  0  0  0  # atno 17395 bound_to 11000

$$$$
