AV-unprocessed.smi:356|AV-procd|sdf|2415|dock1
  -GOLD-   2262022353D 1   1.00000     0.00000
 Structure written by MMmdl.
 43 45  0  0  0  0  0  0  0  0  3 V2000
  146.3084  142.9006  153.7339 C   0  0  0  0  0  0  0  0  0  0  0  0
  147.4683  142.0350  154.0953 C   0  0  0  0  0  0  0  0  0  0  0  0
  148.4336  142.3298  155.0106 N   0  3  0  0  0  0  0  0  0  0  0  0
  149.3529  141.2823  155.0814 C   0  0  0  0  0  0  0  0  0  0  0  0
  150.4960  141.1263  155.8595 C   0  0  0  0  0  0  0  0  0  0  0  0
  151.2208  139.9291  155.6864 C   0  0  0  0  0  0  0  0  0  0  0  0
  150.8010  138.9434  154.7698 C   0  0  0  0  0  0  0  0  0  0  0  0
  149.6389  139.1118  153.9881 C   0  0  0  0  0  0  0  0  0  0  0  0
  148.9276  140.2992  154.1637 C   0  0  0  0  0  0  0  0  0  0  0  0
  147.7614  140.8080  153.5768 N   0  0  0  0  0  0  0  0  0  0  0  0
  147.0505  140.0237  152.5537 C   0  0  0  0  0  0  0  0  0  0  0  0
  146.5283  138.6756  153.0902 C   0  0  1  0  0  0  0  0  0  0  0  0
  145.5181  138.9073  154.0532 O   0  0  0  0  0  0  0  0  0  0  0  0
  145.9485  137.7951  151.9653 C   0  0  0  0  0  0  0  0  0  0  0  0
  146.0912  136.3432  152.2459 N   0  3  0  0  0  0  0  0  0  0  0  0
  145.4420  135.9433  153.5169 C   0  0  0  0  0  0  0  0  0  0  0  0
  145.6760  134.4484  153.7935 C   0  0  0  0  0  0  0  0  0  0  0  0
  145.1882  133.6792  152.7014 O   0  0  0  0  0  0  0  0  0  0  0  0
  145.8612  133.9909  151.4882 C   0  0  0  0  0  0  0  0  0  0  0  0
  145.6331  135.4711  151.1358 C   0  0  0  0  0  0  0  0  0  0  0  0
  146.3517  143.8459  154.2754 H   0  0  0  0  0  0  0  0  0  0  0  0
  145.3734  142.3996  153.9851 H   0  0  0  0  0  0  0  0  0  0  0  0
  146.3142  143.1137  152.6650 H   0  0  0  0  0  0  0  0  0  0  0  0
  150.8191  141.8804  156.5624 H   0  0  0  0  0  0  0  0  0  0  0  0
  152.1166  139.7640  156.2678 H   0  0  0  0  0  0  0  0  0  0  0  0
  151.3832  138.0393  154.6636 H   0  0  0  0  0  0  0  0  0  0  0  0
  149.3315  138.3487  153.2893 H   0  0  0  0  0  0  0  0  0  0  0  0
  146.2444  140.6239  152.1313 H   0  0  0  0  0  0  0  0  0  0  0  0
  147.7542  139.8493  151.7389 H   0  0  0  0  0  0  0  0  0  0  0  0
  147.3516  138.1607  153.5841 H   0  0  0  0  0  0  0  0  0  0  0  0
  144.8923  139.5186  153.6954 H   0  0  0  0  0  0  0  0  0  0  0  0
  144.8930  138.0434  151.8418 H   0  0  0  0  0  0  0  0  0  0  0  0
  146.4268  138.0253  151.0118 H   0  0  0  0  0  0  0  0  0  0  0  0
  145.8441  136.5334  154.3413 H   0  0  0  0  0  0  0  0  0  0  0  0
  144.3721  136.1517  153.4628 H   0  0  0  0  0  0  0  0  0  0  0  0
  146.7353  134.2423  153.9564 H   0  0  0  0  0  0  0  0  0  0  0  0
  145.1502  134.1475  154.6998 H   0  0  0  0  0  0  0  0  0  0  0  0
  146.9260  133.7709  151.5807 H   0  0  0  0  0  0  0  0  0  0  0  0
  145.4721  133.3519  150.6954 H   0  0  0  0  0  0  0  0  0  0  0  0
  144.5735  135.6475  150.9441 H   0  0  0  0  0  0  0  0  0  0  0  0
  146.1670  135.7070  150.2161 H   0  0  0  0  0  0  0  0  0  0  0  0
  147.0796  136.1725  152.3685 H   0  0  0  0  0  0  0  0  0  0  0  0
  148.4607  143.1875  155.5470 H   0  0  0  0  0  0  0  0  0  0  0  0
  1  2  1  0  0  0  0
  1 21  1  0  0  0  0
  1 22  1  0  0  0  0
  1 23  1  0  0  0  0
  2 10  1  0  0  0  0
  2  3  2  0  0  0  0
  3  4  1  0  0  0  0
  3 43  1  0  0  0  0
  4  9  2  0  0  0  0
  4  5  1  0  0  0  0
  5  6  2  0  0  0  0
  5 24  1  0  0  0  0
  6  7  1  0  0  0  0
  6 25  1  0  0  0  0
  7  8  2  0  0  0  0
  7 26  1  0  0  0  0
  8  9  1  0  0  0  0
  8 27  1  0  0  0  0
  9 10  1  0  0  0  0
 10 11  1  0  0  0  0
 11 12  1  0  0  0  0
 11 28  1  0  0  0  0
 11 29  1  0  0  0  0
 12 13  1  0  0  0  0
 12 14  1  0  0  0  0
 12 30  1  0  0  0  0
 13 31  1  0  0  0  0
 14 15  1  0  0  0  0
 14 32  1  0  0  0  0
 14 33  1  0  0  0  0
 15 20  1  0  0  0  0
 15 16  1  0  0  0  0
 15 42  1  0  0  0  0
 16 17  1  0  0  0  0
 16 34  1  0  0  0  0
 16 35  1  0  0  0  0
 17 18  1  0  0  0  0
 17 36  1  0  0  0  0
 17 37  1  0  0  0  0
 18 19  1  0  0  0  0
 19 20  1  0  0  0  0
 19 38  1  0  0  0  0
 19 39  1  0  0  0  0
 20 40  1  0  0  0  0
 20 41  1  0  0  0  0
M  CHG  1   3   1
M  CHG  1  15   1
M  END
> <s_m_source_file>
AV-unprocessed.smi

> <i_m_source_file_index>
356

> <i_lp_mmshare_version>
43012

> <i_f3d_flags>
0

> <s_epik_input>
W2NIXTFbY0hdW2NIXVtjSF1jKGMxMiluKGMobjIpW0NIM10pW0NIMl1bQ0BIXShbT0hdKVtDSDJdTjNbQ0gyXVtDSDJdT1tDSDJdW0NIMl0z

> <s_epik_cmdline>
J2VwaWtfcHl0aG9uJywgJy1waCcsICc3LjAnLCAnLXRuJywgJzgnLCAnLW1hJywgJzIwMCcsICctbWV0YWxfYmluZGluZycsICctaW1hZScsICc8aW5maWxlLm1hZT4nLCAnLW9tYWUnLCAnPG91dGZpbGUubWFlPic=

> <r_epik_Ionization_Penalty>
1.81899

> <r_epik_Ionization_Penalty_Charging>
1.81898

> <r_epik_Ionization_Penalty_Neutral>
1.42224e-05

> <r_epik_State_Penalty>
1.87399

> <r_epik_Charging_Adjusted_Penalty>
3.69296

> <i_epik_Tot_Q>
2

> <i_epik_Tot_abs_Q>
2

> <r_epik_Metal_State_Penalty>
5.87601

> <b_epik_Metal_Only>
0

> <s_lp_Force_Field>
OPLS_2005

> <r_lp_Energy>
27.965

> <b_lp_Chiralities_Consistent>
1

> <s_lp_Variant>
AV-unprocessed.smi:356-8

> <Gold.Version>
5.8.1

> <Gold.Id.Protein>
6NUR|6NUR_protein|mol2

> <Gold.PLP.Fitness>
53.8346

> <Gold.PLP.PLP>
-39.6196

> <Gold.PLP.part.hbond>
-2.9549

> <Gold.PLP.part.metal>
0.0000

> <Gold.PLP.part.buried>
1.7127

> <Gold.PLP.part.nonpolar>
-38.8878

> <Gold.PLP.part.repulsive>
0.2948

> <Gold.PLP.ligand.clash>
0.0000

> <Gold.PLP.ligand.torsion>
0.3928

> <Gold.PLP.Chemscore.Hbond>
4.9840

> <Gold.PLP.Chemscore.CHOScore>
0.0000

> <Gold.PLP.Chemscore.Metal>
0.0000

> <Gold.Chemscore.Hbonds>
donor molecule, donor type, donor heavy atom, donor atom, acceptor molecule, acceptor atom, score
      L1  H     3    43       P1  8028  1.95
      L1  H    13    31       P1 10175  1.00
      L1  H    15    42       P1  7948  2.00

> <Gold.PLP.Chemscore.Internal.Correction>
0.0487

> <Gold.Rescore>
     Score         DG    S(hbond)    S(metal)    S(lipo)     H(rot)  DE(clash)    DE(int)     intcor
     18.22     -19.98       2.88        0.00      88.47       2.13       1.25       0.51       ----

> <Gold.Chemscore.Fitness>
18.2224

> <Gold.Chemscore.DG>
-19.9830

> <Gold.Chemscore.ZeroCoef>
-5.4800

> <Gold.Chemscore.Hbond>
2.8776

> <Gold.Chemscore.Metal>
0.0000

> <Gold.Chemscore.Lipo>
88.4747

> <Gold.Chemscore.Internal_Hbond>
0.0000

> <Gold.Chemscore.DEClash>
1.2500

> <Gold.Chemscore.DEInternal>
0.5105

> <Gold.Chemscore.Rot>
2.1327

> <Gold.Chemscore.Internal.Correction>
   9.000000E+99

> <Gold.Chemscore.Hbonds>
donor molecule, donor type, donor heavy atom, donor atom, acceptor molecule, acceptor atom, score
      L1  H     3    43       P1  8028  0.90
      L1  H    13    31       P1 10175  0.98
      L1  H    15    42       P1  7948  0.97

> <Gold.Chemscore.Hbond.Weighted>
-9.6110

> <Gold.Chemscore.Metal.Weighted>
-0.0000

> <Gold.Chemscore.Lipo.Weighted>
-10.3515

> <Gold.Chemscore.Internal_Hbond.Weighted>
0.0000

> <Gold.Chemscore.DEClash.Weighted>
1.2500

> <Gold.Chemscore.DEInternal.Weighted>
0.5105

> <Gold.Chemscore.Rot.Weighted>
5.4596

> <Gold.Chemscore.Internal.Correction.Weighted>
   9.000000E+99

> <Gold.Protein.RotatedTorsions>
[ 6907 6896 6895 6894 ] final  155.22 input  -60.11 | X-H torsion
[ 7974 7965 7964 7962 ] final   32.24 input  175.53 | X-H torsion
[ 8008 7997 7996 7995 ] final  146.26 input   59.86 | X-H torsion
[ 10167 10162 10161 10158 ] final   -4.76 input  -65.29 | X-H torsion
[ 10718 10713 10712 10709 ] final  164.06 input   66.30 | X-H torsion
[ 10763 10752 10751 10750 ] final  171.95 input  -60.55 | X-H torsion
[ 11005 11000 10999 10996 ] final  -34.81 input  -57.11 | X-H torsion

> <Gold.Protein.ActiveResidues>
 VAL166  LYS551  ARG553  GLY616  TRP617  ASP618  TYR619  PRO620  LYS621  CYS622 
 ASP623  PHE694  ASN695  SER759  ASP760  ASP761  ALA762  ILE779  LEU786  VAL792 
 PHE793  MET794  SER795  GLU796  ALA797  LYS798  CYS799  TRP800  GLU811  SER814 

> <Gold.Protein.RotatedAtoms>
  152.0472  133.4003  159.4361 H   0  0  0  0  0  0  0  0  0  0  0  0  # atno 6907 bound_to 6896
  150.6872  134.3348  159.4852 H   0  0  0  0  0  0  0  0  0  0  0  0  # atno 6908 bound_to 6896
  152.1154  134.9244  160.0616 H   0  0  0  0  0  0  0  0  0  0  0  0  # atno 6909 bound_to 6896
  146.1499  139.6552  142.9106 H   0  0  0  0  0  0  0  0  0  0  0  0  # atno 7974 bound_to 7965
  156.2860  140.2187  156.5348 H   0  0  0  0  0  0  0  0  0  0  0  0  # atno 8008 bound_to 7997
  154.7419  140.0487  157.0840 H   0  0  0  0  0  0  0  0  0  0  0  0  # atno 8009 bound_to 7997
  155.0220  140.3125  155.4793 H   0  0  0  0  0  0  0  0  0  0  0  0  # atno 8010 bound_to 7997
  140.6939  143.6386  150.8456 H   0  0  0  0  0  0  0  0  0  0  0  0  # atno 10167 bound_to 10162
  157.0997  131.0440  151.2503 H   0  0  0  0  0  0  0  0  0  0  0  0  # atno 10718 bound_to 10713
  154.4192  135.2757  155.1986 H   0  0  0  0  0  0  0  0  0  0  0  0  # atno 10763 bound_to 10752
  154.3939  135.6060  153.5862 H   0  0  0  0  0  0  0  0  0  0  0  0  # atno 10764 bound_to 10752
  152.9832  135.5910  154.4485 H   0  0  0  0  0  0  0  0  0  0  0  0  # atno 10765 bound_to 10752
  140.9746  133.7090  156.1581 H   0  0  0  0  0  0  0  0  0  0  0  0  # atno 11005 bound_to 11000
  145.4848  141.0438  143.2625 LP  0  0  0  0  0  0  0  0  0  0  0  0  # atno 17320 bound_to 7965
  144.7891  139.6365  143.7121 LP  0  0  0  0  0  0  0  0  0  0  0  0  # atno 17321 bound_to 7965
  140.0102  143.5650  152.2842 LP  0  0  0  0  0  0  0  0  0  0  0  0  # atno 17342 bound_to 10162
  139.6371  144.7651  151.2414 LP  0  0  0  0  0  0  0  0  0  0  0  0  # atno 17343 bound_to 10162
  157.4651  130.7676  149.7271 LP  0  0  0  0  0  0  0  0  0  0  0  0  # atno 17370 bound_to 10713
  155.9876  130.3965  150.3154 LP  0  0  0  0  0  0  0  0  0  0  0  0  # atno 17371 bound_to 10713
  140.7278  134.4288  157.5569 LP  0  0  0  0  0  0  0  0  0  0  0  0  # atno 17394 bound_to 11000
  139.8925  134.8752  156.2265 LP  0  0  0  0  0  0  0  0  0  0  0  0  # atno 17395 bound_to 11000

$$$$
