AV-unprocessed.smi:2855|AV-procd|sdf|10983|dock4
  -GOLD-   2272015433D 1   1.00000     0.00000
 Structure written by MMmdl.
 47 48  0  0  0  0  0  0  0  0  1 V2000
  151.0252  142.3311  158.1758 C   0  0  0  0  0  0  0  0  0  0  0  0
  149.7159  141.5734  157.9135 C   0  0  2  0  0  0  0  0  0  0  0  0
  149.7857  140.7579  156.6054 C   0  0  0  0  0  0  0  0  0  0  0  0
  148.4475  140.0622  156.2863 C   0  0  0  0  0  0  0  0  0  0  0  0
  147.2717  141.0686  156.2034 C   0  0  2  0  0  0  0  0  0  0  0  0
  147.3620  142.0107  154.9506 C   0  0  0  0  0  0  0  0  0  0  0  0
  146.1163  142.8894  154.7238 C   0  0  0  0  0  0  0  0  0  0  0  0
  147.6383  141.2271  153.6512 C   0  0  0  0  0  0  0  0  0  0  0  0
  147.2055  141.7578  157.5992 C   0  0  2  0  0  0  0  0  0  0  0  0
  146.0331  142.6023  157.7987 N   0  0  0  0  0  0  0  0  0  0  0  0
  145.4686  142.9034  158.9810 C   0  0  0  0  0  0  0  0  0  0  0  0
  145.9060  142.4875  160.0533 O   0  0  0  0  0  0  0  0  0  0  0  0
  144.2140  143.7942  158.9817 C   0  0  0  0  0  0  0  0  0  0  0  0
  144.3824  145.1030  158.3274 N   0  0  0  0  0  0  0  0  0  0  0  0
  143.7700  145.3554  157.1080 C   0  0  0  0  0  0  0  0  0  0  0  0
  143.8880  146.5285  156.4423 C   0  0  0  0  0  0  0  0  0  0  0  0
  144.6894  147.6146  156.9961 C   0  0  0  0  0  0  0  0  0  0  0  0
  144.8579  148.7119  156.4691 O   0  0  0  0  0  0  0  0  0  0  0  0
  145.2882  147.3231  158.2247 N   0  0  0  0  0  0  0  0  0  0  0  0
  145.1712  146.1162  158.9156 C   0  0  0  0  0  0  0  0  0  0  0  0
  145.7497  145.9604  159.9901 O   0  0  0  0  0  0  0  0  0  0  0  0
  148.5022  142.5257  157.9127 C   0  0  0  0  0  0  0  0  0  0  0  0
  145.8538  148.0455  158.6464 H   0  0  0  0  0  0  0  0  0  0  0  0
  151.2272  143.0576  157.3880 H   0  0  0  0  0  0  0  0  0  0  0  0
  151.8724  141.6462  158.2228 H   0  0  0  0  0  0  0  0  0  0  0  0
  150.9844  142.8696  159.1229 H   0  0  0  0  0  0  0  0  0  0  0  0
  149.5785  140.8667  158.7334 H   0  0  0  0  0  0  0  0  0  0  0  0
  150.0729  141.4060  155.7773 H   0  0  0  0  0  0  0  0  0  0  0  0
  150.5727  140.0072  156.6839 H   0  0  0  0  0  0  0  0  0  0  0  0
  148.5365  139.4668  155.3793 H   0  0  0  0  0  0  0  0  0  0  0  0
  148.2382  139.3343  157.0716 H   0  0  0  0  0  0  0  0  0  0  0  0
  146.3612  140.4787  156.0873 H   0  0  0  0  0  0  0  0  0  0  0  0
  148.1993  142.6952  155.0817 H   0  0  0  0  0  0  0  0  0  0  0  0
  145.1984  142.3015  154.7571 H   0  0  0  0  0  0  0  0  0  0  0  0
  146.1518  143.3885  153.7550 H   0  0  0  0  0  0  0  0  0  0  0  0
  146.0456  143.6858  155.4626 H   0  0  0  0  0  0  0  0  0  0  0  0
  146.9004  140.4391  153.4982 H   0  0  0  0  0  0  0  0  0  0  0  0
  148.6278  140.7717  153.6496 H   0  0  0  0  0  0  0  0  0  0  0  0
  147.6073  141.8808  152.7791 H   0  0  0  0  0  0  0  0  0  0  0  0
  147.1324  140.9702  158.3524 H   0  0  0  0  0  0  0  0  0  0  0  0
  145.6081  142.9866  156.9673 H   0  0  0  0  0  0  0  0  0  0  0  0
  143.4084  143.2406  158.4967 H   0  0  0  0  0  0  0  0  0  0  0  0
  143.8835  143.9253  160.0135 H   0  0  0  0  0  0  0  0  0  0  0  0
  143.1705  144.5772  156.6572 H   0  0  0  0  0  0  0  0  0  0  0  0
  143.3876  146.6638  155.4941 H   0  0  0  0  0  0  0  0  0  0  0  0
  148.4187  143.0017  158.8909 H   0  0  0  0  0  0  0  0  0  0  0  0
  148.6500  143.3326  157.1947 H   0  0  0  0  0  0  0  0  0  0  0  0
  1  2  1  0  0  0  0
  1 24  1  0  0  0  0
  1 25  1  0  0  0  0
  1 26  1  0  0  0  0
  2 22  1  0  0  0  0
  2  3  1  0  0  0  0
  2 27  1  0  0  0  0
  3  4  1  0  0  0  0
  3 28  1  0  0  0  0
  3 29  1  0  0  0  0
  4  5  1  0  0  0  0
  4 30  1  0  0  0  0
  4 31  1  0  0  0  0
  5  6  1  0  0  0  0
  5  9  1  0  0  0  0
  5 32  1  0  0  0  0
  6  7  1  0  0  0  0
  6  8  1  0  0  0  0
  6 33  1  0  0  0  0
  7 34  1  0  0  0  0
  7 35  1  0  0  0  0
  7 36  1  0  0  0  0
  8 37  1  0  0  0  0
  8 38  1  0  0  0  0
  8 39  1  0  0  0  0
  9 10  1  0  0  0  0
  9 22  1  0  0  0  0
  9 40  1  0  0  0  0
 10 11  1  0  0  0  0
 10 41  1  0  0  0  0
 11 12  2  0  0  0  0
 11 13  1  0  0  0  0
 13 14  1  0  0  0  0
 13 42  1  0  0  0  0
 13 43  1  0  0  0  0
 14 20  1  0  0  0  0
 14 15  1  0  0  0  0
 15 16  2  0  0  0  0
 15 44  1  0  0  0  0
 16 17  1  0  0  0  0
 16 45  1  0  0  0  0
 17 18  2  0  0  0  0
 17 19  1  0  0  0  0
 19 23  1  0  0  0  0
 19 20  1  0  0  0  0
 20 21  2  0  0  0  0
 22 46  1  0  0  0  0
 22 47  1  0  0  0  0
M  END
> <s_m_source_file>
AV-unprocessed.smi

> <i_m_source_file_index>
2855

> <i_lp_mmshare_version>
43012

> <i_f3d_flags>
0

> <s_epik_input>
W0NIM11bQ0BASF0xW0NIMl1bQ0gyXVtDQEBIXShbQ0hdKFtDSDNdKVtDSDNdKVtDQEhdKFtDSDJdMSlbTkhdQyg9TylbQ0gyXW4yW2NIXVtjSF1jKD1PKVtuSF1jMj1P

> <s_epik_cmdline>
J2VwaWtfcHl0aG9uJywgJy1waCcsICc3LjAnLCAnLXRuJywgJzgnLCAnLW1hJywgJzIwMCcsICctbWV0YWxfYmluZGluZycsICctaW1hZScsICc8aW5maWxlLm1hZT4nLCAnLW9tYWUnLCAnPG91dGZpbGUubWFlPic=

> <r_lp_tautomer_probability>
0.999537

> <r_epik_Ionization_Penalty>
0.00306256

> <r_epik_Ionization_Penalty_Charging>
0.00306254

> <r_epik_Ionization_Penalty_Neutral>
2.0223e-08

> <r_epik_State_Penalty>
0.0021533

> <r_epik_Charging_Adjusted_Penalty>
0.00521583

> <i_epik_Tot_Q>
0

> <i_epik_Tot_abs_Q>
0

> <r_epik_Metal_State_Penalty>
0.362116

> <b_epik_Metal_Only>
0

> <s_lp_Force_Field>
OPLS_2005

> <r_lp_Energy>
18.1406

> <b_lp_Chiralities_Consistent>
1

> <s_lp_Variant>
AV-unprocessed.smi:2855-7

> <Gold.Version>
5.8.1

> <Gold.Id.Protein>
6NUR|6NUR_protein|mol2

> <Gold.PLP.Fitness>
31.3605

> <Gold.PLP.PLP>
-29.3374

> <Gold.PLP.part.hbond>
-2.9840

> <Gold.PLP.part.metal>
0.0000

> <Gold.PLP.part.buried>
-4.7694

> <Gold.PLP.part.nonpolar>
-22.4435

> <Gold.PLP.part.repulsive>
0.4468

> <Gold.PLP.ligand.clash>
0.0000

> <Gold.PLP.ligand.torsion>
0.5088

> <Gold.PLP.Chemscore.Hbond>
1.0000

> <Gold.PLP.Chemscore.CHOScore>
0.0000

> <Gold.PLP.Chemscore.Metal>
0.0000

> <Gold.Chemscore.Hbonds>
donor molecule, donor type, donor heavy atom, donor atom, acceptor molecule, acceptor atom, score
      P1  H  6934  6946       L1    12  1.00

> <Gold.PLP.Chemscore.Internal.Correction>
0.0407

> <Gold.Rescore>
     Score         DG    S(hbond)    S(metal)    S(lipo)     H(rot)  DE(clash)    DE(int)     intcor
      9.92     -10.49       1.00        0.00      54.82       1.85       0.05       0.52       ----

> <Gold.Chemscore.Fitness>
9.9213

> <Gold.Chemscore.DG>
-10.4880

> <Gold.Chemscore.ZeroCoef>
-5.4800

> <Gold.Chemscore.Hbond>
1.0000

> <Gold.Chemscore.Metal>
0.0000

> <Gold.Chemscore.Lipo>
54.8204

> <Gold.Chemscore.Internal_Hbond>
0.0000

> <Gold.Chemscore.DEClash>
0.0502

> <Gold.Chemscore.DEInternal>
0.5165

> <Gold.Chemscore.Rot>
1.8539

> <Gold.Chemscore.Internal.Correction>
   9.000000E+99

> <Gold.Chemscore.Hbonds>
donor molecule, donor type, donor heavy atom, donor atom, acceptor molecule, acceptor atom, score
      P1  H  6934  6946       L1    12  0.94

> <Gold.Chemscore.Hbond.Weighted>
-3.3400

> <Gold.Chemscore.Metal.Weighted>
-0.0000

> <Gold.Chemscore.Lipo.Weighted>
-6.4140

> <Gold.Chemscore.Internal_Hbond.Weighted>
0.0000

> <Gold.Chemscore.DEClash.Weighted>
0.0502

> <Gold.Chemscore.DEInternal.Weighted>
0.5165

> <Gold.Chemscore.Rot.Weighted>
4.7460

> <Gold.Chemscore.Internal.Correction.Weighted>
   9.000000E+99

> <Gold.Protein.RotatedTorsions>
[ 6907 6896 6895 6894 ] final  -11.74 input  -60.11 | X-H torsion
[ 7974 7965 7964 7962 ] final  -98.83 input  175.53 | X-H torsion
[ 8008 7997 7996 7995 ] final  -56.31 input   59.86 | X-H torsion
[ 10167 10162 10161 10158 ] final   87.11 input  -65.29 | X-H torsion
[ 10718 10713 10712 10709 ] final   15.03 input   66.30 | X-H torsion
[ 10763 10752 10751 10750 ] final  -95.30 input  -60.55 | X-H torsion
[ 11005 11000 10999 10996 ] final  -80.45 input  -57.11 | X-H torsion

> <Gold.Protein.ActiveResidues>
 VAL166  LYS551  ARG553  GLY616  TRP617  ASP618  TYR619  PRO620  LYS621  CYS622 
 ASP623  PHE694  ASN695  SER759  ASP760  ASP761  ALA762  ILE779  LEU786  VAL792 
 PHE793  MET794  SER795  GLU796  ALA797  LYS798  CYS799  TRP800  GLU811  SER814 

> <Gold.Protein.RotatedAtoms>
  151.3815  135.0940  159.9497 H   0  0  0  0  0  0  0  0  0  0  0  0  # atno 6907 bound_to 6896
  152.5107  133.9067  159.7478 H   0  0  0  0  0  0  0  0  0  0  0  0  # atno 6908 bound_to 6896
  150.9502  133.6503  159.2802 H   0  0  0  0  0  0  0  0  0  0  0  0  # atno 6909 bound_to 6896
  145.3155  140.9410  143.2745 H   0  0  0  0  0  0  0  0  0  0  0  0  # atno 7974 bound_to 7965
  154.4225  140.1132  156.5617 H   0  0  0  0  0  0  0  0  0  0  0  0  # atno 8008 bound_to 7997
  155.6304  140.3495  155.4662 H   0  0  0  0  0  0  0  0  0  0  0  0  # atno 8009 bound_to 7997
  155.9952  140.1188  157.0590 H   0  0  0  0  0  0  0  0  0  0  0  0  # atno 8010 bound_to 7997
  139.8807  144.6442  150.8846 H   0  0  0  0  0  0  0  0  0  0  0  0  # atno 10167 bound_to 10162
  157.0477  130.6257  149.5762 H   0  0  0  0  0  0  0  0  0  0  0  0  # atno 10718 bound_to 10713
  154.7135  135.5126  153.8703 H   0  0  0  0  0  0  0  0  0  0  0  0  # atno 10763 bound_to 10752
  153.0801  135.6628  154.0072 H   0  0  0  0  0  0  0  0  0  0  0  0  # atno 10764 bound_to 10752
  153.9909  135.3020  155.3391 H   0  0  0  0  0  0  0  0  0  0  0  0  # atno 10765 bound_to 10752
  141.1668  133.7151  156.8274 H   0  0  0  0  0  0  0  0  0  0  0  0  # atno 11005 bound_to 11000
  144.8981  139.4685  143.6646 LP  0  0  0  0  0  0  0  0  0  0  0  0  # atno 17320 bound_to 7965
  146.3102  139.7719  142.9026 LP  0  0  0  0  0  0  0  0  0  0  0  0  # atno 17321 bound_to 7965
  140.7745  143.3588  151.1868 LP  0  0  0  0  0  0  0  0  0  0  0  0  # atno 17342 bound_to 10162
  139.7199  143.9241  152.2981 LP  0  0  0  0  0  0  0  0  0  0  0  0  # atno 17343 bound_to 10162
  156.0018  130.5098  150.7689 LP  0  0  0  0  0  0  0  0  0  0  0  0  # atno 17370 bound_to 10713
  157.5055  131.0922  151.0262 LP  0  0  0  0  0  0  0  0  0  0  0  0  # atno 17371 bound_to 10713
  140.2075  134.8852  157.3238 LP  0  0  0  0  0  0  0  0  0  0  0  0  # atno 17394 bound_to 11000
  140.2121  134.4125  155.7607 LP  0  0  0  0  0  0  0  0  0  0  0  0  # atno 17395 bound_to 11000

$$$$
