AV-unprocessed.smi:890|AV-procd|sdf|4058|dock10
  -GOLD-   22720 1543D 1   1.00000     0.00000
 Structure written by MMmdl.
 52 55  0  0  0  0  0  0  0  0  2 V2000
  145.7555  139.0700  153.1815 O   0  0  0  0  0  0  0  0  0  0  0  0
  146.6869  138.2841  153.0084 C   0  0  0  0  0  0  0  0  0  0  0  0
  147.9658  138.5040  153.3566 N   0  0  0  0  0  0  0  0  0  0  0  0
  148.5322  139.6605  153.9668 C   0  0  0  0  0  0  0  0  0  0  0  0
  147.8161  140.8743  154.1117 C   0  0  0  0  0  0  0  0  0  0  0  0
  148.4316  141.9636  154.7531 C   0  0  0  0  0  0  0  0  0  0  0  0
  149.7405  141.7995  155.2377 C   0  0  0  0  0  0  0  0  0  0  0  0
  150.4298  140.6466  155.1228 N   0  0  0  0  0  0  0  0  0  0  0  0
  149.8441  139.5888  154.5097 C   0  0  0  0  0  0  0  0  0  0  0  0
  150.6012  138.4050  154.3827 N   0  0  0  0  0  0  0  0  0  0  0  0
  152.0130  138.5746  154.7172 C   0  0  0  0  0  0  0  0  0  0  0  0
  152.4524  137.2829  155.4089 C   0  0  0  0  0  0  0  0  0  0  0  0
  151.1607  136.7721  156.0346 C   0  0  0  0  0  0  0  0  0  0  0  0
  150.1130  137.1706  154.9967 C   0  0  0  0  0  0  0  0  0  0  0  0
  146.5419  137.0881  152.4196 N   0  0  0  0  0  0  0  0  0  0  0  0
  145.2772  136.5435  151.9336 C   0  0  2  0  0  0  0  0  0  0  0  0
  144.7771  135.4422  152.8827 C   0  0  0  0  0  0  0  0  0  0  0  0
  143.4750  134.8074  152.3576 C   0  0  0  0  0  0  0  0  0  0  0  0
  143.6212  134.2894  150.9725 N   0  3  2  0  0  0  0  0  0  0  0  0
  144.3873  133.0233  150.8977 C   0  0  0  0  0  0  0  0  0  0  0  0
  144.5302  132.4841  149.4930 C   0  0  0  0  0  0  0  0  0  0  0  0
  143.5585  131.8398  150.4562 C   0  0  0  0  0  0  0  0  0  0  0  0
  144.1118  135.3299  150.0322 C   0  0  0  0  0  0  0  0  0  0  0  0
  145.4271  135.9718  150.5112 C   0  0  0  0  0  0  0  0  0  0  0  0
  148.6320  137.8002  153.0732 H   0  0  0  0  0  0  0  0  0  0  0  0
  146.8025  140.9862  153.7592 H   0  0  0  0  0  0  0  0  0  0  0  0
  147.9096  142.9009  154.8750 H   0  0  0  0  0  0  0  0  0  0  0  0
  150.2458  142.6133  155.7363 H   0  0  0  0  0  0  0  0  0  0  0  0
  152.6087  138.7690  153.8251 H   0  0  0  0  0  0  0  0  0  0  0  0
  152.1404  139.4212  155.3941 H   0  0  0  0  0  0  0  0  0  0  0  0
  152.8092  136.5674  154.6666 H   0  0  0  0  0  0  0  0  0  0  0  0
  153.2485  137.4410  156.1366 H   0  0  0  0  0  0  0  0  0  0  0  0
  151.1746  135.7006  156.2351 H   0  0  0  0  0  0  0  0  0  0  0  0
  150.9708  137.2932  156.9741 H   0  0  0  0  0  0  0  0  0  0  0  0
  149.1172  137.2439  155.4341 H   0  0  0  0  0  0  0  0  0  0  0  0
  150.0587  136.4121  154.2152 H   0  0  0  0  0  0  0  0  0  0  0  0
  147.3617  136.5083  152.3132 H   0  0  0  0  0  0  0  0  0  0  0  0
  144.5336  137.3432  151.9190 H   0  0  0  0  0  0  0  0  0  0  0  0
  145.5427  134.6740  153.0010 H   0  0  0  0  0  0  0  0  0  0  0  0
  144.6055  135.8569  153.8767 H   0  0  0  0  0  0  0  0  0  0  0  0
  143.1465  134.0071  153.0219 H   0  0  0  0  0  0  0  0  0  0  0  0
  142.6802  135.5544  152.3620 H   0  0  0  0  0  0  0  0  0  0  0  0
  145.1909  132.8911  151.6193 H   0  0  0  0  0  0  0  0  0  0  0  0
  144.1125  133.0641  148.6717 H   0  0  0  0  0  0  0  0  0  0  0  0
  145.4379  131.9326  149.2571 H   0  0  0  0  0  0  0  0  0  0  0  0
  143.8259  130.8630  150.8540 H   0  0  0  0  0  0  0  0  0  0  0  0
  142.4962  131.9923  150.2737 H   0  0  0  0  0  0  0  0  0  0  0  0
  144.2369  134.9042  149.0360 H   0  0  0  0  0  0  0  0  0  0  0  0
  143.3444  136.0999  149.9417 H   0  0  0  0  0  0  0  0  0  0  0  0
  145.7167  136.7603  149.8158 H   0  0  0  0  0  0  0  0  0  0  0  0
  146.2311  135.2349  150.4869 H   0  0  0  0  0  0  0  0  0  0  0  0
  142.6892  134.0522  150.6636 H   0  0  0  0  0  0  0  0  0  0  0  0
  1  2  2  0  0  0  0
  2  3  1  0  0  0  0
  2 15  1  0  0  0  0
  3  4  1  0  0  0  0
  3 25  1  0  0  0  0
  4  9  1  0  0  0  0
  4  5  2  0  0  0  0
  5  6  1  0  0  0  0
  5 26  1  0  0  0  0
  6  7  2  0  0  0  0
  6 27  1  0  0  0  0
  7  8  1  0  0  0  0
  7 28  1  0  0  0  0
  8  9  2  0  0  0  0
  9 10  1  0  0  0  0
 10 14  1  0  0  0  0
 10 11  1  0  0  0  0
 11 12  1  0  0  0  0
 11 29  1  0  0  0  0
 11 30  1  0  0  0  0
 12 13  1  0  0  0  0
 12 31  1  0  0  0  0
 12 32  1  0  0  0  0
 13 14  1  0  0  0  0
 13 33  1  0  0  0  0
 13 34  1  0  0  0  0
 14 35  1  0  0  0  0
 14 36  1  0  0  0  0
 15 16  1  0  0  0  0
 15 37  1  0  0  0  0
 16 24  1  0  0  0  0
 16 17  1  0  0  0  0
 16 38  1  0  0  0  0
 17 18  1  0  0  0  0
 17 39  1  0  0  0  0
 17 40  1  0  0  0  0
 18 19  1  0  0  0  0
 18 41  1  0  0  0  0
 18 42  1  0  0  0  0
 19 20  1  0  0  0  0
 19 23  1  0  0  0  0
 19 52  1  0  0  0  0
 20 22  1  0  0  0  0
 20 21  1  0  0  0  0
 20 43  1  0  0  0  0
 21 22  1  0  0  0  0
 21 44  1  0  0  0  0
 21 45  1  0  0  0  0
 22 46  1  0  0  0  0
 22 47  1  0  0  0  0
 23 24  1  0  0  0  0
 23 48  1  0  0  0  0
 23 49  1  0  0  0  0
 24 50  1  0  0  0  0
 24 51  1  0  0  0  0
M  CHG  1  19   1
M  END
> <s_m_source_file>
AV-unprocessed.smi

> <i_m_source_file_index>
890

> <i_lp_mmshare_version>
43012

> <i_f3d_flags>
0

> <s_epik_input>
W0NIMl0xW0NIMl1bQ0hdMU4oW0NIMl1bQ0gyXTIpW0NIMl1bQ0gyXVtDSF0yW05IXUMoPU8pW05IXWMzW2NIXVtjSF1bY0hdbmMzTjRbQ0gyXVtDSDJdW0NIMl1bQ0gyXTQ=

> <s_epik_cmdline>
J2VwaWtfcHl0aG9uJywgJy1waCcsICc3LjAnLCAnLXRuJywgJzgnLCAnLW1hJywgJzIwMCcsICctbWV0YWxfYmluZGluZycsICctaW1hZScsICc8aW5maWxlLm1hZT4nLCAnLW9tYWUnLCAnPG91dGZpbGUubWFlPic=

> <r_lp_tautomer_probability>
1

> <r_epik_Ionization_Penalty>
0.193768

> <r_epik_Ionization_Penalty_Charging>
0.115549

> <r_epik_Ionization_Penalty_Neutral>
0.078219

> <r_epik_State_Penalty>
0.174811

> <r_epik_Charging_Adjusted_Penalty>
0.29036

> <i_epik_Tot_Q>
1

> <i_epik_Tot_abs_Q>
1

> <r_epik_Metal_State_Penalty>
0.169761

> <b_epik_Metal_Only>
0

> <s_lp_Force_Field>
OPLS_2005

> <r_lp_Energy>
56.2334

> <b_lp_Chiralities_Consistent>
1

> <s_lp_Variant>
AV-unprocessed.smi:890-2

> <Gold.Version>
5.8.1

> <Gold.Id.Protein>
6NUR|6NUR_protein|mol2

> <Gold.PLP.Fitness>
48.0116

> <Gold.PLP.PLP>
-34.0145

> <Gold.PLP.part.hbond>
-4.7044

> <Gold.PLP.part.metal>
0.0000

> <Gold.PLP.part.buried>
4.4507

> <Gold.PLP.part.nonpolar>
-38.4529

> <Gold.PLP.part.repulsive>
3.9106

> <Gold.PLP.ligand.clash>
0.0000

> <Gold.PLP.ligand.torsion>
1.0773

> <Gold.PLP.Chemscore.Hbond>
4.2855

> <Gold.PLP.Chemscore.CHOScore>
0.6354

> <Gold.PLP.Chemscore.Metal>
0.0000

> <Gold.Chemscore.Hbonds>
donor molecule, donor type, donor heavy atom, donor atom, acceptor molecule, acceptor atom, score
      L1  H     3    25       P1  7948  0.91
      L1  H    15    37       P1  7948  1.00
      L1  H    19    52       P1 10186  1.92
      P1  H  7989  7998       L1     8  0.41
      L1  C     7    28       P1  8028  0.63

> <Gold.PLP.Chemscore.Internal.Correction>
1.3889

> <Gold.Rescore>
     Score         DG    S(hbond)    S(metal)    S(lipo)     H(rot)  DE(clash)    DE(int)     intcor
     16.91     -23.71       2.59        0.00     111.03       1.33       3.75       3.05       ----

> <Gold.Chemscore.Fitness>
16.9112

> <Gold.Chemscore.DG>
-23.7134

> <Gold.Chemscore.ZeroCoef>
-5.4800

> <Gold.Chemscore.Hbond>
2.5886

> <Gold.Chemscore.Metal>
0.0000

> <Gold.Chemscore.Lipo>
111.0322

> <Gold.Chemscore.Internal_Hbond>
0.0000

> <Gold.Chemscore.DEClash>
3.7498

> <Gold.Chemscore.DEInternal>
3.0524

> <Gold.Chemscore.Rot>
1.3294

> <Gold.Chemscore.Internal.Correction>
   9.000000E+99

> <Gold.Chemscore.Hbonds>
donor molecule, donor type, donor heavy atom, donor atom, acceptor molecule, acceptor atom, score
      L1  H     3    25       P1  7948  0.87
      L1  H    15    37       P1  7948  0.97
      L1  H    19    52       P1 10186  0.65
      P1  H  7989  7998       L1     8  0.01

> <Gold.Chemscore.Hbond.Weighted>
-8.6458

> <Gold.Chemscore.Metal.Weighted>
-0.0000

> <Gold.Chemscore.Lipo.Weighted>
-12.9908

> <Gold.Chemscore.Internal_Hbond.Weighted>
0.0000

> <Gold.Chemscore.DEClash.Weighted>
3.7498

> <Gold.Chemscore.DEInternal.Weighted>
3.0524

> <Gold.Chemscore.Rot.Weighted>
3.4032

> <Gold.Chemscore.Internal.Correction.Weighted>
   9.000000E+99

> <Gold.Protein.RotatedTorsions>
[ 6907 6896 6895 6894 ] final -158.12 input  -60.11 | X-H torsion
[ 7974 7965 7964 7962 ] final   42.47 input  175.53 | X-H torsion
[ 8008 7997 7996 7995 ] final  -85.35 input   59.86 | X-H torsion
[ 10167 10162 10161 10158 ] final  100.26 input  -65.29 | X-H torsion
[ 10718 10713 10712 10709 ] final -179.61 input   66.30 | X-H torsion
[ 10763 10752 10751 10750 ] final -173.03 input  -60.55 | X-H torsion
[ 11005 11000 10999 10996 ] final -165.83 input  -57.11 | X-H torsion

> <Gold.Protein.ActiveResidues>
 VAL166  LYS551  ARG553  GLY616  TRP617  ASP618  TYR619  PRO620  LYS621  CYS622 
 ASP623  PHE694  ASN695  SER759  ASP760  ASP761  ALA762  ILE779  LEU786  VAL792 
 PHE793  MET794  SER795  GLU796  ALA797  LYS798  CYS799  TRP800  GLU811  SER814 

> <Gold.Protein.RotatedAtoms>
  151.3133  133.4071  159.2648 H   0  0  0  0  0  0  0  0  0  0  0  0  # atno 6907 bound_to 6896
  151.0095  134.9386  159.8010 H   0  0  0  0  0  0  0  0  0  0  0  0  # atno 6908 bound_to 6896
  152.5297  134.3098  159.9162 H   0  0  0  0  0  0  0  0  0  0  0  0  # atno 6909 bound_to 6896
  146.0737  139.5296  142.9581 H   0  0  0  0  0  0  0  0  0  0  0  0  # atno 7974 bound_to 7965
  154.6398  140.0593  156.9831 H   0  0  0  0  0  0  0  0  0  0  0  0  # atno 8008 bound_to 7997
  155.1535  140.3276  155.4407 H   0  0  0  0  0  0  0  0  0  0  0  0  # atno 8009 bound_to 7997
  156.2525  140.1943  156.6646 H   0  0  0  0  0  0  0  0  0  0  0  0  # atno 8010 bound_to 7997
  139.7543  144.6974  151.0385 H   0  0  0  0  0  0  0  0  0  0  0  0  # atno 10167 bound_to 10162
  156.8617  130.9754  151.3082 H   0  0  0  0  0  0  0  0  0  0  0  0  # atno 10718 bound_to 10713
  154.6125  135.2866  155.0416 H   0  0  0  0  0  0  0  0  0  0  0  0  # atno 10763 bound_to 10752
  154.1640  135.6483  153.4997 H   0  0  0  0  0  0  0  0  0  0  0  0  # atno 10764 bound_to 10752
  153.0201  135.5385  154.6884 H   0  0  0  0  0  0  0  0  0  0  0  0  # atno 10765 bound_to 10752
  140.5713  134.5235  157.5162 H   0  0  0  0  0  0  0  0  0  0  0  0  # atno 11005 bound_to 11000
  145.6345  141.0297  143.1845 LP  0  0  0  0  0  0  0  0  0  0  0  0  # atno 17320 bound_to 7965
  144.7248  139.7912  143.7369 LP  0  0  0  0  0  0  0  0  0  0  0  0  # atno 17321 bound_to 7965
  140.7801  143.4771  151.0067 LP  0  0  0  0  0  0  0  0  0  0  0  0  # atno 17342 bound_to 10162
  139.8459  143.7503  152.3179 LP  0  0  0  0  0  0  0  0  0  0  0  0  # atno 17343 bound_to 10162
  157.6246  130.8682  149.9168 LP  0  0  0  0  0  0  0  0  0  0  0  0  # atno 17370 bound_to 10713
  156.0773  130.3677  150.0651 LP  0  0  0  0  0  0  0  0  0  0  0  0  # atno 17371 bound_to 10713
  139.9360  134.7874  156.0801 LP  0  0  0  0  0  0  0  0  0  0  0  0  # atno 17394 bound_to 11000
  141.1054  133.6662  156.2852 LP  0  0  0  0  0  0  0  0  0  0  0  0  # atno 17395 bound_to 11000

$$$$
