AV-unprocessed.smi:3345|AV-procd|sdf|12899|dock10
  -GOLD-   2272019313D 1   1.00000     0.00000
 Structure written by MMmdl.
 40 41  0  0  0  0  0  0  0  0  1 V2000
  151.3635  142.8289  157.2242 C   0  0  0  0  0  0  0  0  0  0  0  0
  151.2767  141.5688  158.0950 C   0  0  2  0  0  0  0  0  0  0  0  0
  152.6343  141.2339  158.7501 C   0  0  0  0  0  0  0  0  0  0  0  0
  152.7278  141.5187  160.1840 N   0  0  0  0  0  0  0  0  0  0  0  0
  152.4709  142.9212  160.5016 C   0  0  0  0  0  0  0  0  0  0  0  0
  152.5740  143.1914  162.0124 C   0  0  0  0  0  0  0  0  0  0  0  0
  153.8559  142.7889  162.4842 O   0  0  0  0  0  0  0  0  0  0  0  0
  154.1294  141.4149  162.2296 C   0  0  0  0  0  0  0  0  0  0  0  0
  154.0301  141.1401  160.7191 C   0  0  0  0  0  0  0  0  0  0  0  0
  150.8411  140.4394  157.2774 N   0  0  0  0  0  0  0  0  0  0  0  0
  151.4142  140.0289  156.1345 C   0  0  0  0  0  0  0  0  0  0  0  0
  152.4963  140.4528  155.7273 O   0  0  0  0  0  0  0  0  0  0  0  0
  150.6054  139.0170  155.3096 C   0  0  2  0  0  0  0  0  0  0  0  0
  151.4747  138.2173  154.3175 C   0  0  0  0  0  0  0  0  0  0  0  0
  149.4986  139.7029  154.6510 N   0  0  0  0  0  0  0  0  0  0  0  0
  148.4594  139.2024  153.9789 C   0  0  0  0  0  0  0  0  0  0  0  0
  147.5921  140.1159  153.5666 N   0  0  0  0  0  0  0  0  0  0  0  0
  148.1908  141.2380  154.0641 C   0  0  0  0  0  0  0  0  0  0  0  0
  149.3286  141.0464  154.7311 N   0  0  0  0  0  0  0  0  0  0  0  0
  151.6789  143.6901  157.8138 H   0  0  0  0  0  0  0  0  0  0  0  0
  150.3951  143.0690  156.7839 H   0  0  0  0  0  0  0  0  0  0  0  0
  152.0781  142.7031  156.4102 H   0  0  0  0  0  0  0  0  0  0  0  0
  150.5494  141.7741  158.8813 H   0  0  0  0  0  0  0  0  0  0  0  0
  152.8217  140.1703  158.5959 H   0  0  0  0  0  0  0  0  0  0  0  0
  153.4330  141.7551  158.2201 H   0  0  0  0  0  0  0  0  0  0  0  0
  153.1803  143.5574  159.9705 H   0  0  0  0  0  0  0  0  0  0  0  0
  151.4769  143.2119  160.1642 H   0  0  0  0  0  0  0  0  0  0  0  0
  152.4341  144.2524  162.2186 H   0  0  0  0  0  0  0  0  0  0  0  0
  151.7942  142.6540  162.5537 H   0  0  0  0  0  0  0  0  0  0  0  0
  155.1287  141.1766  162.5940 H   0  0  0  0  0  0  0  0  0  0  0  0
  153.4286  140.7888  162.7833 H   0  0  0  0  0  0  0  0  0  0  0  0
  154.2123  140.0807  160.5350 H   0  0  0  0  0  0  0  0  0  0  0  0
  154.8174  141.6880  160.1993 H   0  0  0  0  0  0  0  0  0  0  0  0
  149.9593  140.0191  157.5327 H   0  0  0  0  0  0  0  0  0  0  0  0
  150.1694  138.3012  156.0085 H   0  0  0  0  0  0  0  0  0  0  0  0
  152.2577  137.6654  154.8386 H   0  0  0  0  0  0  0  0  0  0  0  0
  151.9589  138.8619  153.5828 H   0  0  0  0  0  0  0  0  0  0  0  0
  150.8720  137.4906  153.7719 H   0  0  0  0  0  0  0  0  0  0  0  0
  148.3291  138.1459  153.7960 H   0  0  0  0  0  0  0  0  0  0  0  0
  147.7702  142.2250  153.9397 H   0  0  0  0  0  0  0  0  0  0  0  0
  1  2  1  0  0  0  0
  1 20  1  0  0  0  0
  1 21  1  0  0  0  0
  1 22  1  0  0  0  0
  2  3  1  0  0  0  0
  2 10  1  0  0  0  0
  2 23  1  0  0  0  0
  3  4  1  0  0  0  0
  3 24  1  0  0  0  0
  3 25  1  0  0  0  0
  4  9  1  0  0  0  0
  4  5  1  0  0  0  0
  5  6  1  0  0  0  0
  5 26  1  0  0  0  0
  5 27  1  0  0  0  0
  6  7  1  0  0  0  0
  6 28  1  0  0  0  0
  6 29  1  0  0  0  0
  7  8  1  0  0  0  0
  8  9  1  0  0  0  0
  8 30  1  0  0  0  0
  8 31  1  0  0  0  0
  9 32  1  0  0  0  0
  9 33  1  0  0  0  0
 10 11  1  0  0  0  0
 10 34  1  0  0  0  0
 11 12  2  0  0  0  0
 11 13  1  0  0  0  0
 13 14  1  0  0  0  0
 13 15  1  0  0  0  0
 13 35  1  0  0  0  0
 14 36  1  0  0  0  0
 14 37  1  0  0  0  0
 14 38  1  0  0  0  0
 15 19  1  0  0  0  0
 15 16  1  0  0  0  0
 16 17  2  0  0  0  0
 16 39  1  0  0  0  0
 17 18  1  0  0  0  0
 18 19  2  0  0  0  0
 18 40  1  0  0  0  0
M  END
> <s_m_source_file>
AV-unprocessed.smi

> <i_m_source_file_index>
3345

> <i_lp_mmshare_version>
43012

> <i_f3d_flags>
0

> <s_epik_input>
W0NIMl0xW0NIMl1PW0NIMl1bQ0gyXU4xW0NIMl1bQ0BASF0oW0NIM10pW05IXUMoPU8pW0NASF0oW0NIM10pbjJbY0hdbltjSF1uMg==

> <s_epik_cmdline>
J2VwaWtfcHl0aG9uJywgJy1waCcsICc3LjAnLCAnLXRuJywgJzgnLCAnLW1hJywgJzIwMCcsICctbWV0YWxfYmluZGluZycsICctaW1hZScsICc8aW5maWxlLm1hZT4nLCAnLW9tYWUnLCAnPG91dGZpbGUubWFlPic=

> <r_lp_tautomer_probability>
1

> <r_epik_Ionization_Penalty>
0.211373

> <r_epik_Ionization_Penalty_Charging>
0

> <r_epik_Ionization_Penalty_Neutral>
0.211373

> <r_epik_State_Penalty>
0.201459

> <r_epik_Charging_Adjusted_Penalty>
0.201459

> <i_epik_Tot_Q>
0

> <i_epik_Tot_abs_Q>
0

> <r_epik_Metal_State_Penalty>
0.201458

> <b_epik_Metal_Only>
0

> <s_lp_Force_Field>
OPLS_2005

> <r_lp_Energy>
29.1887

> <b_lp_Chiralities_Consistent>
1

> <s_lp_Variant>
AV-unprocessed.smi:3345-1

> <Gold.Version>
5.8.1

> <Gold.Id.Protein>
6NUR|6NUR_protein|mol2

> <Gold.PLP.Fitness>
39.9645

> <Gold.PLP.PLP>
-35.7342

> <Gold.PLP.part.hbond>
-2.8896

> <Gold.PLP.part.metal>
0.0000

> <Gold.PLP.part.buried>
-1.1282

> <Gold.PLP.part.nonpolar>
-31.3750

> <Gold.PLP.part.repulsive>
0.8995

> <Gold.PLP.ligand.clash>
0.0000

> <Gold.PLP.ligand.torsion>
1.2807

> <Gold.PLP.Chemscore.Hbond>
1.2121

> <Gold.PLP.Chemscore.CHOScore>
1.0000

> <Gold.PLP.Chemscore.Metal>
0.0000

> <Gold.Chemscore.Hbonds>
donor molecule, donor type, donor heavy atom, donor atom, acceptor molecule, acceptor atom, score
      P1  H  7989  7998       L1    12  0.03
      P1  H  7997  8009       L1    12  1.00
      L1  C    16    39       P1  7948  0.38

> <Gold.PLP.Chemscore.Internal.Correction>
0.1552

> <Gold.Rescore>
     Score         DG    S(hbond)    S(metal)    S(lipo)     H(rot)  DE(clash)    DE(int)     intcor
      8.09     -10.92       0.81        0.00      78.86       2.54       0.30       2.53       ----

> <Gold.Chemscore.Fitness>
8.0923

> <Gold.Chemscore.DG>
-10.9178

> <Gold.Chemscore.ZeroCoef>
-5.4800

> <Gold.Chemscore.Hbond>
0.8087

> <Gold.Chemscore.Metal>
0.0000

> <Gold.Chemscore.Lipo>
78.8634

> <Gold.Chemscore.Internal_Hbond>
0.0000

> <Gold.Chemscore.DEClash>
0.2980

> <Gold.Chemscore.DEInternal>
2.5275

> <Gold.Chemscore.Rot>
2.5353

> <Gold.Chemscore.Internal.Correction>
   9.000000E+99

> <Gold.Chemscore.Hbonds>
donor molecule, donor type, donor heavy atom, donor atom, acceptor molecule, acceptor atom, score
      P1  H  7997  8009       L1    12  0.95

> <Gold.Chemscore.Hbond.Weighted>
-2.7012

> <Gold.Chemscore.Metal.Weighted>
-0.0000

> <Gold.Chemscore.Lipo.Weighted>
-9.2270

> <Gold.Chemscore.Internal_Hbond.Weighted>
0.0000

> <Gold.Chemscore.DEClash.Weighted>
0.2980

> <Gold.Chemscore.DEInternal.Weighted>
2.5275

> <Gold.Chemscore.Rot.Weighted>
6.4905

> <Gold.Chemscore.Internal.Correction.Weighted>
   9.000000E+99

> <Gold.Protein.RotatedTorsions>
[ 6907 6896 6895 6894 ] final  115.70 input  -60.11 | X-H torsion
[ 7974 7965 7964 7962 ] final   54.86 input  175.53 | X-H torsion
[ 8008 7997 7996 7995 ] final -145.10 input   59.86 | X-H torsion
[ 10167 10162 10161 10158 ] final -104.28 input  -65.29 | X-H torsion
[ 10718 10713 10712 10709 ] final   31.96 input   66.30 | X-H torsion
[ 10763 10752 10751 10750 ] final   12.10 input  -60.55 | X-H torsion
[ 11005 11000 10999 10996 ] final  -35.64 input  -57.11 | X-H torsion

> <Gold.Protein.ActiveResidues>
 VAL166  LYS551  ARG553  GLY616  TRP617  ASP618  TYR619  PRO620  LYS621  CYS622 
 ASP623  PHE694  ASN695  SER759  ASP760  ASP761  ALA762  ILE779  LEU786  VAL792 
 PHE793  MET794  SER795  GLU796  ALA797  LYS798  CYS799  TRP800  GLU811  SER814 

> <Gold.Protein.RotatedAtoms>
  152.4725  133.8062  159.6978 H   0  0  0  0  0  0  0  0  0  0  0  0  # atno 6907 bound_to 6896
  150.8722  133.7479  159.2964 H   0  0  0  0  0  0  0  0  0  0  0  0  # atno 6908 bound_to 6896
  151.5011  135.1065  159.9881 H   0  0  0  0  0  0  0  0  0  0  0  0  # atno 6909 bound_to 6896
  145.9564  139.4019  143.0274 H   0  0  0  0  0  0  0  0  0  0  0  0  # atno 7974 bound_to 7965
  155.5377  140.0605  157.2876 H   0  0  0  0  0  0  0  0  0  0  0  0  # atno 8008 bound_to 7997
  154.4463  140.1925  156.0603 H   0  0  0  0  0  0  0  0  0  0  0  0  # atno 8009 bound_to 7997
  156.0607  140.3273  155.7462 H   0  0  0  0  0  0  0  0  0  0  0  0  # atno 8010 bound_to 7997
  140.2110  143.3747  152.1051 H   0  0  0  0  0  0  0  0  0  0  0  0  # atno 10167 bound_to 10162
  157.2791  130.7246  149.6546 H   0  0  0  0  0  0  0  0  0  0  0  0  # atno 10718 bound_to 10713
  153.1857  135.6835  153.8418 H   0  0  0  0  0  0  0  0  0  0  0  0  # atno 10763 bound_to 10752
  153.7734  135.3192  155.3356 H   0  0  0  0  0  0  0  0  0  0  0  0  # atno 10764 bound_to 10752
  154.8087  135.4731  154.0556 H   0  0  0  0  0  0  0  0  0  0  0  0  # atno 10765 bound_to 10752
  140.9812  133.7055  156.1687 H   0  0  0  0  0  0  0  0  0  0  0  0  # atno 11005 bound_to 11000
  145.8100  140.9730  143.0954 LP  0  0  0  0  0  0  0  0  0  0  0  0  # atno 17320 bound_to 7965
  144.6806  139.9909  143.7484 LP  0  0  0  0  0  0  0  0  0  0  0  0  # atno 17321 bound_to 7965
  139.5180  144.7000  151.5522 LP  0  0  0  0  0  0  0  0  0  0  0  0  # atno 17342 bound_to 10162
  140.6324  143.9051  150.6617 LP  0  0  0  0  0  0  0  0  0  0  0  0  # atno 17343 bound_to 10162
  155.9664  130.4343  150.5045 LP  0  0  0  0  0  0  0  0  0  0  0  0  # atno 17370 bound_to 10713
  157.2985  131.0640  151.2084 LP  0  0  0  0  0  0  0  0  0  0  0  0  # atno 17371 bound_to 10713
  140.7183  134.4386  157.5577 LP  0  0  0  0  0  0  0  0  0  0  0  0  # atno 17394 bound_to 11000
  139.8951  134.8691  156.2147 LP  0  0  0  0  0  0  0  0  0  0  0  0  # atno 17395 bound_to 11000

$$$$
