AV-unprocessed.smi:1797|AV-procd|sdf|7256|dock1
  -GOLD-   22720 8503D 1   1.00000     0.00000
 Structure written by MMmdl.
 30 31  0  0  0  0  0  0  0  0  1 V2000
  148.1319  136.1023  159.1869 C   0  0  0  0  0  0  0  0  0  0  0  0
  147.6713  135.7223  157.8212 C   0  0  0  0  0  0  0  0  0  0  0  0
  146.6057  134.9413  157.6110 N   0  0  0  0  0  0  0  0  0  0  0  0
  146.3718  134.7233  156.2609 N   0  0  0  0  0  0  0  0  0  0  0  0
  147.2692  135.3498  155.4861 C   0  0  0  0  0  0  0  0  0  0  0  0
  147.2863  135.3023  154.0614 N   0  0  0  0  0  0  0  0  0  0  0  0
  146.4737  134.6935  153.1711 C   0  0  0  0  0  0  0  0  0  0  0  0
  145.5132  134.0241  153.5475 O   0  0  0  0  0  0  0  0  0  0  0  0
  146.7798  134.8546  151.8732 N   0  0  0  0  0  0  0  0  0  0  0  0
  146.0444  134.2820  150.7506 C   0  0  1  0  0  0  0  0  0  0  0  0
  146.1195  132.7512  150.8091 C   0  0  0  0  0  0  0  0  0  0  0  0
  145.3730  132.1161  149.6254 C   0  0  0  0  0  0  0  0  0  0  0  0
  143.9881  132.7318  149.3760 C   0  0  0  0  0  0  0  0  0  0  0  0
  143.1681  132.1193  148.6958 O   0  0  0  0  0  0  0  0  0  0  0  0
  143.7144  133.9480  149.8799 N   0  0  0  0  0  0  0  0  0  0  0  0
  144.5698  134.7328  150.7697 C   0  0  0  0  0  0  0  0  0  0  0  0
  148.4916  136.2585  156.3603 S   0  0  0  0  0  0  0  0  0  0  0  0
  147.2819  136.3952  159.8039 H   0  0  0  0  0  0  0  0  0  0  0  0
  148.8277  136.9399  159.1333 H   0  0  0  0  0  0  0  0  0  0  0  0
  148.6354  135.2584  159.6585 H   0  0  0  0  0  0  0  0  0  0  0  0
  148.0464  135.8173  153.6415 H   0  0  0  0  0  0  0  0  0  0  0  0
  147.5859  135.4201  151.6476 H   0  0  0  0  0  0  0  0  0  0  0  0
  146.5079  134.6097  149.8177 H   0  0  0  0  0  0  0  0  0  0  0  0
  147.1604  132.4257  150.7999 H   0  0  0  0  0  0  0  0  0  0  0  0
  145.6923  132.3919  151.7469 H   0  0  0  0  0  0  0  0  0  0  0  0
  145.9590  132.2453  148.7149 H   0  0  0  0  0  0  0  0  0  0  0  0
  145.2715  131.0415  149.7806 H   0  0  0  0  0  0  0  0  0  0  0  0
  142.8076  134.3402  149.6709 H   0  0  0  0  0  0  0  0  0  0  0  0
  144.1634  134.6370  151.7775 H   0  0  0  0  0  0  0  0  0  0  0  0
  144.4897  135.7860  150.4991 H   0  0  0  0  0  0  0  0  0  0  0  0
  1  2  1  0  0  0  0
  1 18  1  0  0  0  0
  1 19  1  0  0  0  0
  1 20  1  0  0  0  0
  2 17  1  0  0  0  0
  2  3  2  0  0  0  0
  3  4  1  0  0  0  0
  4  5  2  0  0  0  0
  5  6  1  0  0  0  0
  5 17  1  0  0  0  0
  6  7  1  0  0  0  0
  6 21  1  0  0  0  0
  7  8  2  0  0  0  0
  7  9  1  0  0  0  0
  9 10  1  0  0  0  0
  9 22  1  0  0  0  0
 10 16  1  0  0  0  0
 10 11  1  0  0  0  0
 10 23  1  0  0  0  0
 11 12  1  0  0  0  0
 11 24  1  0  0  0  0
 11 25  1  0  0  0  0
 12 13  1  0  0  0  0
 12 26  1  0  0  0  0
 12 27  1  0  0  0  0
 13 14  2  0  0  0  0
 13 15  1  0  0  0  0
 15 16  1  0  0  0  0
 15 28  1  0  0  0  0
 16 29  1  0  0  0  0
 16 30  1  0  0  0  0
M  END
> <s_m_source_file>
AV-unprocessed.smi

> <i_m_source_file_index>
1797

> <i_lp_mmshare_version>
43012

> <i_f3d_flags>
0

> <s_epik_input>
W0NIM11jMW5uYyhzMSlbTkhdQyg9TylbTkhdW0NAQEhdMltDSDJdW0NIMl1DKD1PKVtOSF1bQ0gyXTI=

> <s_epik_cmdline>
J2VwaWtfcHl0aG9uJywgJy1waCcsICc3LjAnLCAnLXRuJywgJzgnLCAnLW1hJywgJzIwMCcsICctbWV0YWxfYmluZGluZycsICctaW1hZScsICc8aW5maWxlLm1hZT4nLCAnLW9tYWUnLCAnPG91dGZpbGUubWFlPic=

> <r_lp_tautomer_probability>
1

> <r_epik_Ionization_Penalty>
0.00282347

> <r_epik_Ionization_Penalty_Charging>
0

> <r_epik_Ionization_Penalty_Neutral>
0.00282347

> <r_epik_State_Penalty>
-0

> <r_epik_Charging_Adjusted_Penalty>
0

> <i_epik_Tot_Q>
0

> <i_epik_Tot_abs_Q>
0

> <r_epik_Metal_State_Penalty>
0.357935

> <b_epik_Metal_Only>
0

> <s_lp_Force_Field>
OPLS_2005

> <r_lp_Energy>
10.7191

> <b_lp_Chiralities_Consistent>
1

> <s_lp_Variant>
AV-unprocessed.smi:1797-2

> <Gold.Version>
5.8.1

> <Gold.Id.Protein>
6NUR|6NUR_protein|mol2

> <Gold.PLP.Fitness>
33.0980

> <Gold.PLP.PLP>
-21.7858

> <Gold.PLP.part.hbond>
-4.0000

> <Gold.PLP.part.metal>
0.0000

> <Gold.PLP.part.buried>
-3.5753

> <Gold.PLP.part.nonpolar>
-14.9781

> <Gold.PLP.part.repulsive>
0.9307

> <Gold.PLP.ligand.clash>
0.0000

> <Gold.PLP.ligand.torsion>
0.0088

> <Gold.PLP.Chemscore.Hbond>
3.7760

> <Gold.PLP.Chemscore.CHOScore>
0.0000

> <Gold.PLP.Chemscore.Metal>
0.0000

> <Gold.Chemscore.Hbonds>
donor molecule, donor type, donor heavy atom, donor atom, acceptor molecule, acceptor atom, score
      L1  H     6    21       P1  7948  0.86
      L1  H     9    22       P1  7948  1.00
      L1  H    15    28       P1 10186  1.00
      P1  H 10785 10796       L1    14  0.91

> <Gold.PLP.Chemscore.Internal.Correction>
0.0019

> <Gold.Rescore>
     Score         DG    S(hbond)    S(metal)    S(lipo)     H(rot)  DE(clash)    DE(int)     intcor
     16.64     -19.71       3.72        0.00      37.40       1.00       0.79       2.28       ----

> <Gold.Chemscore.Fitness>
16.6377

> <Gold.Chemscore.DG>
-19.7117

> <Gold.Chemscore.ZeroCoef>
-5.4800

> <Gold.Chemscore.Hbond>
3.7174

> <Gold.Chemscore.Metal>
0.0000

> <Gold.Chemscore.Lipo>
37.3991

> <Gold.Chemscore.Internal_Hbond>
0.0000

> <Gold.Chemscore.DEClash>
0.7937

> <Gold.Chemscore.DEInternal>
2.2804

> <Gold.Chemscore.Rot>
1.0000

> <Gold.Chemscore.Internal.Correction>
   9.000000E+99

> <Gold.Chemscore.Hbonds>
donor molecule, donor type, donor heavy atom, donor atom, acceptor molecule, acceptor atom, score
      L1  H     6    21       P1  7948  0.78
      L1  H     9    22       P1  7948  0.89
      L1  H    15    28       P1 10186  0.98
      P1  H 10785 10796       L1    14  0.85

> <Gold.Chemscore.Hbond.Weighted>
-12.4160

> <Gold.Chemscore.Metal.Weighted>
-0.0000

> <Gold.Chemscore.Lipo.Weighted>
-4.3757

> <Gold.Chemscore.Internal_Hbond.Weighted>
0.0000

> <Gold.Chemscore.DEClash.Weighted>
0.7937

> <Gold.Chemscore.DEInternal.Weighted>
2.2804

> <Gold.Chemscore.Rot.Weighted>
2.5600

> <Gold.Chemscore.Internal.Correction.Weighted>
   9.000000E+99

> <Gold.Protein.RotatedTorsions>
[ 6907 6896 6895 6894 ] final  153.18 input  -60.11 | X-H torsion
[ 7974 7965 7964 7962 ] final  -27.23 input  175.53 | X-H torsion
[ 8008 7997 7996 7995 ] final -115.13 input   59.86 | X-H torsion
[ 10167 10162 10161 10158 ] final -115.95 input  -65.29 | X-H torsion
[ 10718 10713 10712 10709 ] final   32.99 input   66.30 | X-H torsion
[ 10763 10752 10751 10750 ] final   36.46 input  -60.55 | X-H torsion
[ 11005 11000 10999 10996 ] final   54.17 input  -57.11 | X-H torsion

> <Gold.Protein.ActiveResidues>
 VAL166  LYS551  ARG553  GLY616  TRP617  ASP618  TYR619  PRO620  LYS621  CYS622 
 ASP623  PHE694  ASN695  SER759  ASP760  ASP761  ALA762  ILE779  LEU786  VAL792 
 PHE793  MET794  SER795  GLU796  ALA797  LYS798  CYS799  TRP800  GLU811  SER814 

> <Gold.Protein.RotatedAtoms>
  152.0763  133.4131  159.4480 H   0  0  0  0  0  0  0  0  0  0  0  0  # atno 6907 bound_to 6896
  150.6863  134.3034  159.4725 H   0  0  0  0  0  0  0  0  0  0  0  0  # atno 6908 bound_to 6896
  152.0871  134.9432  160.0623 H   0  0  0  0  0  0  0  0  0  0  0  0  # atno 6909 bound_to 6896
  146.1372  140.5124  142.8667 H   0  0  0  0  0  0  0  0  0  0  0  0  # atno 7974 bound_to 7965
  155.0472  140.0392  157.2531 H   0  0  0  0  0  0  0  0  0  0  0  0  # atno 8008 bound_to 7997
  154.7167  140.2703  155.6555 H   0  0  0  0  0  0  0  0  0  0  0  0  # atno 8009 bound_to 7997
  156.2805  140.2711  156.1826 H   0  0  0  0  0  0  0  0  0  0  0  0  # atno 8010 bound_to 7997
  140.0845  143.4757  152.1906 H   0  0  0  0  0  0  0  0  0  0  0  0  # atno 10167 bound_to 10162
  157.2921  130.7308  149.6617 H   0  0  0  0  0  0  0  0  0  0  0  0  # atno 10718 bound_to 10713
  153.0076  135.6305  154.1989 H   0  0  0  0  0  0  0  0  0  0  0  0  # atno 10763 bound_to 10752
  154.1732  135.2817  155.3076 H   0  0  0  0  0  0  0  0  0  0  0  0  # atno 10764 bound_to 10752
  154.5892  135.5623  153.7321 H   0  0  0  0  0  0  0  0  0  0  0  0  # atno 10765 bound_to 10752
  140.0707  134.5473  155.9049 H   0  0  0  0  0  0  0  0  0  0  0  0  # atno 11005 bound_to 11000
  144.7753  140.5725  143.6642 LP  0  0  0  0  0  0  0  0  0  0  0  0  # atno 17320 bound_to 7965
  145.5129  139.1479  143.3595 LP  0  0  0  0  0  0  0  0  0  0  0  0  # atno 17321 bound_to 7965
  139.5760  144.7487  151.3763 LP  0  0  0  0  0  0  0  0  0  0  0  0  # atno 17342 bound_to 10162
  140.7061  143.7511  150.7484 LP  0  0  0  0  0  0  0  0  0  0  0  0  # atno 17343 bound_to 10162
  155.9667  130.4305  150.4881 LP  0  0  0  0  0  0  0  0  0  0  0  0  # atno 17370 bound_to 10713
  157.2846  131.0614  151.2175 LP  0  0  0  0  0  0  0  0  0  0  0  0  # atno 17371 bound_to 10713
  141.2011  133.6616  156.5931 LP  0  0  0  0  0  0  0  0  0  0  0  0  # atno 17394 bound_to 11000
  140.3631  134.7670  157.4547 LP  0  0  0  0  0  0  0  0  0  0  0  0  # atno 17395 bound_to 11000

$$$$
