#       Name:                AV-unprocessed.smi:2629
#       Creating user name   scv26
#       Creation time:       Fri Mar 27 14:25:32 2020


#       File generated by GOLD software.
#

@<TRIPOS>MOLECULE
AV-unprocessed.smi:2629
    29    30     1
SMALL
NO_CHARGES


@<TRIPOS>ATOM
      1 ****        -4.7590   1.3243  -0.6173 O.2            1 S1                 0.0000
      2 ****        -3.6193   0.9183  -0.4017 C.2            1 S1                 0.0000
      3 ****        -3.0702  -0.2457  -1.1977 N.2            1 S1                 0.0000
      4 ****        -1.9031  -0.6617  -0.9765 N.2            1 S1                 0.0000
      5 ****        -1.0468  -0.0945  -0.0073 C.2            1 S1                 0.0000
      6 ****         0.2064  -0.7017   0.0912 N.pl3          1 S1                 0.0000
      7 ****         1.0833  -0.6085   1.2534 C.3            1 S1                 0.0000
      8 ****         2.3297   0.2227   0.9065 C.3            1 S1                 0.0000
      9 ****         3.0063  -0.3838  -0.1912 O.3            1 S1                 0.0000
     10 ****         2.1812  -0.4690  -1.3502 C.3            1 S1                 0.0000
     11 ****         0.9218  -1.2969  -1.0351 C.3            1 S1                 0.0000
     12 ****        -1.5179   0.9755   0.7457 C.2            1 S1                 0.0000
     13 ****        -1.0599   1.7100   1.6491 O.co2          1 S1                -1.0000
     14 ****        -2.8026   1.4522   0.5195 N.am           1 S1                 0.0000
     15 ****         1.3824  -1.6157   1.5459 H              1 S1                 0.0000
     16 ****         0.5663  -0.1894   2.1148 H              1 S1                 0.0000
     17 ****         2.0571   1.2506   0.6616 H              1 S1                 0.0000
     18 ****         3.0054   0.2642   1.7605 H              1 S1                 0.0000
     19 ****         1.9100   0.5321  -1.6893 H              1 S1                 0.0000
     20 ****         2.7481  -0.9364  -2.1553 H              1 S1                 0.0000
     21 ****         0.2979  -1.3571  -1.9262 H              1 S1                 0.0000
     22 ****         1.1982  -2.3203  -0.7793 H              1 S1                 0.0000
     23 ****        -3.1159   2.2310   1.0798 H              1 S1                 0.0000
     24 ****        -5.1235   2.0933  -0.0922 LP             1 S1                 0.0000
     25 ****        -5.3218   0.8857  -1.3179 LP             1 S1                 0.0000
     26 ****        -3.6336  -0.6836  -1.8983 LP             1 S1                 0.0000
     27 ****        -1.5647  -1.4336  -1.5148 LP             1 S1                 0.0000
     28 ****         3.2868  -1.3065   0.0732 LP             1 S1                 0.0000
     29 ****         3.8159   0.1605  -0.4113 LP             1 S1                 0.0000
@<TRIPOS>BOND
    1    1    2 2     
    2    2   14 am    
    3    2    3 1     
    4    3    4 2     
    5    4    5 1     
    6    5   12 2     
    7    5    6 1     
    8    6   11 1     
    9    6    7 1     
   10    7    8 1     
   11    7   15 1     
   12    7   16 1     
   13    8    9 1     
   14    8   17 1     
   15    8   18 1     
   16    9   10 1     
   17   10   11 1     
   18   10   19 1     
   19   10   20 1     
   20   11   21 1     
   21   11   22 1     
   22   12   13 ar    
   23   12   14 1     
   24   14   23 1     
   25    1   24 1     
   26    1   25 1     
   27    3   26 1     
   28    4   27 1     
   29    9   28 1     
   30    9   29 1     
@<TRIPOS>SUBSTRUCTURE
      1 S1             1
@<TRIPOS>SET
LONE_PAIRS      STATIC     ATOMS    <user>   **** ""
7 24 25 26 27 28 29 13
DONOR_HYDROGENS      STATIC     ATOMS    <user>   **** ""
1 23
ATOM$BLUE        STATIC     ATOMS    COLORGROUP SYSTEM
7 24 25 26 27 28 29 13
ATOM$RED        STATIC     ATOMS    COLORGROUP SYSTEM
1 23
