AV-unprocessed.smi:1683|AV-procd|sdf|6752|dock3
  -GOLD-   22720 7513D 1   1.00000     0.00000
 Structure written by MMmdl.
 37 38  0  0  0  0  0  0  0  0  2 V2000
  151.7624  139.5308  149.9742 O   0  0  0  0  0  0  0  0  0  0  0  0
  151.0734  138.6044  150.4014 C   0  0  0  0  0  0  0  0  0  0  0  0
  150.6724  137.5695  149.6496 N   0  0  0  0  0  0  0  0  0  0  0  0
  150.9882  137.3824  148.2370 C   0  0  0  0  0  0  0  0  0  0  0  0
  149.9923  136.4187  147.5714 C   0  0  1  0  0  0  0  0  0  0  0  0
  150.1737  136.2448  146.0623 C   0  0  0  0  0  0  0  0  0  0  0  0
  149.5705  134.8669  145.7554 C   0  0  0  0  0  0  0  0  0  0  0  0
  149.4108  134.1673  147.0537 N   0  3  1  0  0  0  0  0  0  0  0  0
  149.7948  132.7348  147.0606 C   0  0  0  0  0  0  0  0  0  0  0  0
  149.0899  131.9394  148.1730 C   0  0  0  0  0  0  0  0  0  0  0  0
  149.3520  130.6431  148.0150 F   0  0  0  0  0  0  0  0  0  0  0  0
  149.5429  132.3251  149.3659 F   0  0  0  0  0  0  0  0  0  0  0  0
  147.7696  132.1132  148.1272 F   0  0  0  0  0  0  0  0  0  0  0  0
  150.0956  134.9810  148.0770 C   0  0  0  0  0  0  0  0  0  0  0  0
  150.6272  138.4935  151.6636 N   0  0  0  0  0  0  0  0  0  0  0  0
  150.8572  139.3890  152.7391 C   0  0  0  0  0  0  0  0  0  0  0  0
  150.9996  139.0017  154.0993 C   0  0  0  0  0  0  0  0  0  0  0  0
  151.2063  140.0512  154.8821 N   0  0  0  0  0  0  0  0  0  0  0  0
  151.1971  141.1047  154.0346 N   0  0  0  0  0  0  0  0  0  0  0  0
  150.9881  140.7495  152.7202 C   0  0  0  0  0  0  0  0  0  0  0  0
  151.3333  142.0497  154.3644 H   0  0  0  0  0  0  0  0  0  0  0  0
  150.1052  136.8585  150.0878 H   0  0  0  0  0  0  0  0  0  0  0  0
  150.9646  138.3556  147.7454 H   0  0  0  0  0  0  0  0  0  0  0  0
  151.9996  136.9929  148.1090 H   0  0  0  0  0  0  0  0  0  0  0  0
  148.9761  136.7713  147.7583 H   0  0  0  0  0  0  0  0  0  0  0  0
  149.7031  137.0439  145.4884 H   0  0  0  0  0  0  0  0  0  0  0  0
  151.2355  136.2395  145.8116 H   0  0  0  0  0  0  0  0  0  0  0  0
  148.5910  134.9624  145.2858 H   0  0  0  0  0  0  0  0  0  0  0  0
  150.2155  134.3183  145.0677 H   0  0  0  0  0  0  0  0  0  0  0  0
  149.6061  132.2888  146.0829 H   0  0  0  0  0  0  0  0  0  0  0  0
  150.8716  132.6717  147.2258 H   0  0  0  0  0  0  0  0  0  0  0  0
  151.1433  134.6808  148.1433 H   0  0  0  0  0  0  0  0  0  0  0  0
  149.6431  134.8498  149.0605 H   0  0  0  0  0  0  0  0  0  0  0  0
  150.0661  137.6829  151.8800 H   0  0  0  0  0  0  0  0  0  0  0  0
  150.9614  138.0143  154.5355 H   0  0  0  0  0  0  0  0  0  0  0  0
  150.9539  141.4774  151.9230 H   0  0  0  0  0  0  0  0  0  0  0  0
  148.4274  134.2122  147.2810 H   0  0  0  0  0  0  0  0  0  0  0  0
  1  2  2  0  0  0  0
  2  3  1  0  0  0  0
  2 15  1  0  0  0  0
  3  4  1  0  0  0  0
  3 22  1  0  0  0  0
  4  5  1  0  0  0  0
  4 23  1  0  0  0  0
  4 24  1  0  0  0  0
  5 14  1  0  0  0  0
  5  6  1  0  0  0  0
  5 25  1  0  0  0  0
  6  7  1  0  0  0  0
  6 26  1  0  0  0  0
  6 27  1  0  0  0  0
  7  8  1  0  0  0  0
  7 28  1  0  0  0  0
  7 29  1  0  0  0  0
  8  9  1  0  0  0  0
  8 14  1  0  0  0  0
  8 37  1  0  0  0  0
  9 10  1  0  0  0  0
  9 30  1  0  0  0  0
  9 31  1  0  0  0  0
 10 11  1  0  0  0  0
 10 12  1  0  0  0  0
 10 13  1  0  0  0  0
 14 32  1  0  0  0  0
 14 33  1  0  0  0  0
 15 16  1  0  0  0  0
 15 34  1  0  0  0  0
 16 20  2  0  0  0  0
 16 17  1  0  0  0  0
 17 18  2  0  0  0  0
 17 35  1  0  0  0  0
 18 19  1  0  0  0  0
 19 21  1  0  0  0  0
 19 20  1  0  0  0  0
 20 36  1  0  0  0  0
M  CHG  1   8   1
M  END
> <s_m_source_file>
AV-unprocessed.smi

> <i_m_source_file_index>
1683

> <i_lp_mmshare_version>
43012

> <i_f3d_flags>
0

> <s_epik_input>
W2NIXTFbbkhdbltjSF1jMVtOSF1DKD1PKVtOSF1bQ0gyXVtDQEBIXTJbQ0gyXVtDSDJdTihbQ0gyXTIpW0NIMl1DKEYpKEYpRg==

> <s_epik_cmdline>
J2VwaWtfcHl0aG9uJywgJy1waCcsICc3LjAnLCAnLXRuJywgJzgnLCAnLW1hJywgJzIwMCcsICctbWV0YWxfYmluZGluZycsICctaW1hZScsICc8aW5maWxlLm1hZT4nLCAnLW9tYWUnLCAnPG91dGZpbGUubWFlPic=

> <r_lp_tautomer_probability>
0.5

> <r_epik_Ionization_Penalty>
0.641865

> <r_epik_Ionization_Penalty_Charging>
0.64182

> <r_epik_Ionization_Penalty_Neutral>
4.50685e-05

> <r_epik_State_Penalty>
0.65957

> <r_epik_Charging_Adjusted_Penalty>
1.30139

> <i_epik_Tot_Q>
1

> <i_epik_Tot_abs_Q>
1

> <r_epik_Metal_State_Penalty>
0.659571

> <b_epik_Metal_Only>
0

> <s_lp_Force_Field>
OPLS_2005

> <r_lp_Energy>
31.2098

> <b_lp_Chiralities_Consistent>
1

> <s_lp_Variant>
AV-unprocessed.smi:1683-6

> <Gold.Version>
5.8.1

> <Gold.Id.Protein>
6NUR|6NUR_protein|mol2

> <Gold.PLP.Fitness>
52.8818

> <Gold.PLP.PLP>
-38.9098

> <Gold.PLP.part.hbond>
-5.0000

> <Gold.PLP.part.metal>
0.0000

> <Gold.PLP.part.buried>
-5.3981

> <Gold.PLP.part.nonpolar>
-30.3142

> <Gold.PLP.part.repulsive>
0.3603

> <Gold.PLP.ligand.clash>
0.0000

> <Gold.PLP.ligand.torsion>
0.6604

> <Gold.PLP.Chemscore.Hbond>
3.9440

> <Gold.PLP.Chemscore.CHOScore>
1.0000

> <Gold.PLP.Chemscore.Metal>
0.0000

> <Gold.Chemscore.Hbonds>
donor molecule, donor type, donor heavy atom, donor atom, acceptor molecule, acceptor atom, score
      L1  H    15    34       P1  7948  0.10
      L1  C    20    36       P1  7957  0.03

> <Gold.PLP.Chemscore.Internal.Correction>
0.4608

> <Gold.Rescore>
     Score         DG    S(hbond)    S(metal)    S(lipo)     H(rot)  DE(clash)    DE(int)     intcor
     15.43     -16.61       2.52        0.00      62.87       1.81       0.29       0.88       ----

> <Gold.Chemscore.Fitness>
15.4317

> <Gold.Chemscore.DG>
-16.6069

> <Gold.Chemscore.ZeroCoef>
-5.4800

> <Gold.Chemscore.Hbond>
2.5176

> <Gold.Chemscore.Metal>
0.0000

> <Gold.Chemscore.Lipo>
62.8697

> <Gold.Chemscore.Internal_Hbond>
0.0000

> <Gold.Chemscore.DEClash>
0.2945

> <Gold.Chemscore.DEInternal>
0.8807

> <Gold.Chemscore.Rot>
1.8116

> <Gold.Chemscore.Internal.Correction>
   9.000000E+99

> <Gold.Chemscore.Hbond.Weighted>
-8.4089

> <Gold.Chemscore.Metal.Weighted>
-0.0000

> <Gold.Chemscore.Lipo.Weighted>
-7.3558

> <Gold.Chemscore.Internal_Hbond.Weighted>
0.0000

> <Gold.Chemscore.DEClash.Weighted>
0.2945

> <Gold.Chemscore.DEInternal.Weighted>
0.8807

> <Gold.Chemscore.Rot.Weighted>
4.6378

> <Gold.Chemscore.Internal.Correction.Weighted>
   9.000000E+99

> <Gold.Protein.RotatedTorsions>
[ 6907 6896 6895 6894 ] final   17.23 input  -60.11 | X-H torsion
[ 7974 7965 7964 7962 ] final    1.67 input  175.53 | X-H torsion
[ 8008 7997 7996 7995 ] final -172.73 input   59.86 | X-H torsion
[ 10167 10162 10161 10158 ] final  166.64 input  -65.29 | X-H torsion
[ 10718 10713 10712 10709 ] final  -83.19 input   66.30 | X-H torsion
[ 10763 10752 10751 10750 ] final   14.52 input  -60.55 | X-H torsion
[ 11005 11000 10999 10996 ] final -154.95 input  -57.11 | X-H torsion

> <Gold.Protein.ActiveResidues>
 VAL166  LYS551  ARG553  GLY616  TRP617  ASP618  TYR619  PRO620  LYS621  CYS622 
 ASP623  PHE694  ASN695  SER759  ASP760  ASP761  ALA762  ILE779  LEU786  VAL792 
 PHE793  MET794  SER795  GLU796  ALA797  LYS798  CYS799  TRP800  GLU811  SER814 

> <Gold.Protein.RotatedAtoms>
  151.8463  135.0573  160.0453 H   0  0  0  0  0  0  0  0  0  0  0  0  # atno 6907 bound_to 6896
  152.2771  133.5431  159.5483 H   0  0  0  0  0  0  0  0  0  0  0  0  # atno 6908 bound_to 6896
  150.7174  134.0533  159.3848 H   0  0  0  0  0  0  0  0  0  0  0  0  # atno 6909 bound_to 6896
  146.2441  140.0952  142.8350 H   0  0  0  0  0  0  0  0  0  0  0  0  # atno 7974 bound_to 7965
  155.9484  140.1121  157.0997 H   0  0  0  0  0  0  0  0  0  0  0  0  # atno 8008 bound_to 7997
  154.4104  140.1205  156.5086 H   0  0  0  0  0  0  0  0  0  0  0  0  # atno 8009 bound_to 7997
  155.6874  140.3473  155.4882 H   0  0  0  0  0  0  0  0  0  0  0  0  # atno 8010 bound_to 7997
  139.4929  144.4006  151.9414 H   0  0  0  0  0  0  0  0  0  0  0  0  # atno 10167 bound_to 10162
  156.0022  130.4658  150.4220 H   0  0  0  0  0  0  0  0  0  0  0  0  # atno 10718 bound_to 10713
  153.1614  135.6796  153.8737 H   0  0  0  0  0  0  0  0  0  0  0  0  # atno 10763 bound_to 10752
  153.8132  135.3140  155.3404 H   0  0  0  0  0  0  0  0  0  0  0  0  # atno 10764 bound_to 10752
  154.7935  135.4821  154.0195 H   0  0  0  0  0  0  0  0  0  0  0  0  # atno 10765 bound_to 10752
  140.6918  134.4033  157.5218 H   0  0  0  0  0  0  0  0  0  0  0  0  # atno 11005 bound_to 11000
  145.0616  140.9092  143.4935 LP  0  0  0  0  0  0  0  0  0  0  0  0  # atno 17320 bound_to 7965
  145.1068  139.2784  143.5658 LP  0  0  0  0  0  0  0  0  0  0  0  0  # atno 17321 bound_to 7965
  140.3445  144.3163  150.5961 LP  0  0  0  0  0  0  0  0  0  0  0  0  # atno 17342 bound_to 10162
  140.5538  143.2202  151.7882 LP  0  0  0  0  0  0  0  0  0  0  0  0  # atno 17343 bound_to 10162
  157.2275  131.0496  151.2511 LP  0  0  0  0  0  0  0  0  0  0  0  0  # atno 17370 bound_to 10713
  157.3742  130.7197  149.6585 LP  0  0  0  0  0  0  0  0  0  0  0  0  # atno 17371 bound_to 10713
  139.8921  134.8763  156.2286 LP  0  0  0  0  0  0  0  0  0  0  0  0  # atno 17394 bound_to 11000
  141.0235  133.7028  156.1308 LP  0  0  0  0  0  0  0  0  0  0  0  0  # atno 17395 bound_to 11000

$$$$
