#       Name:                AV-unprocessed.smi:1471
#       Creating user name   scv26
#       Creation time:       Fri Mar 27 06:04:57 2020


#       File generated by GOLD software.
#

@<TRIPOS>MOLECULE
AV-unprocessed.smi:1471
    50    51     1
SMALL
NO_CHARGES


@<TRIPOS>ATOM
      1 ****         0.4138   3.1273  -1.5316 C.3            1 S1                 0.0000
      2 ****        -0.3966   1.8902  -1.2549 C.2            1 S1                 0.0000
      3 ****        -0.1221   0.8456  -1.9642 N.2            1 S1                 0.0000
      4 ****        -0.7808  -0.3548  -1.7711 N.am           1 S1                 0.0000
      5 ****        -0.3079  -1.4488  -2.6383 C.3            1 S1                 0.0000
      6 ****         1.2257  -1.6538  -2.6055 C.3            1 S1                 0.0000
      7 ****         1.5726  -2.8219  -3.3196 O.3            1 S1                 0.0000
      8 ****         1.8505  -1.7230  -1.2003 C.3            1 S1                 0.0000
      9 ****         1.0803  -2.5623  -0.3510 O.3            1 S1                 0.0000
     10 ****         1.5040  -2.5445   1.0051 C.3            1 S1                 0.0000
     11 ****         0.9695  -1.3468   1.7746 C.ar           1 S1                 0.0000
     12 ****         1.7551  -0.1819   1.9091 C.ar           1 S1                 0.0000
     13 ****         1.2597   0.9320   2.6141 C.ar           1 S1                 0.0000
     14 ****        -0.0188   0.8820   3.2009 C.ar           1 S1                 0.0000
     15 ****        -0.8016  -0.2817   3.0798 C.ar           1 S1                 0.0000
     16 ****        -0.3136  -1.3916   2.3628 C.ar           1 S1                 0.0000
     17 ****        -1.0859  -2.4975   2.2381 F              1 S1                 0.0000
     18 ****        -1.7982  -0.5405  -0.8799 C.2            1 S1                 0.0000
     19 ****        -2.3868  -1.6144  -0.7494 O.2            1 S1                 0.0000
     20 ****        -2.1182   0.6536  -0.0945 C.2            1 S1                 0.0000
     21 ****        -3.1759   0.4996   0.8517 C.1            1 S1                 0.0000
     22 ****        -4.0297   0.3960   1.6267 N.1            1 S1                 0.0000
     23 ****        -1.4506   1.8236  -0.2497 C.2            1 S1                 0.0000
     24 ****        -1.7322   3.0847   0.5552 C.3            1 S1                 0.0000
     25 ****        -0.2215   3.9298  -1.9065 H              1 S1                 0.0000
     26 ****         1.1911   2.9463  -2.2758 H              1 S1                 0.0000
     27 ****         0.9054   3.4790  -0.6245 H              1 S1                 0.0000
     28 ****        -0.7803  -2.3981  -2.3819 H              1 S1                 0.0000
     29 ****        -0.6249  -1.2357  -3.6602 H              1 S1                 0.0000
     30 ****         1.7012  -0.8302  -3.1392 H              1 S1                 0.0000
     31 ****         1.2067  -3.5668  -2.8672 H              1 S1                 0.0000
     32 ****         2.8833  -2.0722  -1.2505 H              1 S1                 0.0000
     33 ****         1.8836  -0.7154  -0.7871 H              1 S1                 0.0000
     34 ****         1.1370  -3.4540   1.4811 H              1 S1                 0.0000
     35 ****         2.5922  -2.5901   1.0752 H              1 S1                 0.0000
     36 ****         2.7385  -0.1371   1.4648 H              1 S1                 0.0000
     37 ****         1.8615   1.8239   2.7076 H              1 S1                 0.0000
     38 ****        -0.3992   1.7351   3.7432 H              1 S1                 0.0000
     39 ****        -1.7833  -0.3197   3.5284 H              1 S1                 0.0000
     40 ****        -2.5571   2.9529   1.2546 H              1 S1                 0.0000
     41 ****        -1.9921   3.9125  -0.1054 H              1 S1                 0.0000
     42 ****        -0.8539   3.3689   1.1357 H              1 S1                 0.0000
     43 ****         0.5838   0.9067  -2.6699 LP             1 S1                 0.0000
     44 ****         2.5679  -2.9084  -3.3631 LP             1 S1                 0.0000
     45 ****         1.2014  -2.7739  -4.2469 LP             1 S1                 0.0000
     46 ****         1.1462  -3.5007  -0.6902 LP             1 S1                 0.0000
     47 ****         0.1276  -2.2605  -0.3883 LP             1 S1                 0.0000
     48 ****        -2.1250  -2.3995  -1.3107 LP             1 S1                 0.0000
     49 ****        -3.1266  -1.7013  -0.0822 LP             1 S1                 0.0000
     50 ****        -4.7672   0.3065   2.2961 LP             1 S1                 0.0000
@<TRIPOS>BOND
    1    1    2 1     
    2    1   25 1     
    3    1   26 1     
    4    1   27 1     
    5    2   23 1     
    6    2    3 2     
    7    3    4 1     
    8    4    5 1     
    9    4   18 am    
   10    5    6 1     
   11    5   28 1     
   12    5   29 1     
   13    6    7 1     
   14    6    8 1     
   15    6   30 1     
   16    7   31 1     
   17    8    9 1     
   18    8   32 1     
   19    8   33 1     
   20    9   10 1     
   21   10   11 1     
   22   10   34 1     
   23   10   35 1     
   24   11   16 ar    
   25   11   12 ar    
   26   12   13 ar    
   27   12   36 1     
   28   13   14 ar    
   29   13   37 1     
   30   14   15 ar    
   31   14   38 1     
   32   15   16 ar    
   33   15   39 1     
   34   16   17 1     
   35   18   19 2     
   36   18   20 1     
   37   20   21 1     
   38   20   23 2     
   39   21   22 3     
   40   23   24 1     
   41   24   40 1     
   42   24   41 1     
   43   24   42 1     
   44    3   43 1     
   45    7   44 1     
   46    7   45 1     
   47    9   46 1     
   48    9   47 1     
   49   19   48 1     
   50   19   49 1     
   51   22   50 1     
@<TRIPOS>SUBSTRUCTURE
      1 S1             1
@<TRIPOS>SET
LONE_PAIRS      STATIC     ATOMS    <user>   **** ""
8 43 44 45 46 47 48 49 50
DONOR_HYDROGENS      STATIC     ATOMS    <user>   **** ""
1 31
ATOM$BLUE        STATIC     ATOMS    COLORGROUP SYSTEM
8 43 44 45 46 47 48 49 50
ATOM$RED        STATIC     ATOMS    COLORGROUP SYSTEM
1 31
