#       Name:                AV-unprocessed.smi:1830
#       Creating user name   scv26
#       Creation time:       Fri Mar 27 09:13:07 2020


#       File generated by GOLD software.
#

@<TRIPOS>MOLECULE
AV-unprocessed.smi:1830
    59    62     1
SMALL
NO_CHARGES


@<TRIPOS>ATOM
      1 ****         0.2387   1.4618   0.4298 O.2            1 S1                 0.0000
      2 ****        -0.2987   0.3587   0.3372 C.2            1 S1                 0.0000
      3 ****         0.3708  -0.8011   0.3896 N.am           1 S1                 0.0000
      4 ****         1.8200  -0.9361   0.4928 C.3            1 S1                 0.0000
      5 ****         2.4258  -1.4103  -0.8437 C.3            1 S1                 0.0000
      6 ****         3.9522  -1.6495  -0.7592 C.3            1 S1                 0.0000
      7 ****         4.6694  -0.3880  -0.7503 N.3            1 S1                 0.0000
      8 ****         6.1119  -0.4593  -0.7692 C.3            1 S1                 0.0000
      9 ****         6.5575   0.9586  -1.1669 C.3            1 S1                 0.0000
     10 ****         5.3155   1.5758  -1.8467 C.3            1 S1                 0.0000
     11 ****         4.3404   0.3986  -1.9076 C.3            1 S1                 0.0000
     12 ****         2.8421   0.7251  -1.9325 C.3            1 S1                 0.0000
     13 ****         2.1142  -0.5067  -1.9169 O.3            1 S1                 0.0000
     14 ****        -1.6161   0.1458   0.1823 N.am           1 S1                 0.0000
     15 ****        -2.6761   1.0970   0.1331 C.ar           1 S1                 0.0000
     16 ****        -2.4827   2.4384  -0.2801 C.ar           1 S1                 0.0000
     17 ****        -3.5860   3.3086  -0.3298 C.ar           1 S1                 0.0000
     18 ****        -4.8489   2.8054   0.0262 C.ar           1 S1                 0.0000
     19 ****        -5.0528   1.5282   0.4060 N.ar           1 S1                 0.0000
     20 ****        -3.9969   0.6796   0.4537 C.ar           1 S1                 0.0000
     21 ****        -4.2414  -0.6444   0.8768 N.3            1 S1                 0.0000
     22 ****        -3.7974  -0.9209   2.2402 C.3            1 S1                 0.0000
     23 ****        -4.8048  -1.9094   2.8298 C.3            1 S1                 0.0000
     24 ****        -6.0849  -1.5872   2.0693 C.3            1 S1                 0.0000
     25 ****        -5.5637  -1.2368   0.6767 C.3            1 S1                 0.0000
     26 ****        -0.1583  -1.6572   0.3133 H              1 S1                 0.0000
     27 ****         2.2870  -0.0095   0.8293 H              1 S1                 0.0000
     28 ****         2.0282  -1.6732   1.2685 H              1 S1                 0.0000
     29 ****         1.9552  -2.3621  -1.0933 H              1 S1                 0.0000
     30 ****         4.2000  -2.2305   0.1297 H              1 S1                 0.0000
     31 ****         4.2691  -2.2431  -1.6179 H              1 S1                 0.0000
     32 ****         6.5129  -0.7710   0.1957 H              1 S1                 0.0000
     33 ****         6.4433  -1.1766  -1.5220 H              1 S1                 0.0000
     34 ****         6.8366   1.5411  -0.2882 H              1 S1                 0.0000
     35 ****         7.4176   0.9276  -1.8362 H              1 S1                 0.0000
     36 ****         4.9114   2.3813  -1.2318 H              1 S1                 0.0000
     37 ****         5.5337   1.9796  -2.8357 H              1 S1                 0.0000
     38 ****         4.5750  -0.1790  -2.8045 H              1 S1                 0.0000
     39 ****         2.5613   1.3455  -1.0812 H              1 S1                 0.0000
     40 ****         2.5841   1.2814  -2.8337 H              1 S1                 0.0000
     41 ****        -1.9100  -0.8200   0.1899 H              1 S1                 0.0000
     42 ****        -1.5157   2.8141  -0.5753 H              1 S1                 0.0000
     43 ****        -3.4667   4.3363  -0.6393 H              1 S1                 0.0000
     44 ****        -5.7199   3.4435   0.0001 H              1 S1                 0.0000
     45 ****        -2.7873  -1.3313   2.2518 H              1 S1                 0.0000
     46 ****        -3.7911  -0.0002   2.8261 H              1 S1                 0.0000
     47 ****        -4.4934  -2.9317   2.6107 H              1 S1                 0.0000
     48 ****        -4.9122  -1.8122   3.9103 H              1 S1                 0.0000
     49 ****        -6.7986  -2.4113   2.0617 H              1 S1                 0.0000
     50 ****        -6.5723  -0.7180   2.5133 H              1 S1                 0.0000
     51 ****        -6.2663  -0.6091   0.1286 H              1 S1                 0.0000
     52 ****        -5.4314  -2.1469   0.0909 H              1 S1                 0.0000
     53 ****         1.2291   1.5268   0.5515 LP             1 S1                 0.0000
     54 ****        -0.3150   2.2932   0.3833 LP             1 S1                 0.0000
     55 ****         4.3778   0.0050   0.1218 LP             1 S1                 0.0000
     56 ****         1.1407  -0.2858  -1.8578 LP             1 S1                 0.0000
     57 ****         2.2967  -0.9806  -2.7784 LP             1 S1                 0.0000
     58 ****        -5.9696   1.2114   0.6490 LP             1 S1                 0.0000
     59 ****        -3.6646  -1.1091   0.2049 LP             1 S1                 0.0000
@<TRIPOS>BOND
    1    1    2 2     
    2    2    3 am    
    3    2   14 am    
    4    3    4 1     
    5    3   26 1     
    6    4    5 1     
    7    4   27 1     
    8    4   28 1     
    9    5   13 1     
   10    5    6 1     
   11    5   29 1     
   12    6    7 1     
   13    6   30 1     
   14    6   31 1     
   15    7   11 1     
   16    7    8 1     
   17    8    9 1     
   18    8   32 1     
   19    8   33 1     
   20    9   10 1     
   21    9   34 1     
   22    9   35 1     
   23   10   11 1     
   24   10   36 1     
   25   10   37 1     
   26   11   12 1     
   27   11   38 1     
   28   12   13 1     
   29   12   39 1     
   30   12   40 1     
   31   14   15 1     
   32   14   41 1     
   33   15   20 ar    
   34   15   16 ar    
   35   16   17 ar    
   36   16   42 1     
   37   17   18 ar    
   38   17   43 1     
   39   18   19 ar    
   40   18   44 1     
   41   19   20 ar    
   42   20   21 1     
   43   21   25 1     
   44   21   22 1     
   45   22   23 1     
   46   22   45 1     
   47   22   46 1     
   48   23   24 1     
   49   23   47 1     
   50   23   48 1     
   51   24   25 1     
   52   24   49 1     
   53   24   50 1     
   54   25   51 1     
   55   25   52 1     
   56    1   53 1     
   57    1   54 1     
   58    7   55 1     
   59   13   56 1     
   60   13   57 1     
   61   19   58 1     
   62   21   59 1     
@<TRIPOS>SUBSTRUCTURE
      1 S1             1
@<TRIPOS>SET
LONE_PAIRS      STATIC     ATOMS    <user>   **** ""
7 53 54 55 56 57 58 59
DONOR_HYDROGENS      STATIC     ATOMS    <user>   **** ""
2 26 41
ATOM$BLUE        STATIC     ATOMS    COLORGROUP SYSTEM
7 53 54 55 56 57 58 59
ATOM$RED        STATIC     ATOMS    COLORGROUP SYSTEM
2 26 41
