AV-unprocessed.smi:2221|AV-procd|sdf|8983|dock1
  -GOLD-   2272012193D 1   1.00000     0.00000
 Structure written by MMmdl.
 53 54  0  0  0  0  0  0  0  0  2 V2000
  151.8013  145.5508  160.5391 C   0  0  0  0  0  0  0  0  0  0  0  0
  151.8393  144.2189  159.8200 C   0  0  0  0  0  0  0  0  0  0  0  0
  152.6402  143.1633  160.2966 C   0  0  0  0  0  0  0  0  0  0  0  0
  152.6346  141.9497  159.5821 C   0  0  0  0  0  0  0  0  0  0  0  0
  153.4708  140.7744  160.0435 C   0  0  0  0  0  0  0  0  0  0  0  0
  151.8973  141.7543  158.4676 N   0  0  0  0  0  0  0  0  0  0  0  0
  151.1228  142.7640  157.9993 C   0  0  0  0  0  0  0  0  0  0  0  0
  150.3184  142.6623  156.8330 N   0  0  0  0  0  0  0  0  0  0  0  0
  149.9538  141.5493  156.1726 C   0  0  0  0  0  0  0  0  0  0  0  0
  150.2370  140.3974  156.5034 O   0  0  0  0  0  0  0  0  0  0  0  0
  149.2262  141.8427  155.0851 N   0  0  0  0  0  0  0  0  0  0  0  0
  148.6714  140.8557  154.1659 C   0  0  0  0  0  0  0  0  0  0  0  0
  147.2057  141.1720  153.8080 C   0  0  0  0  0  0  0  0  0  0  0  0
  146.4573  139.9663  153.3725 N   0  3  2  0  0  0  0  0  0  0  0  0
  146.1654  139.0476  154.4988 C   0  0  0  0  0  0  0  0  0  0  0  0
  145.2538  137.8931  154.0536 C   0  0  0  0  0  0  0  0  0  0  0  0
  145.8530  137.0899  152.8717 C   0  0  1  0  0  0  0  0  0  0  0  0
  144.9081  136.0661  152.3865 N   0  0  0  0  0  0  0  0  0  0  0  0
  143.5868  136.6263  152.1091 C   0  0  0  0  0  0  0  0  0  0  0  0
  145.3618  135.4444  151.1439 C   0  0  0  0  0  0  0  0  0  0  0  0
  146.2202  138.0919  151.7484 C   0  0  0  0  0  0  0  0  0  0  0  0
  147.1087  139.2390  152.2554 C   0  0  0  0  0  0  0  0  0  0  0  0
  151.0726  144.0145  158.6550 C   0  0  0  0  0  0  0  0  0  0  0  0
  152.2773  145.4852  161.5179 H   0  0  0  0  0  0  0  0  0  0  0  0
  150.7708  145.8759  160.6839 H   0  0  0  0  0  0  0  0  0  0  0  0
  152.3226  146.3089  159.9544 H   0  0  0  0  0  0  0  0  0  0  0  0
  153.2432  143.2793  161.1856 H   0  0  0  0  0  0  0  0  0  0  0  0
  154.3269  141.1119  160.6286 H   0  0  0  0  0  0  0  0  0  0  0  0
  153.8471  140.2062  159.1920 H   0  0  0  0  0  0  0  0  0  0  0  0
  152.8719  140.1080  160.6644 H   0  0  0  0  0  0  0  0  0  0  0  0
  149.9918  143.5390  156.4548 H   0  0  0  0  0  0  0  0  0  0  0  0
  149.0355  142.8140  154.8852 H   0  0  0  0  0  0  0  0  0  0  0  0
  149.2836  140.8056  153.2637 H   0  0  0  0  0  0  0  0  0  0  0  0
  148.7531  139.8838  154.6508 H   0  0  0  0  0  0  0  0  0  0  0  0
  146.6931  141.6448  154.6471 H   0  0  0  0  0  0  0  0  0  0  0  0
  147.1996  141.9001  152.9958 H   0  0  0  0  0  0  0  0  0  0  0  0
  147.0997  138.6564  154.9049 H   0  0  0  0  0  0  0  0  0  0  0  0
  145.6741  139.5946  155.3043 H   0  0  0  0  0  0  0  0  0  0  0  0
  145.0942  137.2546  154.9218 H   0  0  0  0  0  0  0  0  0  0  0  0
  144.2770  138.2913  153.7744 H   0  0  0  0  0  0  0  0  0  0  0  0
  146.7640  136.5940  153.2114 H   0  0  0  0  0  0  0  0  0  0  0  0
  142.9319  135.8729  151.6698 H   0  0  0  0  0  0  0  0  0  0  0  0
  143.6487  137.4658  151.4152 H   0  0  0  0  0  0  0  0  0  0  0  0
  143.0913  136.9627  153.0185 H   0  0  0  0  0  0  0  0  0  0  0  0
  144.6087  134.7561  150.7575 H   0  0  0  0  0  0  0  0  0  0  0  0
  146.2627  134.8514  151.2943 H   0  0  0  0  0  0  0  0  0  0  0  0
  145.5617  136.1924  150.3752 H   0  0  0  0  0  0  0  0  0  0  0  0
  146.7592  137.5978  150.9411 H   0  0  0  0  0  0  0  0  0  0  0  0
  145.3114  138.5068  151.3095 H   0  0  0  0  0  0  0  0  0  0  0  0
  147.3104  139.9163  151.4265 H   0  0  0  0  0  0  0  0  0  0  0  0
  148.0733  138.8488  152.5844 H   0  0  0  0  0  0  0  0  0  0  0  0
  150.4525  144.8118  158.2712 H   0  0  0  0  0  0  0  0  0  0  0  0
  145.5623  140.2927  153.0362 H   0  0  0  0  0  0  0  0  0  0  0  0
  1  2  1  0  0  0  0
  1 24  1  0  0  0  0
  1 25  1  0  0  0  0
  1 26  1  0  0  0  0
  2 23  1  0  0  0  0
  2  3  2  0  0  0  0
  3  4  1  0  0  0  0
  3 27  1  0  0  0  0
  4  5  1  0  0  0  0
  4  6  2  0  0  0  0
  5 28  1  0  0  0  0
  5 29  1  0  0  0  0
  5 30  1  0  0  0  0
  6  7  1  0  0  0  0
  7  8  1  0  0  0  0
  7 23  2  0  0  0  0
  8  9  1  0  0  0  0
  8 31  1  0  0  0  0
  9 10  2  0  0  0  0
  9 11  1  0  0  0  0
 11 12  1  0  0  0  0
 11 32  1  0  0  0  0
 12 13  1  0  0  0  0
 12 33  1  0  0  0  0
 12 34  1  0  0  0  0
 13 14  1  0  0  0  0
 13 35  1  0  0  0  0
 13 36  1  0  0  0  0
 14 22  1  0  0  0  0
 14 15  1  0  0  0  0
 14 53  1  0  0  0  0
 15 16  1  0  0  0  0
 15 37  1  0  0  0  0
 15 38  1  0  0  0  0
 16 17  1  0  0  0  0
 16 39  1  0  0  0  0
 16 40  1  0  0  0  0
 17 18  1  0  0  0  0
 17 21  1  0  0  0  0
 17 41  1  0  0  0  0
 18 19  1  0  0  0  0
 18 20  1  0  0  0  0
 19 42  1  0  0  0  0
 19 43  1  0  0  0  0
 19 44  1  0  0  0  0
 20 45  1  0  0  0  0
 20 46  1  0  0  0  0
 20 47  1  0  0  0  0
 21 22  1  0  0  0  0
 21 48  1  0  0  0  0
 21 49  1  0  0  0  0
 22 50  1  0  0  0  0
 22 51  1  0  0  0  0
 23 52  1  0  0  0  0
M  CHG  1  14   1
M  END
> <s_m_source_file>
AV-unprocessed.smi

> <i_m_source_file_index>
2221

> <i_lp_mmshare_version>
43012

> <i_f3d_flags>
0

> <s_epik_input>
W0NIM11jMVtjSF1jKFtDSDNdKW5jKFtjSF0xKVtOSF1DKD1PKVtOSF1bQ0gyXVtDSDJdTjJbQ0gyXVtDSDJdW0NIXShOKFtDSDNdKVtDSDNdKVtDSDJdW0NIMl0y

> <s_epik_cmdline>
J2VwaWtfcHl0aG9uJywgJy1waCcsICc3LjAnLCAnLXRuJywgJzgnLCAnLW1hJywgJzIwMCcsICctbWV0YWxfYmluZGluZycsICctaW1hZScsICc8aW5maWxlLm1hZT4nLCAnLW9tYWUnLCAnPG91dGZpbGUubWFlPic=

> <r_epik_Ionization_Penalty>
1.32168

> <r_epik_Ionization_Penalty_Charging>
0.00219175

> <r_epik_Ionization_Penalty_Neutral>
1.31949

> <r_epik_State_Penalty>
1.51166

> <r_epik_Charging_Adjusted_Penalty>
1.51385

> <i_epik_Tot_Q>
1

> <i_epik_Tot_abs_Q>
1

> <r_epik_Metal_State_Penalty>
1.51167

> <b_epik_Metal_Only>
0

> <s_lp_Force_Field>
OPLS_2005

> <r_lp_Energy>
22.6933

> <b_lp_Chiralities_Consistent>
1

> <s_lp_Variant>
AV-unprocessed.smi:2221-4

> <Gold.Version>
5.8.1

> <Gold.Id.Protein>
6NUR|6NUR_protein|mol2

> <Gold.PLP.Fitness>
59.9893

> <Gold.PLP.PLP>
-49.2546

> <Gold.PLP.part.hbond>
-3.0000

> <Gold.PLP.part.metal>
0.0000

> <Gold.PLP.part.buried>
-2.0232

> <Gold.PLP.part.nonpolar>
-44.8325

> <Gold.PLP.part.repulsive>
0.4265

> <Gold.PLP.ligand.clash>
0.0000

> <Gold.PLP.ligand.torsion>
0.4016

> <Gold.PLP.Chemscore.Hbond>
3.8000

> <Gold.PLP.Chemscore.CHOScore>
0.0000

> <Gold.PLP.Chemscore.Metal>
0.0000

> <Gold.Chemscore.Hbonds>
donor molecule, donor type, donor heavy atom, donor atom, acceptor molecule, acceptor atom, score
      L1  H     8    31       P1  8028  1.00
      L1  H    11    32       P1  8028  0.91
      L1  H    14    53       P1 10175  2.00

> <Gold.PLP.Chemscore.Internal.Correction>
0.1379

> <Gold.Rescore>
     Score         DG    S(hbond)    S(metal)    S(lipo)     H(rot)  DE(clash)    DE(int)     intcor
     22.40     -24.25       2.87        0.00     113.77       1.61       0.20       1.65       ----

> <Gold.Chemscore.Fitness>
22.4029

> <Gold.Chemscore.DG>
-24.2521

> <Gold.Chemscore.ZeroCoef>
-5.4800

> <Gold.Chemscore.Hbond>
2.8703

> <Gold.Chemscore.Metal>
0.0000

> <Gold.Chemscore.Lipo>
113.7747

> <Gold.Chemscore.Internal_Hbond>
0.0000

> <Gold.Chemscore.DEClash>
0.1997

> <Gold.Chemscore.DEInternal>
1.6494

> <Gold.Chemscore.Rot>
1.6119

> <Gold.Chemscore.Internal.Correction>
   9.000000E+99

> <Gold.Chemscore.Hbonds>
donor molecule, donor type, donor heavy atom, donor atom, acceptor molecule, acceptor atom, score
      L1  H     8    31       P1  8028  1.00
      L1  H    11    32       P1  8028  0.82
      L1  H    14    53       P1 10175  0.94

> <Gold.Chemscore.Hbond.Weighted>
-9.5868

> <Gold.Chemscore.Metal.Weighted>
-0.0000

> <Gold.Chemscore.Lipo.Weighted>
-13.3116

> <Gold.Chemscore.Internal_Hbond.Weighted>
0.0000

> <Gold.Chemscore.DEClash.Weighted>
0.1997

> <Gold.Chemscore.DEInternal.Weighted>
1.6494

> <Gold.Chemscore.Rot.Weighted>
4.1264

> <Gold.Chemscore.Internal.Correction.Weighted>
   9.000000E+99

> <Gold.Protein.RotatedTorsions>
[ 6907 6896 6895 6894 ] final  -11.02 input  -60.11 | X-H torsion
[ 7974 7965 7964 7962 ] final  -81.18 input  175.53 | X-H torsion
[ 8008 7997 7996 7995 ] final -107.81 input   59.86 | X-H torsion
[ 10167 10162 10161 10158 ] final   58.32 input  -65.29 | X-H torsion
[ 10718 10713 10712 10709 ] final   53.85 input   66.30 | X-H torsion
[ 10763 10752 10751 10750 ] final  -74.01 input  -60.55 | X-H torsion
[ 11005 11000 10999 10996 ] final  -53.99 input  -57.11 | X-H torsion

> <Gold.Protein.ActiveResidues>
 VAL166  LYS551  ARG553  GLY616  TRP617  ASP618  TYR619  PRO620  LYS621  CYS622 
 ASP623  PHE694  ASN695  SER759  ASP760  ASP761  ALA762  ILE779  LEU786  VAL792 
 PHE793  MET794  SER795  GLU796  ALA797  LYS798  CYS799  TRP800  GLU811  SER814 

> <Gold.Protein.RotatedAtoms>
  151.3927  135.0958  159.9531 H   0  0  0  0  0  0  0  0  0  0  0  0  # atno 6907 bound_to 6896
  152.5075  133.8964  159.7429 H   0  0  0  0  0  0  0  0  0  0  0  0  # atno 6908 bound_to 6896
  150.9421  133.6589  159.2817 H   0  0  0  0  0  0  0  0  0  0  0  0  # atno 6909 bound_to 6896
  145.5500  140.9498  143.1504 H   0  0  0  0  0  0  0  0  0  0  0  0  # atno 7974 bound_to 7965
  154.9349  140.0404  157.2067 H   0  0  0  0  0  0  0  0  0  0  0  0  # atno 8008 bound_to 7997
  154.8125  140.2870  155.5822 H   0  0  0  0  0  0  0  0  0  0  0  0  # atno 8009 bound_to 7997
  156.2973  140.2534  156.3016 H   0  0  0  0  0  0  0  0  0  0  0  0  # atno 8010 bound_to 7997
  140.1885  144.4109  150.6582 H   0  0  0  0  0  0  0  0  0  0  0  0  # atno 10167 bound_to 10162
  157.5205  130.8561  149.8552 H   0  0  0  0  0  0  0  0  0  0  0  0  # atno 10718 bound_to 10713
  154.4673  135.5878  153.6297 H   0  0  0  0  0  0  0  0  0  0  0  0  # atno 10763 bound_to 10752
  152.9830  135.6058  154.3412 H   0  0  0  0  0  0  0  0  0  0  0  0  # atno 10764 bound_to 10752
  154.3290  135.2842  155.2460 H   0  0  0  0  0  0  0  0  0  0  0  0  # atno 10765 bound_to 10752
  141.1004  133.6619  156.4254 H   0  0  0  0  0  0  0  0  0  0  0  0  # atno 11005 bound_to 11000
  144.7534  139.7136  143.7264 LP  0  0  0  0  0  0  0  0  0  0  0  0  # atno 17320 bound_to 7965
  146.1923  139.5170  142.9797 LP  0  0  0  0  0  0  0  0  0  0  0  0  # atno 17321 bound_to 7965
  140.6472  143.2216  151.6160 LP  0  0  0  0  0  0  0  0  0  0  0  0  # atno 17342 bound_to 10162
  139.5266  144.3042  152.1048 LP  0  0  0  0  0  0  0  0  0  0  0  0  # atno 17343 bound_to 10162
  156.0350  130.3754  150.1585 LP  0  0  0  0  0  0  0  0  0  0  0  0  # atno 17370 bound_to 10713
  156.9773  130.9853  151.3445 LP  0  0  0  0  0  0  0  0  0  0  0  0  # atno 17371 bound_to 10713
  140.5037  134.6461  157.5258 LP  0  0  0  0  0  0  0  0  0  0  0  0  # atno 17394 bound_to 11000
  139.9853  134.7071  155.9785 LP  0  0  0  0  0  0  0  0  0  0  0  0  # atno 17395 bound_to 11000

$$$$
