AV-unprocessed.smi:2004|AV-procd|sdf|8124|dock7
  -GOLD-   2272010363D 1   1.00000     0.00000
 Structure written by MMmdl.
 40 42  0  0  0  0  0  0  0  0  2 V2000
  151.8826  136.6382  155.9396 O   0  0  0  0  0  0  0  0  0  0  0  0
  151.0237  137.7514  156.0910 C   0  0  1  0  0  0  0  0  0  0  0  0
  150.8984  138.0714  157.5881 C   0  0  0  0  0  0  0  0  0  0  0  0
  151.3116  139.4101  157.8069 O   0  0  0  0  0  0  0  0  0  0  0  0
  152.5216  139.4991  158.5416 C   0  0  0  0  0  0  0  0  0  0  0  0
  152.6795  140.8550  159.2018 C   0  0  0  0  0  0  0  0  0  0  0  0
  153.5089  140.9978  160.3342 C   0  0  0  0  0  0  0  0  0  0  0  0
  153.6450  142.2529  160.9591 C   0  0  0  0  0  0  0  0  0  0  0  0
  152.9486  143.3691  160.4568 C   0  0  0  0  0  0  0  0  0  0  0  0
  152.1144  143.2293  159.3309 C   0  0  0  0  0  0  0  0  0  0  0  0
  151.9775  141.9743  158.7061 C   0  0  0  0  0  0  0  0  0  0  0  0
  151.6025  138.9376  155.2945 C   0  0  0  0  0  0  0  0  0  0  0  0
  150.7231  140.1139  155.3050 N   0  0  0  0  0  0  0  0  0  0  0  0
  150.9061  141.3386  155.8685 C   0  0  0  0  0  0  0  0  0  0  0  0
  149.8026  142.0875  155.5916 N   0  3  0  0  0  0  0  0  0  0  0  0
  148.9016  141.3297  154.8399 C   0  0  0  0  0  0  0  0  0  0  0  0
  147.6508  141.6493  154.3203 C   0  0  0  0  0  0  0  0  0  0  0  0
  146.9905  140.6377  153.5919 C   0  0  0  0  0  0  0  0  0  0  0  0
  147.5737  139.3676  153.4035 C   0  0  0  0  0  0  0  0  0  0  0  0
  148.8420  139.0541  153.9351 C   0  0  0  0  0  0  0  0  0  0  0  0
  149.4874  140.0599  154.6530 C   0  0  0  0  0  0  0  0  0  0  0  0
  152.0835  136.2991  156.7989 H   0  0  0  0  0  0  0  0  0  0  0  0
  150.0420  137.4952  155.6911 H   0  0  0  0  0  0  0  0  0  0  0  0
  149.8807  137.9025  157.9444 H   0  0  0  0  0  0  0  0  0  0  0  0
  151.5548  137.4140  158.1605 H   0  0  0  0  0  0  0  0  0  0  0  0
  152.5482  138.7156  159.3008 H   0  0  0  0  0  0  0  0  0  0  0  0
  153.3730  139.3387  157.8787 H   0  0  0  0  0  0  0  0  0  0  0  0
  154.0430  140.1447  160.7265 H   0  0  0  0  0  0  0  0  0  0  0  0
  154.2826  142.3591  161.8244 H   0  0  0  0  0  0  0  0  0  0  0  0
  153.0523  144.3315  160.9362 H   0  0  0  0  0  0  0  0  0  0  0  0
  151.5782  144.0845  158.9470 H   0  0  0  0  0  0  0  0  0  0  0  0
  151.3328  141.8759  157.8448 H   0  0  0  0  0  0  0  0  0  0  0  0
  152.5771  139.2345  155.6840 H   0  0  0  0  0  0  0  0  0  0  0  0
  151.7584  138.6547  154.2523 H   0  0  0  0  0  0  0  0  0  0  0  0
  151.7728  141.6592  156.4286 H   0  0  0  0  0  0  0  0  0  0  0  0
  147.2019  142.6214  154.4624 H   0  0  0  0  0  0  0  0  0  0  0  0
  146.0169  140.8398  153.1690 H   0  0  0  0  0  0  0  0  0  0  0  0
  147.0376  138.6183  152.8393 H   0  0  0  0  0  0  0  0  0  0  0  0
  149.2824  138.0796  153.7846 H   0  0  0  0  0  0  0  0  0  0  0  0
  149.6784  143.0456  155.8925 H   0  0  0  0  0  0  0  0  0  0  0  0
  1  2  1  0  0  0  0
  1 22  1  0  0  0  0
  2  3  1  0  0  0  0
  2 12  1  0  0  0  0
  2 23  1  0  0  0  0
  3  4  1  0  0  0  0
  3 24  1  0  0  0  0
  3 25  1  0  0  0  0
  4  5  1  0  0  0  0
  5  6  1  0  0  0  0
  5 26  1  0  0  0  0
  5 27  1  0  0  0  0
  6 11  1  0  0  0  0
  6  7  2  0  0  0  0
  7  8  1  0  0  0  0
  7 28  1  0  0  0  0
  8  9  2  0  0  0  0
  8 29  1  0  0  0  0
  9 10  1  0  0  0  0
  9 30  1  0  0  0  0
 10 11  2  0  0  0  0
 10 31  1  0  0  0  0
 11 32  1  0  0  0  0
 12 13  1  0  0  0  0
 12 33  1  0  0  0  0
 12 34  1  0  0  0  0
 13 21  1  0  0  0  0
 13 14  1  0  0  0  0
 14 15  2  0  0  0  0
 14 35  1  0  0  0  0
 15 16  1  0  0  0  0
 15 40  1  0  0  0  0
 16 21  2  0  0  0  0
 16 17  1  0  0  0  0
 17 18  2  0  0  0  0
 17 36  1  0  0  0  0
 18 19  1  0  0  0  0
 18 37  1  0  0  0  0
 19 20  2  0  0  0  0
 19 38  1  0  0  0  0
 20 21  1  0  0  0  0
 20 39  1  0  0  0  0
M  CHG  1  15   1
M  END
> <s_m_source_file>
AV-unprocessed.smi

> <i_m_source_file_index>
2004

> <i_lp_mmshare_version>
43012

> <i_f3d_flags>
0

> <s_epik_input>
W2NIXTFbY0hdW2NIXVtjSF1jKGMxMiluKFtjSF1uMilbQ0gyXVtDQEhdKFtPSF0pW0NIMl1PW0NIMl1jM1tjSF1bY0hdW2NIXVtjSF1bY0hdMw==

> <s_epik_cmdline>
J2VwaWtfcHl0aG9uJywgJy1waCcsICc3LjAnLCAnLXRuJywgJzgnLCAnLW1hJywgJzIwMCcsICctbWV0YWxfYmluZGluZycsICctaW1hZScsICc8aW5maWxlLm1hZT4nLCAnLW9tYWUnLCAnPG91dGZpbGUubWFlPic=

> <r_epik_Ionization_Penalty>
1.28975

> <r_epik_Ionization_Penalty_Charging>
1.28975

> <r_epik_Ionization_Penalty_Neutral>
1.07667e-06

> <r_epik_State_Penalty>
1.36276

> <r_epik_Charging_Adjusted_Penalty>
2.65251

> <i_epik_Tot_Q>
1

> <i_epik_Tot_abs_Q>
1

> <r_epik_Metal_State_Penalty>
5.39298

> <b_epik_Metal_Only>
0

> <s_lp_Force_Field>
OPLS_2005

> <r_lp_Energy>
18.9764

> <b_lp_Chiralities_Consistent>
1

> <s_lp_Variant>
AV-unprocessed.smi:2004-4

> <Gold.Version>
5.8.1

> <Gold.Id.Protein>
6NUR|6NUR_protein|mol2

> <Gold.PLP.Fitness>
51.0546

> <Gold.PLP.PLP>
-45.1453

> <Gold.PLP.part.hbond>
-2.0000

> <Gold.PLP.part.metal>
0.0000

> <Gold.PLP.part.buried>
-1.6525

> <Gold.PLP.part.nonpolar>
-40.8346

> <Gold.PLP.part.repulsive>
0.1676

> <Gold.PLP.ligand.clash>
0.0000

> <Gold.PLP.ligand.torsion>
1.5894

> <Gold.PLP.Chemscore.Hbond>
3.0000

> <Gold.PLP.Chemscore.CHOScore>
0.0000

> <Gold.PLP.Chemscore.Metal>
0.0000

> <Gold.Chemscore.Hbonds>
donor molecule, donor type, donor heavy atom, donor atom, acceptor molecule, acceptor atom, score
      L1  H    15    40       P1  8028  1.98
      P1  H 10752 10765       L1     1  0.95

> <Gold.PLP.Chemscore.Internal.Correction>
0.0882

> <Gold.Rescore>
     Score         DG    S(hbond)    S(metal)    S(lipo)     H(rot)  DE(clash)    DE(int)     intcor
     15.55     -19.91       1.79        0.00     125.35       2.43       0.14       4.21       ----

> <Gold.Chemscore.Fitness>
15.5481

> <Gold.Chemscore.DG>
-19.9073

> <Gold.Chemscore.ZeroCoef>
-5.4800

> <Gold.Chemscore.Hbond>
1.7887

> <Gold.Chemscore.Metal>
0.0000

> <Gold.Chemscore.Lipo>
125.3501

> <Gold.Chemscore.Internal_Hbond>
0.0000

> <Gold.Chemscore.DEClash>
0.1448

> <Gold.Chemscore.DEInternal>
4.2144

> <Gold.Chemscore.Rot>
2.4269

> <Gold.Chemscore.Internal.Correction>
   9.000000E+99

> <Gold.Chemscore.Hbonds>
donor molecule, donor type, donor heavy atom, donor atom, acceptor molecule, acceptor atom, score
      L1  H    15    40       P1  8028  0.94
      P1  H 10752 10765       L1     1  0.21

> <Gold.Chemscore.Hbond.Weighted>
-5.9741

> <Gold.Chemscore.Metal.Weighted>
-0.0000

> <Gold.Chemscore.Lipo.Weighted>
-14.6660

> <Gold.Chemscore.Internal_Hbond.Weighted>
0.0000

> <Gold.Chemscore.DEClash.Weighted>
0.1448

> <Gold.Chemscore.DEInternal.Weighted>
4.2144

> <Gold.Chemscore.Rot.Weighted>
6.2127

> <Gold.Chemscore.Internal.Correction.Weighted>
   9.000000E+99

> <Gold.Protein.RotatedTorsions>
[ 6907 6896 6895 6894 ] final  -16.75 input  -60.11 | X-H torsion
[ 7974 7965 7964 7962 ] final  -63.03 input  175.53 | X-H torsion
[ 8008 7997 7996 7995 ] final -155.71 input   59.86 | X-H torsion
[ 10167 10162 10161 10158 ] final -170.66 input  -65.29 | X-H torsion
[ 10718 10713 10712 10709 ] final   85.83 input   66.30 | X-H torsion
[ 10763 10752 10751 10750 ] final -162.03 input  -60.55 | X-H torsion
[ 11005 11000 10999 10996 ] final   69.41 input  -57.11 | X-H torsion

> <Gold.Protein.ActiveResidues>
 VAL166  LYS551  ARG553  GLY616  TRP617  ASP618  TYR619  PRO620  LYS621  CYS622 
 ASP623  PHE694  ASN695  SER759  ASP760  ASP761  ALA762  ILE779  LEU786  VAL792 
 PHE793  MET794  SER795  GLU796  ALA797  LYS798  CYS799  TRP800  GLU811  SER814 

> <Gold.Protein.RotatedAtoms>
  151.3038  135.0776  159.9247 H   0  0  0  0  0  0  0  0  0  0  0  0  # atno 6907 bound_to 6896
  152.5292  133.9806  159.7815 H   0  0  0  0  0  0  0  0  0  0  0  0  # atno 6908 bound_to 6896
  151.0098  133.5925  159.2714 H   0  0  0  0  0  0  0  0  0  0  0  0  # atno 6909 bound_to 6896
  145.7840  140.8746  143.0315 H   0  0  0  0  0  0  0  0  0  0  0  0  # atno 7974 bound_to 7965
  155.7061  140.0772  157.2390 H   0  0  0  0  0  0  0  0  0  0  0  0  # atno 8008 bound_to 7997
  154.4065  140.1638  156.2298 H   0  0  0  0  0  0  0  0  0  0  0  0  # atno 8009 bound_to 7997
  155.9325  140.3390  155.6263 H   0  0  0  0  0  0  0  0  0  0  0  0  # atno 8010 bound_to 7997
  139.5848  144.1342  152.1562 H   0  0  0  0  0  0  0  0  0  0  0  0  # atno 10167 bound_to 10162
  157.6920  131.0190  150.2881 H   0  0  0  0  0  0  0  0  0  0  0  0  # atno 10718 bound_to 10713
  154.7251  135.3034  154.8985 H   0  0  0  0  0  0  0  0  0  0  0  0  # atno 10763 bound_to 10752
  153.9845  135.6726  153.4755 H   0  0  0  0  0  0  0  0  0  0  0  0  # atno 10764 bound_to 10752
  153.0867  135.4980  154.8530 H   0  0  0  0  0  0  0  0  0  0  0  0  # atno 10765 bound_to 10752
  139.9655  134.6988  156.0554 H   0  0  0  0  0  0  0  0  0  0  0  0  # atno 11005 bound_to 11000
  144.6792  140.0029  143.7484 LP  0  0  0  0  0  0  0  0  0  0  0  0  # atno 17320 bound_to 7965
  146.0045  139.3118  143.0907 LP  0  0  0  0  0  0  0  0  0  0  0  0  # atno 17321 bound_to 7965
  140.0903  144.5626  150.7059 LP  0  0  0  0  0  0  0  0  0  0  0  0  # atno 17342 bound_to 10162
  140.7122  143.2514  151.4547 LP  0  0  0  0  0  0  0  0  0  0  0  0  # atno 17343 bound_to 10162
  156.3416  130.3816  149.7404 LP  0  0  0  0  0  0  0  0  0  0  0  0  # atno 17370 bound_to 10713
  156.4911  130.8085  151.3095 LP  0  0  0  0  0  0  0  0  0  0  0  0  # atno 17371 bound_to 10713
  141.1335  133.6580  156.3528 LP  0  0  0  0  0  0  0  0  0  0  0  0  # atno 17394 bound_to 11000
  140.5405  134.6125  157.5378 LP  0  0  0  0  0  0  0  0  0  0  0  0  # atno 17395 bound_to 11000

$$$$
