AV-unprocessed.smi:1289|AV-procd|sdf|5386|dock1
  -GOLD-   22720 4533D 1   1.00000     0.00000
 Structure written by MMmdl.
 37 39  0  0  0  0  0  0  0  0  1 V2000
  143.5307  146.4285  153.8963 N   0  0  0  0  0  0  0  0  0  0  0  0
  144.0978  145.4399  154.0953 C   0  0  0  0  0  0  0  0  0  0  0  0
  144.8103  144.1980  154.3451 C   0  0  0  0  0  0  0  0  0  0  0  0
  144.5496  143.4544  155.5127 C   0  0  0  0  0  0  0  0  0  0  0  0
  145.2395  142.2497  155.7498 C   0  0  0  0  0  0  0  0  0  0  0  0
  146.1938  141.7699  154.8291 C   0  0  0  0  0  0  0  0  0  0  0  0
  146.8157  140.5786  155.1361 O   0  0  0  0  0  0  0  0  0  0  0  0
  147.7546  140.0517  154.2076 C   0  0  0  0  0  0  0  0  0  0  0  0
  149.1522  140.0604  154.8468 C   0  0  1  0  0  0  0  0  0  0  0  0
  150.1142  140.1720  153.8155 O   0  0  0  0  0  0  0  0  0  0  0  0
  149.3260  141.2406  155.8230 C   0  0  0  0  0  0  0  0  0  0  0  0
  150.5277  141.1276  156.6313 N   0  0  0  0  0  0  0  0  0  0  0  0
  151.4453  140.1422  156.5895 C   0  0  0  0  0  0  0  0  0  0  0  0
  152.4768  140.2338  157.4238 N   0  0  0  0  0  0  0  0  0  0  0  0
  152.1994  141.4198  158.0817 C   0  0  0  0  0  0  0  0  0  0  0  0
  152.9116  142.0920  159.1008 C   0  0  0  0  0  0  0  0  0  0  0  0
  152.4282  143.3081  159.6269 C   0  0  0  0  0  0  0  0  0  0  0  0
  151.2282  143.8699  159.1440 C   0  0  0  0  0  0  0  0  0  0  0  0
  150.5006  143.2179  158.1298 C   0  0  0  0  0  0  0  0  0  0  0  0
  150.9863  142.0050  157.6075 C   0  0  0  0  0  0  0  0  0  0  0  0
  146.4542  142.5271  153.6587 C   0  0  0  0  0  0  0  0  0  0  0  0
  145.7651  143.7320  153.4199 C   0  0  0  0  0  0  0  0  0  0  0  0
  143.8201  143.8009  156.2309 H   0  0  0  0  0  0  0  0  0  0  0  0
  145.0309  141.6858  156.6472 H   0  0  0  0  0  0  0  0  0  0  0  0
  147.4865  139.0428  153.8879 H   0  0  0  0  0  0  0  0  0  0  0  0
  147.7557  140.6924  153.3242 H   0  0  0  0  0  0  0  0  0  0  0  0
  149.3162  139.1255  155.3847 H   0  0  0  0  0  0  0  0  0  0  0  0
  149.7066  139.9276  152.9987 H   0  0  0  0  0  0  0  0  0  0  0  0
  149.3621  142.1838  155.2755 H   0  0  0  0  0  0  0  0  0  0  0  0
  148.4693  141.3038  156.4952 H   0  0  0  0  0  0  0  0  0  0  0  0
  151.3473  139.3074  155.9108 H   0  0  0  0  0  0  0  0  0  0  0  0
  153.8318  141.6713  159.4782 H   0  0  0  0  0  0  0  0  0  0  0  0
  152.9813  143.8130  160.4054 H   0  0  0  0  0  0  0  0  0  0  0  0
  150.8667  144.8019  159.5531 H   0  0  0  0  0  0  0  0  0  0  0  0
  149.5806  143.6437  157.7577 H   0  0  0  0  0  0  0  0  0  0  0  0
  147.1792  142.2055  152.9265 H   0  0  0  0  0  0  0  0  0  0  0  0
  145.9745  144.2947  152.5211 H   0  0  0  0  0  0  0  0  0  0  0  0
  1  2  3  0  0  0  0
  2  3  1  0  0  0  0
  3 22  1  0  0  0  0
  3  4  2  0  0  0  0
  4  5  1  0  0  0  0
  4 23  1  0  0  0  0
  5  6  2  0  0  0  0
  5 24  1  0  0  0  0
  6  7  1  0  0  0  0
  6 21  1  0  0  0  0
  7  8  1  0  0  0  0
  8  9  1  0  0  0  0
  8 25  1  0  0  0  0
  8 26  1  0  0  0  0
  9 10  1  0  0  0  0
  9 11  1  0  0  0  0
  9 27  1  0  0  0  0
 10 28  1  0  0  0  0
 11 12  1  0  0  0  0
 11 29  1  0  0  0  0
 11 30  1  0  0  0  0
 12 20  1  0  0  0  0
 12 13  1  0  0  0  0
 13 14  2  0  0  0  0
 13 31  1  0  0  0  0
 14 15  1  0  0  0  0
 15 20  2  0  0  0  0
 15 16  1  0  0  0  0
 16 17  2  0  0  0  0
 16 32  1  0  0  0  0
 17 18  1  0  0  0  0
 17 33  1  0  0  0  0
 18 19  2  0  0  0  0
 18 34  1  0  0  0  0
 19 20  1  0  0  0  0
 19 35  1  0  0  0  0
 21 22  2  0  0  0  0
 21 36  1  0  0  0  0
 22 37  1  0  0  0  0
M  END
> <s_m_source_file>
AV-unprocessed.smi

> <i_m_source_file_index>
1289

> <i_lp_mmshare_version>
43012

> <i_f3d_flags>
0

> <s_epik_input>
TiNDYzFbY0hdW2NIXWMoW2NIXVtjSF0xKU9bQ0gyXVtDQEhdKFtPSF0pW0NIMl1uKFtjSF1uMiljKGMyMylbY0hdW2NIXVtjSF1bY0hdMw==

> <s_epik_cmdline>
J2VwaWtfcHl0aG9uJywgJy1waCcsICc3LjAnLCAnLXRuJywgJzgnLCAnLW1hJywgJzIwMCcsICctbWV0YWxfYmluZGluZycsICctaW1hZScsICc8aW5maWxlLm1hZT4nLCAnLW9tYWUnLCAnPG91dGZpbGUubWFlPic=

> <r_epik_Ionization_Penalty>
0.0590811

> <r_epik_Ionization_Penalty_Charging>
0

> <r_epik_Ionization_Penalty_Neutral>
0.0590811

> <r_epik_State_Penalty>
0.0511328

> <r_epik_Charging_Adjusted_Penalty>
0.0511328

> <i_epik_Tot_Q>
0

> <i_epik_Tot_abs_Q>
0

> <r_epik_Metal_State_Penalty>
5.34017e-05

> <b_epik_Metal_Only>
0

> <s_lp_Force_Field>
OPLS_2005

> <r_lp_Energy>
16.0199

> <b_lp_Chiralities_Consistent>
1

> <s_lp_Variant>
AV-unprocessed.smi:1289-2

> <Gold.Version>
5.8.1

> <Gold.Id.Protein>
6NUR|6NUR_protein|mol2

> <Gold.PLP.Fitness>
52.0399

> <Gold.PLP.PLP>
-44.9334

> <Gold.PLP.part.hbond>
-4.2106

> <Gold.PLP.part.metal>
0.0000

> <Gold.PLP.part.buried>
-7.6164

> <Gold.PLP.part.nonpolar>
-33.7935

> <Gold.PLP.part.repulsive>
0.1059

> <Gold.PLP.ligand.clash>
0.0000

> <Gold.PLP.ligand.torsion>
0.7709

> <Gold.PLP.Chemscore.Hbond>
2.8160

> <Gold.PLP.Chemscore.CHOScore>
0.0000

> <Gold.PLP.Chemscore.Metal>
0.0000

> <Gold.Chemscore.Hbonds>
donor molecule, donor type, donor heavy atom, donor atom, acceptor molecule, acceptor atom, score
      L1  H    10    28       P1  7957  0.99
      P1  H  7989  7998       L1    10  0.80
      P1  H  7997  8009       L1    14  0.94

> <Gold.PLP.Chemscore.Internal.Correction>
0.2003

> <Gold.Rescore>
     Score         DG    S(hbond)    S(metal)    S(lipo)     H(rot)  DE(clash)    DE(int)     intcor
     18.56     -19.41       2.43        0.00     104.15       2.50       0.08       0.77       ----

> <Gold.Chemscore.Fitness>
18.5582

> <Gold.Chemscore.DG>
-19.4074

> <Gold.Chemscore.ZeroCoef>
-5.4800

> <Gold.Chemscore.Hbond>
2.4343

> <Gold.Chemscore.Metal>
0.0000

> <Gold.Chemscore.Lipo>
104.1450

> <Gold.Chemscore.Internal_Hbond>
0.0000

> <Gold.Chemscore.DEClash>
0.0820

> <Gold.Chemscore.DEInternal>
0.7671

> <Gold.Chemscore.Rot>
2.4954

> <Gold.Chemscore.Internal.Correction>
   9.000000E+99

> <Gold.Chemscore.Hbonds>
donor molecule, donor type, donor heavy atom, donor atom, acceptor molecule, acceptor atom, score
      L1  H    10    28       P1  7957  0.94
      P1  H  7989  7998       L1    10  0.52
      P1  H  7997  8009       L1    14  0.74

> <Gold.Chemscore.Hbond.Weighted>
-8.1307

> <Gold.Chemscore.Metal.Weighted>
-0.0000

> <Gold.Chemscore.Lipo.Weighted>
-12.1850

> <Gold.Chemscore.Internal_Hbond.Weighted>
0.0000

> <Gold.Chemscore.DEClash.Weighted>
0.0820

> <Gold.Chemscore.DEInternal.Weighted>
0.7671

> <Gold.Chemscore.Rot.Weighted>
6.3883

> <Gold.Chemscore.Internal.Correction.Weighted>
   9.000000E+99

> <Gold.Protein.RotatedTorsions>
[ 6907 6896 6895 6894 ] final -138.47 input  -60.11 | X-H torsion
[ 7974 7965 7964 7962 ] final -106.80 input  175.53 | X-H torsion
[ 8008 7997 7996 7995 ] final  173.42 input   59.86 | X-H torsion
[ 10167 10162 10161 10158 ] final   -3.18 input  -65.29 | X-H torsion
[ 10718 10713 10712 10709 ] final   35.89 input   66.30 | X-H torsion
[ 10763 10752 10751 10750 ] final   38.97 input  -60.55 | X-H torsion
[ 11005 11000 10999 10996 ] final   81.39 input  -57.11 | X-H torsion

> <Gold.Protein.ActiveResidues>
 VAL166  LYS551  ARG553  GLY616  TRP617  ASP618  TYR619  PRO620  LYS621  CYS622 
 ASP623  PHE694  ASN695  SER759  ASP760  ASP761  ALA762  ILE779  LEU786  VAL792 
 PHE793  MET794  SER795  GLU796  ALA797  LYS798  CYS799  TRP800  GLU811  SER814 

> <Gold.Protein.RotatedAtoms>
  151.0354  133.5753  159.2656 H   0  0  0  0  0  0  0  0  0  0  0  0  # atno 6907 bound_to 6896
  151.2819  135.0715  159.9182 H   0  0  0  0  0  0  0  0  0  0  0  0  # atno 6908 bound_to 6896
  152.5353  134.0068  159.7974 H   0  0  0  0  0  0  0  0  0  0  0  0  # atno 6909 bound_to 6896
  145.2133  140.9105  143.3301 H   0  0  0  0  0  0  0  0  0  0  0  0  # atno 7974 bound_to 7965
  156.1077  140.1460  156.9381 H   0  0  0  0  0  0  0  0  0  0  0  0  # atno 8008 bound_to 7997
  154.4745  140.0899  156.7272 H   0  0  0  0  0  0  0  0  0  0  0  0  # atno 8009 bound_to 7997
  155.4650  140.3439  155.4320 H   0  0  0  0  0  0  0  0  0  0  0  0  # atno 8010 bound_to 7997
  140.6880  143.6570  150.8300 H   0  0  0  0  0  0  0  0  0  0  0  0  # atno 10167 bound_to 10162
  157.3282  130.7484  149.6830 H   0  0  0  0  0  0  0  0  0  0  0  0  # atno 10718 bound_to 10713
  152.9983  135.6234  154.2390 H   0  0  0  0  0  0  0  0  0  0  0  0  # atno 10763 bound_to 10752
  154.2131  135.2799  155.2953 H   0  0  0  0  0  0  0  0  0  0  0  0  # atno 10764 bound_to 10752
  154.5590  135.5711  153.7049 H   0  0  0  0  0  0  0  0  0  0  0  0  # atno 10765 bound_to 10752
  139.9100  134.7993  156.2036 H   0  0  0  0  0  0  0  0  0  0  0  0  # atno 11005 bound_to 11000
  144.9835  139.3760  143.6250 LP  0  0  0  0  0  0  0  0  0  0  0  0  # atno 17320 bound_to 7965
  146.3392  139.8986  142.8798 LP  0  0  0  0  0  0  0  0  0  0  0  0  # atno 17321 bound_to 7965
  140.0279  143.5474  152.2772 LP  0  0  0  0  0  0  0  0  0  0  0  0  # atno 17342 bound_to 10162
  139.6256  144.7636  151.2646 LP  0  0  0  0  0  0  0  0  0  0  0  0  # atno 17343 bound_to 10162
  155.9693  130.4203  150.4416 LP  0  0  0  0  0  0  0  0  0  0  0  0  # atno 17370 bound_to 10713
  157.2443  131.0532  151.2418 LP  0  0  0  0  0  0  0  0  0  0  0  0  # atno 17371 bound_to 10713
  141.0509  133.6889  156.1771 LP  0  0  0  0  0  0  0  0  0  0  0  0  # atno 17394 bound_to 11000
  140.6811  134.4766  157.5589 LP  0  0  0  0  0  0  0  0  0  0  0  0  # atno 17395 bound_to 11000

$$$$
