AV-unprocessed.smi:173|AV-procd|sdf|1423|dock1
  -GOLD-   2262019193D 1   1.00000     0.00000
 Structure written by MMmdl.
 60 64  0  0  0  0  0  0  0  0  1 V2000
  147.8011  131.8268  152.4366 O   0  0  0  0  0  0  0  0  0  0  0  0
  146.4227  131.8221  152.7659 C   0  0  0  0  0  0  0  0  0  0  0  0
  146.2746  131.2453  154.1965 C   0  0  0  0  0  0  0  0  0  0  0  0
  146.6732  132.1685  155.2474 N   0  0  0  0  0  0  0  0  0  0  0  0
  145.9165  133.1875  155.7823 C   0  0  0  0  0  0  0  0  0  0  0  0
  146.4923  133.8691  156.7351 N   0  0  0  0  0  0  0  0  0  0  0  0
  147.7446  133.2809  156.8558 C   0  0  0  0  0  0  0  0  0  0  0  0
  148.8620  133.5069  157.6997 C   0  0  0  0  0  0  0  0  0  0  0  0
  148.8541  134.4640  158.6548 N   0  0  0  0  0  0  0  0  0  0  0  0
  149.0311  135.8332  158.1616 C   0  0  0  0  0  0  0  0  0  0  0  0
  150.2253  136.5533  158.8171 C   0  0  2  0  0  0  0  0  0  0  0  0
  150.7090  137.7696  158.0329 C   0  0  0  0  0  0  0  0  0  0  0  0
  152.1392  137.9493  158.5153 C   0  0  0  0  0  0  0  0  0  0  0  0
  152.5031  136.5842  159.1074 C   0  0  0  0  0  0  0  0  0  0  0  0
  151.3923  135.7450  158.8243 O   0  0  0  0  0  0  0  0  0  0  0  0
  147.9024  134.1709  159.7303 C   0  0  0  0  0  0  0  0  0  0  0  0
  148.0577  135.0312  160.9896 C   0  0  0  0  0  0  0  0  0  0  0  0
  147.3221  134.2494  162.0867 C   0  0  0  0  0  0  0  0  0  0  0  0
  147.1758  132.8050  161.5764 C   0  0  0  0  0  0  0  0  0  0  0  0
  147.9511  132.7348  160.2574 C   0  0  0  0  0  0  0  0  0  0  0  0
  149.9583  132.7211  157.5327 N   0  0  0  0  0  0  0  0  0  0  0  0
  149.9541  131.7628  156.6013 C   0  0  0  0  0  0  0  0  0  0  0  0
  148.9800  131.4280  155.7514 N   0  0  0  0  0  0  0  0  0  0  0  0
  147.8816  132.2196  155.9194 C   0  0  0  0  0  0  0  0  0  0  0  0
  145.9056  133.2738  152.7155 C   0  0  0  0  0  0  0  0  0  0  0  0
  145.8708  133.8282  151.2801 C   0  0  0  0  0  0  0  0  0  0  0  0
  145.0939  132.9750  150.4487 O   0  0  0  0  0  0  0  0  0  0  0  0
  145.6494  131.6709  150.3315 C   0  0  0  0  0  0  0  0  0  0  0  0
  145.6766  130.9808  151.7069 C   0  0  0  0  0  0  0  0  0  0  0  0
  147.9294  131.2924  151.6677 H   0  0  0  0  0  0  0  0  0  0  0  0
  145.2425  130.9427  154.3798 H   0  0  0  0  0  0  0  0  0  0  0  0
  146.8771  130.3414  154.2982 H   0  0  0  0  0  0  0  0  0  0  0  0
  144.9110  133.4018  155.4500 H   0  0  0  0  0  0  0  0  0  0  0  0
  149.1371  135.8379  157.0760 H   0  0  0  0  0  0  0  0  0  0  0  0
  148.1299  136.4047  158.3751 H   0  0  0  0  0  0  0  0  0  0  0  0
  149.9794  136.8502  159.8389 H   0  0  0  0  0  0  0  0  0  0  0  0
  150.7090  137.5496  156.9644 H   0  0  0  0  0  0  0  0  0  0  0  0
  150.0904  138.6524  158.1955 H   0  0  0  0  0  0  0  0  0  0  0  0
  152.8014  138.2324  157.6965 H   0  0  0  0  0  0  0  0  0  0  0  0
  152.2011  138.7232  159.2811 H   0  0  0  0  0  0  0  0  0  0  0  0
  153.4169  136.1724  158.6786 H   0  0  0  0  0  0  0  0  0  0  0  0
  152.6355  136.6553  160.1879 H   0  0  0  0  0  0  0  0  0  0  0  0
  146.8920  134.3294  159.3469 H   0  0  0  0  0  0  0  0  0  0  0  0
  149.1084  135.1251  161.2656 H   0  0  0  0  0  0  0  0  0  0  0  0
  147.6608  136.0383  160.8583 H   0  0  0  0  0  0  0  0  0  0  0  0
  147.8731  134.2887  163.0268 H   0  0  0  0  0  0  0  0  0  0  0  0
  146.3374  134.6810  162.2694 H   0  0  0  0  0  0  0  0  0  0  0  0
  147.5402  132.0739  162.2985 H   0  0  0  0  0  0  0  0  0  0  0  0
  146.1225  132.5871  161.3961 H   0  0  0  0  0  0  0  0  0  0  0  0
  147.5202  132.0187  159.5569 H   0  0  0  0  0  0  0  0  0  0  0  0
  148.9727  132.4195  160.4658 H   0  0  0  0  0  0  0  0  0  0  0  0
  150.8589  131.1776  156.5297 H   0  0  0  0  0  0  0  0  0  0  0  0
  144.8941  133.3105  153.1224 H   0  0  0  0  0  0  0  0  0  0  0  0
  146.5132  133.9194  153.3510 H   0  0  0  0  0  0  0  0  0  0  0  0
  145.4234  134.8223  151.2761 H   0  0  0  0  0  0  0  0  0  0  0  0
  146.8776  133.9344  150.8736 H   0  0  0  0  0  0  0  0  0  0  0  0
  145.0396  131.0921  149.6379 H   0  0  0  0  0  0  0  0  0  0  0  0
  146.6500  131.7260  149.8996 H   0  0  0  0  0  0  0  0  0  0  0  0
  146.1258  129.9919  151.6075 H   0  0  0  0  0  0  0  0  0  0  0  0
  144.6490  130.8200  152.0350 H   0  0  0  0  0  0  0  0  0  0  0  0
  1  2  1  0  0  0  0
  1 30  1  0  0  0  0
  2 29  1  0  0  0  0
  2  3  1  0  0  0  0
  2 25  1  0  0  0  0
  3  4  1  0  0  0  0
  3 31  1  0  0  0  0
  3 32  1  0  0  0  0
  4 24  1  0  0  0  0
  4  5  1  0  0  0  0
  5  6  2  0  0  0  0
  5 33  1  0  0  0  0
  6  7  1  0  0  0  0
  7 24  2  0  0  0  0
  7  8  1  0  0  0  0
  8  9  1  0  0  0  0
  8 21  2  0  0  0  0
  9 10  1  0  0  0  0
  9 16  1  0  0  0  0
 10 11  1  0  0  0  0
 10 34  1  0  0  0  0
 10 35  1  0  0  0  0
 11 15  1  0  0  0  0
 11 12  1  0  0  0  0
 11 36  1  0  0  0  0
 12 13  1  0  0  0  0
 12 37  1  0  0  0  0
 12 38  1  0  0  0  0
 13 14  1  0  0  0  0
 13 39  1  0  0  0  0
 13 40  1  0  0  0  0
 14 15  1  0  0  0  0
 14 41  1  0  0  0  0
 14 42  1  0  0  0  0
 16 20  1  0  0  0  0
 16 17  1  0  0  0  0
 16 43  1  0  0  0  0
 17 18  1  0  0  0  0
 17 44  1  0  0  0  0
 17 45  1  0  0  0  0
 18 19  1  0  0  0  0
 18 46  1  0  0  0  0
 18 47  1  0  0  0  0
 19 20  1  0  0  0  0
 19 48  1  0  0  0  0
 19 49  1  0  0  0  0
 20 50  1  0  0  0  0
 20 51  1  0  0  0  0
 21 22  1  0  0  0  0
 22 23  2  0  0  0  0
 22 52  1  0  0  0  0
 23 24  1  0  0  0  0
 25 26  1  0  0  0  0
 25 53  1  0  0  0  0
 25 54  1  0  0  0  0
 26 27  1  0  0  0  0
 26 55  1  0  0  0  0
 26 56  1  0  0  0  0
 27 28  1  0  0  0  0
 28 29  1  0  0  0  0
 28 57  1  0  0  0  0
 28 58  1  0  0  0  0
 29 59  1  0  0  0  0
 29 60  1  0  0  0  0
M  END
> <s_m_source_file>
AV-unprocessed.smi

> <i_m_source_file_index>
173

> <i_lp_mmshare_version>
43012

> <i_f3d_flags>
0

> <s_epik_input>
W0NIMl0xW0NIMl1PW0NIMl1bQ0gyXUMxKFtPSF0pW0NIMl1uKFtjSF1uMiljKGMyMyluW2NIXW5jM04oW0NIMl1bQ0BASF00W0NIMl1bQ0gyXVtDSDJdTzQpW0NIXTVbQ0gyXVtDSDJdW0NIMl1bQ0gyXTU=

> <s_epik_cmdline>
J2VwaWtfcHl0aG9uJywgJy1waCcsICc3LjAnLCAnLXRuJywgJzgnLCAnLW1hJywgJzIwMCcsICctbWV0YWxfYmluZGluZycsICctaW1hZScsICc8aW5maWxlLm1hZT4nLCAnLW9tYWUnLCAnPG91dGZpbGUubWFlPic=

> <r_lp_tautomer_probability>
1

> <r_epik_Ionization_Penalty>
0.0053129

> <r_epik_Ionization_Penalty_Charging>
0

> <r_epik_Ionization_Penalty_Neutral>
0.0053129

> <r_epik_State_Penalty>
0.00367355

> <r_epik_Charging_Adjusted_Penalty>
0.00367355

> <i_epik_Tot_Q>
0

> <i_epik_Tot_abs_Q>
0

> <r_epik_Metal_State_Penalty>
-0

> <b_epik_Metal_Only>
0

> <s_lp_Force_Field>
OPLS_2005

> <r_lp_Energy>
56.2303

> <b_lp_Chiralities_Consistent>
1

> <s_lp_Variant>
AV-unprocessed.smi:173-1

> <Gold.Version>
5.8.1

> <Gold.Id.Protein>
6NUR|6NUR_protein|mol2

> <Gold.PLP.Fitness>
45.6915

> <Gold.PLP.PLP>
-35.7363

> <Gold.PLP.part.hbond>
-3.0000

> <Gold.PLP.part.metal>
0.0000

> <Gold.PLP.part.buried>
-7.5627

> <Gold.PLP.part.nonpolar>
-26.1059

> <Gold.PLP.part.repulsive>
0.1518

> <Gold.PLP.ligand.clash>
0.0000

> <Gold.PLP.ligand.torsion>
1.6038

> <Gold.PLP.Chemscore.Hbond>
2.9920

> <Gold.PLP.Chemscore.CHOScore>
0.9852

> <Gold.PLP.Chemscore.Metal>
0.0000

> <Gold.Chemscore.Hbonds>
donor molecule, donor type, donor heavy atom, donor atom, acceptor molecule, acceptor atom, score
      L1  H     1    30       P1 10747  0.94
      P1  H  6896  6907       L1    21  0.48
      P1  H  6896  6908       L1    15  0.09
      L1  C     5    33       P1 10957  0.22

> <Gold.PLP.Chemscore.Internal.Correction>
1.2312

> <Gold.Rescore>
     Score         DG    S(hbond)    S(metal)    S(lipo)     H(rot)  DE(clash)    DE(int)     intcor
     14.85     -17.28       2.48        0.00      86.70       2.59       0.00       2.43       ----

> <Gold.Chemscore.Fitness>
14.8512

> <Gold.Chemscore.DG>
-17.2793

> <Gold.Chemscore.ZeroCoef>
-5.4800

> <Gold.Chemscore.Hbond>
2.4821

> <Gold.Chemscore.Metal>
0.0000

> <Gold.Chemscore.Lipo>
86.6974

> <Gold.Chemscore.Internal_Hbond>
0.0000

> <Gold.Chemscore.DEClash>
0.0000

> <Gold.Chemscore.DEInternal>
2.4281

> <Gold.Chemscore.Rot>
2.5916

> <Gold.Chemscore.Internal.Correction>
   9.000000E+99

> <Gold.Chemscore.Hbonds>
donor molecule, donor type, donor heavy atom, donor atom, acceptor molecule, acceptor atom, score
      L1  H     1    30       P1 10747  0.92
      P1  H  6896  6907       L1    21  0.04
      P1  H  6896  6908       L1    15  0.01

> <Gold.Chemscore.Hbond.Weighted>
-8.2903

> <Gold.Chemscore.Metal.Weighted>
-0.0000

> <Gold.Chemscore.Lipo.Weighted>
-10.1436

> <Gold.Chemscore.Internal_Hbond.Weighted>
0.0000

> <Gold.Chemscore.DEClash.Weighted>
0.0000

> <Gold.Chemscore.DEInternal.Weighted>
2.4281

> <Gold.Chemscore.Rot.Weighted>
6.6346

> <Gold.Chemscore.Internal.Correction.Weighted>
   9.000000E+99

> <Gold.Protein.RotatedTorsions>
[ 6907 6896 6895 6894 ] final -135.77 input  -60.11 | X-H torsion
[ 7974 7965 7964 7962 ] final   47.92 input  175.53 | X-H torsion
[ 8008 7997 7996 7995 ] final  138.83 input   59.86 | X-H torsion
[ 10167 10162 10161 10158 ] final   12.12 input  -65.29 | X-H torsion
[ 10718 10713 10712 10709 ] final -157.67 input   66.30 | X-H torsion
[ 10763 10752 10751 10750 ] final   88.96 input  -60.55 | X-H torsion
[ 11005 11000 10999 10996 ] final  -69.71 input  -57.11 | X-H torsion

> <Gold.Protein.ActiveResidues>
 VAL166  LYS551  ARG553  GLY616  TRP617  ASP618  TYR619  PRO620  LYS621  CYS622 
 ASP623  PHE694  ASN695  SER759  ASP760  ASP761  ALA762  ILE779  LEU786  VAL792 
 PHE793  MET794  SER795  GLU796  ALA797  LYS798  CYS799  TRP800  GLU811  SER814 

> <Gold.Protein.RotatedAtoms>
  151.0020  133.6047  159.2693 H   0  0  0  0  0  0  0  0  0  0  0  0  # atno 6907 bound_to 6896
  151.3230  135.0822  159.9322 H   0  0  0  0  0  0  0  0  0  0  0  0  # atno 6908 bound_to 6896
  152.5276  133.9663  159.7795 H   0  0  0  0  0  0  0  0  0  0  0  0  # atno 6909 bound_to 6896
  146.0253  139.4699  142.9872 H   0  0  0  0  0  0  0  0  0  0  0  0  # atno 7974 bound_to 7965
  156.2994  140.2383  156.4138 H   0  0  0  0  0  0  0  0  0  0  0  0  # atno 8008 bound_to 7997
  154.8417  140.0428  157.1566 H   0  0  0  0  0  0  0  0  0  0  0  0  # atno 8009 bound_to 7997
  154.9095  140.2988  155.5277 H   0  0  0  0  0  0  0  0  0  0  0  0  # atno 8010 bound_to 7997
  140.6088  143.8451  150.7043 H   0  0  0  0  0  0  0  0  0  0  0  0  # atno 10167 bound_to 10162
  156.5435  130.8574  151.2756 H   0  0  0  0  0  0  0  0  0  0  0  0  # atno 10718 bound_to 10713
  153.1821  135.4488  155.0042 H   0  0  0  0  0  0  0  0  0  0  0  0  # atno 10763 bound_to 10752
  154.8037  135.3266  154.7488 H   0  0  0  0  0  0  0  0  0  0  0  0  # atno 10764 bound_to 10752
  153.7951  135.6967  153.4920 H   0  0  0  0  0  0  0  0  0  0  0  0  # atno 10765 bound_to 10752
  141.1559  133.6771  156.6641 H   0  0  0  0  0  0  0  0  0  0  0  0  # atno 11005 bound_to 11000
  145.7128  141.0100  143.1444 LP  0  0  0  0  0  0  0  0  0  0  0  0  # atno 17320 bound_to 7965
  144.7007  139.8778  143.7445 LP  0  0  0  0  0  0  0  0  0  0  0  0  # atno 17321 bound_to 7965
  140.2014  143.3956  152.1788 LP  0  0  0  0  0  0  0  0  0  0  0  0  # atno 17342 bound_to 10162
  139.5345  144.7195  151.4940 LP  0  0  0  0  0  0  0  0  0  0  0  0  # atno 17343 bound_to 10162
  157.7401  130.9844  150.2355 LP  0  0  0  0  0  0  0  0  0  0  0  0  # atno 17370 bound_to 10713
  156.2950  130.3750  149.7805 LP  0  0  0  0  0  0  0  0  0  0  0  0  # atno 17371 bound_to 10713
  140.3225  134.7996  157.4263 LP  0  0  0  0  0  0  0  0  0  0  0  0  # atno 17394 bound_to 11000
  140.1085  134.5377  155.8287 LP  0  0  0  0  0  0  0  0  0  0  0  0  # atno 17395 bound_to 11000

$$$$
