AV-unprocessed.smi:2836|AV-procd|sdf|10919|dock2
  -GOLD-   2272015363D 1   1.00000     0.00000
 Structure written by MMmdl.
 30 31  0  0  0  0  0  0  0  0  1 V2000
  146.4282  140.3832  153.4714 N   0  0  0  0  0  0  0  0  0  0  0  0
  146.9087  141.2715  154.3461 C   0  0  0  0  0  0  0  0  0  0  0  0
  146.2482  142.2195  154.7648 O   0  0  0  0  0  0  0  0  0  0  0  0
  148.3373  141.0827  154.7510 C   0  0  0  0  0  0  0  0  0  0  0  0
  149.2325  140.1033  154.2464 C   0  0  0  0  0  0  0  0  0  0  0  0
  150.4311  140.2318  154.7962 N   0  0  0  0  0  0  0  0  0  0  0  0
  150.3244  141.2947  155.6342 N   0  0  0  0  0  0  0  0  0  0  0  0
  151.4816  141.7295  156.3943 C   0  0  0  0  0  0  0  0  0  0  0  0
  151.2459  141.6323  157.9084 C   0  0  0  0  0  0  0  0  0  0  0  0
  151.6270  142.8566  158.5211 O   0  0  0  0  0  0  0  0  0  0  0  0
  152.1774  142.8207  159.7845 C   0  0  0  0  0  0  0  0  0  0  0  0
  152.9413  141.7351  160.2836 C   0  0  0  0  0  0  0  0  0  0  0  0
  153.4741  141.7767  161.5866 C   0  0  0  0  0  0  0  0  0  0  0  0
  153.2514  142.8984  162.4056 C   0  0  0  0  0  0  0  0  0  0  0  0
  153.7650  142.9370  163.6578 F   0  0  0  0  0  0  0  0  0  0  0  0
  152.4940  143.9800  161.9205 C   0  0  0  0  0  0  0  0  0  0  0  0
  151.9603  143.9412  160.6174 C   0  0  0  0  0  0  0  0  0  0  0  0
  151.0309  145.2805  160.0458 Cl  0  0  0  0  0  0  0  0  0  0  0  0
  149.0572  141.8438  155.6244 C   0  0  0  0  0  0  0  0  0  0  0  0
  145.4722  140.4596  153.1555 H   0  0  0  0  0  0  0  0  0  0  0  0
  147.0209  139.6428  153.1258 H   0  0  0  0  0  0  0  0  0  0  0  0
  149.0581  139.3224  153.5208 H   0  0  0  0  0  0  0  0  0  0  0  0
  152.3354  141.1154  156.1062 H   0  0  0  0  0  0  0  0  0  0  0  0
  151.7236  142.7562  156.1152 H   0  0  0  0  0  0  0  0  0  0  0  0
  150.1919  141.4257  158.1019 H   0  0  0  0  0  0  0  0  0  0  0  0
  151.8325  140.8069  158.3141 H   0  0  0  0  0  0  0  0  0  0  0  0
  153.1357  140.8585  159.6851 H   0  0  0  0  0  0  0  0  0  0  0  0
  154.0560  140.9458  161.9575 H   0  0  0  0  0  0  0  0  0  0  0  0
  152.3226  144.8413  162.5494 H   0  0  0  0  0  0  0  0  0  0  0  0
  148.7914  142.7040  156.2212 H   0  0  0  0  0  0  0  0  0  0  0  0
  1  2  1  0  0  0  0
  1 20  1  0  0  0  0
  1 21  1  0  0  0  0
  2  3  2  0  0  0  0
  2  4  1  0  0  0  0
  4 19  2  0  0  0  0
  4  5  1  0  0  0  0
  5  6  2  0  0  0  0
  5 22  1  0  0  0  0
  6  7  1  0  0  0  0
  7  8  1  0  0  0  0
  7 19  1  0  0  0  0
  8  9  1  0  0  0  0
  8 23  1  0  0  0  0
  8 24  1  0  0  0  0
  9 10  1  0  0  0  0
  9 25  1  0  0  0  0
  9 26  1  0  0  0  0
 10 11  1  0  0  0  0
 11 17  1  0  0  0  0
 11 12  2  0  0  0  0
 12 13  1  0  0  0  0
 12 27  1  0  0  0  0
 13 14  2  0  0  0  0
 13 28  1  0  0  0  0
 14 15  1  0  0  0  0
 14 16  1  0  0  0  0
 16 17  2  0  0  0  0
 16 29  1  0  0  0  0
 17 18  1  0  0  0  0
 19 30  1  0  0  0  0
M  END
> <s_m_source_file>
AV-unprocessed.smi

> <i_m_source_file_index>
2836

> <i_lp_mmshare_version>
43012

> <i_f3d_flags>
0

> <s_epik_input>
W05IMl1DKD1PKWMxW2NIXW5uKFtjSF0xKVtDSDJdW0NIMl1PYzJbY0hdW2NIXWMoRilbY0hdYzJDbA==

> <s_epik_cmdline>
J2VwaWtfcHl0aG9uJywgJy1waCcsICc3LjAnLCAnLXRuJywgJzgnLCAnLW1hJywgJzIwMCcsICctbWV0YWxfYmluZGluZycsICctaW1hZScsICc8aW5maWxlLm1hZT4nLCAnLW9tYWUnLCAnPG91dGZpbGUubWFlPic=

> <r_lp_tautomer_probability>
1

> <r_epik_Ionization_Penalty>
2.53738e-06

> <r_epik_Ionization_Penalty_Charging>
0

> <r_epik_Ionization_Penalty_Neutral>
2.53738e-06

> <r_epik_State_Penalty>
-0

> <r_epik_Charging_Adjusted_Penalty>
0

> <i_epik_Tot_Q>
0

> <i_epik_Tot_abs_Q>
0

> <r_epik_Metal_State_Penalty>
-0

> <b_epik_Metal_Only>
0

> <s_lp_Force_Field>
OPLS_2005

> <r_lp_Energy>
11.0812

> <b_lp_Chiralities_Consistent>
1

> <s_lp_Variant>
AV-unprocessed.smi:2836-1

> <Gold.Version>
5.8.1

> <Gold.Id.Protein>
6NUR|6NUR_protein|mol2

> <Gold.PLP.Fitness>
55.9270

> <Gold.PLP.PLP>
-46.7817

> <Gold.PLP.part.hbond>
-2.0000

> <Gold.PLP.part.metal>
0.0000

> <Gold.PLP.part.buried>
-3.8933

> <Gold.PLP.part.nonpolar>
-39.1668

> <Gold.PLP.part.repulsive>
0.2895

> <Gold.PLP.ligand.clash>
0.0000

> <Gold.PLP.ligand.torsion>
0.9570

> <Gold.PLP.Chemscore.Hbond>
2.0000

> <Gold.PLP.Chemscore.CHOScore>
1.6512

> <Gold.PLP.Chemscore.Metal>
0.0000

> <Gold.Chemscore.Hbonds>
donor molecule, donor type, donor heavy atom, donor atom, acceptor molecule, acceptor atom, score
      L1  H     1    20       P1 10175  1.00
      P1  H  7989  7998       L1     6  1.00
      L1  C     5    22       P1  7957  0.66
      L1  C    19    30       P1  8028  0.95

> <Gold.PLP.Chemscore.Internal.Correction>
0.1058

> <Gold.Rescore>
     Score         DG    S(hbond)    S(metal)    S(lipo)     H(rot)  DE(clash)    DE(int)     intcor
     16.30     -19.71       1.75        0.00     112.94       1.89       2.41       1.01       ----

> <Gold.Chemscore.Fitness>
16.2969

> <Gold.Chemscore.DG>
-19.7150

> <Gold.Chemscore.ZeroCoef>
-5.4800

> <Gold.Chemscore.Hbond>
1.7510

> <Gold.Chemscore.Metal>
0.0000

> <Gold.Chemscore.Lipo>
112.9401

> <Gold.Chemscore.Internal_Hbond>
0.0000

> <Gold.Chemscore.DEClash>
2.4114

> <Gold.Chemscore.DEInternal>
1.0067

> <Gold.Chemscore.Rot>
1.8857

> <Gold.Chemscore.Internal.Correction>
   9.000000E+99

> <Gold.Chemscore.Hbonds>
donor molecule, donor type, donor heavy atom, donor atom, acceptor molecule, acceptor atom, score
      L1  H     1    20       P1 10175  0.94
      P1  H  7989  7998       L1     6  0.24

> <Gold.Chemscore.Hbond.Weighted>
-5.8485

> <Gold.Chemscore.Metal.Weighted>
-0.0000

> <Gold.Chemscore.Lipo.Weighted>
-13.2140

> <Gold.Chemscore.Internal_Hbond.Weighted>
0.0000

> <Gold.Chemscore.DEClash.Weighted>
2.4114

> <Gold.Chemscore.DEInternal.Weighted>
1.0067

> <Gold.Chemscore.Rot.Weighted>
4.8275

> <Gold.Chemscore.Internal.Correction.Weighted>
   9.000000E+99

> <Gold.Protein.RotatedTorsions>
[ 6907 6896 6895 6894 ] final -176.00 input  -60.11 | X-H torsion
[ 7974 7965 7964 7962 ] final  -97.75 input  175.53 | X-H torsion
[ 8008 7997 7996 7995 ] final   50.69 input   59.86 | X-H torsion
[ 10167 10162 10161 10158 ] final -165.99 input  -65.29 | X-H torsion
[ 10718 10713 10712 10709 ] final  -71.64 input   66.30 | X-H torsion
[ 10763 10752 10751 10750 ] final -160.05 input  -60.55 | X-H torsion
[ 11005 11000 10999 10996 ] final  -23.16 input  -57.11 | X-H torsion

> <Gold.Protein.ActiveResidues>
 VAL166  LYS551  ARG553  GLY616  TRP617  ASP618  TYR619  PRO620  LYS621  CYS622 
 ASP623  PHE694  ASN695  SER759  ASP760  ASP761  ALA762  ILE779  LEU786  VAL792 
 PHE793  MET794  SER795  GLU796  ALA797  LYS798  CYS799  TRP800  GLU811  SER814 

> <Gold.Protein.RotatedAtoms>
  151.5977  133.3359  159.3040 H   0  0  0  0  0  0  0  0  0  0  0  0  # atno 6907 bound_to 6896
  150.8225  134.7443  159.6796 H   0  0  0  0  0  0  0  0  0  0  0  0  # atno 6908 bound_to 6896
  152.4317  134.5770  159.9989 H   0  0  0  0  0  0  0  0  0  0  0  0  # atno 6909 bound_to 6896
  145.3297  140.9439  143.2669 H   0  0  0  0  0  0  0  0  0  0  0  0  # atno 7974 bound_to 7965
  155.4229  140.3447  155.4273 H   0  0  0  0  0  0  0  0  0  0  0  0  # atno 8008 bound_to 7997
  156.1382  140.1534  156.8992 H   0  0  0  0  0  0  0  0  0  0  0  0  # atno 8009 bound_to 7997
  154.4949  140.0830  156.7656 H   0  0  0  0  0  0  0  0  0  0  0  0  # atno 8010 bound_to 7997
  139.6145  144.0747  152.1874 H   0  0  0  0  0  0  0  0  0  0  0  0  # atno 10167 bound_to 10162
  156.0354  130.4355  150.2474 H   0  0  0  0  0  0  0  0  0  0  0  0  # atno 10718 bound_to 10713
  154.7423  135.3071  154.8706 H   0  0  0  0  0  0  0  0  0  0  0  0  # atno 10763 bound_to 10752
  153.9517  135.6763  153.4748 H   0  0  0  0  0  0  0  0  0  0  0  0  # atno 10764 bound_to 10752
  153.1021  135.4907  154.8811 H   0  0  0  0  0  0  0  0  0  0  0  0  # atno 10765 bound_to 10752
  140.8725  133.7710  156.0204 H   0  0  0  0  0  0  0  0  0  0  0  0  # atno 11005 bound_to 11000
  144.8874  139.4821  143.6694 LP  0  0  0  0  0  0  0  0  0  0  0  0  # atno 17320 bound_to 7965
  146.3050  139.7551  142.9063 LP  0  0  0  0  0  0  0  0  0  0  0  0  # atno 17321 bound_to 7965
  140.0374  144.6034  150.7438 LP  0  0  0  0  0  0  0  0  0  0  0  0  # atno 17342 bound_to 10162
  140.7342  143.2725  151.3842 LP  0  0  0  0  0  0  0  0  0  0  0  0  # atno 17343 bound_to 10162
  157.0574  131.0080  151.3234 LP  0  0  0  0  0  0  0  0  0  0  0  0  # atno 17370 bound_to 10713
  157.5096  130.7930  149.7691 LP  0  0  0  0  0  0  0  0  0  0  0  0  # atno 17371 bound_to 10713
  140.8556  134.2902  157.5257 LP  0  0  0  0  0  0  0  0  0  0  0  0  # atno 17394 bound_to 11000
  139.8713  134.9491  156.4016 LP  0  0  0  0  0  0  0  0  0  0  0  0  # atno 17395 bound_to 11000

$$$$
