AV-unprocessed.smi:17|AV-procd|sdf|100|dock8
  -GOLD-   2262015243D 1   1.00000     0.00000
 Structure written by MMmdl.
 57 59  0  0  0  0  0  0  0  0  1 V2000
  147.7059  132.2219  155.5201 C   0  0  0  0  0  0  0  0  0  0  0  0
  148.7783  132.1514  156.6164 C   0  0  0  0  0  0  0  0  0  0  0  0
  148.7459  133.3179  157.5035 N   0  0  0  0  0  0  0  0  0  0  0  0
  149.0008  134.5487  156.9810 C   0  0  0  0  0  0  0  0  0  0  0  0
  148.9292  134.7010  155.6319 N   0  0  0  0  0  0  0  0  0  0  0  0
  149.1468  135.8918  155.0680 C   0  0  0  0  0  0  0  0  0  0  0  0
  149.4541  137.0481  155.6556 N   0  0  0  0  0  0  0  0  0  0  0  0
  149.5492  136.9025  157.0076 C   0  0  0  0  0  0  0  0  0  0  0  0
  149.3486  135.7014  157.7470 C   0  0  0  0  0  0  0  0  0  0  0  0
  149.5659  135.9476  159.0994 N   0  0  0  0  0  0  0  0  0  0  0  0
  149.8483  137.2198  159.1575 C   0  0  0  0  0  0  0  0  0  0  0  0
  149.8504  137.8721  157.9467 N   0  0  0  0  0  0  0  0  0  0  0  0
  150.1250  139.2779  157.7115 C   0  0  0  0  0  0  0  0  0  0  0  0
  151.6222  139.5857  157.4410 C   0  0  1  0  0  0  0  0  0  0  0  0
  151.9305  139.7222  155.9275 C   0  0  0  0  0  0  0  0  0  0  0  0
  153.3201  139.7547  155.6722 O   0  0  0  0  0  0  0  0  0  0  0  0
  152.0676  140.8518  158.2188 C   0  0  2  0  0  0  0  0  0  0  0  0
  152.0673  140.7021  159.7362 C   0  0  0  0  0  0  0  0  0  0  0  0
  151.8404  142.1222  160.2608 C   0  0  0  0  0  0  0  0  0  0  0  0
  151.5162  142.9173  159.1275 O   0  0  0  0  0  0  0  0  0  0  0  0
  151.1445  142.0619  158.0601 C   0  0  0  0  0  0  0  0  0  0  0  0
  148.4595  133.1734  158.9355 C   0  0  2  0  0  0  0  0  0  0  0  0
  148.2104  131.7018  159.3049 C   0  0  0  0  0  0  0  0  0  0  0  0
  147.3083  134.0859  159.4117 C   0  0  0  0  0  0  0  0  0  0  0  0
  146.8080  133.7749  161.1680 S   0  0  0  0  0  0  0  0  0  0  0  0
  147.0743  135.4142  161.9609 C   0  0  0  0  0  0  0  0  0  0  0  0
  145.3624  133.5062  161.1865 O   0  0  0  0  0  0  0  0  0  0  0  0
  147.7379  132.8119  161.7782 O   0  0  0  0  0  0  0  0  0  0  0  0
  147.7761  131.3600  154.8568 H   0  0  0  0  0  0  0  0  0  0  0  0
  147.8219  133.1193  154.9117 H   0  0  0  0  0  0  0  0  0  0  0  0
  146.7015  132.2308  155.9437 H   0  0  0  0  0  0  0  0  0  0  0  0
  148.6663  131.2320  157.1913 H   0  0  0  0  0  0  0  0  0  0  0  0
  149.7558  132.0823  156.1404 H   0  0  0  0  0  0  0  0  0  0  0  0
  149.0603  135.9226  153.9920 H   0  0  0  0  0  0  0  0  0  0  0  0
  150.0575  137.7209  160.0913 H   0  0  0  0  0  0  0  0  0  0  0  0
  149.5143  139.6155  156.8733 H   0  0  0  0  0  0  0  0  0  0  0  0
  149.7701  139.8186  158.5884 H   0  0  0  0  0  0  0  0  0  0  0  0
  152.2129  138.7537  157.8278 H   0  0  0  0  0  0  0  0  0  0  0  0
  151.4725  138.9097  155.3627 H   0  0  0  0  0  0  0  0  0  0  0  0
  151.5271  140.6493  155.5231 H   0  0  0  0  0  0  0  0  0  0  0  0
  153.4877  139.3144  154.8530 H   0  0  0  0  0  0  0  0  0  0  0  0
  153.0694  141.1428  157.8983 H   0  0  0  0  0  0  0  0  0  0  0  0
  151.2450  140.0610  160.0571 H   0  0  0  0  0  0  0  0  0  0  0  0
  152.9942  140.2704  160.1151 H   0  0  0  0  0  0  0  0  0  0  0  0
  151.0244  142.1460  160.9839 H   0  0  0  0  0  0  0  0  0  0  0  0
  152.7325  142.5231  160.7425 H   0  0  0  0  0  0  0  0  0  0  0  0
  151.2659  142.5687  157.1027 H   0  0  0  0  0  0  0  0  0  0  0  0
  150.0969  141.7766  158.1704 H   0  0  0  0  0  0  0  0  0  0  0  0
  149.3266  133.4874  159.5122 H   0  0  0  0  0  0  0  0  0  0  0  0
  148.0829  131.5852  160.3812 H   0  0  0  0  0  0  0  0  0  0  0  0
  149.0515  131.0757  159.0058 H   0  0  0  0  0  0  0  0  0  0  0  0
  147.3149  131.3098  158.8227 H   0  0  0  0  0  0  0  0  0  0  0  0
  147.5260  135.1457  159.2861 H   0  0  0  0  0  0  0  0  0  0  0  0
  146.4251  133.8789  158.8068 H   0  0  0  0  0  0  0  0  0  0  0  0
  146.7311  135.3726  162.9942 H   0  0  0  0  0  0  0  0  0  0  0  0
  146.5108  136.1773  161.4251 H   0  0  0  0  0  0  0  0  0  0  0  0
  148.1315  135.6681  161.9512 H   0  0  0  0  0  0  0  0  0  0  0  0
  1  2  1  0  0  0  0
  1 29  1  0  0  0  0
  1 30  1  0  0  0  0
  1 31  1  0  0  0  0
  2  3  1  0  0  0  0
  2 32  1  0  0  0  0
  2 33  1  0  0  0  0
  3  4  1  0  0  0  0
  3 22  1  0  0  0  0
  4  9  1  0  0  0  0
  4  5  2  0  0  0  0
  5  6  1  0  0  0  0
  6  7  2  0  0  0  0
  6 34  1  0  0  0  0
  7  8  1  0  0  0  0
  8 12  1  0  0  0  0
  8  9  2  0  0  0  0
  9 10  1  0  0  0  0
 10 11  2  0  0  0  0
 11 12  1  0  0  0  0
 11 35  1  0  0  0  0
 12 13  1  0  0  0  0
 13 14  1  0  0  0  0
 13 36  1  0  0  0  0
 13 37  1  0  0  0  0
 14 15  1  0  0  0  0
 14 17  1  0  0  0  0
 14 38  1  0  0  0  0
 15 16  1  0  0  0  0
 15 39  1  0  0  0  0
 15 40  1  0  0  0  0
 16 41  1  0  0  0  0
 17 21  1  0  0  0  0
 17 18  1  0  0  0  0
 17 42  1  0  0  0  0
 18 19  1  0  0  0  0
 18 43  1  0  0  0  0
 18 44  1  0  0  0  0
 19 20  1  0  0  0  0
 19 45  1  0  0  0  0
 19 46  1  0  0  0  0
 20 21  1  0  0  0  0
 21 47  1  0  0  0  0
 21 48  1  0  0  0  0
 22 23  1  0  0  0  0
 22 24  1  0  0  0  0
 22 49  1  0  0  0  0
 23 50  1  0  0  0  0
 23 51  1  0  0  0  0
 23 52  1  0  0  0  0
 24 25  1  0  0  0  0
 24 53  1  0  0  0  0
 24 54  1  0  0  0  0
 25 26  1  0  0  0  0
 25 27  2  0  0  0  0
 25 28  2  0  0  0  0
 26 55  1  0  0  0  0
 26 56  1  0  0  0  0
 26 57  1  0  0  0  0
M  END
> <s_m_source_file>
AV-unprocessed.smi

> <i_m_source_file_index>
17

> <i_lp_mmshare_version>
43012

> <i_f3d_flags>
0

> <s_epik_input>
W0NIM11TKD1PKSg9TylbQ0gyXVtDQEBIXShbQ0gzXSlOKFtDSDJdW0NIM10pYyhuW2NIXW4xKWMoYzEyKW5bY0hdbjJbQ0gyXVtDQEhdKFtDSDJdW09IXSlbQ0BASF0zW0NIMl1bQ0gyXU9bQ0gyXTM=

> <s_epik_cmdline>
J2VwaWtfcHl0aG9uJywgJy1waCcsICc3LjAnLCAnLXRuJywgJzgnLCAnLW1hJywgJzIwMCcsICctbWV0YWxfYmluZGluZycsICctaW1hZScsICc8aW5maWxlLm1hZT4nLCAnLW9tYWUnLCAnPG91dGZpbGUubWFlPic=

> <r_lp_tautomer_probability>
1

> <r_epik_Ionization_Penalty>
0.00119955

> <r_epik_Ionization_Penalty_Charging>
0

> <r_epik_Ionization_Penalty_Neutral>
0.00119955

> <r_epik_State_Penalty>
0.000665399

> <r_epik_Charging_Adjusted_Penalty>
0.000665399

> <i_epik_Tot_Q>
0

> <i_epik_Tot_abs_Q>
0

> <r_epik_Metal_State_Penalty>
-0

> <b_epik_Metal_Only>
0

> <s_lp_Force_Field>
OPLS_2005

> <r_lp_Energy>
33.0306

> <b_lp_Chiralities_Consistent>
1

> <s_lp_Variant>
AV-unprocessed.smi:17-2

> <Gold.Version>
5.8.1

> <Gold.Id.Protein>
6NUR|6NUR_protein|mol2

> <Gold.PLP.Fitness>
41.1307

> <Gold.PLP.PLP>
-34.3323

> <Gold.PLP.part.hbond>
-3.0000

> <Gold.PLP.part.metal>
0.0000

> <Gold.PLP.part.buried>
-5.8774

> <Gold.PLP.part.nonpolar>
-24.9195

> <Gold.PLP.part.repulsive>
0.1353

> <Gold.PLP.ligand.clash>
0.0000

> <Gold.PLP.ligand.torsion>
1.3898

> <Gold.PLP.Chemscore.Hbond>
2.0000

> <Gold.PLP.Chemscore.CHOScore>
1.0000

> <Gold.PLP.Chemscore.Metal>
0.0000

> <Gold.Chemscore.Hbonds>
donor molecule, donor type, donor heavy atom, donor atom, acceptor molecule, acceptor atom, score
      P1  H  6896  6908       L1    10  1.00
      P1  H  7997  8008       L1    16  0.28
      L1  C     6    34       P1  7948  1.00

> <Gold.PLP.Chemscore.Internal.Correction>
0.5781

> <Gold.Rescore>
     Score         DG    S(hbond)    S(metal)    S(lipo)     H(rot)  DE(clash)    DE(int)     intcor
      7.82     -10.80       1.94        0.00      66.85       3.51       0.00       2.98       ----

> <Gold.Chemscore.Fitness>
7.8169

> <Gold.Chemscore.DG>
-10.7988

> <Gold.Chemscore.ZeroCoef>
-5.4800

> <Gold.Chemscore.Hbond>
1.9378

> <Gold.Chemscore.Metal>
0.0000

> <Gold.Chemscore.Lipo>
66.8500

> <Gold.Chemscore.Internal_Hbond>
0.0000

> <Gold.Chemscore.DEClash>
0.0025

> <Gold.Chemscore.DEInternal>
2.9793

> <Gold.Chemscore.Rot>
3.5059

> <Gold.Chemscore.Internal.Correction>
   9.000000E+99

> <Gold.Chemscore.Hbonds>
donor molecule, donor type, donor heavy atom, donor atom, acceptor molecule, acceptor atom, score
      P1  H  6896  6908       L1    10  0.29
      P1  H  7997  8008       L1    16  0.03

> <Gold.Chemscore.Hbond.Weighted>
-6.4723

> <Gold.Chemscore.Metal.Weighted>
-0.0000

> <Gold.Chemscore.Lipo.Weighted>
-7.8215

> <Gold.Chemscore.Internal_Hbond.Weighted>
0.0000

> <Gold.Chemscore.DEClash.Weighted>
0.0025

> <Gold.Chemscore.DEInternal.Weighted>
2.9793

> <Gold.Chemscore.Rot.Weighted>
8.9750

> <Gold.Chemscore.Internal.Correction.Weighted>
   9.000000E+99

> <Gold.Protein.RotatedTorsions>
[ 6907 6896 6895 6894 ] final  165.94 input  -60.11 | X-H torsion
[ 7974 7965 7964 7962 ] final  -99.99 input  175.53 | X-H torsion
[ 8008 7997 7996 7995 ] final   -8.63 input   59.86 | X-H torsion
[ 10167 10162 10161 10158 ] final -104.22 input  -65.29 | X-H torsion
[ 10718 10713 10712 10709 ] final  -65.32 input   66.30 | X-H torsion
[ 10763 10752 10751 10750 ] final  133.13 input  -60.55 | X-H torsion
[ 11005 11000 10999 10996 ] final -141.47 input  -57.11 | X-H torsion

> <Gold.Protein.ActiveResidues>
 VAL166  LYS551  ARG553  GLY616  TRP617  ASP618  TYR619  PRO620  LYS621  CYS622 
 ASP623  PHE694  ASN695  SER759  ASP760  ASP761  ALA762  ILE779  LEU786  VAL792 
 PHE793  MET794  SER795  GLU796  ALA797  LYS798  CYS799  TRP800  GLU811  SER814 

> <Gold.Protein.RotatedAtoms>
  151.8866  133.3507  159.3783 H   0  0  0  0  0  0  0  0  0  0  0  0  # atno 6907 bound_to 6896
  150.7114  134.4965  159.5550 H   0  0  0  0  0  0  0  0  0  0  0  0  # atno 6908 bound_to 6896
  152.2528  134.8116  160.0494 H   0  0  0  0  0  0  0  0  0  0  0  0  # atno 6909 bound_to 6896
  145.3004  140.9375  143.2827 H   0  0  0  0  0  0  0  0  0  0  0  0  # atno 7974 bound_to 7965
  154.5723  140.2376  155.8173 H   0  0  0  0  0  0  0  0  0  0  0  0  # atno 8008 bound_to 7997
  156.2116  140.3024  155.9704 H   0  0  0  0  0  0  0  0  0  0  0  0  # atno 8009 bound_to 7997
  155.2689  140.0417  157.2995 H   0  0  0  0  0  0  0  0  0  0  0  0  # atno 8010 bound_to 7997
  140.2116  143.3742  152.1046 H   0  0  0  0  0  0  0  0  0  0  0  0  # atno 10167 bound_to 10162
  156.0676  130.4245  150.1547 H   0  0  0  0  0  0  0  0  0  0  0  0  # atno 10718 bound_to 10713
  153.8020  135.3140  155.3391 H   0  0  0  0  0  0  0  0  0  0  0  0  # atno 10763 bound_to 10752
  154.8085  135.4682  154.0458 H   0  0  0  0  0  0  0  0  0  0  0  0  # atno 10764 bound_to 10752
  153.1809  135.6893  153.8567 H   0  0  0  0  0  0  0  0  0  0  0  0  # atno 10765 bound_to 10752
  140.8321  134.2504  157.4852 H   0  0  0  0  0  0  0  0  0  0  0  0  # atno 11005 bound_to 11000
  144.9099  139.4542  143.6592 LP  0  0  0  0  0  0  0  0  0  0  0  0  # atno 17320 bound_to 7965
  146.3154  139.7900  142.8987 LP  0  0  0  0  0  0  0  0  0  0  0  0  # atno 17321 bound_to 7965
  139.5178  144.6997  151.5530 LP  0  0  0  0  0  0  0  0  0  0  0  0  # atno 17342 bound_to 10162
  140.6319  143.9058  150.6613 LP  0  0  0  0  0  0  0  0  0  0  0  0  # atno 17343 bound_to 10162
  156.9604  130.9803  151.3480 LP  0  0  0  0  0  0  0  0  0  0  0  0  # atno 17370 bound_to 10713
  157.5728  130.8322  149.8414 LP  0  0  0  0  0  0  0  0  0  0  0  0  # atno 17371 bound_to 10713
  139.8704  134.9591  156.4323 LP  0  0  0  0  0  0  0  0  0  0  0  0  # atno 17394 bound_to 11000
  140.8987  133.7795  155.9655 LP  0  0  0  0  0  0  0  0  0  0  0  0  # atno 17395 bound_to 11000

$$$$
