AV-unprocessed.smi:104|AV-procd|sdf|997|dock3
  -GOLD-   2262017583D 1   1.00000     0.00000
 Structure written by MMmdl.
 47 49  0  0  0  0  0  0  0  0  1 V2000
  151.1153  140.8492  156.1888 C   0  0  0  0  0  0  0  0  0  0  0  0
  151.8426  139.5734  155.7836 C   0  0  0  0  0  0  0  0  0  0  0  0
  152.8093  139.6009  155.0218 O   0  0  0  0  0  0  0  0  0  0  0  0
  151.3110  138.4763  156.3436 O   0  0  0  0  0  0  0  0  0  0  0  0
  151.3844  137.2366  155.6598 C   0  0  0  0  0  0  0  0  0  0  0  0
  150.5253  136.1967  156.3911 C   0  0  2  0  0  0  0  0  0  0  0  0
  150.7438  134.9118  155.8151 O   0  0  0  0  0  0  0  0  0  0  0  0
  149.6788  134.6143  154.9789 C   0  0  1  0  0  0  0  0  0  0  0  0
  149.5493  133.1334  154.8548 N   0  0  0  0  0  0  0  0  0  0  0  0
  150.2926  132.1437  155.4554 C   0  0  0  0  0  0  0  0  0  0  0  0
  151.7372  132.5296  156.6351 Br  0  0  0  0  0  0  0  0  0  0  0  0
  149.9819  130.9102  155.1694 N   0  0  0  0  0  0  0  0  0  0  0  0
  148.9267  131.0597  154.2773 C   0  0  0  0  0  0  0  0  0  0  0  0
  148.1090  130.1528  153.5574 C   0  0  0  0  0  0  0  0  0  0  0  0
  148.2444  128.8220  153.6405 N   0  0  0  0  0  0  0  0  0  0  0  0
  147.1484  130.6524  152.7451 N   0  0  0  0  0  0  0  0  0  0  0  0
  146.9952  131.9766  152.6412 C   0  0  0  0  0  0  0  0  0  0  0  0
  147.6813  132.9482  153.2493 N   0  0  0  0  0  0  0  0  0  0  0  0
  148.6482  132.4426  154.0708 C   0  0  0  0  0  0  0  0  0  0  0  0
  148.4450  135.2067  155.6387 C   0  0  2  0  0  0  0  0  0  0  0  0
  147.4542  135.4737  154.6568 O   0  0  0  0  0  0  0  0  0  0  0  0
  146.2054  135.7939  155.0309 C   0  0  0  0  0  0  0  0  0  0  0  0
  145.2720  135.9744  153.8414 C   0  0  0  0  0  0  0  0  0  0  0  0
  145.8089  135.9373  156.1876 O   0  0  0  0  0  0  0  0  0  0  0  0
  149.0166  136.4806  156.2431 C   0  0  1  0  0  0  0  0  0  0  0  0
  148.4034  136.7130  157.5044 O   0  0  0  0  0  0  0  0  0  0  0  0
  148.6151  135.8672  158.5262 C   0  0  0  0  0  0  0  0  0  0  0  0
  147.9571  136.3387  159.8160 C   0  0  0  0  0  0  0  0  0  0  0  0
  149.2566  134.8177  158.4778 O   0  0  0  0  0  0  0  0  0  0  0  0
  150.1481  140.6205  156.6376 H   0  0  0  0  0  0  0  0  0  0  0  0
  150.9489  141.4814  155.3166 H   0  0  0  0  0  0  0  0  0  0  0  0
  151.7092  141.4078  156.9123 H   0  0  0  0  0  0  0  0  0  0  0  0
  151.0101  137.3750  154.6445 H   0  0  0  0  0  0  0  0  0  0  0  0
  152.4187  136.8978  155.5844 H   0  0  0  0  0  0  0  0  0  0  0  0
  150.8090  136.1556  157.4439 H   0  0  0  0  0  0  0  0  0  0  0  0
  149.8724  134.9978  153.9765 H   0  0  0  0  0  0  0  0  0  0  0  0
  148.9555  128.4250  154.2378 H   0  0  0  0  0  0  0  0  0  0  0  0
  147.6370  128.2191  153.1046 H   0  0  0  0  0  0  0  0  0  0  0  0
  146.2116  132.3051  151.9743 H   0  0  0  0  0  0  0  0  0  0  0  0
  148.1001  134.5218  156.4157 H   0  0  0  0  0  0  0  0  0  0  0  0
  144.9858  135.0035  153.4371 H   0  0  0  0  0  0  0  0  0  0  0  0
  145.7619  136.5478  153.0542 H   0  0  0  0  0  0  0  0  0  0  0  0
  144.3682  136.5044  154.1421 H   0  0  0  0  0  0  0  0  0  0  0  0
  148.8513  137.3127  155.5558 H   0  0  0  0  0  0  0  0  0  0  0  0
  148.5649  137.1096  160.2898 H   0  0  0  0  0  0  0  0  0  0  0  0
  147.8448  135.5081  160.5131 H   0  0  0  0  0  0  0  0  0  0  0  0
  146.9693  136.7523  159.6116 H   0  0  0  0  0  0  0  0  0  0  0  0
  1  2  1  0  0  0  0
  1 30  1  0  0  0  0
  1 31  1  0  0  0  0
  1 32  1  0  0  0  0
  2  3  2  0  0  0  0
  2  4  1  0  0  0  0
  4  5  1  0  0  0  0
  5  6  1  0  0  0  0
  5 33  1  0  0  0  0
  5 34  1  0  0  0  0
  6 25  1  0  0  0  0
  6  7  1  0  0  0  0
  6 35  1  0  0  0  0
  7  8  1  0  0  0  0
  8  9  1  0  0  0  0
  8 20  1  0  0  0  0
  8 36  1  0  0  0  0
  9 19  1  0  0  0  0
  9 10  1  0  0  0  0
 10 11  1  0  0  0  0
 10 12  2  0  0  0  0
 12 13  1  0  0  0  0
 13 19  2  0  0  0  0
 13 14  1  0  0  0  0
 14 15  1  0  0  0  0
 14 16  2  0  0  0  0
 15 37  1  0  0  0  0
 15 38  1  0  0  0  0
 16 17  1  0  0  0  0
 17 18  2  0  0  0  0
 17 39  1  0  0  0  0
 18 19  1  0  0  0  0
 20 21  1  0  0  0  0
 20 25  1  0  0  0  0
 20 40  1  0  0  0  0
 21 22  1  0  0  0  0
 22 23  1  0  0  0  0
 22 24  2  0  0  0  0
 23 41  1  0  0  0  0
 23 42  1  0  0  0  0
 23 43  1  0  0  0  0
 25 26  1  0  0  0  0
 25 44  1  0  0  0  0
 26 27  1  0  0  0  0
 27 28  1  0  0  0  0
 27 29  2  0  0  0  0
 28 45  1  0  0  0  0
 28 46  1  0  0  0  0
 28 47  1  0  0  0  0
M  END
> <s_m_source_file>
AV-unprocessed.smi

> <i_m_source_file_index>
104

> <i_lp_mmshare_version>
43012

> <i_f3d_flags>
0

> <s_epik_input>
W0NIM11DKD1PKU9bQ0gyXVtDQEBIXTFPW0NASF0oW0NAQEhdKE9DKD1PKVtDSDNdKVtDQEhdMU9DKD1PKVtDSDNdKW4oYyhCciluMiljKGMyMyluW2NIXW5jM1tOSDJd

> <s_epik_cmdline>
J2VwaWtfcHl0aG9uJywgJy1waCcsICc3LjAnLCAnLXRuJywgJzgnLCAnLW1hJywgJzIwMCcsICctbWV0YWxfYmluZGluZycsICctaW1hZScsICc8aW5maWxlLm1hZT4nLCAnLW9tYWUnLCAnPG91dGZpbGUubWFlPic=

> <r_lp_tautomer_probability>
1

> <r_epik_Ionization_Penalty>
7.36622e-05

> <r_epik_Ionization_Penalty_Charging>
0

> <r_epik_Ionization_Penalty_Neutral>
7.36622e-05

> <r_epik_State_Penalty>
-0

> <r_epik_Charging_Adjusted_Penalty>
0

> <i_epik_Tot_Q>
0

> <i_epik_Tot_abs_Q>
0

> <r_epik_Metal_State_Penalty>
-0

> <b_epik_Metal_Only>
0

> <s_epik_Chemistry_Notes>
This compound has an ester and may undergo hydrolysis at high or low pH. This compound contains an acetal/aminal-like group ( X-CH(R)-Y where X, Y are N, S, or O) that may be acid/base labile, releasing an aldehyde.

> <s_lp_Force_Field>
OPLS_2005

> <r_lp_Energy>
16.3368

> <b_lp_Chiralities_Consistent>
1

> <s_lp_Variant>
AV-unprocessed.smi:104-5

> <Gold.Version>
5.8.1

> <Gold.Id.Protein>
6NUR|6NUR_protein|mol2

> <Gold.PLP.Fitness>
39.4643

> <Gold.PLP.PLP>
-33.8561

> <Gold.PLP.part.hbond>
-3.3813

> <Gold.PLP.part.metal>
0.0000

> <Gold.PLP.part.buried>
-5.1763

> <Gold.PLP.part.nonpolar>
-25.4819

> <Gold.PLP.part.repulsive>
1.3397

> <Gold.PLP.ligand.clash>
0.0000

> <Gold.PLP.ligand.torsion>
0.6586

> <Gold.PLP.Chemscore.Hbond>
2.2256

> <Gold.PLP.Chemscore.CHOScore>
0.0000

> <Gold.PLP.Chemscore.Metal>
0.0000

> <Gold.Chemscore.Hbonds>
donor molecule, donor type, donor heavy atom, donor atom, acceptor molecule, acceptor atom, score
      P1  H  6896  6909       L1    29  1.00
      P1  H  7989  7998       L1     3  0.13
      P1  H  7997  8009       L1     3  0.86

> <Gold.PLP.Chemscore.Internal.Correction>
0.2486

> <Gold.Rescore>
     Score         DG    S(hbond)    S(metal)    S(lipo)     H(rot)  DE(clash)    DE(int)     intcor
     -0.72      -5.30       1.97        0.00      36.55       4.31       0.06       5.96       ----

> <Gold.Chemscore.Fitness>
-0.7192

> <Gold.Chemscore.DG>
-5.3011

> <Gold.Chemscore.ZeroCoef>
-5.4800

> <Gold.Chemscore.Hbond>
1.9674

> <Gold.Chemscore.Metal>
0.0000

> <Gold.Chemscore.Lipo>
36.5465

> <Gold.Chemscore.Internal_Hbond>
0.0000

> <Gold.Chemscore.DEClash>
0.0645

> <Gold.Chemscore.DEInternal>
5.9558

> <Gold.Chemscore.Rot>
4.3070

> <Gold.Chemscore.Internal.Correction>
   9.000000E+99

> <Gold.Chemscore.Hbonds>
donor molecule, donor type, donor heavy atom, donor atom, acceptor molecule, acceptor atom, score
      P1  H  6896  6909       L1    29  0.98
      P1  H  7989  7998       L1     3  0.01
      P1  H  7997  8009       L1     3  0.80

> <Gold.Chemscore.Hbond.Weighted>
-6.5711

> <Gold.Chemscore.Metal.Weighted>
-0.0000

> <Gold.Chemscore.Lipo.Weighted>
-4.2759

> <Gold.Chemscore.Internal_Hbond.Weighted>
0.0000

> <Gold.Chemscore.DEClash.Weighted>
0.0645

> <Gold.Chemscore.DEInternal.Weighted>
5.9558

> <Gold.Chemscore.Rot.Weighted>
11.0259

> <Gold.Chemscore.Internal.Correction.Weighted>
   9.000000E+99

> <Gold.Protein.RotatedTorsions>
[ 6907 6896 6895 6894 ] final   48.78 input  -60.11 | X-H torsion
[ 7974 7965 7964 7962 ] final  167.93 input  175.53 | X-H torsion
[ 8008 7997 7996 7995 ] final -113.63 input   59.86 | X-H torsion
[ 10167 10162 10161 10158 ] final   74.21 input  -65.29 | X-H torsion
[ 10718 10713 10712 10709 ] final -125.62 input   66.30 | X-H torsion
[ 10763 10752 10751 10750 ] final -163.23 input  -60.55 | X-H torsion
[ 11005 11000 10999 10996 ] final  161.74 input  -57.11 | X-H torsion

> <Gold.Protein.ActiveResidues>
 VAL166  LYS551  ARG553  GLY616  TRP617  ASP618  TYR619  PRO620  LYS621  CYS622 
 ASP623  PHE694  ASN695  SER759  ASP760  ASP761  ALA762  ILE779  LEU786  VAL792 
 PHE793  MET794  SER795  GLU796  ALA797  LYS798  CYS799  TRP800  GLU811  SER814 

> <Gold.Protein.RotatedAtoms>
  152.2834  134.7803  160.0391 H   0  0  0  0  0  0  0  0  0  0  0  0  # atno 6907 bound_to 6896
  151.8375  133.3413  159.3640 H   0  0  0  0  0  0  0  0  0  0  0  0  # atno 6908 bound_to 6896
  150.7199  134.5352  159.5764 H   0  0  0  0  0  0  0  0  0  0  0  0  # atno 6909 bound_to 6896
  144.7406  139.8833  143.6398 H   0  0  0  0  0  0  0  0  0  0  0  0  # atno 7974 bound_to 7965
  155.0238  140.0393  157.2447 H   0  0  0  0  0  0  0  0  0  0  0  0  # atno 8008 bound_to 7997
  154.7355  140.2739  155.6395 H   0  0  0  0  0  0  0  0  0  0  0  0  # atno 8009 bound_to 7997
  156.2852  140.2675  156.2068 H   0  0  0  0  0  0  0  0  0  0  0  0  # atno 8010 bound_to 7997
  140.0162  144.5576  150.7618 H   0  0  0  0  0  0  0  0  0  0  0  0  # atno 10167 bound_to 10162
  156.1691  130.6655  151.0156 H   0  0  0  0  0  0  0  0  0  0  0  0  # atno 10718 bound_to 10713
  154.7142  135.3012  154.9150 H   0  0  0  0  0  0  0  0  0  0  0  0  # atno 10763 bound_to 10752
  154.0043  135.6703  153.4765 H   0  0  0  0  0  0  0  0  0  0  0  0  # atno 10764 bound_to 10752
  153.0779  135.5024  154.8358 H   0  0  0  0  0  0  0  0  0  0  0  0  # atno 10765 bound_to 10752
  140.2188  134.8212  157.3198 H   0  0  0  0  0  0  0  0  0  0  0  0  # atno 11005 bound_to 11000
  146.1195  139.4211  143.0237 LP  0  0  0  0  0  0  0  0  0  0  0  0  # atno 17320 bound_to 7965
  145.7325  141.0037  143.1344 LP  0  0  0  0  0  0  0  0  0  0  0  0  # atno 17321 bound_to 7965
  140.7361  143.2749  151.3773 LP  0  0  0  0  0  0  0  0  0  0  0  0  # atno 17342 bound_to 10162
  139.6171  144.0981  152.2356 LP  0  0  0  0  0  0  0  0  0  0  0  0  # atno 17343 bound_to 10162
  157.6790  131.0843  150.7420 LP  0  0  0  0  0  0  0  0  0  0  0  0  # atno 17370 bound_to 10713
  156.7480  130.4759  149.5463 LP  0  0  0  0  0  0  0  0  0  0  0  0  # atno 17371 bound_to 10713
  140.1872  134.4416  155.7737 LP  0  0  0  0  0  0  0  0  0  0  0  0  # atno 17394 bound_to 11000
  141.2224  133.7010  156.7967 LP  0  0  0  0  0  0  0  0  0  0  0  0  # atno 17395 bound_to 11000

$$$$
