#       Name:                AV-unprocessed.smi:24
#       Creating user name   scv26
#       Creation time:       Thu Mar 26 15:43:45 2020


#       File generated by GOLD software.
#

@<TRIPOS>MOLECULE
AV-unprocessed.smi:24
    72    76     1
SMALL
NO_CHARGES


@<TRIPOS>ATOM
      1 ****        -7.1738  -1.5621   1.9167 C.3            1 S1                 0.0000
      2 ****        -6.3853  -0.5470   1.3131 O.3            1 S1                 0.0000
      3 ****        -5.0465  -0.4874   1.6361 C.ar           1 S1                 0.0000
      4 ****        -4.2850   0.5301   1.0268 C.ar           1 S1                 0.0000
      5 ****        -2.9109   0.6653   1.2999 C.ar           1 S1                 0.0000
      6 ****        -2.2696  -0.2264   2.1874 C.ar           1 S1                 0.0000
      7 ****        -0.7810  -0.0986   2.5090 C.3            1 S1                 0.0000
      8 ****        -0.5216   0.9086   3.6327 C.3            1 S1                 0.0000
      9 ****         0.4007   1.8733   2.9660 C.2            1 S1                 0.0000
     10 ****         0.9219   3.0655   3.6705 C.ar           1 S1                 0.0000
     11 ****         1.7269   3.9910   2.9675 C.ar           1 S1                 0.0000
     12 ****         2.2280   5.1233   3.6390 C.ar           1 S1                 0.0000
     13 ****         1.9285   5.3290   5.0003 C.ar           1 S1                 0.0000
     14 ****         1.1260   4.4036   5.6967 C.ar           1 S1                 0.0000
     15 ****         0.6182   3.2677   5.0359 C.ar           1 S1                 0.0000
     16 ****         0.6813   1.5676   1.7536 N.2            1 S1                 0.0000
     17 ****         0.0485   0.4174   1.4116 N.am           1 S1                 0.0000
     18 ****         0.2539  -0.2188   0.2369 C.2            1 S1                 0.0000
     19 ****        -0.2323  -1.3267   0.0026 O.2            1 S1                 0.0000
     20 ****         1.1315   0.4765  -0.8254 C.3            1 S1                 0.0000
     21 ****         1.1459  -0.2229  -2.1291 N.am           1 S1                 0.0000
     22 ****         0.1276   0.0779  -3.0665 C.2            1 S1                 0.0000
     23 ****        -0.7609   0.8911  -2.8070 O.2            1 S1                 0.0000
     24 ****         0.2135  -0.6330  -4.3357 C.2            1 S1                 0.0000
     25 ****        -0.6774  -0.3709  -5.3070 F              1 S1                 0.0000
     26 ****         1.1867  -1.5392  -4.5604 C.2            1 S1                 0.0000
     27 ****         2.1433  -1.8700  -3.6144 N.am           1 S1                 0.0000
     28 ****         3.2789  -2.8423  -3.8992 C.3            1 S1                 0.0000
     29 ****         3.0065  -3.8114  -5.0569 C.3            1 S1                 0.0000
     30 ****         3.6742  -3.1309  -6.2490 C.3            1 S1                 0.0000
     31 ****         4.3066  -1.8598  -5.6714 C.3            1 S1                 0.0000
     32 ****         4.4021  -2.1117  -4.2761 O.3            1 S1                 0.0000
     33 ****         2.1593  -1.1782  -2.3818 C.2            1 S1                 0.0000
     34 ****         3.0332  -1.4079  -1.5428 O.2            1 S1                 0.0000
     35 ****        -3.0270  -1.2415   2.8059 C.ar           1 S1                 0.0000
     36 ****        -4.4025  -1.3752   2.5337 C.ar           1 S1                 0.0000
     37 ****        -8.2002  -1.4802   1.5591 H              1 S1                 0.0000
     38 ****        -7.1934  -1.4585   3.0023 H              1 S1                 0.0000
     39 ****        -6.8121  -2.5571   1.6545 H              1 S1                 0.0000
     40 ****        -4.7603   1.2172   0.3422 H              1 S1                 0.0000
     41 ****        -2.3550   1.4590   0.8229 H              1 S1                 0.0000
     42 ****        -0.3939  -1.0770   2.8005 H              1 S1                 0.0000
     43 ****        -1.4339   1.4069   3.9640 H              1 S1                 0.0000
     44 ****        -0.0483   0.4344   4.4932 H              1 S1                 0.0000
     45 ****         1.9678   3.8505   1.9236 H              1 S1                 0.0000
     46 ****         2.8438   5.8349   3.1090 H              1 S1                 0.0000
     47 ****         2.3152   6.1983   5.5117 H              1 S1                 0.0000
     48 ****         0.9003   4.5654   6.7405 H              1 S1                 0.0000
     49 ****         0.0067   2.5727   5.5919 H              1 S1                 0.0000
     50 ****         0.7843   1.5030  -0.9552 H              1 S1                 0.0000
     51 ****         2.1403   0.5862  -0.4242 H              1 S1                 0.0000
     52 ****         1.2036  -2.0052  -5.5327 H              1 S1                 0.0000
     53 ****         3.4432  -3.3787  -2.9633 H              1 S1                 0.0000
     54 ****         3.5174  -4.7500  -4.8401 H              1 S1                 0.0000
     55 ****         1.9473  -4.0351  -5.1813 H              1 S1                 0.0000
     56 ****         4.4393  -3.7831  -6.6711 H              1 S1                 0.0000
     57 ****         2.9638  -2.8959  -7.0419 H              1 S1                 0.0000
     58 ****         5.2846  -1.6467  -6.1031 H              1 S1                 0.0000
     59 ****         3.6679  -0.9929  -5.8452 H              1 S1                 0.0000
     60 ****        -2.5533  -1.9262   3.4940 H              1 S1                 0.0000
     61 ****        -4.9419  -2.1686   3.0278 H              1 S1                 0.0000
     62 ****        -6.7907   0.3322   1.5634 LP             1 S1                 0.0000
     63 ****        -6.4467  -0.6726   0.3229 LP             1 S1                 0.0000
     64 ****         1.2772   2.0974   1.1502 LP             1 S1                 0.0000
     65 ****        -0.7973  -1.7806   0.6916 LP             1 S1                 0.0000
     66 ****        -0.0619  -1.7717  -0.8765 LP             1 S1                 0.0000
     67 ****        -0.7724   1.3532  -1.9202 LP             1 S1                 0.0000
     68 ****        -1.4706   1.0891  -3.4831 LP             1 S1                 0.0000
     69 ****         5.2307  -2.6363  -4.0808 LP             1 S1                 0.0000
     70 ****         4.4294  -1.2467  -3.7751 LP             1 S1                 0.0000
     71 ****         3.0314  -0.9168  -0.6717 LP             1 S1                 0.0000
     72 ****         3.7437  -2.0853  -1.7335 LP             1 S1                 0.0000
@<TRIPOS>BOND
    1    1    2 1     
    2    1   37 1     
    3    1   38 1     
    4    1   39 1     
    5    2    3 1     
    6    3   36 ar    
    7    3    4 ar    
    8    4    5 ar    
    9    4   40 1     
   10    5    6 ar    
   11    5   41 1     
   12    6    7 1     
   13    6   35 ar    
   14    7   17 1     
   15    7    8 1     
   16    7   42 1     
   17    8    9 1     
   18    8   43 1     
   19    8   44 1     
   20    9   10 1     
   21    9   16 2     
   22   10   15 ar    
   23   10   11 ar    
   24   11   12 ar    
   25   11   45 1     
   26   12   13 ar    
   27   12   46 1     
   28   13   14 ar    
   29   13   47 1     
   30   14   15 ar    
   31   14   48 1     
   32   15   49 1     
   33   16   17 1     
   34   17   18 am    
   35   18   19 2     
   36   18   20 1     
   37   20   21 1     
   38   20   50 1     
   39   20   51 1     
   40   21   33 am    
   41   21   22 am    
   42   22   23 2     
   43   22   24 1     
   44   24   25 1     
   45   24   26 2     
   46   26   27 1     
   47   26   52 1     
   48   27   28 1     
   49   27   33 am    
   50   28   32 1     
   51   28   29 1     
   52   28   53 1     
   53   29   30 1     
   54   29   54 1     
   55   29   55 1     
   56   30   31 1     
   57   30   56 1     
   58   30   57 1     
   59   31   32 1     
   60   31   58 1     
   61   31   59 1     
   62   33   34 2     
   63   35   36 ar    
   64   35   60 1     
   65   36   61 1     
   66    2   62 1     
   67    2   63 1     
   68   16   64 1     
   69   19   65 1     
   70   19   66 1     
   71   23   67 1     
   72   23   68 1     
   73   32   69 1     
   74   32   70 1     
   75   34   71 1     
   76   34   72 1     
@<TRIPOS>SUBSTRUCTURE
      1 S1             1
@<TRIPOS>SET
LONE_PAIRS      STATIC     ATOMS    <user>   **** ""
11 62 63 64 65 66 67 68 69 70 71 72
ATOM$BLUE        STATIC     ATOMS    COLORGROUP SYSTEM
11 62 63 64 65 66 67 68 69 70 71 72
