#       Name:                AV-unprocessed.smi:2114
#       Creating user name   scv26
#       Creation time:       Fri Mar 27 11:36:06 2020


#       File generated by GOLD software.
#

@<TRIPOS>MOLECULE
AV-unprocessed.smi:2114
    55    56     1
SMALL
NO_CHARGES


@<TRIPOS>ATOM
      1 ****        -5.7240  -0.7130   2.9886 C.3            1 S1                 0.0000
      2 ****        -5.2642  -0.0720   1.8118 O.3            1 S1                 0.0000
      3 ****        -5.6400  -0.7651   0.6324 C.3            1 S1                 0.0000
      4 ****        -5.0950  -0.0179  -0.5945 C.3            1 S1                 0.0000
      5 ****        -5.6273  -0.6223  -1.9041 C.3            1 S1                 0.0000
      6 ****        -3.6354  -0.0576  -0.5782 N.am           1 S1                 0.0000
      7 ****        -2.8244   0.8385  -1.1639 C.2            1 S1                 0.0000
      8 ****        -3.2307   1.8208  -1.7850 O.2            1 S1                 0.0000
      9 ****        -1.3547   0.6098  -0.9613 C.ar           1 S1                 0.0000
     10 ****        -0.8144  -0.6887  -0.8356 C.ar           1 S1                 0.0000
     11 ****         0.5752  -0.8397  -0.6661 C.ar           1 S1                 0.0000
     12 ****         1.3966   0.3118  -0.6318 C.ar           1 S1                 0.0000
     13 ****         2.7911   0.1832  -0.4539 N.3            1 S1                 0.0000
     14 ****         3.6217   1.3641  -0.6800 C.3            1 S1                 0.0000
     15 ****         5.1104   0.9736  -0.7275 C.3            1 S1                 0.0000
     16 ****         6.0230   2.1983  -0.8460 C.3            1 S1                 0.0000
     17 ****         5.4480   0.2777   0.4690 O.3            1 S1                 0.0000
     18 ****         4.7085  -0.9305   0.6233 C.3            1 S1                 0.0000
     19 ****         5.2107  -1.6437   1.8831 C.3            1 S1                 0.0000
     20 ****         3.2066  -0.5993   0.7071 C.3            1 S1                 0.0000
     21 ****         0.8779   1.5563  -0.7738 N.ar           1 S1                 0.0000
     22 ****        -0.4549   1.6964  -0.9355 C.ar           1 S1                 0.0000
     23 ****        -5.4241  -0.1339   3.8620 H              1 S1                 0.0000
     24 ****        -5.2972  -1.7124   3.0846 H              1 S1                 0.0000
     25 ****        -6.8117  -0.7940   2.9955 H              1 S1                 0.0000
     26 ****        -5.2617  -1.7888   0.6548 H              1 S1                 0.0000
     27 ****        -6.7285  -0.8205   0.5798 H              1 S1                 0.0000
     28 ****        -5.4286   1.0197  -0.5333 H              1 S1                 0.0000
     29 ****        -6.7169  -0.5971  -1.9318 H              1 S1                 0.0000
     30 ****        -5.3155  -1.6610  -2.0175 H              1 S1                 0.0000
     31 ****        -5.2663  -0.0695  -2.7720 H              1 S1                 0.0000
     32 ****        -3.2095  -0.8155  -0.0650 H              1 S1                 0.0000
     33 ****        -1.4452  -1.5651  -0.8720 H              1 S1                 0.0000
     34 ****         0.9936  -1.8314  -0.5802 H              1 S1                 0.0000
     35 ****         3.3436   1.8438  -1.6196 H              1 S1                 0.0000
     36 ****         3.4467   2.0855   0.1197 H              1 S1                 0.0000
     37 ****         5.2920   0.3221  -1.5842 H              1 S1                 0.0000
     38 ****         5.8080   2.7617  -1.7543 H              1 S1                 0.0000
     39 ****         7.0711   1.9004  -0.8798 H              1 S1                 0.0000
     40 ****         5.8943   2.8700   0.0033 H              1 S1                 0.0000
     41 ****         4.8941  -1.5759  -0.2371 H              1 S1                 0.0000
     42 ****         4.6792  -2.5823   2.0411 H              1 S1                 0.0000
     43 ****         5.0695  -1.0252   2.7700 H              1 S1                 0.0000
     44 ****         6.2735  -1.8734   1.8028 H              1 S1                 0.0000
     45 ****         2.9988  -0.0220   1.6090 H              1 S1                 0.0000
     46 ****         2.6424  -1.5273   0.7891 H              1 S1                 0.0000
     47 ****        -0.8077   2.7121  -1.0418 H              1 S1                 0.0000
     48 ****        -4.2664  -0.0158   1.8464 LP             1 S1                 0.0000
     49 ****        -5.6490   0.8503   1.7779 LP             1 S1                 0.0000
     50 ****        -4.2131   1.9849  -1.8740 LP             1 S1                 0.0000
     51 ****        -2.5783   2.4546  -2.2006 LP             1 S1                 0.0000
     52 ****         3.0007  -0.3811  -1.2525 LP             1 S1                 0.0000
     53 ****         5.2582   0.8721   1.2504 LP             1 S1                 0.0000
     54 ****         6.4231   0.0566   0.4474 LP             1 S1                 0.0000
     55 ****         1.4742   2.3590  -0.7590 LP             1 S1                 0.0000
@<TRIPOS>BOND
    1    1    2 1     
    2    1   23 1     
    3    1   24 1     
    4    1   25 1     
    5    2    3 1     
    6    3    4 1     
    7    3   26 1     
    8    3   27 1     
    9    4    5 1     
   10    4    6 1     
   11    4   28 1     
   12    5   29 1     
   13    5   30 1     
   14    5   31 1     
   15    6    7 am    
   16    6   32 1     
   17    7    8 2     
   18    7    9 1     
   19    9   22 ar    
   20    9   10 ar    
   21   10   11 ar    
   22   10   33 1     
   23   11   12 ar    
   24   11   34 1     
   25   12   13 1     
   26   12   21 ar    
   27   13   20 1     
   28   13   14 1     
   29   14   15 1     
   30   14   35 1     
   31   14   36 1     
   32   15   16 1     
   33   15   17 1     
   34   15   37 1     
   35   16   38 1     
   36   16   39 1     
   37   16   40 1     
   38   17   18 1     
   39   18   19 1     
   40   18   20 1     
   41   18   41 1     
   42   19   42 1     
   43   19   43 1     
   44   19   44 1     
   45   20   45 1     
   46   20   46 1     
   47   21   22 ar    
   48   22   47 1     
   49    2   48 1     
   50    2   49 1     
   51    8   50 1     
   52    8   51 1     
   53   13   52 1     
   54   17   53 1     
   55   17   54 1     
   56   21   55 1     
@<TRIPOS>SUBSTRUCTURE
      1 S1             1
@<TRIPOS>SET
LONE_PAIRS      STATIC     ATOMS    <user>   **** ""
8 48 49 50 51 52 53 54 55
DONOR_HYDROGENS      STATIC     ATOMS    <user>   **** ""
1 32
ATOM$BLUE        STATIC     ATOMS    COLORGROUP SYSTEM
8 48 49 50 51 52 53 54 55
ATOM$RED        STATIC     ATOMS    COLORGROUP SYSTEM
1 32
