AV-unprocessed.smi:2693|AV-procd|sdf|10404|dock4
  -GOLD-   2272014433D 1   1.00000     0.00000
 Structure written by MMmdl.
 45 47  0  0  0  0  0  0  0  0  1 V2000
  151.9138  141.1603  158.4239 C   0  0  0  0  0  0  0  0  0  0  0  0
  151.2989  141.2787  157.1049 N   0  0  0  0  0  0  0  0  0  0  0  0
  151.2931  142.5976  156.4784 C   0  0  0  0  0  0  0  0  0  0  0  0
  150.7461  140.1681  156.4603 C   0  0  0  0  0  0  0  0  0  0  0  0
  150.3837  139.1290  157.2240 N   0  0  0  0  0  0  0  0  0  0  0  0
  149.8505  138.0515  156.6101 C   0  0  0  0  0  0  0  0  0  0  0  0
  149.6782  138.0066  155.2060 C   0  0  0  0  0  0  0  0  0  0  0  0
  149.1076  136.9232  154.4863 N   0  0  0  0  0  0  0  0  0  0  0  0
  148.3219  135.9372  154.9509 C   0  0  0  0  0  0  0  0  0  0  0  0
  147.9870  135.7867  156.1254 O   0  0  0  0  0  0  0  0  0  0  0  0
  147.9600  135.1030  153.9679 N   0  0  0  0  0  0  0  0  0  0  0  0
  147.1309  133.9077  154.1559 C   0  0  1  0  0  0  0  0  0  0  0  0
  146.1510  133.6820  153.0023 C   0  0  1  0  0  0  0  0  0  0  0  0
  145.5889  134.5105  151.9046 C   0  0  0  0  0  0  0  0  0  0  0  0
  145.6808  133.4362  150.7871 C   0  0  0  0  0  0  0  0  0  0  0  0
  146.4666  132.3492  151.3406 O   0  0  0  0  0  0  0  0  0  0  0  0
  147.2936  132.9794  152.2985 C   0  0  2  0  0  0  0  0  0  0  0  0
  147.7899  132.5466  153.6965 C   0  0  0  0  0  0  0  0  0  0  0  0
  149.3105  132.4224  153.8461 C   0  0  0  0  0  0  0  0  0  0  0  0
  147.2044  131.2473  154.2783 C   0  0  0  0  0  0  0  0  0  0  0  0
  150.0826  139.1585  154.5025 C   0  0  0  0  0  0  0  0  0  0  0  0
  150.6162  140.2287  155.1283 N   0  0  0  0  0  0  0  0  0  0  0  0
  152.8111  140.5433  158.3687 H   0  0  0  0  0  0  0  0  0  0  0  0
  151.2216  140.7004  159.1298 H   0  0  0  0  0  0  0  0  0  0  0  0
  152.1985  142.1316  158.8282 H   0  0  0  0  0  0  0  0  0  0  0  0
  151.7529  142.5537  155.4906 H   0  0  0  0  0  0  0  0  0  0  0  0
  151.8461  143.3300  157.0668 H   0  0  0  0  0  0  0  0  0  0  0  0
  150.2705  142.9594  156.3666 H   0  0  0  0  0  0  0  0  0  0  0  0
  149.5508  137.2467  157.2626 H   0  0  0  0  0  0  0  0  0  0  0  0
  149.3631  136.8674  153.5112 H   0  0  0  0  0  0  0  0  0  0  0  0
  148.2826  135.2951  153.0310 H   0  0  0  0  0  0  0  0  0  0  0  0
  146.6506  133.8487  155.1342 H   0  0  0  0  0  0  0  0  0  0  0  0
  145.3762  132.9914  153.3446 H   0  0  0  0  0  0  0  0  0  0  0  0
  144.5649  134.8326  152.0956 H   0  0  0  0  0  0  0  0  0  0  0  0
  146.2066  135.3826  151.6863 H   0  0  0  0  0  0  0  0  0  0  0  0
  144.6976  133.0648  150.4974 H   0  0  0  0  0  0  0  0  0  0  0  0
  146.1652  133.8421  149.8982 H   0  0  0  0  0  0  0  0  0  0  0  0
  147.9980  133.6568  151.8047 H   0  0  0  0  0  0  0  0  0  0  0  0
  149.6833  131.4958  153.4085 H   0  0  0  0  0  0  0  0  0  0  0  0
  149.6088  132.4356  154.8949 H   0  0  0  0  0  0  0  0  0  0  0  0
  149.8388  133.2369  153.3503 H   0  0  0  0  0  0  0  0  0  0  0  0
  147.5224  130.3786  153.7009 H   0  0  0  0  0  0  0  0  0  0  0  0
  146.1162  131.2292  154.2959 H   0  0  0  0  0  0  0  0  0  0  0  0
  147.5330  131.0922  155.3065 H   0  0  0  0  0  0  0  0  0  0  0  0
  149.9818  139.2239  153.4290 H   0  0  0  0  0  0  0  0  0  0  0  0
  1  2  1  0  0  0  0
  1 23  1  0  0  0  0
  1 24  1  0  0  0  0
  1 25  1  0  0  0  0
  2  3  1  0  0  0  0
  2  4  1  0  0  0  0
  3 26  1  0  0  0  0
  3 27  1  0  0  0  0
  3 28  1  0  0  0  0
  4 22  1  0  0  0  0
  4  5  2  0  0  0  0
  5  6  1  0  0  0  0
  6  7  2  0  0  0  0
  6 29  1  0  0  0  0
  7  8  1  0  0  0  0
  7 21  1  0  0  0  0
  8  9  1  0  0  0  0
  8 30  1  0  0  0  0
  9 10  2  0  0  0  0
  9 11  1  0  0  0  0
 11 12  1  0  0  0  0
 11 31  1  0  0  0  0
 12 18  1  0  0  0  0
 12 13  1  0  0  0  0
 12 32  1  0  0  0  0
 13 17  1  0  0  0  0
 13 14  1  0  0  0  0
 13 33  1  0  0  0  0
 14 15  1  0  0  0  0
 14 34  1  0  0  0  0
 14 35  1  0  0  0  0
 15 16  1  0  0  0  0
 15 36  1  0  0  0  0
 15 37  1  0  0  0  0
 16 17  1  0  0  0  0
 17 18  1  0  0  0  0
 17 38  1  0  0  0  0
 18 19  1  0  0  0  0
 18 20  1  0  0  0  0
 19 39  1  0  0  0  0
 19 40  1  0  0  0  0
 19 41  1  0  0  0  0
 20 42  1  0  0  0  0
 20 43  1  0  0  0  0
 20 44  1  0  0  0  0
 21 22  2  0  0  0  0
 21 45  1  0  0  0  0
M  END
> <s_m_source_file>
AV-unprocessed.smi

> <i_m_source_file_index>
2693

> <i_lp_mmshare_version>
43012

> <i_f3d_flags>
0

> <s_epik_input>
W0NIM11OKFtDSDNdKWMxbltjSF1jKFtjSF1uMSlbTkhdQyg9TylbTkhdW0NASF0yQyhbQ0gzXSkoW0NIM10pW0NAQEhdKFtDQEhdMjMpT1tDSDJdW0NIMl0z

> <s_epik_cmdline>
J2VwaWtfcHl0aG9uJywgJy1waCcsICc3LjAnLCAnLXRuJywgJzgnLCAnLW1hJywgJzIwMCcsICctbWV0YWxfYmluZGluZycsICctaW1hZScsICc8aW5maWxlLm1hZT4nLCAnLW9tYWUnLCAnPG91dGZpbGUubWFlPic=

> <r_lp_tautomer_probability>
1

> <r_epik_Ionization_Penalty>
0.00031779

> <r_epik_Ionization_Penalty_Charging>
0

> <r_epik_Ionization_Penalty_Neutral>
0.00031779

> <r_epik_State_Penalty>
-0

> <r_epik_Charging_Adjusted_Penalty>
0

> <i_epik_Tot_Q>
0

> <i_epik_Tot_abs_Q>
0

> <r_epik_Metal_State_Penalty>
-0

> <b_epik_Metal_Only>
0

> <s_lp_Force_Field>
OPLS_2005

> <r_lp_Energy>
57.3202

> <b_lp_Chiralities_Consistent>
1

> <s_lp_Variant>
AV-unprocessed.smi:2693-8

> <Gold.Version>
5.8.1

> <Gold.Id.Protein>
6NUR|6NUR_protein|mol2

> <Gold.PLP.Fitness>
38.8318

> <Gold.PLP.PLP>
-28.3041

> <Gold.PLP.part.hbond>
-3.0000

> <Gold.PLP.part.metal>
0.0000

> <Gold.PLP.part.buried>
-5.3873

> <Gold.PLP.part.nonpolar>
-20.4320

> <Gold.PLP.part.repulsive>
0.5553

> <Gold.PLP.ligand.clash>
0.0000

> <Gold.PLP.ligand.torsion>
0.4572

> <Gold.PLP.Chemscore.Hbond>
2.7260

> <Gold.PLP.Chemscore.CHOScore>
1.0000

> <Gold.PLP.Chemscore.Metal>
0.0000

> <Gold.Chemscore.Hbonds>
donor molecule, donor type, donor heavy atom, donor atom, acceptor molecule, acceptor atom, score
      L1  H     8    30       P1  7948  0.98
      L1  H    11    31       P1  7948  1.00
      P1  H  7989  7998       L1    22  0.75
      L1  C    21    45       P1  7957  1.00

> <Gold.PLP.Chemscore.Internal.Correction>
0.2642

> <Gold.Rescore>
     Score         DG    S(hbond)    S(metal)    S(lipo)     H(rot)  DE(clash)    DE(int)     intcor
     15.63     -17.17       1.96        0.00      65.70       1.00       0.05       1.48       ----

> <Gold.Chemscore.Fitness>
15.6302

> <Gold.Chemscore.DG>
-17.1659

> <Gold.Chemscore.ZeroCoef>
-5.4800

> <Gold.Chemscore.Hbond>
1.9638

> <Gold.Chemscore.Metal>
0.0000

> <Gold.Chemscore.Lipo>
65.7001

> <Gold.Chemscore.Internal_Hbond>
0.0000

> <Gold.Chemscore.DEClash>
0.0510

> <Gold.Chemscore.DEInternal>
1.4846

> <Gold.Chemscore.Rot>
1.0000

> <Gold.Chemscore.Internal.Correction>
   9.000000E+99

> <Gold.Chemscore.Hbonds>
donor molecule, donor type, donor heavy atom, donor atom, acceptor molecule, acceptor atom, score
      L1  H     8    30       P1  7948  0.88
      L1  H    11    31       P1  7948  0.95
      P1  H  7989  7998       L1    22  0.09

> <Gold.Chemscore.Hbond.Weighted>
-6.5590

> <Gold.Chemscore.Metal.Weighted>
-0.0000

> <Gold.Chemscore.Lipo.Weighted>
-7.6869

> <Gold.Chemscore.Internal_Hbond.Weighted>
0.0000

> <Gold.Chemscore.DEClash.Weighted>
0.0510

> <Gold.Chemscore.DEInternal.Weighted>
1.4846

> <Gold.Chemscore.Rot.Weighted>
2.5600

> <Gold.Chemscore.Internal.Correction.Weighted>
   9.000000E+99

> <Gold.Protein.RotatedTorsions>
[ 6907 6896 6895 6894 ] final  -48.44 input  -60.11 | X-H torsion
[ 7974 7965 7964 7962 ] final  -70.20 input  175.53 | X-H torsion
[ 8008 7997 7996 7995 ] final  105.20 input   59.86 | X-H torsion
[ 10167 10162 10161 10158 ] final  133.09 input  -65.29 | X-H torsion
[ 10718 10713 10712 10709 ] final  -46.50 input   66.30 | X-H torsion
[ 10763 10752 10751 10750 ] final  -67.21 input  -60.55 | X-H torsion
[ 11005 11000 10999 10996 ] final  170.44 input  -57.11 | X-H torsion

> <Gold.Protein.ActiveResidues>
 VAL166  LYS551  ARG553  GLY616  TRP617  ASP618  TYR619  PRO620  LYS621  CYS622 
 ASP623  PHE694  ASN695  SER759  ASP760  ASP761  ALA762  ILE779  LEU786  VAL792 
 PHE793  MET794  SER795  GLU796  ALA797  LYS798  CYS799  TRP800  GLU811  SER814 

> <Gold.Protein.RotatedAtoms>
  150.8905  134.8308  159.7289 H   0  0  0  0  0  0  0  0  0  0  0  0  # atno 6907 bound_to 6896
  152.4834  134.4655  159.9629 H   0  0  0  0  0  0  0  0  0  0  0  0  # atno 6908 bound_to 6896
  151.4718  133.3528  159.2860 H   0  0  0  0  0  0  0  0  0  0  0  0  # atno 6909 bound_to 6896
  145.6941  140.9142  143.0766 H   0  0  0  0  0  0  0  0  0  0  0  0  # atno 7974 bound_to 7965
  156.1638  140.3134  155.8853 H   0  0  0  0  0  0  0  0  0  0  0  0  # atno 8008 bound_to 7997
  155.3727  140.0483  157.3062 H   0  0  0  0  0  0  0  0  0  0  0  0  # atno 8009 bound_to 7997
  154.5172  140.2185  155.9053 H   0  0  0  0  0  0  0  0  0  0  0  0  # atno 8010 bound_to 7997
  139.5311  144.6632  151.4946 H   0  0  0  0  0  0  0  0  0  0  0  0  # atno 10167 bound_to 10162
  156.2177  130.4164  149.9033 H   0  0  0  0  0  0  0  0  0  0  0  0  # atno 10718 bound_to 10713
  154.3712  135.6095  153.5741 H   0  0  0  0  0  0  0  0  0  0  0  0  # atno 10763 bound_to 10752
  152.9790  135.5838  154.4520 H   0  0  0  0  0  0  0  0  0  0  0  0  # atno 10764 bound_to 10752
  154.4274  135.2847  155.1913 H   0  0  0  0  0  0  0  0  0  0  0  0  # atno 10765 bound_to 10752
  140.3084  134.7537  157.3972 H   0  0  0  0  0  0  0  0  0  0  0  0  # atno 11005 bound_to 11000
  144.6988  139.8860  143.7450 LP  0  0  0  0  0  0  0  0  0  0  0  0  # atno 17320 bound_to 7965
  146.0856  139.3844  143.0437 LP  0  0  0  0  0  0  0  0  0  0  0  0  # atno 17321 bound_to 7965
  140.6490  143.8735  150.6766 LP  0  0  0  0  0  0  0  0  0  0  0  0  # atno 17342 bound_to 10162
  140.2094  143.3896  152.1730 LP  0  0  0  0  0  0  0  0  0  0  0  0  # atno 17343 bound_to 10162
  156.6690  130.8813  151.3559 LP  0  0  0  0  0  0  0  0  0  0  0  0  # atno 17370 bound_to 10713
  157.7071  130.9398  150.0967 LP  0  0  0  0  0  0  0  0  0  0  0  0  # atno 17371 bound_to 10713
  140.1047  134.5426  155.8321 LP  0  0  0  0  0  0  0  0  0  0  0  0  # atno 17394 bound_to 11000
  141.2113  133.6705  156.6575 LP  0  0  0  0  0  0  0  0  0  0  0  0  # atno 17395 bound_to 11000

$$$$
