AV-unprocessed.smi:2044|AV-procd|sdf|8298|dock2
  -GOLD-   2272010563D 1   1.00000     0.00000
 Structure written by MMmdl.
 39 40  0  0  0  0  0  0  0  0  1 V2000
  150.5980  141.8448  156.8447 C   0  0  0  0  0  0  0  0  0  0  0  0
  150.3637  140.7919  155.8163 C   0  0  0  0  0  0  0  0  0  0  0  0
  149.2456  140.3759  155.1497 C   0  0  0  0  0  0  0  0  0  0  0  0
  149.7371  139.3332  154.3201 C   0  0  0  0  0  0  0  0  0  0  0  0
  148.8688  138.6227  153.4524 N   0  0  0  0  0  0  0  0  0  0  0  0
  147.5366  138.7569  153.3369 C   0  0  0  0  0  0  0  0  0  0  0  0
  146.8428  139.5326  153.9954 O   0  0  0  0  0  0  0  0  0  0  0  0
  147.0442  137.9266  152.4065 N   0  0  0  0  0  0  0  0  0  0  0  0
  145.6349  137.7971  152.0401 C   0  0  0  0  0  0  0  0  0  0  0  0
  145.1414  136.3271  152.0922 C   0  0  2  0  0  0  0  0  0  0  0  0
  145.4719  135.6502  150.7428 C   0  0  0  0  0  0  0  0  0  0  0  0
  143.7253  136.1804  152.4962 N   0  0  0  0  0  0  0  0  0  0  0  0
  143.2954  134.7792  152.5372 C   0  0  0  0  0  0  0  0  0  0  0  0
  141.8309  134.6208  152.9810 C   0  0  0  0  0  0  0  0  0  0  0  0
  141.6468  135.2301  154.2521 O   0  0  0  0  0  0  0  0  0  0  0  0
  141.9852  136.6105  154.2400 C   0  0  0  0  0  0  0  0  0  0  0  0
  143.4513  136.7797  153.8058 C   0  0  0  0  0  0  0  0  0  0  0  0
  151.0378  139.1312  154.4668 N   0  0  0  0  0  0  0  0  0  0  0  0
  151.4458  140.0646  155.4270 O   0  0  0  0  0  0  0  0  0  0  0  0
  149.8120  142.5995  156.8144 H   0  0  0  0  0  0  0  0  0  0  0  0
  151.5525  142.3455  156.6796 H   0  0  0  0  0  0  0  0  0  0  0  0
  150.6119  141.4103  157.8441 H   0  0  0  0  0  0  0  0  0  0  0  0
  148.2399  140.7574  155.2440 H   0  0  0  0  0  0  0  0  0  0  0  0
  149.3100  137.9419  152.8520 H   0  0  0  0  0  0  0  0  0  0  0  0
  147.6909  137.3206  151.9233 H   0  0  0  0  0  0  0  0  0  0  0  0
  145.0104  138.4235  152.6790 H   0  0  0  0  0  0  0  0  0  0  0  0
  145.5036  138.2163  151.0433 H   0  0  0  0  0  0  0  0  0  0  0  0
  145.7558  135.8267  152.8423 H   0  0  0  0  0  0  0  0  0  0  0  0
  146.4895  135.8787  150.4251 H   0  0  0  0  0  0  0  0  0  0  0  0
  144.7982  135.9823  149.9524 H   0  0  0  0  0  0  0  0  0  0  0  0
  145.4101  134.5641  150.8027 H   0  0  0  0  0  0  0  0  0  0  0  0
  143.3895  134.3221  151.5531 H   0  0  0  0  0  0  0  0  0  0  0  0
  143.9405  134.2138  153.2115 H   0  0  0  0  0  0  0  0  0  0  0  0
  141.1552  135.0703  152.2515 H   0  0  0  0  0  0  0  0  0  0  0  0
  141.5689  133.5649  153.0523 H   0  0  0  0  0  0  0  0  0  0  0  0
  141.3174  137.1512  153.5675 H   0  0  0  0  0  0  0  0  0  0  0  0
  141.8362  137.0220  155.2382 H   0  0  0  0  0  0  0  0  0  0  0  0
  144.1044  136.3366  154.5593 H   0  0  0  0  0  0  0  0  0  0  0  0
  143.6662  137.8470  153.7913 H   0  0  0  0  0  0  0  0  0  0  0  0
  1  2  1  0  0  0  0
  1 20  1  0  0  0  0
  1 21  1  0  0  0  0
  1 22  1  0  0  0  0
  2 19  1  0  0  0  0
  2  3  2  0  0  0  0
  3  4  1  0  0  0  0
  3 23  1  0  0  0  0
  4  5  1  0  0  0  0
  4 18  2  0  0  0  0
  5  6  1  0  0  0  0
  5 24  1  0  0  0  0
  6  7  2  0  0  0  0
  6  8  1  0  0  0  0
  8  9  1  0  0  0  0
  8 25  1  0  0  0  0
  9 10  1  0  0  0  0
  9 26  1  0  0  0  0
  9 27  1  0  0  0  0
 10 11  1  0  0  0  0
 10 12  1  0  0  0  0
 10 28  1  0  0  0  0
 11 29  1  0  0  0  0
 11 30  1  0  0  0  0
 11 31  1  0  0  0  0
 12 17  1  0  0  0  0
 12 13  1  0  0  0  0
 13 14  1  0  0  0  0
 13 32  1  0  0  0  0
 13 33  1  0  0  0  0
 14 15  1  0  0  0  0
 14 34  1  0  0  0  0
 14 35  1  0  0  0  0
 15 16  1  0  0  0  0
 16 17  1  0  0  0  0
 16 36  1  0  0  0  0
 16 37  1  0  0  0  0
 17 38  1  0  0  0  0
 17 39  1  0  0  0  0
 18 19  1  0  0  0  0
M  END
> <s_m_source_file>
AV-unprocessed.smi

> <i_m_source_file_index>
2044

> <i_lp_mmshare_version>
43012

> <i_f3d_flags>
0

> <s_epik_input>
W0NIM11jMVtjSF1jKG5vMSlbTkhdQyg9TylbTkhdW0NIMl1bQ0BIXShbQ0gzXSlOMltDSDJdW0NIMl1PW0NIMl1bQ0gyXTI=

> <s_epik_cmdline>
J2VwaWtfcHl0aG9uJywgJy1waCcsICc3LjAnLCAnLXRuJywgJzgnLCAnLW1hJywgJzIwMCcsICctbWV0YWxfYmluZGluZycsICctaW1hZScsICc8aW5maWxlLm1hZT4nLCAnLW9tYWUnLCAnPG91dGZpbGUubWFlPic=

> <r_epik_Ionization_Penalty>
0.214073

> <r_epik_Ionization_Penalty_Charging>
0

> <r_epik_Ionization_Penalty_Neutral>
0.214073

> <r_epik_State_Penalty>
0.204211

> <r_epik_Charging_Adjusted_Penalty>
0.204211

> <i_epik_Tot_Q>
0

> <i_epik_Tot_abs_Q>
0

> <r_epik_Metal_State_Penalty>
0.217151

> <b_epik_Metal_Only>
0

> <s_lp_Force_Field>
OPLS_2005

> <r_lp_Energy>
29.787

> <b_lp_Chiralities_Consistent>
1

> <s_lp_Variant>
AV-unprocessed.smi:2044-1

> <Gold.Version>
5.8.1

> <Gold.Id.Protein>
6NUR|6NUR_protein|mol2

> <Gold.PLP.Fitness>
39.2318

> <Gold.PLP.PLP>
-32.8599

> <Gold.PLP.part.hbond>
-6.0000

> <Gold.PLP.part.metal>
0.0000

> <Gold.PLP.part.buried>
-2.8196

> <Gold.PLP.part.nonpolar>
-25.0203

> <Gold.PLP.part.repulsive>
0.6872

> <Gold.PLP.ligand.clash>
0.0000

> <Gold.PLP.ligand.torsion>
0.4015

> <Gold.PLP.Chemscore.Hbond>
2.3752

> <Gold.PLP.Chemscore.CHOScore>
0.0000

> <Gold.PLP.Chemscore.Metal>
0.0000

> <Gold.Chemscore.Hbonds>
donor molecule, donor type, donor heavy atom, donor atom, acceptor molecule, acceptor atom, score
      L1  H     5    24       P1  7948  0.88
      L1  H     8    25       P1  7948  1.00
      P1  H 11000 11005       L1    15  0.50

> <Gold.PLP.Chemscore.Internal.Correction>
0.0492

> <Gold.Rescore>
     Score         DG    S(hbond)    S(metal)    S(lipo)     H(rot)  DE(clash)    DE(int)     intcor
     14.48     -16.50       2.65        0.00      53.04       1.58       0.12       1.89       ----

> <Gold.Chemscore.Fitness>
14.4842

> <Gold.Chemscore.DG>
-16.4961

> <Gold.Chemscore.ZeroCoef>
-5.4800

> <Gold.Chemscore.Hbond>
2.6477

> <Gold.Chemscore.Metal>
0.0000

> <Gold.Chemscore.Lipo>
53.0396

> <Gold.Chemscore.Internal_Hbond>
0.0000

> <Gold.Chemscore.DEClash>
0.1248

> <Gold.Chemscore.DEInternal>
1.8871

> <Gold.Chemscore.Rot>
1.5753

> <Gold.Chemscore.Internal.Correction>
   9.000000E+99

> <Gold.Chemscore.Hbonds>
donor molecule, donor type, donor heavy atom, donor atom, acceptor molecule, acceptor atom, score
      L1  H     5    24       P1  7948  0.80
      L1  H     8    25       P1  7948  0.98
      P1  H 11000 11005       L1    15  0.48

> <Gold.Chemscore.Hbond.Weighted>
-8.8433

> <Gold.Chemscore.Metal.Weighted>
-0.0000

> <Gold.Chemscore.Lipo.Weighted>
-6.2056

> <Gold.Chemscore.Internal_Hbond.Weighted>
0.0000

> <Gold.Chemscore.DEClash.Weighted>
0.1248

> <Gold.Chemscore.DEInternal.Weighted>
1.8871

> <Gold.Chemscore.Rot.Weighted>
4.0329

> <Gold.Chemscore.Internal.Correction.Weighted>
   9.000000E+99

> <Gold.Protein.RotatedTorsions>
[ 6907 6896 6895 6894 ] final  159.67 input  -60.11 | X-H torsion
[ 7974 7965 7964 7962 ] final  171.35 input  175.53 | X-H torsion
[ 8008 7997 7996 7995 ] final  145.49 input   59.86 | X-H torsion
[ 10167 10162 10161 10158 ] final -113.55 input  -65.29 | X-H torsion
[ 10718 10713 10712 10709 ] final  -80.02 input   66.30 | X-H torsion
[ 10763 10752 10751 10750 ] final  168.10 input  -60.55 | X-H torsion
[ 11005 11000 10999 10996 ] final   27.48 input  -57.11 | X-H torsion

> <Gold.Protein.ActiveResidues>
 VAL166  LYS551  ARG553  GLY616  TRP617  ASP618  TYR619  PRO620  LYS621  CYS622 
 ASP623  PHE694  ASN695  SER759  ASP760  ASP761  ALA762  ILE779  LEU786  VAL792 
 PHE793  MET794  SER795  GLU796  ALA797  LYS798  CYS799  TRP800  GLU811  SER814 

> <Gold.Protein.RotatedAtoms>
  151.9821  133.3761  159.4111 H   0  0  0  0  0  0  0  0  0  0  0  0  # atno 6907 bound_to 6896
  150.6933  134.4027  159.5135 H   0  0  0  0  0  0  0  0  0  0  0  0  # atno 6908 bound_to 6896
  152.1747  134.8804  160.0582 H   0  0  0  0  0  0  0  0  0  0  0  0  # atno 6909 bound_to 6896
  144.7297  139.9337  143.6425 H   0  0  0  0  0  0  0  0  0  0  0  0  # atno 7974 bound_to 7965
  156.2881  140.2207  156.5224 H   0  0  0  0  0  0  0  0  0  0  0  0  # atno 8008 bound_to 7997
  154.7518  140.0480  157.0921 H   0  0  0  0  0  0  0  0  0  0  0  0  # atno 8009 bound_to 7997
  155.0101  140.3112  155.4836 H   0  0  0  0  0  0  0  0  0  0  0  0  # atno 8010 bound_to 7997
  140.1106  143.4531  152.1755 H   0  0  0  0  0  0  0  0  0  0  0  0  # atno 10167 bound_to 10162
  156.0079  130.4562  150.3737 H   0  0  0  0  0  0  0  0  0  0  0  0  # atno 10718 bound_to 10713
  154.3636  135.2753  155.2306 H   0  0  0  0  0  0  0  0  0  0  0  0  # atno 10763 bound_to 10752
  154.4483  135.5937  153.6178 H   0  0  0  0  0  0  0  0  0  0  0  0  # atno 10764 bound_to 10752
  152.9842  135.6035  154.3860 H   0  0  0  0  0  0  0  0  0  0  0  0  # atno 10765 bound_to 10752
  140.3258  134.2493  155.7710 H   0  0  0  0  0  0  0  0  0  0  0  0  # atno 11005 bound_to 11000
  146.0838  139.3826  143.0448 LP  0  0  0  0  0  0  0  0  0  0  0  0  # atno 17320 bound_to 7965
  145.7804  140.9858  143.1102 LP  0  0  0  0  0  0  0  0  0  0  0  0  # atno 17321 bound_to 7965
  139.5621  144.7412  151.4125 LP  0  0  0  0  0  0  0  0  0  0  0  0  # atno 17342 bound_to 10162
  140.6927  143.7822  150.7280 LP  0  0  0  0  0  0  0  0  0  0  0  0  # atno 17343 bound_to 10162
  157.1820  131.0394  151.2743 LP  0  0  0  0  0  0  0  0  0  0  0  0  # atno 17370 bound_to 10713
  157.4137  130.7399  149.6859 LP  0  0  0  0  0  0  0  0  0  0  0  0  # atno 17371 bound_to 10713
  141.2075  133.7802  157.0112 LP  0  0  0  0  0  0  0  0  0  0  0  0  # atno 17394 bound_to 11000
  140.0903  134.9596  157.1765 LP  0  0  0  0  0  0  0  0  0  0  0  0  # atno 17395 bound_to 11000

$$$$
