#       Name:                AV-unprocessed.smi:1444
#       Creating user name   scv26
#       Creation time:       Fri Mar 27 05:56:29 2020


#       File generated by GOLD software.
#

@<TRIPOS>MOLECULE
AV-unprocessed.smi:1444
    51    52     1
SMALL
NO_CHARGES


@<TRIPOS>ATOM
      1 ****        -5.1036  -1.1810   2.2800 C.3            1 S1                 0.0000
      2 ****        -3.8123  -0.7148   1.9040 O.3            1 S1                 0.0000
      3 ****        -3.6968   0.5559   1.3725 C.ar           1 S1                 0.0000
      4 ****        -4.8229   1.2985   1.2295 N.ar           1 S1                 0.0000
      5 ****        -4.7137   2.5384   0.7114 C.ar           1 S1                 0.0000
      6 ****        -3.4876   3.0988   0.3102 C.ar           1 S1                 0.0000
      7 ****        -2.3175   2.3310   0.4574 C.ar           1 S1                 0.0000
      8 ****        -2.4144   1.0259   1.0017 C.ar           1 S1                 0.0000
      9 ****        -1.3107   0.1485   1.2037 N.am           1 S1                 0.0000
     10 ****        -0.0010   0.3401   0.9725 C.2            1 S1                 0.0000
     11 ****         0.5058   1.3551   0.4974 O.2            1 S1                 0.0000
     12 ****         0.7087  -0.7441   1.3187 N.am           1 S1                 0.0000
     13 ****         2.1636  -0.8844   1.2464 C.3            1 S1                 0.0000
     14 ****         2.6358  -1.7664   2.4102 C.3            1 S1                 0.0000
     15 ****         2.6091  -1.4692  -0.1137 C.3            1 S1                 0.0000
     16 ****         2.2304  -0.6162  -1.2686 N.4            1 S1                 1.0000
     17 ****         3.1209   0.5552  -1.4559 C.3            1 S1                 0.0000
     18 ****         2.6192   1.4236  -2.6214 C.3            1 S1                 0.0000
     19 ****         2.5454   0.6369  -3.8043 O.3            1 S1                 0.0000
     20 ****         1.6352  -0.4477  -3.6673 C.3            1 S1                 0.0000
     21 ****         2.1030  -1.3763  -2.5337 C.3            1 S1                 0.0000
     22 ****        -5.0198  -2.1920   2.6779 H              1 S1                 0.0000
     23 ****        -5.7798  -1.2177   1.4246 H              1 S1                 0.0000
     24 ****        -5.5431  -0.5551   3.0579 H              1 S1                 0.0000
     25 ****        -5.6310   3.1002   0.6135 H              1 S1                 0.0000
     26 ****        -3.4460   4.0968  -0.1007 H              1 S1                 0.0000
     27 ****        -1.3819   2.7668   0.1480 H              1 S1                 0.0000
     28 ****        -1.5571  -0.7493   1.5952 H              1 S1                 0.0000
     29 ****         0.2022  -1.5315   1.6973 H              1 S1                 0.0000
     30 ****         2.6239   0.0943   1.3879 H              1 S1                 0.0000
     31 ****         3.7217  -1.8645   2.4126 H              1 S1                 0.0000
     32 ****         2.2121  -2.7695   2.3487 H              1 S1                 0.0000
     33 ****         2.3440  -1.3400   3.3707 H              1 S1                 0.0000
     34 ****         3.6866  -1.6409  -0.1264 H              1 S1                 0.0000
     35 ****         2.1460  -2.4507  -0.2274 H              1 S1                 0.0000
     36 ****         3.1565   1.1561  -0.5477 H              1 S1                 0.0000
     37 ****         4.1386   0.2160  -1.6548 H              1 S1                 0.0000
     38 ****         1.6430   1.8553  -2.3934 H              1 S1                 0.0000
     39 ****         3.3033   2.2551  -2.7922 H              1 S1                 0.0000
     40 ****         0.6297  -0.0714  -3.4724 H              1 S1                 0.0000
     41 ****         1.5935  -0.9954  -4.6091 H              1 S1                 0.0000
     42 ****         3.0627  -1.8284  -2.7890 H              1 S1                 0.0000
     43 ****         1.3866  -2.1890  -2.4085 H              1 S1                 0.0000
     44 ****         1.3098  -0.2537  -1.0637 H              1 S1                 0.0000
     45 ****        -3.4554  -1.3532   1.2220 LP             1 S1                 0.0000
     46 ****        -3.2380  -0.7455   2.7221 LP             1 S1                 0.0000
     47 ****        -5.7135   0.9347   1.5021 LP             1 S1                 0.0000
     48 ****        -0.0717   2.1319   0.2464 LP             1 S1                 0.0000
     49 ****         1.4955   1.4036   0.3622 LP             1 S1                 0.0000
     50 ****         3.4543   0.2721  -4.0066 LP             1 S1                 0.0000
     51 ****         2.2438   1.2180  -4.5601 LP             1 S1                 0.0000
@<TRIPOS>BOND
    1    1    2 1     
    2    1   22 1     
    3    1   23 1     
    4    1   24 1     
    5    2    3 1     
    6    3    8 ar    
    7    3    4 ar    
    8    4    5 ar    
    9    5    6 ar    
   10    5   25 1     
   11    6    7 ar    
   12    6   26 1     
   13    7    8 ar    
   14    7   27 1     
   15    8    9 1     
   16    9   10 am    
   17    9   28 1     
   18   10   11 2     
   19   10   12 am    
   20   12   13 1     
   21   12   29 1     
   22   13   14 1     
   23   13   15 1     
   24   13   30 1     
   25   14   31 1     
   26   14   32 1     
   27   14   33 1     
   28   15   16 1     
   29   15   34 1     
   30   15   35 1     
   31   16   21 1     
   32   16   17 1     
   33   16   44 1     
   34   17   18 1     
   35   17   36 1     
   36   17   37 1     
   37   18   19 1     
   38   18   38 1     
   39   18   39 1     
   40   19   20 1     
   41   20   21 1     
   42   20   40 1     
   43   20   41 1     
   44   21   42 1     
   45   21   43 1     
   46    2   45 1     
   47    2   46 1     
   48    4   47 1     
   49   11   48 1     
   50   11   49 1     
   51   19   50 1     
   52   19   51 1     
@<TRIPOS>SUBSTRUCTURE
      1 S1             1
@<TRIPOS>SET
LONE_PAIRS      STATIC     ATOMS    <user>   **** ""
7 45 46 47 48 49 50 51
DONOR_HYDROGENS      STATIC     ATOMS    <user>   **** ""
3 28 29 44
ATOM$BLUE        STATIC     ATOMS    COLORGROUP SYSTEM
7 45 46 47 48 49 50 51
ATOM$RED        STATIC     ATOMS    COLORGROUP SYSTEM
3 28 29 44
