AV-unprocessed.smi:1582|AV-procd|sdf|6362|dock4
  -GOLD-   22720 6583D 1   1.00000     0.00000
 Structure written by MMmdl.
 41 42  0  0  0  0  0  0  0  0  2 V2000
  144.9681  137.7585  152.9930 O   0  0  0  0  0  0  0  0  0  0  0  0
  146.1157  137.3684  152.7800 C   0  0  0  0  0  0  0  0  0  0  0  0
  147.2085  138.0135  153.2117 N   0  0  0  0  0  0  0  0  0  0  0  0
  147.2040  139.2271  154.0232 C   0  0  0  0  0  0  0  0  0  0  0  0
  147.4551  140.5084  153.2003 C   0  0  1  0  0  0  0  0  0  0  0  0
  146.5760  140.4849  152.0937 O   0  0  0  0  0  0  0  0  0  0  0  0
  147.2095  141.8072  153.9988 C   0  0  0  0  0  0  0  0  0  0  0  0
  148.1321  141.9476  155.1549 N   0  3  0  0  0  0  0  0  0  0  0  0
  147.5539  141.3921  156.4063 C   0  0  0  0  0  0  0  0  0  0  0  0
  148.4613  141.6775  157.6149 C   0  0  0  0  0  0  0  0  0  0  0  0
  149.8771  141.1354  157.3812 C   0  0  0  0  0  0  0  0  0  0  0  0
  150.4413  141.6952  156.0690 C   0  0  0  0  0  0  0  0  0  0  0  0
  149.4932  141.4052  154.8930 C   0  0  0  0  0  0  0  0  0  0  0  0
  146.4420  136.2607  152.0950 N   0  0  0  0  0  0  0  0  0  0  0  0
  145.5560  135.3214  151.5104 C   0  0  0  0  0  0  0  0  0  0  0  0
  145.7606  133.9372  151.2352 C   0  0  0  0  0  0  0  0  0  0  0  0
  144.6865  133.3953  150.6785 N   0  0  0  0  0  0  0  0  0  0  0  0
  143.8025  134.4150  150.5958 N   0  0  0  0  0  0  0  0  0  0  0  0
  144.2905  135.6041  151.0909 C   0  0  0  0  0  0  0  0  0  0  0  0
  142.8808  134.2842  150.2031 H   0  0  0  0  0  0  0  0  0  0  0  0
  148.1105  137.6169  152.9920 H   0  0  0  0  0  0  0  0  0  0  0  0
  146.2532  139.2985  154.5546 H   0  0  0  0  0  0  0  0  0  0  0  0
  147.9748  139.1173  154.7870 H   0  0  0  0  0  0  0  0  0  0  0  0
  148.4727  140.4836  152.8127 H   0  0  0  0  0  0  0  0  0  0  0  0
  145.6976  140.3286  152.4059 H   0  0  0  0  0  0  0  0  0  0  0  0
  147.3300  142.6542  153.3217 H   0  0  0  0  0  0  0  0  0  0  0  0
  146.1823  141.8565  154.3626 H   0  0  0  0  0  0  0  0  0  0  0  0
  146.5731  141.8338  156.5871 H   0  0  0  0  0  0  0  0  0  0  0  0
  147.4023  140.3173  156.2925 H   0  0  0  0  0  0  0  0  0  0  0  0
  148.5054  142.7527  157.7935 H   0  0  0  0  0  0  0  0  0  0  0  0
  148.0357  141.2316  158.5144 H   0  0  0  0  0  0  0  0  0  0  0  0
  150.5263  141.4018  158.2157 H   0  0  0  0  0  0  0  0  0  0  0  0
  149.8534  140.0455  157.3383 H   0  0  0  0  0  0  0  0  0  0  0  0
  150.5897  142.7719  156.1630 H   0  0  0  0  0  0  0  0  0  0  0  0
  151.4233  141.2638  155.8719 H   0  0  0  0  0  0  0  0  0  0  0  0
  149.4310  140.3297  154.7198 H   0  0  0  0  0  0  0  0  0  0  0  0
  149.9122  141.8441  153.9883 H   0  0  0  0  0  0  0  0  0  0  0  0
  147.4259  136.0572  151.9970 H   0  0  0  0  0  0  0  0  0  0  0  0
  146.6250  133.3149  151.4125 H   0  0  0  0  0  0  0  0  0  0  0  0
  143.7119  136.5162  151.0989 H   0  0  0  0  0  0  0  0  0  0  0  0
  148.2360  142.9406  155.3110 H   0  0  0  0  0  0  0  0  0  0  0  0
  1  2  2  0  0  0  0
  2  3  1  0  0  0  0
  2 14  1  0  0  0  0
  3  4  1  0  0  0  0
  3 21  1  0  0  0  0
  4  5  1  0  0  0  0
  4 22  1  0  0  0  0
  4 23  1  0  0  0  0
  5  6  1  0  0  0  0
  5  7  1  0  0  0  0
  5 24  1  0  0  0  0
  6 25  1  0  0  0  0
  7  8  1  0  0  0  0
  7 26  1  0  0  0  0
  7 27  1  0  0  0  0
  8 13  1  0  0  0  0
  8  9  1  0  0  0  0
  8 41  1  0  0  0  0
  9 10  1  0  0  0  0
  9 28  1  0  0  0  0
  9 29  1  0  0  0  0
 10 11  1  0  0  0  0
 10 30  1  0  0  0  0
 10 31  1  0  0  0  0
 11 12  1  0  0  0  0
 11 32  1  0  0  0  0
 11 33  1  0  0  0  0
 12 13  1  0  0  0  0
 12 34  1  0  0  0  0
 12 35  1  0  0  0  0
 13 36  1  0  0  0  0
 13 37  1  0  0  0  0
 14 15  1  0  0  0  0
 14 38  1  0  0  0  0
 15 19  2  0  0  0  0
 15 16  1  0  0  0  0
 16 17  2  0  0  0  0
 16 39  1  0  0  0  0
 17 18  1  0  0  0  0
 18 20  1  0  0  0  0
 18 19  1  0  0  0  0
 19 40  1  0  0  0  0
M  CHG  1   8   1
M  END
> <s_m_source_file>
AV-unprocessed.smi

> <i_m_source_file_index>
1582

> <i_lp_mmshare_version>
43012

> <i_f3d_flags>
0

> <s_epik_input>
W2NIXTFbbkhdbltjSF1jMVtOSF1DKD1PKVtOSF1bQ0gyXVtDQEhdKFtPSF0pW0NIMl1OMltDSDJdW0NIMl1bQ0gyXVtDSDJdW0NIMl0y

> <s_epik_cmdline>
J2VwaWtfcHl0aG9uJywgJy1waCcsICc3LjAnLCAnLXRuJywgJzgnLCAnLW1hJywgJzIwMCcsICctbWV0YWxfYmluZGluZycsICctaW1hZScsICc8aW5maWxlLm1hZT4nLCAnLW9tYWUnLCAnPG91dGZpbGUubWFlPic=

> <r_lp_tautomer_probability>
0.5

> <r_epik_Ionization_Penalty>
0.00519658

> <r_epik_Ionization_Penalty_Charging>
0.00515354

> <r_epik_Ionization_Penalty_Neutral>
4.30332e-05

> <r_epik_State_Penalty>
0.00375424

> <r_epik_Charging_Adjusted_Penalty>
0.00890779

> <i_epik_Tot_Q>
1

> <i_epik_Tot_abs_Q>
1

> <r_epik_Metal_State_Penalty>
-0

> <b_epik_Metal_Only>
0

> <s_lp_Force_Field>
OPLS_2005

> <r_lp_Energy>
21.3928

> <b_lp_Chiralities_Consistent>
1

> <s_lp_Variant>
AV-unprocessed.smi:1582-2

> <Gold.Version>
5.8.1

> <Gold.Id.Protein>
6NUR|6NUR_protein|mol2

> <Gold.PLP.Fitness>
48.8717

> <Gold.PLP.PLP>
-29.5894

> <Gold.PLP.part.hbond>
-5.3342

> <Gold.PLP.part.metal>
0.0000

> <Gold.PLP.part.buried>
-3.9817

> <Gold.PLP.part.nonpolar>
-21.8989

> <Gold.PLP.part.repulsive>
1.0463

> <Gold.PLP.ligand.clash>
0.0000

> <Gold.PLP.ligand.torsion>
0.6950

> <Gold.PLP.Chemscore.Hbond>
5.8640

> <Gold.PLP.Chemscore.CHOScore>
1.0000

> <Gold.PLP.Chemscore.Metal>
0.0000

> <Gold.Chemscore.Hbonds>
donor molecule, donor type, donor heavy atom, donor atom, acceptor molecule, acceptor atom, score
      L1  H     3    21       P1  7948  0.83
      L1  H     6    25       P1 10175  1.00
      L1  H     8    41       P1  8028  2.00
      L1  H    14    38       P1  7948  0.98
      L1  H    18    20       P1 10186  1.00
      L1  C    19    40       P1 10171  1.00

> <Gold.PLP.Chemscore.Internal.Correction>
0.0803

> <Gold.Rescore>
     Score         DG    S(hbond)    S(metal)    S(lipo)     H(rot)  DE(clash)    DE(int)     intcor
     19.85     -20.95       4.58        0.00      58.09       2.59       0.15       0.95       ----

> <Gold.Chemscore.Fitness>
19.8497

> <Gold.Chemscore.DG>
-20.9481

> <Gold.Chemscore.ZeroCoef>
-5.4800

> <Gold.Chemscore.Hbond>
4.5797

> <Gold.Chemscore.Metal>
0.0000

> <Gold.Chemscore.Lipo>
58.0875

> <Gold.Chemscore.Internal_Hbond>
0.0000

> <Gold.Chemscore.DEClash>
0.1480

> <Gold.Chemscore.DEInternal>
0.9504

> <Gold.Chemscore.Rot>
2.5876

> <Gold.Chemscore.Internal.Correction>
   9.000000E+99

> <Gold.Chemscore.Hbonds>
donor molecule, donor type, donor heavy atom, donor atom, acceptor molecule, acceptor atom, score
      L1  H     3    21       P1  7948  0.82
      L1  H     6    25       P1 10175  0.57
      L1  H     8    41       P1  8028  0.97
      L1  H    14    38       P1  7948  0.91
      L1  H    18    20       P1 10186  0.88

> <Gold.Chemscore.Hbond.Weighted>
-15.2960

> <Gold.Chemscore.Metal.Weighted>
-0.0000

> <Gold.Chemscore.Lipo.Weighted>
-6.7962

> <Gold.Chemscore.Internal_Hbond.Weighted>
0.0000

> <Gold.Chemscore.DEClash.Weighted>
0.1480

> <Gold.Chemscore.DEInternal.Weighted>
0.9504

> <Gold.Chemscore.Rot.Weighted>
6.6242

> <Gold.Chemscore.Internal.Correction.Weighted>
   9.000000E+99

> <Gold.Protein.RotatedTorsions>
[ 6907 6896 6895 6894 ] final -157.21 input  -60.11 | X-H torsion
[ 7974 7965 7964 7962 ] final   34.72 input  175.53 | X-H torsion
[ 8008 7997 7996 7995 ] final  -75.60 input   59.86 | X-H torsion
[ 10167 10162 10161 10158 ] final    4.01 input  -65.29 | X-H torsion
[ 10718 10713 10712 10709 ] final -110.44 input   66.30 | X-H torsion
[ 10763 10752 10751 10750 ] final   56.43 input  -60.55 | X-H torsion
[ 11005 11000 10999 10996 ] final  -44.58 input  -57.11 | X-H torsion

> <Gold.Protein.ActiveResidues>
 VAL166  LYS551  ARG553  GLY616  TRP617  ASP618  TYR619  PRO620  LYS621  CYS622 
 ASP623  PHE694  ASN695  SER759  ASP760  ASP761  ALA762  ILE779  LEU786  VAL792 
 PHE793  MET794  SER795  GLU796  ALA797  LYS798  CYS799  TRP800  GLU811  SER814 

> <Gold.Protein.RotatedAtoms>
  151.2994  133.4129  159.2638 H   0  0  0  0  0  0  0  0  0  0  0  0  # atno 6907 bound_to 6896
  151.0208  134.9468  159.8069 H   0  0  0  0  0  0  0  0  0  0  0  0  # atno 6908 bound_to 6896
  152.5324  134.2957  159.9112 H   0  0  0  0  0  0  0  0  0  0  0  0  # atno 6909 bound_to 6896
  146.1333  139.6233  142.9212 H   0  0  0  0  0  0  0  0  0  0  0  0  # atno 7974 bound_to 7965
  154.5431  140.0741  156.8544 H   0  0  0  0  0  0  0  0  0  0  0  0  # atno 8008 bound_to 7997
  155.3140  140.3392  155.4225 H   0  0  0  0  0  0  0  0  0  0  0  0  # atno 8009 bound_to 7997
  156.1893  140.1680  156.8109 H   0  0  0  0  0  0  0  0  0  0  0  0  # atno 8010 bound_to 7997
  140.6557  143.7434  150.7649 H   0  0  0  0  0  0  0  0  0  0  0  0  # atno 10167 bound_to 10162
  156.0591  130.5815  150.8237 H   0  0  0  0  0  0  0  0  0  0  0  0  # atno 10718 bound_to 10713
  152.9832  135.5676  154.5228 H   0  0  0  0  0  0  0  0  0  0  0  0  # atno 10763 bound_to 10752
  154.4713  135.2785  155.1642 H   0  0  0  0  0  0  0  0  0  0  0  0  # atno 10764 bound_to 10752
  154.3189  135.6273  153.5552 H   0  0  0  0  0  0  0  0  0  0  0  0  # atno 10765 bound_to 10752
  141.0460  133.6761  156.2893 H   0  0  0  0  0  0  0  0  0  0  0  0  # atno 11005 bound_to 11000
  145.5212  141.0432  143.2434 LP  0  0  0  0  0  0  0  0  0  0  0  0  # atno 17320 bound_to 7965
  144.7713  139.6728  143.7193 LP  0  0  0  0  0  0  0  0  0  0  0  0  # atno 17321 bound_to 7965
  140.1093  143.4714  152.2379 LP  0  0  0  0  0  0  0  0  0  0  0  0  # atno 17342 bound_to 10162
  139.5779  144.7496  151.3717 LP  0  0  0  0  0  0  0  0  0  0  0  0  # atno 17343 bound_to 10162
  157.5585  131.0945  150.9594 LP  0  0  0  0  0  0  0  0  0  0  0  0  # atno 17370 bound_to 10713
  156.9837  130.5537  149.5298 LP  0  0  0  0  0  0  0  0  0  0  0  0  # atno 17371 bound_to 10713
  140.6146  134.5423  157.5539 LP  0  0  0  0  0  0  0  0  0  0  0  0  # atno 17394 bound_to 11000
  139.9312  134.7960  156.0926 LP  0  0  0  0  0  0  0  0  0  0  0  0  # atno 17395 bound_to 11000

$$$$
