AV-unprocessed.smi:3011|AV-procd|sdf|11459|dock6
  -GOLD-   2272016393D 1   1.00000     0.00000
 Structure written by MMmdl.
 47 49  0  0  0  0  0  0  0  0  2 V2000
  154.1746  141.6204  161.0827 C   0  0  0  0  0  0  0  0  0  0  0  0
  153.2885  141.6273  159.9734 O   0  0  0  0  0  0  0  0  0  0  0  0
  152.6662  142.8137  159.6409 C   0  0  0  0  0  0  0  0  0  0  0  0
  152.8589  144.0282  160.3471 C   0  0  0  0  0  0  0  0  0  0  0  0
  152.1904  145.1995  159.9476 C   0  0  0  0  0  0  0  0  0  0  0  0
  151.3243  145.1725  158.8414 C   0  0  0  0  0  0  0  0  0  0  0  0
  151.1255  143.9735  158.1335 C   0  0  0  0  0  0  0  0  0  0  0  0
  151.7942  142.7878  158.5284 C   0  0  0  0  0  0  0  0  0  0  0  0
  151.6475  141.5773  157.8872 O   0  0  0  0  0  0  0  0  0  0  0  0
  150.6507  141.4451  156.8839 C   0  0  0  0  0  0  0  0  0  0  0  0
  150.1578  139.9911  156.8768 C   0  0  0  0  0  0  0  0  0  0  0  0
  149.6135  139.5979  155.5683 N   0  0  0  0  0  0  0  0  0  0  0  0
  149.9300  138.5450  154.7580 C   0  0  0  0  0  0  0  0  0  0  0  0
  150.9372  137.4648  155.0421 C   0  0  2  0  0  0  0  0  0  0  0  0
  152.3715  138.0143  155.1564 C   0  0  0  0  0  0  0  0  0  0  0  0
  150.8595  136.3625  154.0861 N   0  0  0  0  0  0  0  0  0  0  0  0
  150.4984  135.1045  154.3746 C   0  0  0  0  0  0  0  0  0  0  0  0
  150.1869  134.7369  155.5041 O   0  0  0  0  0  0  0  0  0  0  0  0
  149.1244  138.6322  153.6599 N   0  3  0  0  0  0  0  0  0  0  0  0
  148.3068  139.7578  153.7576 C   0  0  0  0  0  0  0  0  0  0  0  0
  147.3409  140.2604  152.8914 C   0  0  0  0  0  0  0  0  0  0  0  0
  146.6844  141.4422  153.2934 C   0  0  0  0  0  0  0  0  0  0  0  0
  146.9974  142.0776  154.5126 C   0  0  0  0  0  0  0  0  0  0  0  0
  147.9777  141.5572  155.3832 C   0  0  0  0  0  0  0  0  0  0  0  0
  148.6196  140.3867  154.9795 C   0  0  0  0  0  0  0  0  0  0  0  0
  154.5769  140.6163  161.2149 H   0  0  0  0  0  0  0  0  0  0  0  0
  153.6607  141.8929  162.0053 H   0  0  0  0  0  0  0  0  0  0  0  0
  155.0173  142.2946  160.9242 H   0  0  0  0  0  0  0  0  0  0  0  0
  153.5161  144.0884  161.2011 H   0  0  0  0  0  0  0  0  0  0  0  0
  152.3429  146.1203  160.4912 H   0  0  0  0  0  0  0  0  0  0  0  0
  150.8112  146.0723  158.5355 H   0  0  0  0  0  0  0  0  0  0  0  0
  150.4521  143.9888  157.2904 H   0  0  0  0  0  0  0  0  0  0  0  0
  149.8131  142.1140  157.0858 H   0  0  0  0  0  0  0  0  0  0  0  0
  151.0633  141.7016  155.9069 H   0  0  0  0  0  0  0  0  0  0  0  0
  150.9822  139.3165  157.1091 H   0  0  0  0  0  0  0  0  0  0  0  0
  149.4020  139.8259  157.6449 H   0  0  0  0  0  0  0  0  0  0  0  0
  150.6867  137.0334  156.0109 H   0  0  0  0  0  0  0  0  0  0  0  0
  152.4354  138.7761  155.9341 H   0  0  0  0  0  0  0  0  0  0  0  0
  152.7145  138.4635  154.2238 H   0  0  0  0  0  0  0  0  0  0  0  0
  153.0725  137.2217  155.4189 H   0  0  0  0  0  0  0  0  0  0  0  0
  151.1075  136.5727  153.1298 H   0  0  0  0  0  0  0  0  0  0  0  0
  150.5173  134.4558  153.4848 H   0  0  0  0  0  0  0  0  0  0  0  0
  147.1007  139.7759  151.9563 H   0  0  0  0  0  0  0  0  0  0  0  0
  145.9265  141.8703  152.6533 H   0  0  0  0  0  0  0  0  0  0  0  0
  146.4745  142.9823  154.7868 H   0  0  0  0  0  0  0  0  0  0  0  0
  148.2103  142.0520  156.3144 H   0  0  0  0  0  0  0  0  0  0  0  0
  149.1395  137.9672  152.8973 H   0  0  0  0  0  0  0  0  0  0  0  0
  1  2  1  0  0  0  0
  1 26  1  0  0  0  0
  1 27  1  0  0  0  0
  1 28  1  0  0  0  0
  2  3  1  0  0  0  0
  3  8  1  0  0  0  0
  3  4  2  0  0  0  0
  4  5  1  0  0  0  0
  4 29  1  0  0  0  0
  5  6  2  0  0  0  0
  5 30  1  0  0  0  0
  6  7  1  0  0  0  0
  6 31  1  0  0  0  0
  7  8  2  0  0  0  0
  7 32  1  0  0  0  0
  8  9  1  0  0  0  0
  9 10  1  0  0  0  0
 10 11  1  0  0  0  0
 10 33  1  0  0  0  0
 10 34  1  0  0  0  0
 11 12  1  0  0  0  0
 11 35  1  0  0  0  0
 11 36  1  0  0  0  0
 12 25  1  0  0  0  0
 12 13  1  0  0  0  0
 13 14  1  0  0  0  0
 13 19  2  0  0  0  0
 14 15  1  0  0  0  0
 14 16  1  0  0  0  0
 14 37  1  0  0  0  0
 15 38  1  0  0  0  0
 15 39  1  0  0  0  0
 15 40  1  0  0  0  0
 16 17  1  0  0  0  0
 16 41  1  0  0  0  0
 17 18  2  0  0  0  0
 17 42  1  0  0  0  0
 19 20  1  0  0  0  0
 19 47  1  0  0  0  0
 20 25  2  0  0  0  0
 20 21  1  0  0  0  0
 21 22  2  0  0  0  0
 21 43  1  0  0  0  0
 22 23  1  0  0  0  0
 22 44  1  0  0  0  0
 23 24  2  0  0  0  0
 23 45  1  0  0  0  0
 24 25  1  0  0  0  0
 24 46  1  0  0  0  0
M  CHG  1  19   1
M  END
> <s_m_source_file>
AV-unprocessed.smi

> <i_m_source_file_index>
3011

> <i_lp_mmshare_version>
43012

> <i_f3d_flags>
0

> <s_epik_input>
W0NIM11PYzFbY0hdW2NIXVtjSF1bY0hdYzFPW0NIMl1bQ0gyXW4oYyhuMilbQ0BIXShbQ0gzXSlbTkhdW0NIXT1PKWMoYzIzKVtjSF1bY0hdW2NIXVtjSF0z

> <s_epik_cmdline>
J2VwaWtfcHl0aG9uJywgJy1waCcsICc3LjAnLCAnLXRuJywgJzgnLCAnLW1hJywgJzIwMCcsICctbWV0YWxfYmluZGluZycsICctaW1hZScsICc8aW5maWxlLm1hZT4nLCAnLW9tYWUnLCAnPG91dGZpbGUubWFlPic=

> <r_lp_tautomer_probability>
1

> <r_epik_Ionization_Penalty>
1.14644

> <r_epik_Ionization_Penalty_Charging>
1.14644

> <r_epik_Ionization_Penalty_Neutral>
5.5802e-08

> <r_epik_State_Penalty>
1.20743

> <r_epik_Charging_Adjusted_Penalty>
2.35387

> <i_epik_Tot_Q>
1

> <i_epik_Tot_abs_Q>
1

> <r_epik_Metal_State_Penalty>
1.28856

> <b_epik_Metal_Only>
0

> <s_lp_Force_Field>
OPLS_2005

> <r_lp_Energy>
19.8167

> <b_lp_Chiralities_Consistent>
1

> <s_lp_Variant>
AV-unprocessed.smi:3011-3

> <Gold.Version>
5.8.1

> <Gold.Id.Protein>
6NUR|6NUR_protein|mol2

> <Gold.PLP.Fitness>
55.5691

> <Gold.PLP.PLP>
-47.5356

> <Gold.PLP.part.hbond>
-3.9663

> <Gold.PLP.part.metal>
0.0000

> <Gold.PLP.part.buried>
-3.0199

> <Gold.PLP.part.nonpolar>
-42.1167

> <Gold.PLP.part.repulsive>
0.2083

> <Gold.PLP.ligand.clash>
0.0000

> <Gold.PLP.ligand.torsion>
0.5531

> <Gold.PLP.Chemscore.Hbond>
3.0000

> <Gold.PLP.Chemscore.CHOScore>
0.0000

> <Gold.PLP.Chemscore.Metal>
0.0000

> <Gold.Chemscore.Hbonds>
donor molecule, donor type, donor heavy atom, donor atom, acceptor molecule, acceptor atom, score
      L1  H    16    41       P1  7949  0.91
      L1  H    19    47       P1  7948  2.00

> <Gold.PLP.Chemscore.Internal.Correction>
0.1396

> <Gold.Rescore>
     Score         DG    S(hbond)    S(metal)    S(lipo)     H(rot)  DE(clash)    DE(int)     intcor
     16.29     -18.68       1.28        0.00     134.47       2.66       0.97       1.42       ----

> <Gold.Chemscore.Fitness>
16.2866

> <Gold.Chemscore.DG>
-18.6754

> <Gold.Chemscore.ZeroCoef>
-5.4800

> <Gold.Chemscore.Hbond>
1.2795

> <Gold.Chemscore.Metal>
0.0000

> <Gold.Chemscore.Lipo>
134.4655

> <Gold.Chemscore.Internal_Hbond>
0.0000

> <Gold.Chemscore.DEClash>
0.9664

> <Gold.Chemscore.DEInternal>
1.4223

> <Gold.Chemscore.Rot>
2.6604

> <Gold.Chemscore.Internal.Correction>
   9.000000E+99

> <Gold.Chemscore.Hbonds>
donor molecule, donor type, donor heavy atom, donor atom, acceptor molecule, acceptor atom, score
      L1  H    16    41       P1  7949  0.36
      L1  H    19    47       P1  7948  0.95

> <Gold.Chemscore.Hbond.Weighted>
-4.2735

> <Gold.Chemscore.Metal.Weighted>
-0.0000

> <Gold.Chemscore.Lipo.Weighted>
-15.7325

> <Gold.Chemscore.Internal_Hbond.Weighted>
0.0000

> <Gold.Chemscore.DEClash.Weighted>
0.9664

> <Gold.Chemscore.DEInternal.Weighted>
1.4223

> <Gold.Chemscore.Rot.Weighted>
6.8106

> <Gold.Chemscore.Internal.Correction.Weighted>
   9.000000E+99

> <Gold.Protein.RotatedTorsions>
[ 6907 6896 6895 6894 ] final   55.43 input  -60.11 | X-H torsion
[ 7974 7965 7964 7962 ] final  135.86 input  175.53 | X-H torsion
[ 8008 7997 7996 7995 ] final  -47.57 input   59.86 | X-H torsion
[ 10167 10162 10161 10158 ] final -168.22 input  -65.29 | X-H torsion
[ 10718 10713 10712 10709 ] final  -36.79 input   66.30 | X-H torsion
[ 10763 10752 10751 10750 ] final -103.15 input  -60.55 | X-H torsion
[ 11005 11000 10999 10996 ] final  116.44 input  -57.11 | X-H torsion

> <Gold.Protein.ActiveResidues>
 VAL166  LYS551  ARG553  GLY616  TRP617  ASP618  TYR619  PRO620  LYS621  CYS622 
 ASP623  PHE694  ASN695  SER759  ASP760  ASP761  ALA762  ILE779  LEU786  VAL792 
 PHE793  MET794  SER795  GLU796  ALA797  LYS798  CYS799  TRP800  GLU811  SER814 

> <Gold.Protein.RotatedAtoms>
  152.3538  134.6968  160.0228 H   0  0  0  0  0  0  0  0  0  0  0  0  # atno 6907 bound_to 6896
  151.7314  133.3312  159.3349 H   0  0  0  0  0  0  0  0  0  0  0  0  # atno 6908 bound_to 6896
  150.7558  134.6294  159.6223 H   0  0  0  0  0  0  0  0  0  0  0  0  # atno 6909 bound_to 6896
  144.9622  139.4698  143.5474 H   0  0  0  0  0  0  0  0  0  0  0  0  # atno 7974 bound_to 7965
  154.4018  140.1343  156.4198 H   0  0  0  0  0  0  0  0  0  0  0  0  # atno 8008 bound_to 7997
  155.7654  140.3485  155.5199 H   0  0  0  0  0  0  0  0  0  0  0  0  # atno 8009 bound_to 7997
  155.8819  140.0988  157.1470 H   0  0  0  0  0  0  0  0  0  0  0  0  # atno 8010 bound_to 7997
  139.5999  144.1033  152.1731 H   0  0  0  0  0  0  0  0  0  0  0  0  # atno 10167 bound_to 10162
  156.3227  130.4268  149.7945 H   0  0  0  0  0  0  0  0  0  0  0  0  # atno 10718 bound_to 10713
  154.7786  135.4834  153.9797 H   0  0  0  0  0  0  0  0  0  0  0  0  # atno 10763 bound_to 10752
  153.1463  135.6782  153.8958 H   0  0  0  0  0  0  0  0  0  0  0  0  # atno 10764 bound_to 10752
  153.8616  135.3154  155.3416 H   0  0  0  0  0  0  0  0  0  0  0  0  # atno 10765 bound_to 10752
  139.9041  134.9598  156.7199 H   0  0  0  0  0  0  0  0  0  0  0  0  # atno 11005 bound_to 11000
  146.3356  139.8779  142.8829 LP  0  0  0  0  0  0  0  0  0  0  0  0  # atno 17320 bound_to 7965
  145.2683  141.0100  143.3786 LP  0  0  0  0  0  0  0  0  0  0  0  0  # atno 17321 bound_to 7965
  140.0627  144.5844  150.7251 LP  0  0  0  0  0  0  0  0  0  0  0  0  # atno 17342 bound_to 10162
  140.7241  143.2618  151.4179 LP  0  0  0  0  0  0  0  0  0  0  0  0  # atno 17343 bound_to 10162
  156.5246  130.8230  151.3216 LP  0  0  0  0  0  0  0  0  0  0  0  0  # atno 17370 bound_to 10713
  157.7415  130.9871  150.2450 LP  0  0  0  0  0  0  0  0  0  0  0  0  # atno 17371 bound_to 10713
  140.7009  133.9307  155.8023 LP  0  0  0  0  0  0  0  0  0  0  0  0  # atno 17394 bound_to 11000
  141.0372  134.0672  157.3945 LP  0  0  0  0  0  0  0  0  0  0  0  0  # atno 17395 bound_to 11000

$$$$
