AV-unprocessed.smi:2090|AV-procd|sdf|8537|dock8
  -GOLD-   2272011263D 1   1.00000     0.00000
 Structure written by MMmdl.
 41 42  0  0  0  0  0  0  0  0  3 V2000
  151.2714  142.0451  157.5557 C   0  0  0  0  0  0  0  0  0  0  0  0
  150.7390  141.3475  156.3512 C   0  0  0  0  0  0  0  0  0  0  0  0
  149.5321  141.3880  155.7121 C   0  0  0  0  0  0  0  0  0  0  0  0
  149.7058  140.4741  154.6386 C   0  0  0  0  0  0  0  0  0  0  0  0
  148.6520  140.2294  153.7188 N   0  0  0  0  0  0  0  0  0  0  0  0
  147.3719  140.6401  153.7751 C   0  0  0  0  0  0  0  0  0  0  0  0
  146.9777  141.3310  154.7223 O   0  0  0  0  0  0  0  0  0  0  0  0
  146.6426  140.2029  152.7109 N   0  5  0  0  0  0  0  0  0  0  0  0
  146.7433  138.8678  152.1236 C   0  0  0  0  0  0  0  0  0  0  0  0
  145.9652  137.8464  152.9785 C   0  0  0  0  0  0  0  0  0  0  0  0
  146.1617  136.4550  152.4923 N   0  3  2  0  0  0  0  0  0  0  0  0
  145.4226  136.1564  151.2341 C   0  0  0  0  0  0  0  0  0  0  0  0
  145.7859  134.7615  150.6948 C   0  0  0  0  0  0  0  0  0  0  0  0
  145.5458  133.6541  151.7373 C   0  0  2  0  0  0  0  0  0  0  0  0
  144.0532  133.3384  151.9379 C   0  0  0  0  0  0  0  0  0  0  0  0
  146.2577  134.0239  153.0516 C   0  0  0  0  0  0  0  0  0  0  0  0
  145.8878  135.4364  153.5391 C   0  0  0  0  0  0  0  0  0  0  0  0
  150.9122  139.9265  154.6240 N   0  0  0  0  0  0  0  0  0  0  0  0
  151.5796  140.4824  155.7218 O   0  0  0  0  0  0  0  0  0  0  0  0
  150.7796  143.0079  157.6952 H   0  0  0  0  0  0  0  0  0  0  0  0
  152.3424  142.2245  157.4611 H   0  0  0  0  0  0  0  0  0  0  0  0
  151.1057  141.4470  158.4520 H   0  0  0  0  0  0  0  0  0  0  0  0
  148.6650  141.9764  155.9727 H   0  0  0  0  0  0  0  0  0  0  0  0
  148.8980  139.6742  152.9128 H   0  0  0  0  0  0  0  0  0  0  0  0
  146.3677  138.8412  151.1000 H   0  0  0  0  0  0  0  0  0  0  0  0
  147.7830  138.5467  152.0566 H   0  0  0  0  0  0  0  0  0  0  0  0
  146.3153  137.9336  154.0085 H   0  0  0  0  0  0  0  0  0  0  0  0
  144.9000  138.0820  153.0051 H   0  0  0  0  0  0  0  0  0  0  0  0
  144.3491  136.2284  151.4131 H   0  0  0  0  0  0  0  0  0  0  0  0
  145.6592  136.9023  150.4748 H   0  0  0  0  0  0  0  0  0  0  0  0
  145.2223  134.5540  149.7844 H   0  0  0  0  0  0  0  0  0  0  0  0
  146.8379  134.7582  150.4057 H   0  0  0  0  0  0  0  0  0  0  0  0
  146.0056  132.7401  151.3594 H   0  0  0  0  0  0  0  0  0  0  0  0
  143.4976  134.1954  152.3180 H   0  0  0  0  0  0  0  0  0  0  0  0
  143.9195  132.5197  152.6455 H   0  0  0  0  0  0  0  0  0  0  0  0
  143.5894  133.0359  150.9985 H   0  0  0  0  0  0  0  0  0  0  0  0
  146.0303  133.2891  153.8247 H   0  0  0  0  0  0  0  0  0  0  0  0
  147.3368  133.9759  152.8982 H   0  0  0  0  0  0  0  0  0  0  0  0
  146.4714  135.6641  154.4318 H   0  0  0  0  0  0  0  0  0  0  0  0
  144.8374  135.4821  153.8298 H   0  0  0  0  0  0  0  0  0  0  0  0
  147.1462  136.3784  152.2800 H   0  0  0  0  0  0  0  0  0  0  0  0
  1  2  1  0  0  0  0
  1 20  1  0  0  0  0
  1 21  1  0  0  0  0
  1 22  1  0  0  0  0
  2 19  1  0  0  0  0
  2  3  2  0  0  0  0
  3  4  1  0  0  0  0
  3 23  1  0  0  0  0
  4  5  1  0  0  0  0
  4 18  2  0  0  0  0
  5  6  1  0  0  0  0
  5 24  1  0  0  0  0
  6  7  2  0  0  0  0
  6  8  1  0  0  0  0
  8  9  1  0  0  0  0
  9 10  1  0  0  0  0
  9 25  1  0  0  0  0
  9 26  1  0  0  0  0
 10 11  1  0  0  0  0
 10 27  1  0  0  0  0
 10 28  1  0  0  0  0
 11 17  1  0  0  0  0
 11 12  1  0  0  0  0
 11 41  1  0  0  0  0
 12 13  1  0  0  0  0
 12 29  1  0  0  0  0
 12 30  1  0  0  0  0
 13 14  1  0  0  0  0
 13 31  1  0  0  0  0
 13 32  1  0  0  0  0
 14 15  1  0  0  0  0
 14 16  1  0  0  0  0
 14 33  1  0  0  0  0
 15 34  1  0  0  0  0
 15 35  1  0  0  0  0
 15 36  1  0  0  0  0
 16 17  1  0  0  0  0
 16 37  1  0  0  0  0
 16 38  1  0  0  0  0
 17 39  1  0  0  0  0
 17 40  1  0  0  0  0
 18 19  1  0  0  0  0
M  CHG  1   8  -1
M  CHG  1  11   1
M  END
> <s_m_source_file>
AV-unprocessed.smi

> <i_m_source_file_index>
2090

> <i_lp_mmshare_version>
43012

> <i_f3d_flags>
0

> <s_epik_input>
W0NIM11jMVtjSF1jKG5vMSlbTkhdQyg9TylbTkhdW0NIMl1bQ0gyXU4yW0NIMl1bQ0gyXVtDSF0oW0NIM10pW0NIMl1bQ0gyXTI=

> <s_epik_cmdline>
J2VwaWtfcHl0aG9uJywgJy1waCcsICc3LjAnLCAnLXRuJywgJzgnLCAnLW1hJywgJzIwMCcsICctbWV0YWxfYmluZGluZycsICctaW1hZScsICc8aW5maWxlLm1hZT4nLCAnLW9tYWUnLCAnPG91dGZpbGUubWFlPic=

> <r_epik_Ionization_Penalty>
6.7721

> <r_epik_Ionization_Penalty_Charging>
6.7721

> <r_epik_Ionization_Penalty_Neutral>
5.78572e-06

> <r_epik_State_Penalty>
6.79704

> <r_epik_Charging_Adjusted_Penalty>
13.5691

> <i_epik_Tot_Q>
0

> <i_epik_Tot_abs_Q>
2

> <r_epik_Metal_State_Penalty>
2.73105

> <b_epik_Metal_Only>
1

> <s_lp_Force_Field>
OPLS_2005

> <r_lp_Energy>
13.6419

> <b_lp_Chiralities_Consistent>
1

> <s_lp_Variant>
AV-unprocessed.smi:2090-6

> <Gold.Version>
5.8.1

> <Gold.Id.Protein>
6NUR|6NUR_protein|mol2

> <Gold.PLP.Fitness>
41.0205

> <Gold.PLP.PLP>
-31.9370

> <Gold.PLP.part.hbond>
-4.0000

> <Gold.PLP.part.metal>
0.0000

> <Gold.PLP.part.buried>
-3.7715

> <Gold.PLP.part.nonpolar>
-26.2307

> <Gold.PLP.part.repulsive>
1.3107

> <Gold.PLP.ligand.clash>
0.3602

> <Gold.PLP.ligand.torsion>
0.6381

> <Gold.PLP.Chemscore.Hbond>
3.5540

> <Gold.PLP.Chemscore.CHOScore>
0.0000

> <Gold.PLP.Chemscore.Metal>
0.0000

> <Gold.Chemscore.Hbonds>
donor molecule, donor type, donor heavy atom, donor atom, acceptor molecule, acceptor atom, score
      L1  H     5    24       P1  7957  0.72
      L1  H    11    41       P1  7948  2.00
      P1  H  7989  7998       L1    18  0.80

> <Gold.PLP.Chemscore.Internal.Correction>
0.0581

> <Gold.Rescore>
     Score         DG    S(hbond)    S(metal)    S(lipo)     H(rot)  DE(clash)    DE(int)     intcor
     12.67     -14.95       1.84        0.00      62.07       1.54       0.17       2.10       ----

> <Gold.Chemscore.Fitness>
12.6697

> <Gold.Chemscore.DG>
-14.9459

> <Gold.Chemscore.ZeroCoef>
-5.4800

> <Gold.Chemscore.Hbond>
1.8408

> <Gold.Chemscore.Metal>
0.0000

> <Gold.Chemscore.Lipo>
62.0693

> <Gold.Chemscore.Internal_Hbond>
0.0000

> <Gold.Chemscore.DEClash>
0.1717

> <Gold.Chemscore.DEInternal>
2.1045

> <Gold.Chemscore.Rot>
1.5409

> <Gold.Chemscore.Internal.Correction>
   9.000000E+99

> <Gold.Chemscore.Hbonds>
donor molecule, donor type, donor heavy atom, donor atom, acceptor molecule, acceptor atom, score
      L1  H     5    24       P1  7957  0.72
      L1  H    11    41       P1  7948  1.00
      P1  H  7989  7998       L1    18  0.03

> <Gold.Chemscore.Hbond.Weighted>
-6.1484

> <Gold.Chemscore.Metal.Weighted>
-0.0000

> <Gold.Chemscore.Lipo.Weighted>
-7.2621

> <Gold.Chemscore.Internal_Hbond.Weighted>
0.0000

> <Gold.Chemscore.DEClash.Weighted>
0.1717

> <Gold.Chemscore.DEInternal.Weighted>
2.1045

> <Gold.Chemscore.Rot.Weighted>
3.9446

> <Gold.Chemscore.Internal.Correction.Weighted>
   9.000000E+99

> <Gold.Protein.RotatedTorsions>
[ 6907 6896 6895 6894 ] final  -42.12 input  -60.11 | X-H torsion
[ 7974 7965 7964 7962 ] final   21.00 input  175.53 | X-H torsion
[ 8008 7997 7996 7995 ] final  -70.15 input   59.86 | X-H torsion
[ 10167 10162 10161 10158 ] final  -59.17 input  -65.29 | X-H torsion
[ 10718 10713 10712 10709 ] final  -17.76 input   66.30 | X-H torsion
[ 10763 10752 10751 10750 ] final  178.87 input  -60.55 | X-H torsion
[ 11005 11000 10999 10996 ] final  -53.98 input  -57.11 | X-H torsion

> <Gold.Protein.ActiveResidues>
 VAL166  LYS551  ARG553  GLY616  TRP617  ASP618  TYR619  PRO620  LYS621  CYS622 
 ASP623  PHE694  ASN695  SER759  ASP760  ASP761  ALA762  ILE779  LEU786  VAL792 
 PHE793  MET794  SER795  GLU796  ALA797  LYS798  CYS799  TRP800  GLU811  SER814 

> <Gold.Protein.RotatedAtoms>
  150.9589  134.8980  159.7718 H   0  0  0  0  0  0  0  0  0  0  0  0  # atno 6907 bound_to 6896
  152.5148  134.3701  159.9325 H   0  0  0  0  0  0  0  0  0  0  0  0  # atno 6908 bound_to 6896
  151.3713  133.3813  159.2735 H   0  0  0  0  0  0  0  0  0  0  0  0  # atno 6909 bound_to 6896
  146.2089  139.8089  142.8704 H   0  0  0  0  0  0  0  0  0  0  0  0  # atno 7974 bound_to 7965
  154.4991  140.0840  156.7759 H   0  0  0  0  0  0  0  0  0  0  0  0  # atno 8008 bound_to 7997
  155.4046  140.3438  155.4241 H   0  0  0  0  0  0  0  0  0  0  0  0  # atno 8009 bound_to 7997
  156.1433  140.1536  156.8875 H   0  0  0  0  0  0  0  0  0  0  0  0  # atno 8010 bound_to 7997
  140.6151  143.2400  151.5616 H   0  0  0  0  0  0  0  0  0  0  0  0  # atno 10167 bound_to 10162
  156.5690  130.4745  149.6371 H   0  0  0  0  0  0  0  0  0  0  0  0  # atno 10718 bound_to 10713
  154.5133  135.2790  155.1324 H   0  0  0  0  0  0  0  0  0  0  0  0  # atno 10763 bound_to 10752
  154.2911  135.6266  153.5389 H   0  0  0  0  0  0  0  0  0  0  0  0  # atno 10764 bound_to 10752
  152.9923  135.5674  154.5604 H   0  0  0  0  0  0  0  0  0  0  0  0  # atno 10765 bound_to 10752
  141.1003  133.6619  156.4252 H   0  0  0  0  0  0  0  0  0  0  0  0  # atno 11005 bound_to 11000
  145.3217  141.0245  143.3497 LP  0  0  0  0  0  0  0  0  0  0  0  0  # atno 17320 bound_to 7965
  144.8862  139.4836  143.6699 LP  0  0  0  0  0  0  0  0  0  0  0  0  # atno 17321 bound_to 7965
  139.5392  144.2694  152.1316 LP  0  0  0  0  0  0  0  0  0  0  0  0  # atno 17342 bound_to 10162
  140.1902  144.4759  150.6483 LP  0  0  0  0  0  0  0  0  0  0  0  0  # atno 17343 bound_to 10162
  156.2731  130.7028  151.1831 LP  0  0  0  0  0  0  0  0  0  0  0  0  # atno 17370 bound_to 10713
  157.7352  131.0574  150.5482 LP  0  0  0  0  0  0  0  0  0  0  0  0  # atno 17371 bound_to 10713
  140.5038  134.6460  157.5259 LP  0  0  0  0  0  0  0  0  0  0  0  0  # atno 17394 bound_to 11000
  139.9852  134.7072  155.9786 LP  0  0  0  0  0  0  0  0  0  0  0  0  # atno 17395 bound_to 11000

$$$$
