AV-unprocessed.smi:2208|AV-procd|sdf|8945|dock10
  -GOLD-   2272012163D 1   1.00000     0.00000
 Structure written by MMmdl.
 35 36  0  0  0  0  0  0  0  0  1 V2000
  152.3626  138.7546  155.5367 C   0  0  0  0  0  0  0  0  0  0  0  0
  151.1652  139.6604  155.5714 C   0  0  0  0  0  0  0  0  0  0  0  0
  150.6794  140.1239  154.4326 N   0  0  0  0  0  0  0  0  0  0  0  0
  149.5823  140.9182  154.7777 O   0  0  0  0  0  0  0  0  0  0  0  0
  149.4465  140.8992  156.1275 C   0  0  0  0  0  0  0  0  0  0  0  0
  148.3126  141.6845  156.6940 C   0  0  0  0  0  0  0  0  0  0  0  0
  150.4174  140.1201  156.6951 C   0  0  0  0  0  0  0  0  0  0  0  0
  150.6293  139.8064  158.1553 C   0  0  0  0  0  0  0  0  0  0  0  0
  152.0277  140.2646  158.5667 C   0  0  0  0  0  0  0  0  0  0  0  0
  153.0209  139.7316  158.0730 O   0  0  0  0  0  0  0  0  0  0  0  0
  152.0863  141.2770  159.4452 N   0  0  0  0  0  0  0  0  0  0  0  0
  153.3005  141.9850  159.8365 C   0  0  0  0  0  0  0  0  0  0  0  0
  153.1058  143.5149  159.8432 C   0  0  2  0  0  0  0  0  0  0  0  0
  151.8974  144.0264  160.6380 C   0  0  0  0  0  0  0  0  0  0  0  0
  151.5541  145.3005  159.9006 C   0  0  0  0  0  0  0  0  0  0  0  0
  151.8290  144.8980  158.4567 C   0  0  0  0  0  0  0  0  0  0  0  0
  152.9505  144.0231  158.5185 O   0  0  0  0  0  0  0  0  0  0  0  0
  152.6773  138.4645  156.5385 H   0  0  0  0  0  0  0  0  0  0  0  0
  153.2095  139.2430  155.0543 H   0  0  0  0  0  0  0  0  0  0  0  0
  152.1461  137.8406  154.9833 H   0  0  0  0  0  0  0  0  0  0  0  0
  147.4321  141.6122  156.0551 H   0  0  0  0  0  0  0  0  0  0  0  0
  148.5804  142.7370  156.7858 H   0  0  0  0  0  0  0  0  0  0  0  0
  148.0388  141.3172  157.6832 H   0  0  0  0  0  0  0  0  0  0  0  0
  149.8884  140.2940  158.7892 H   0  0  0  0  0  0  0  0  0  0  0  0
  150.5329  138.7370  158.3479 H   0  0  0  0  0  0  0  0  0  0  0  0
  151.2149  141.6413  159.8016 H   0  0  0  0  0  0  0  0  0  0  0  0
  153.5724  141.6498  160.8375 H   0  0  0  0  0  0  0  0  0  0  0  0
  154.1329  141.7114  159.1864 H   0  0  0  0  0  0  0  0  0  0  0  0
  154.0053  143.9818  160.2465 H   0  0  0  0  0  0  0  0  0  0  0  0
  151.0537  143.3392  160.5773 H   0  0  0  0  0  0  0  0  0  0  0  0
  152.1222  144.1906  161.6921 H   0  0  0  0  0  0  0  0  0  0  0  0
  150.5269  145.6279  160.0639 H   0  0  0  0  0  0  0  0  0  0  0  0
  152.2257  146.1047  160.2037 H   0  0  0  0  0  0  0  0  0  0  0  0
  150.9805  144.3484  158.0486 H   0  0  0  0  0  0  0  0  0  0  0  0
  152.0221  145.7538  157.8099 H   0  0  0  0  0  0  0  0  0  0  0  0
  1  2  1  0  0  0  0
  1 18  1  0  0  0  0
  1 19  1  0  0  0  0
  1 20  1  0  0  0  0
  2  7  1  0  0  0  0
  2  3  2  0  0  0  0
  3  4  1  0  0  0  0
  4  5  1  0  0  0  0
  5  6  1  0  0  0  0
  5  7  2  0  0  0  0
  6 21  1  0  0  0  0
  6 22  1  0  0  0  0
  6 23  1  0  0  0  0
  7  8  1  0  0  0  0
  8  9  1  0  0  0  0
  8 24  1  0  0  0  0
  8 25  1  0  0  0  0
  9 10  2  0  0  0  0
  9 11  1  0  0  0  0
 11 12  1  0  0  0  0
 11 26  1  0  0  0  0
 12 13  1  0  0  0  0
 12 27  1  0  0  0  0
 12 28  1  0  0  0  0
 13 17  1  0  0  0  0
 13 14  1  0  0  0  0
 13 29  1  0  0  0  0
 14 15  1  0  0  0  0
 14 30  1  0  0  0  0
 14 31  1  0  0  0  0
 15 16  1  0  0  0  0
 15 32  1  0  0  0  0
 15 33  1  0  0  0  0
 16 17  1  0  0  0  0
 16 34  1  0  0  0  0
 16 35  1  0  0  0  0
M  END
> <s_m_source_file>
AV-unprocessed.smi

> <i_m_source_file_index>
2208

> <i_lp_mmshare_version>
43012

> <i_f3d_flags>
0

> <s_epik_input>
W0NIM11jMW5vYyhbQ0gzXSljMVtDSDJdQyg9TylbTkhdW0NIMl1bQ0BASF0yW0NIMl1bQ0gyXVtDSDJdTzI=

> <s_epik_cmdline>
J2VwaWtfcHl0aG9uJywgJy1waCcsICc3LjAnLCAnLXRuJywgJzgnLCAnLW1hJywgJzIwMCcsICctbWV0YWxfYmluZGluZycsICctaW1hZScsICc8aW5maWxlLm1hZT4nLCAnLW9tYWUnLCAnPG91dGZpbGUubWFlPic=

> <r_lp_tautomer_probability>
1

> <r_epik_Ionization_Penalty>
3.13901e-08

> <r_epik_Ionization_Penalty_Charging>
0

> <r_epik_Ionization_Penalty_Neutral>
3.13901e-08

> <r_epik_State_Penalty>
-0

> <r_epik_Charging_Adjusted_Penalty>
0

> <i_epik_Tot_Q>
0

> <i_epik_Tot_abs_Q>
0

> <r_epik_Metal_State_Penalty>
-0

> <b_epik_Metal_Only>
0

> <s_lp_Force_Field>
OPLS_2005

> <r_lp_Energy>
11.1183

> <b_lp_Chiralities_Consistent>
1

> <s_lp_Variant>
AV-unprocessed.smi:2208-1

> <Gold.Version>
5.8.1

> <Gold.Id.Protein>
6NUR|6NUR_protein|mol2

> <Gold.PLP.Fitness>
42.4230

> <Gold.PLP.PLP>
-36.7614

> <Gold.PLP.part.hbond>
-2.2473

> <Gold.PLP.part.metal>
0.0000

> <Gold.PLP.part.buried>
-7.2960

> <Gold.PLP.part.nonpolar>
-28.4385

> <Gold.PLP.part.repulsive>
0.3567

> <Gold.PLP.ligand.clash>
0.0000

> <Gold.PLP.ligand.torsion>
0.1585

> <Gold.PLP.Chemscore.Hbond>
1.9913

> <Gold.PLP.Chemscore.CHOScore>
0.0000

> <Gold.PLP.Chemscore.Metal>
0.0000

> <Gold.Chemscore.Hbonds>
donor molecule, donor type, donor heavy atom, donor atom, acceptor molecule, acceptor atom, score
      P1  H  7989  7998       L1     3  0.99
      P1  H  7997  8009       L1    10  1.00

> <Gold.PLP.Chemscore.Internal.Correction>
0.0049

> <Gold.Rescore>
     Score         DG    S(hbond)    S(metal)    S(lipo)     H(rot)  DE(clash)    DE(int)     intcor
     16.84     -18.43       1.93        0.00      89.55       1.56       0.01       1.59       ----

> <Gold.Chemscore.Fitness>
16.8423

> <Gold.Chemscore.DG>
-18.4344

> <Gold.Chemscore.ZeroCoef>
-5.4800

> <Gold.Chemscore.Hbond>
1.9336

> <Gold.Chemscore.Metal>
0.0000

> <Gold.Chemscore.Lipo>
89.5475

> <Gold.Chemscore.Internal_Hbond>
0.0000

> <Gold.Chemscore.DEClash>
0.0060

> <Gold.Chemscore.DEInternal>
1.5862

> <Gold.Chemscore.Rot>
1.5551

> <Gold.Chemscore.Internal.Correction>
   9.000000E+99

> <Gold.Chemscore.Hbonds>
donor molecule, donor type, donor heavy atom, donor atom, acceptor molecule, acceptor atom, score
      P1  H  7989  7998       L1     3  0.69
      P1  H  7997  8009       L1    10  1.00

> <Gold.Chemscore.Hbond.Weighted>
-6.4583

> <Gold.Chemscore.Metal.Weighted>
-0.0000

> <Gold.Chemscore.Lipo.Weighted>
-10.4771

> <Gold.Chemscore.Internal_Hbond.Weighted>
0.0000

> <Gold.Chemscore.DEClash.Weighted>
0.0060

> <Gold.Chemscore.DEInternal.Weighted>
1.5862

> <Gold.Chemscore.Rot.Weighted>
3.9809

> <Gold.Chemscore.Internal.Correction.Weighted>
   9.000000E+99

> <Gold.Protein.RotatedTorsions>
[ 6907 6896 6895 6894 ] final  -98.73 input  -60.11 | X-H torsion
[ 7974 7965 7964 7962 ] final   -4.57 input  175.53 | X-H torsion
[ 8008 7997 7996 7995 ] final  162.53 input   59.86 | X-H torsion
[ 10167 10162 10161 10158 ] final  -77.07 input  -65.29 | X-H torsion
[ 10718 10713 10712 10709 ] final   21.19 input   66.30 | X-H torsion
[ 10763 10752 10751 10750 ] final   82.48 input  -60.55 | X-H torsion
[ 11005 11000 10999 10996 ] final  165.56 input  -57.11 | X-H torsion

> <Gold.Protein.ActiveResidues>
 VAL166  LYS551  ARG553  GLY616  TRP617  ASP618  TYR619  PRO620  LYS621  CYS622 
 ASP623  PHE694  ASN695  SER759  ASP760  ASP761  ALA762  ILE779  LEU786  VAL792 
 PHE793  MET794  SER795  GLU796  ALA797  LYS798  CYS799  TRP800  GLU811  SER814 

> <Gold.Protein.RotatedAtoms>
  150.7056  134.1150  159.4013 H   0  0  0  0  0  0  0  0  0  0  0  0  # atno 6907 bound_to 6896
  151.9136  135.0326  160.0526 H   0  0  0  0  0  0  0  0  0  0  0  0  # atno 6908 bound_to 6896
  152.2315  133.5027  159.5255 H   0  0  0  0  0  0  0  0  0  0  0  0  # atno 6909 bound_to 6896
  146.2370  140.1890  142.8332 H   0  0  0  0  0  0  0  0  0  0  0  0  # atno 7974 bound_to 7965
  156.2024  140.1748  156.7871 H   0  0  0  0  0  0  0  0  0  0  0  0  # atno 8008 bound_to 7997
  154.5610  140.0699  156.8849 H   0  0  0  0  0  0  0  0  0  0  0  0  # atno 8009 bound_to 7997
  155.2849  140.3351  155.4258 H   0  0  0  0  0  0  0  0  0  0  0  0  # atno 8010 bound_to 7997
  140.4802  143.2404  151.8070 H   0  0  0  0  0  0  0  0  0  0  0  0  # atno 10167 bound_to 10162
  157.1349  130.6607  149.5963 H   0  0  0  0  0  0  0  0  0  0  0  0  # atno 10718 bound_to 10713
  153.1207  135.4726  154.9190 H   0  0  0  0  0  0  0  0  0  0  0  0  # atno 10763 bound_to 10752
  154.7572  135.3121  154.8449 H   0  0  0  0  0  0  0  0  0  0  0  0  # atno 10764 bound_to 10752
  153.9015  135.6874  153.4809 H   0  0  0  0  0  0  0  0  0  0  0  0  # atno 10765 bound_to 10752
  140.2573  134.7930  157.3558 H   0  0  0  0  0  0  0  0  0  0  0  0  # atno 11005 bound_to 11000
  144.9873  140.8514  143.5361 LP  0  0  0  0  0  0  0  0  0  0  0  0  # atno 17320 bound_to 7965
  145.1891  139.2310  143.5252 LP  0  0  0  0  0  0  0  0  0  0  0  0  # atno 17321 bound_to 7965
  139.4832  144.4782  151.9340 LP  0  0  0  0  0  0  0  0  0  0  0  0  # atno 17342 bound_to 10162
  140.3868  144.2667  150.5903 LP  0  0  0  0  0  0  0  0  0  0  0  0  # atno 17343 bound_to 10162
  155.9800  130.4798  150.6748 LP  0  0  0  0  0  0  0  0  0  0  0  0  # atno 17370 bound_to 10713
  157.4359  131.0855  151.0992 LP  0  0  0  0  0  0  0  0  0  0  0  0  # atno 17371 bound_to 10713
  140.1499  134.4864  155.7969 LP  0  0  0  0  0  0  0  0  0  0  0  0  # atno 17394 bound_to 11000
  141.2194  133.6858  156.7359 LP  0  0  0  0  0  0  0  0  0  0  0  0  # atno 17395 bound_to 11000

$$$$
