AV-unprocessed.smi:99|AV-procd|sdf|877|dock1
  -GOLD-   2262017343D 1   1.00000     0.00000
 Structure written by MMmdl.
 53 56  0  0  0  0  0  0  0  0  1 V2000
  148.2464  133.3557  154.1427 O   0  0  0  0  0  0  0  0  0  0  0  0
  147.0688  133.6422  153.9159 C   0  0  0  0  0  0  0  0  0  0  0  0
  146.2415  134.1780  154.8338 O   0  0  0  0  0  0  0  0  0  0  0  0
  146.7359  134.5339  156.1137 C   0  0  0  0  0  0  0  0  0  0  0  0
  147.4726  135.8797  156.0071 C   0  0  2  0  0  0  0  0  0  0  0  0
  148.6599  135.6863  155.2376 O   0  0  0  0  0  0  0  0  0  0  0  0
  149.7937  135.6022  156.0568 C   0  0  1  0  0  0  0  0  0  0  0  0
  150.7444  136.7249  155.7029 N   0  0  0  0  0  0  0  0  0  0  0  0
  150.5158  137.5600  154.6164 C   0  0  0  0  0  0  0  0  0  0  0  0
  151.3370  138.5850  154.2871 C   0  0  0  0  0  0  0  0  0  0  0  0
  152.5261  138.8668  155.0843 C   0  0  0  0  0  0  0  0  0  0  0  0
  153.3301  139.7696  154.8630 O   0  0  0  0  0  0  0  0  0  0  0  0
  152.7096  138.0118  156.1744 N   0  0  0  0  0  0  0  0  0  0  0  0
  151.8679  136.9557  156.5271 C   0  0  0  0  0  0  0  0  0  0  0  0
  152.1149  136.2780  157.5238 O   0  0  0  0  0  0  0  0  0  0  0  0
  149.3411  135.7409  157.5174 C   0  0  2  0  0  0  0  0  0  0  0  0
  149.2358  134.4694  158.1305 O   0  0  0  0  0  0  0  0  0  0  0  0
  147.9943  136.4256  157.3370 C   0  0  2  0  0  0  0  0  0  0  0  0
  147.1106  136.2691  158.4419 O   0  0  0  0  0  0  0  0  0  0  0  0
  147.4916  136.6201  159.6886 C   0  0  0  0  0  0  0  0  0  0  0  0
  148.2955  137.5230  159.9289 O   0  0  0  0  0  0  0  0  0  0  0  0
  146.8423  135.7932  160.7458 C   0  0  0  0  0  0  0  0  0  0  0  0
  147.5050  135.6017  161.9806 C   0  0  0  0  0  0  0  0  0  0  0  0
  146.9182  134.8222  162.9964 C   0  0  0  0  0  0  0  0  0  0  0  0
  145.6615  134.2246  162.7893 C   0  0  0  0  0  0  0  0  0  0  0  0
  144.9918  134.4076  161.5655 C   0  0  0  0  0  0  0  0  0  0  0  0
  145.5768  135.1870  160.5485 C   0  0  0  0  0  0  0  0  0  0  0  0
  146.4084  133.4285  152.5960 C   0  0  0  0  0  0  0  0  0  0  0  0
  145.0440  133.7673  152.4405 C   0  0  0  0  0  0  0  0  0  0  0  0
  144.3942  133.5762  151.2056 C   0  0  0  0  0  0  0  0  0  0  0  0
  145.1001  133.0425  150.1118 C   0  0  0  0  0  0  0  0  0  0  0  0
  146.4573  132.7002  150.2541 C   0  0  0  0  0  0  0  0  0  0  0  0
  147.1094  132.8915  151.4879 C   0  0  0  0  0  0  0  0  0  0  0  0
  153.5159  138.1758  156.7596 H   0  0  0  0  0  0  0  0  0  0  0  0
  145.8948  134.6224  156.8026 H   0  0  0  0  0  0  0  0  0  0  0  0
  147.3930  133.7512  156.4932 H   0  0  0  0  0  0  0  0  0  0  0  0
  146.8250  136.6148  155.5280 H   0  0  0  0  0  0  0  0  0  0  0  0
  150.3210  134.6722  155.8346 H   0  0  0  0  0  0  0  0  0  0  0  0
  149.6463  137.4051  153.9951 H   0  0  0  0  0  0  0  0  0  0  0  0
  151.1112  139.2021  153.4293 H   0  0  0  0  0  0  0  0  0  0  0  0
  150.0391  136.3485  158.0950 H   0  0  0  0  0  0  0  0  0  0  0  0
  148.4586  134.4590  158.6682 H   0  0  0  0  0  0  0  0  0  0  0  0
  148.1786  137.4898  157.1800 H   0  0  0  0  0  0  0  0  0  0  0  0
  148.4712  136.0503  162.1623 H   0  0  0  0  0  0  0  0  0  0  0  0
  147.4340  134.6823  163.9351 H   0  0  0  0  0  0  0  0  0  0  0  0
  145.2121  133.6258  163.5679 H   0  0  0  0  0  0  0  0  0  0  0  0
  144.0273  133.9488  161.4055 H   0  0  0  0  0  0  0  0  0  0  0  0
  145.0360  135.3057  159.6209 H   0  0  0  0  0  0  0  0  0  0  0  0
  144.4811  134.1792  153.2657 H   0  0  0  0  0  0  0  0  0  0  0  0
  143.3526  133.8402  151.0978 H   0  0  0  0  0  0  0  0  0  0  0  0
  144.6015  132.8960  149.1650 H   0  0  0  0  0  0  0  0  0  0  0  0
  147.0003  132.2898  149.4156 H   0  0  0  0  0  0  0  0  0  0  0  0
  148.1512  132.6163  151.5630 H   0  0  0  0  0  0  0  0  0  0  0  0
  1  2  2  0  0  0  0
  2  3  1  0  0  0  0
  2 28  1  0  0  0  0
  3  4  1  0  0  0  0
  4  5  1  0  0  0  0
  4 35  1  0  0  0  0
  4 36  1  0  0  0  0
  5 18  1  0  0  0  0
  5  6  1  0  0  0  0
  5 37  1  0  0  0  0
  6  7  1  0  0  0  0
  7  8  1  0  0  0  0
  7 16  1  0  0  0  0
  7 38  1  0  0  0  0
  8 14  1  0  0  0  0
  8  9  1  0  0  0  0
  9 10  2  0  0  0  0
  9 39  1  0  0  0  0
 10 11  1  0  0  0  0
 10 40  1  0  0  0  0
 11 12  2  0  0  0  0
 11 13  1  0  0  0  0
 13 34  1  0  0  0  0
 13 14  1  0  0  0  0
 14 15  2  0  0  0  0
 16 17  1  0  0  0  0
 16 18  1  0  0  0  0
 16 41  1  0  0  0  0
 17 42  1  0  0  0  0
 18 19  1  0  0  0  0
 18 43  1  0  0  0  0
 19 20  1  0  0  0  0
 20 21  2  0  0  0  0
 20 22  1  0  0  0  0
 22 27  1  0  0  0  0
 22 23  2  0  0  0  0
 23 24  1  0  0  0  0
 23 44  1  0  0  0  0
 24 25  2  0  0  0  0
 24 45  1  0  0  0  0
 25 26  1  0  0  0  0
 25 46  1  0  0  0  0
 26 27  2  0  0  0  0
 26 47  1  0  0  0  0
 27 48  1  0  0  0  0
 28 33  1  0  0  0  0
 28 29  2  0  0  0  0
 29 30  1  0  0  0  0
 29 49  1  0  0  0  0
 30 31  2  0  0  0  0
 30 50  1  0  0  0  0
 31 32  1  0  0  0  0
 31 51  1  0  0  0  0
 32 33  2  0  0  0  0
 32 52  1  0  0  0  0
 33 53  1  0  0  0  0
M  END
> <s_m_source_file>
AV-unprocessed.smi

> <i_m_source_file_index>
99

> <i_lp_mmshare_version>
43012

> <i_f3d_flags>
0

> <s_epik_input>
W2NIXTFbY0hdW2NIXVtjSF1bY0hdYzFDKD1PKU9bQ0gyXVtDQEBIXTJPW0NAQEhdKG4zW2NIXVtjSF1jKD1PKVtuSF1jMz1PKVtDQEBIXShbT0hdKVtDQEhdMk9DKD1PKWM0W2NIXVtjSF1bY0hdW2NIXVtjSF00

> <s_epik_cmdline>
J2VwaWtfcHl0aG9uJywgJy1waCcsICc3LjAnLCAnLXRuJywgJzgnLCAnLW1hJywgJzIwMCcsICctbWV0YWxfYmluZGluZycsICctaW1hZScsICc8aW5maWxlLm1hZT4nLCAnLW9tYWUnLCAnPG91dGZpbGUubWFlPic=

> <r_lp_tautomer_probability>
1

> <r_epik_Ionization_Penalty>
0.00454555

> <r_epik_Ionization_Penalty_Charging>
0.0045191

> <r_epik_Ionization_Penalty_Neutral>
2.64449e-05

> <r_epik_State_Penalty>
-0

> <r_epik_Charging_Adjusted_Penalty>
0.0045191

> <i_epik_Tot_Q>
0

> <i_epik_Tot_abs_Q>
0

> <r_epik_Metal_State_Penalty>
1.27877

> <b_epik_Metal_Only>
0

> <s_epik_Chemistry_Notes>
This compound has an ester and may undergo hydrolysis at high or low pH. This compound contains an acetal/aminal-like group ( X-CH(R)-Y where X, Y are N, S, or O) that may be acid/base labile, releasing an aldehyde.

> <s_lp_Force_Field>
OPLS_2005

> <r_lp_Energy>
39.429

> <b_lp_Chiralities_Consistent>
1

> <s_lp_Variant>
AV-unprocessed.smi:99-13

> <Gold.Version>
5.8.1

> <Gold.Id.Protein>
6NUR|6NUR_protein|mol2

> <Gold.PLP.Fitness>
53.9308

> <Gold.PLP.PLP>
-44.9888

> <Gold.PLP.part.hbond>
-5.1611

> <Gold.PLP.part.metal>
0.0000

> <Gold.PLP.part.buried>
-4.7540

> <Gold.PLP.part.nonpolar>
-35.0914

> <Gold.PLP.part.repulsive>
0.4453

> <Gold.PLP.ligand.clash>
0.0000

> <Gold.PLP.ligand.torsion>
0.9322

> <Gold.PLP.Chemscore.Hbond>
2.5229

> <Gold.PLP.Chemscore.CHOScore>
1.0000

> <Gold.PLP.Chemscore.Metal>
0.0000

> <Gold.Chemscore.Hbonds>
donor molecule, donor type, donor heavy atom, donor atom, acceptor molecule, acceptor atom, score
      P1  H  6896  6909       L1    17  1.00
      P1  H  6931  6943       L1    21  0.24
      P1  H  6934  6947       L1    21  0.41
      P1  H  7989  7998       L1    12  0.01
      P1  H  7997  8008       L1    12  1.00
      L1  C     9    39       P1  7948  1.00

> <Gold.PLP.Chemscore.Internal.Correction>
0.2377

> <Gold.Rescore>
     Score         DG    S(hbond)    S(metal)    S(lipo)     H(rot)  DE(clash)    DE(int)     intcor
     10.68     -16.12       2.15        0.00      99.29       3.19       0.04       5.40       ----

> <Gold.Chemscore.Fitness>
10.6841

> <Gold.Chemscore.DG>
-16.1188

> <Gold.Chemscore.ZeroCoef>
-5.4800

> <Gold.Chemscore.Hbond>
2.1524

> <Gold.Chemscore.Metal>
0.0000

> <Gold.Chemscore.Lipo>
99.2881

> <Gold.Chemscore.Internal_Hbond>
0.0000

> <Gold.Chemscore.DEClash>
0.0374

> <Gold.Chemscore.DEInternal>
5.3973

> <Gold.Chemscore.Rot>
3.1903

> <Gold.Chemscore.Internal.Correction>
   9.000000E+99

> <Gold.Chemscore.Hbonds>
donor molecule, donor type, donor heavy atom, donor atom, acceptor molecule, acceptor atom, score
      P1  H  6896  6909       L1    17  0.38
      P1  H  6931  6943       L1    21  0.24
      P1  H  6934  6947       L1    21  0.24
      P1  H  7997  8008       L1    12  0.97

> <Gold.Chemscore.Hbond.Weighted>
-7.1892

> <Gold.Chemscore.Metal.Weighted>
-0.0000

> <Gold.Chemscore.Lipo.Weighted>
-11.6167

> <Gold.Chemscore.Internal_Hbond.Weighted>
0.0000

> <Gold.Chemscore.DEClash.Weighted>
0.0374

> <Gold.Chemscore.DEInternal.Weighted>
5.3973

> <Gold.Chemscore.Rot.Weighted>
8.1671

> <Gold.Chemscore.Internal.Correction.Weighted>
   9.000000E+99

> <Gold.Protein.RotatedTorsions>
[ 6907 6896 6895 6894 ] final   20.22 input  -60.11 | X-H torsion
[ 7974 7965 7964 7962 ] final   75.38 input  175.53 | X-H torsion
[ 8008 7997 7996 7995 ] final   -6.44 input   59.86 | X-H torsion
[ 10167 10162 10161 10158 ] final  -66.91 input  -65.29 | X-H torsion
[ 10718 10713 10712 10709 ] final -105.98 input   66.30 | X-H torsion
[ 10763 10752 10751 10750 ] final -131.88 input  -60.55 | X-H torsion
[ 11005 11000 10999 10996 ] final  -45.66 input  -57.11 | X-H torsion

> <Gold.Protein.ActiveResidues>
 VAL166  LYS551  ARG553  GLY616  TRP617  ASP618  TYR619  PRO620  LYS621  CYS622 
 ASP623  PHE694  ASN695  SER759  ASP760  ASP761  ALA762  ILE779  LEU786  VAL792 
 PHE793  MET794  SER795  GLU796  ALA797  LYS798  CYS799  TRP800  GLU811  SER814 

> <Gold.Protein.RotatedAtoms>
  151.8931  135.0409  160.0499 H   0  0  0  0  0  0  0  0  0  0  0  0  # atno 6907 bound_to 6896
  152.2420  133.5139  159.5284 H   0  0  0  0  0  0  0  0  0  0  0  0  # atno 6908 bound_to 6896
  150.7056  134.0992  159.4002 H   0  0  0  0  0  0  0  0  0  0  0  0  # atno 6909 bound_to 6896
  145.7163  139.2632  143.1621 H   0  0  0  0  0  0  0  0  0  0  0  0  # atno 7974 bound_to 7965
  154.5937  140.2432  155.7886 H   0  0  0  0  0  0  0  0  0  0  0  0  # atno 8008 bound_to 7997
  156.2264  140.2981  156.0032 H   0  0  0  0  0  0  0  0  0  0  0  0  # atno 8009 bound_to 7997
  155.2330  140.0404  157.2955 H   0  0  0  0  0  0  0  0  0  0  0  0  # atno 8010 bound_to 7997
  140.5622  143.2313  151.6705 H   0  0  0  0  0  0  0  0  0  0  0  0  # atno 10167 bound_to 10162
  156.0370  130.5590  150.7616 H   0  0  0  0  0  0  0  0  0  0  0  0  # atno 10718 bound_to 10713
  154.8747  135.3816  154.4319 H   0  0  0  0  0  0  0  0  0  0  0  0  # atno 10763 bound_to 10752
  153.5012  135.7030  153.5836 H   0  0  0  0  0  0  0  0  0  0  0  0  # atno 10764 bound_to 10752
  153.4167  135.3911  155.2051 H   0  0  0  0  0  0  0  0  0  0  0  0  # atno 10765 bound_to 10752
  141.0530  133.6736  156.3045 H   0  0  0  0  0  0  0  0  0  0  0  0  # atno 11005 bound_to 11000
  146.0666  140.7914  142.9708 LP  0  0  0  0  0  0  0  0  0  0  0  0  # atno 17320 bound_to 7965
  144.6928  140.3278  143.7221 LP  0  0  0  0  0  0  0  0  0  0  0  0  # atno 17321 bound_to 7965
  139.5076  144.3642  152.0533 LP  0  0  0  0  0  0  0  0  0  0  0  0  # atno 17342 bound_to 10162
  140.2770  144.3902  150.6132 LP  0  0  0  0  0  0  0  0  0  0  0  0  # atno 17343 bound_to 10162
  157.5134  131.0927  151.0170 LP  0  0  0  0  0  0  0  0  0  0  0  0  # atno 17370 bound_to 10713
  157.0519  130.5790  149.5372 LP  0  0  0  0  0  0  0  0  0  0  0  0  # atno 17371 bound_to 10713
  140.6019  134.5546  157.5519 LP  0  0  0  0  0  0  0  0  0  0  0  0  # atno 17394 bound_to 11000
  139.9366  134.7864  156.0787 LP  0  0  0  0  0  0  0  0  0  0  0  0  # atno 17395 bound_to 11000

$$$$
