AV-unprocessed.smi:749|AV-procd|sdf|3584|dock4
  -GOLD-   22720 0583D 1   1.00000     0.00000
 Structure written by MMmdl.
 43 44  0  0  0  0  0  0  0  0  1 V2000
  137.1412  137.5529  153.6885 C   0  0  0  0  0  0  0  0  0  0  0  0
  138.2132  138.5194  153.9320 N   0  0  0  0  0  0  0  0  0  0  0  0
  139.5376  138.1111  153.4382 C   0  0  0  0  0  0  0  0  0  0  0  0
  140.7051  138.9485  153.9951 C   0  0  1  0  0  0  0  0  0  0  0  0
  141.9228  138.7190  153.2248 N   0  0  0  0  0  0  0  0  0  0  0  0
  142.4307  137.5171  152.9048 C   0  0  0  0  0  0  0  0  0  0  0  0
  141.9017  136.4597  153.2436 O   0  0  0  0  0  0  0  0  0  0  0  0
  143.5731  137.5256  152.1860 N   0  0  0  0  0  0  0  0  0  0  0  0
  144.3677  136.4554  151.6855 C   0  0  0  0  0  0  0  0  0  0  0  0
  143.7548  135.2499  151.2518 C   0  0  0  0  0  0  0  0  0  0  0  0
  144.8124  134.4860  150.8380 C   0  0  0  0  0  0  0  0  0  0  0  0
  144.9269  133.1038  150.2580 C   0  0  0  0  0  0  0  0  0  0  0  0
  144.1629  133.0037  148.9226 C   0  0  0  0  0  0  0  0  0  0  0  0
  144.3341  132.0712  151.2349 C   0  0  0  0  0  0  0  0  0  0  0  0
  146.4066  132.7645  149.9967 C   0  0  0  0  0  0  0  0  0  0  0  0
  145.9749  135.1771  151.0037 O   0  0  0  0  0  0  0  0  0  0  0  0
  145.6844  136.4340  151.5449 N   0  0  0  0  0  0  0  0  0  0  0  0
  140.3404  140.4334  153.9537 C   0  0  0  0  0  0  0  0  0  0  0  0
  139.0829  140.6981  154.7899 C   0  0  0  0  0  0  0  0  0  0  0  0
  137.9366  139.7158  154.5053 C   0  0  0  0  0  0  0  0  0  0  0  0
  136.7974  140.0415  154.8408 O   0  0  0  0  0  0  0  0  0  0  0  0
  136.7088  137.2169  154.6320 H   0  0  0  0  0  0  0  0  0  0  0  0
  137.4952  136.6706  153.1536 H   0  0  0  0  0  0  0  0  0  0  0  0
  136.3472  137.9990  153.0879 H   0  0  0  0  0  0  0  0  0  0  0  0
  139.7093  137.0587  153.6699 H   0  0  0  0  0  0  0  0  0  0  0  0
  139.5149  138.1902  152.3501 H   0  0  0  0  0  0  0  0  0  0  0  0
  140.8819  138.6705  155.0361 H   0  0  0  0  0  0  0  0  0  0  0  0
  142.4206  139.5384  152.9063 H   0  0  0  0  0  0  0  0  0  0  0  0
  143.9378  138.4459  151.9871 H   0  0  0  0  0  0  0  0  0  0  0  0
  142.7077  134.9866  151.2442 H   0  0  0  0  0  0  0  0  0  0  0  0
  144.2415  132.0043  148.4930 H   0  0  0  0  0  0  0  0  0  0  0  0
  144.5535  133.7064  148.1855 H   0  0  0  0  0  0  0  0  0  0  0  0
  143.1016  133.2191  149.0536 H   0  0  0  0  0  0  0  0  0  0  0  0
  143.2835  132.2792  151.4410 H   0  0  0  0  0  0  0  0  0  0  0  0
  144.8618  132.0743  152.1892 H   0  0  0  0  0  0  0  0  0  0  0  0
  144.3960  131.0595  150.8318 H   0  0  0  0  0  0  0  0  0  0  0  0
  146.5179  131.7681  149.5675 H   0  0  0  0  0  0  0  0  0  0  0  0
  146.9914  132.7904  150.9170 H   0  0  0  0  0  0  0  0  0  0  0  0
  146.8579  133.4740  149.3020 H   0  0  0  0  0  0  0  0  0  0  0  0
  141.1658  141.0358  154.3354 H   0  0  0  0  0  0  0  0  0  0  0  0
  140.1735  140.7522  152.9235 H   0  0  0  0  0  0  0  0  0  0  0  0
  139.3280  140.6201  155.8499 H   0  0  0  0  0  0  0  0  0  0  0  0
  138.7360  141.7186  154.6253 H   0  0  0  0  0  0  0  0  0  0  0  0
  1  2  1  0  0  0  0
  1 22  1  0  0  0  0
  1 23  1  0  0  0  0
  1 24  1  0  0  0  0
  2 20  1  0  0  0  0
  2  3  1  0  0  0  0
  3  4  1  0  0  0  0
  3 25  1  0  0  0  0
  3 26  1  0  0  0  0
  4  5  1  0  0  0  0
  4 18  1  0  0  0  0
  4 27  1  0  0  0  0
  5  6  1  0  0  0  0
  5 28  1  0  0  0  0
  6  7  2  0  0  0  0
  6  8  1  0  0  0  0
  8  9  1  0  0  0  0
  8 29  1  0  0  0  0
  9 17  2  0  0  0  0
  9 10  1  0  0  0  0
 10 11  2  0  0  0  0
 10 30  1  0  0  0  0
 11 12  1  0  0  0  0
 11 16  1  0  0  0  0
 12 13  1  0  0  0  0
 12 14  1  0  0  0  0
 12 15  1  0  0  0  0
 13 31  1  0  0  0  0
 13 32  1  0  0  0  0
 13 33  1  0  0  0  0
 14 34  1  0  0  0  0
 14 35  1  0  0  0  0
 14 36  1  0  0  0  0
 15 37  1  0  0  0  0
 15 38  1  0  0  0  0
 15 39  1  0  0  0  0
 16 17  1  0  0  0  0
 18 19  1  0  0  0  0
 18 40  1  0  0  0  0
 18 41  1  0  0  0  0
 19 20  1  0  0  0  0
 19 42  1  0  0  0  0
 19 43  1  0  0  0  0
 20 21  2  0  0  0  0
M  END
> <s_m_source_file>
AV-unprocessed.smi

> <i_m_source_file_index>
749

> <i_lp_mmshare_version>
43012

> <i_f3d_flags>
0

> <s_epik_input>
Tz1DMVtDSDJdW0NIMl1bQ0BASF0oW0NIMl1OMVtDSDNdKVtOSF1DKD1PKVtOSF1jMltjSF1jKG9uMilDKFtDSDNdKShbQ0gzXSlbQ0gzXQ==

> <s_epik_cmdline>
J2VwaWtfcHl0aG9uJywgJy1waCcsICc3LjAnLCAnLXRuJywgJzgnLCAnLW1hJywgJzIwMCcsICctbWV0YWxfYmluZGluZycsICctaW1hZScsICc8aW5maWxlLm1hZT4nLCAnLW9tYWUnLCAnPG91dGZpbGUubWFlPic=

> <r_lp_tautomer_probability>
1

> <r_epik_Ionization_Penalty>
2.91905e-05

> <r_epik_Ionization_Penalty_Charging>
0

> <r_epik_Ionization_Penalty_Neutral>
2.91905e-05

> <r_epik_State_Penalty>
-0

> <r_epik_Charging_Adjusted_Penalty>
0

> <i_epik_Tot_Q>
0

> <i_epik_Tot_abs_Q>
0

> <r_epik_Metal_State_Penalty>
0.0102923

> <b_epik_Metal_Only>
0

> <s_lp_Force_Field>
OPLS_2005

> <r_lp_Energy>
15.3283

> <b_lp_Chiralities_Consistent>
1

> <s_lp_Variant>
AV-unprocessed.smi:749-1

> <Gold.Version>
5.8.1

> <Gold.Id.Protein>
6NUR|6NUR_protein|mol2

> <Gold.PLP.Fitness>
38.2935

> <Gold.PLP.PLP>
-33.7540

> <Gold.PLP.part.hbond>
-2.9752

> <Gold.PLP.part.metal>
0.0000

> <Gold.PLP.part.buried>
-3.4920

> <Gold.PLP.part.nonpolar>
-26.3518

> <Gold.PLP.part.repulsive>
0.6361

> <Gold.PLP.ligand.clash>
0.0000

> <Gold.PLP.ligand.torsion>
0.3279

> <Gold.PLP.Chemscore.Hbond>
1.7301

> <Gold.PLP.Chemscore.CHOScore>
0.0000

> <Gold.PLP.Chemscore.Metal>
0.0000

> <Gold.Chemscore.Hbonds>
donor molecule, donor type, donor heavy atom, donor atom, acceptor molecule, acceptor atom, score
      L1  H     5    28       P1 10175  1.00
      L1  H     8    29       P1 10175  0.77

> <Gold.PLP.Chemscore.Internal.Correction>
0.0050

> <Gold.Rescore>
     Score         DG    S(hbond)    S(metal)    S(lipo)     H(rot)  DE(clash)    DE(int)     intcor
     13.84     -16.76       1.63        0.00      76.76       1.23       0.37       2.55       ----

> <Gold.Chemscore.Fitness>
13.8354

> <Gold.Chemscore.DG>
-16.7569

> <Gold.Chemscore.ZeroCoef>
-5.4800

> <Gold.Chemscore.Hbond>
1.6315

> <Gold.Chemscore.Metal>
0.0000

> <Gold.Chemscore.Lipo>
76.7590

> <Gold.Chemscore.Internal_Hbond>
0.0000

> <Gold.Chemscore.DEClash>
0.3717

> <Gold.Chemscore.DEInternal>
2.5498

> <Gold.Chemscore.Rot>
1.2317

> <Gold.Chemscore.Internal.Correction>
   9.000000E+99

> <Gold.Chemscore.Hbonds>
donor molecule, donor type, donor heavy atom, donor atom, acceptor molecule, acceptor atom, score
      L1  H     5    28       P1 10175  0.89
      L1  H     8    29       P1 10175  0.74

> <Gold.Chemscore.Hbond.Weighted>
-5.4492

> <Gold.Chemscore.Metal.Weighted>
-0.0000

> <Gold.Chemscore.Lipo.Weighted>
-8.9808

> <Gold.Chemscore.Internal_Hbond.Weighted>
0.0000

> <Gold.Chemscore.DEClash.Weighted>
0.3717

> <Gold.Chemscore.DEInternal.Weighted>
2.5498

> <Gold.Chemscore.Rot.Weighted>
3.1531

> <Gold.Chemscore.Internal.Correction.Weighted>
   9.000000E+99

> <Gold.Protein.RotatedTorsions>
[ 6907 6896 6895 6894 ] final  163.35 input  -60.11 | X-H torsion
[ 7974 7965 7964 7962 ] final -146.12 input  175.53 | X-H torsion
[ 8008 7997 7996 7995 ] final  116.70 input   59.86 | X-H torsion
[ 10167 10162 10161 10158 ] final   57.70 input  -65.29 | X-H torsion
[ 10718 10713 10712 10709 ] final  102.01 input   66.30 | X-H torsion
[ 10763 10752 10751 10750 ] final   40.32 input  -60.55 | X-H torsion
[ 11005 11000 10999 10996 ] final   40.54 input  -57.11 | X-H torsion

> <Gold.Protein.ActiveResidues>
 VAL166  LYS551  ARG553  GLY616  TRP617  ASP618  TYR619  PRO620  LYS621  CYS622 
 ASP623  PHE694  ASN695  SER759  ASP760  ASP761  ALA762  ILE779  LEU786  VAL792 
 PHE793  MET794  SER795  GLU796  ALA797  LYS798  CYS799  TRP800  GLU811  SER814 

> <Gold.Protein.RotatedAtoms>
  151.9265  133.3599  159.3915 H   0  0  0  0  0  0  0  0  0  0  0  0  # atno 6907 bound_to 6896
  150.7026  134.4582  159.5377 H   0  0  0  0  0  0  0  0  0  0  0  0  # atno 6908 bound_to 6896
  152.2214  134.8409  160.0536 H   0  0  0  0  0  0  0  0  0  0  0  0  # atno 6909 bound_to 6896
  144.8181  140.5497  143.5597 H   0  0  0  0  0  0  0  0  0  0  0  0  # atno 7974 bound_to 7965
  156.2453  140.2912  156.0563 H   0  0  0  0  0  0  0  0  0  0  0  0  # atno 8008 bound_to 7997
  155.1825  140.0404  157.2902 H   0  0  0  0  0  0  0  0  0  0  0  0  # atno 8009 bound_to 7997
  154.6250  140.2485  155.7510 H   0  0  0  0  0  0  0  0  0  0  0  0  # atno 8010 bound_to 7997
  140.1952  144.4045  150.6553 H   0  0  0  0  0  0  0  0  0  0  0  0  # atno 10167 bound_to 10162
  157.6814  131.0741  150.5339 H   0  0  0  0  0  0  0  0  0  0  0  0  # atno 10718 bound_to 10713
  152.9940  135.6195  154.2607 H   0  0  0  0  0  0  0  0  0  0  0  0  # atno 10763 bound_to 10752
  154.2343  135.2791  155.2880 H   0  0  0  0  0  0  0  0  0  0  0  0  # atno 10764 bound_to 10752
  154.5423  135.5757  153.6908 H   0  0  0  0  0  0  0  0  0  0  0  0  # atno 10765 bound_to 10752
  140.1921  134.3974  155.8141 H   0  0  0  0  0  0  0  0  0  0  0  0  # atno 11005 bound_to 11000
  145.5168  139.1477  143.3574 LP  0  0  0  0  0  0  0  0  0  0  0  0  # atno 17320 bound_to 7965
  146.2485  140.5309  142.8903 LP  0  0  0  0  0  0  0  0  0  0  0  0  # atno 17321 bound_to 7965
  140.6429  143.2207  151.6251 LP  0  0  0  0  0  0  0  0  0  0  0  0  # atno 17342 bound_to 10162
  139.5240  144.3118  152.0987 LP  0  0  0  0  0  0  0  0  0  0  0  0  # atno 17343 bound_to 10162
  156.5648  130.4264  149.6046 LP  0  0  0  0  0  0  0  0  0  0  0  0  # atno 17370 bound_to 10713
  156.2790  130.7060  151.1879 LP  0  0  0  0  0  0  0  0  0  0  0  0  # atno 17371 bound_to 10713
  141.2226  133.7051  156.8113 LP  0  0  0  0  0  0  0  0  0  0  0  0  # atno 17394 bound_to 11000
  140.2148  134.8801  157.3314 LP  0  0  0  0  0  0  0  0  0  0  0  0  # atno 17395 bound_to 11000

$$$$
