AV-unprocessed.smi:2597|AV-procd|sdf|10177|dock7
  -GOLD-   2272014193D 1   1.00000     0.00000
 Structure written by MMmdl.
 30 31  0  0  0  0  0  0  0  0  1 V2000
  149.9501  142.3153  156.6472 N   0  0  0  0  0  0  0  0  0  0  0  0
  151.1933  142.5318  157.3665 C   0  0  2  0  0  0  0  0  0  0  0  0
  151.5801  141.2643  158.1552 C   0  0  0  0  0  0  0  0  0  0  0  0
  152.8853  141.4779  158.9384 C   0  0  0  0  0  0  0  0  0  0  0  0
  152.8061  142.7096  159.8543 C   0  0  0  0  0  0  0  0  0  0  0  0
  152.4312  143.9757  159.0616 C   0  0  0  0  0  0  0  0  0  0  0  0
  151.1341  143.8189  158.2362 C   0  0  2  0  0  0  0  0  0  0  0  0
  149.9347  143.9554  159.0668 N   0  0  0  0  0  0  0  0  0  0  0  0
  149.6248  144.9969  159.9190 C   0  0  0  0  0  0  0  0  0  0  0  0
  148.4273  144.6293  160.4626 C   0  0  0  0  0  0  0  0  0  0  0  0
  147.5748  145.3545  161.4576 C   0  0  0  0  0  0  0  0  0  0  0  0
  148.2989  146.4999  161.8518 O   0  0  0  0  0  0  0  0  0  0  0  0
  148.0630  143.3912  159.9389 N   0  0  0  0  0  0  0  0  0  0  0  0
  148.9758  142.9961  159.1090 N   0  0  0  0  0  0  0  0  0  0  0  0
  151.9626  142.6872  156.6090 H   0  0  0  0  0  0  0  0  0  0  0  0
  151.1039  144.6609  157.5430 H   0  0  0  0  0  0  0  0  0  0  0  0
  149.2238  142.0399  157.2927 H   0  0  0  0  0  0  0  0  0  0  0  0
  149.6472  143.1787  156.2197 H   0  0  0  0  0  0  0  0  0  0  0  0
  150.7849  140.9688  158.8387 H   0  0  0  0  0  0  0  0  0  0  0  0
  151.7071  140.4267  157.4682 H   0  0  0  0  0  0  0  0  0  0  0  0
  153.1130  140.5900  159.5290 H   0  0  0  0  0  0  0  0  0  0  0  0
  153.7118  141.6013  158.2372 H   0  0  0  0  0  0  0  0  0  0  0  0
  152.0843  142.5325  160.6510 H   0  0  0  0  0  0  0  0  0  0  0  0
  153.7659  142.8598  160.3491 H   0  0  0  0  0  0  0  0  0  0  0  0
  152.3479  144.8284  159.7367 H   0  0  0  0  0  0  0  0  0  0  0  0
  153.2509  144.2119  158.3819 H   0  0  0  0  0  0  0  0  0  0  0  0
  150.2493  145.8670  160.0548 H   0  0  0  0  0  0  0  0  0  0  0  0
  146.6181  145.6539  161.0277 H   0  0  0  0  0  0  0  0  0  0  0  0
  147.3688  144.7336  162.3299 H   0  0  0  0  0  0  0  0  0  0  0  0
  149.1661  146.4488  161.4804 H   0  0  0  0  0  0  0  0  0  0  0  0
  1  2  1  0  0  0  0
  1 17  1  0  0  0  0
  1 18  1  0  0  0  0
  2 15  1  0  0  0  0
  2  7  1  0  0  0  0
  2  3  1  0  0  0  0
  3  4  1  0  0  0  0
  3 19  1  0  0  0  0
  3 20  1  0  0  0  0
  4  5  1  0  0  0  0
  4 21  1  0  0  0  0
  4 22  1  0  0  0  0
  5  6  1  0  0  0  0
  5 23  1  0  0  0  0
  5 24  1  0  0  0  0
  6  7  1  0  0  0  0
  6 25  1  0  0  0  0
  6 26  1  0  0  0  0
  7 16  1  0  0  0  0
  7  8  1  0  0  0  0
  8 14  1  0  0  0  0
  8  9  1  0  0  0  0
  9 10  2  0  0  0  0
  9 27  1  0  0  0  0
 10 11  1  0  0  0  0
 10 13  1  0  0  0  0
 11 12  1  0  0  0  0
 11 28  1  0  0  0  0
 11 29  1  0  0  0  0
 12 30  1  0  0  0  0
 13 14  2  0  0  0  0
M  END
> <s_m_source_file>
AV-unprocessed.smi

> <i_m_source_file_index>
2597

> <i_lp_mmshare_version>
43012

> <i_f3d_flags>
0

> <s_epik_input>
W05IMl1bQ0BIXTFbQ0gyXVtDSDJdW0NIMl1bQ0gyXVtDQEhdMW4yW2NIXWMobm4yKVtDSDJdW09IXQ==

> <s_epik_cmdline>
J2VwaWtfcHl0aG9uJywgJy1waCcsICc3LjAnLCAnLXRuJywgJzgnLCAnLW1hJywgJzIwMCcsICctbWV0YWxfYmluZGluZycsICctaW1hZScsICc8aW5maWxlLm1hZT4nLCAnLW9tYWUnLCAnPG91dGZpbGUubWFlPic=

> <r_lp_tautomer_probability>
1

> <r_epik_Ionization_Penalty>
2.21303

> <r_epik_Ionization_Penalty_Charging>
0

> <r_epik_Ionization_Penalty_Neutral>
2.21303

> <r_epik_State_Penalty>
2.3573

> <r_epik_Charging_Adjusted_Penalty>
2.3573

> <i_epik_Tot_Q>
0

> <i_epik_Tot_abs_Q>
0

> <r_epik_Metal_State_Penalty>
2.35724

> <b_epik_Metal_Only>
0

> <s_lp_Force_Field>
OPLS_2005

> <r_lp_Energy>
16.7408

> <b_lp_Chiralities_Consistent>
1

> <s_lp_Variant>
AV-unprocessed.smi:2597-8

> <Gold.Version>
5.8.1

> <Gold.Id.Protein>
6NUR|6NUR_protein|mol2

> <Gold.PLP.Fitness>
40.1921

> <Gold.PLP.PLP>
-34.8423

> <Gold.PLP.part.hbond>
-6.8050

> <Gold.PLP.part.metal>
0.0000

> <Gold.PLP.part.buried>
-5.5104

> <Gold.PLP.part.nonpolar>
-24.0168

> <Gold.PLP.part.repulsive>
0.2308

> <Gold.PLP.ligand.clash>
0.0000

> <Gold.PLP.ligand.torsion>
0.0651

> <Gold.PLP.Chemscore.Hbond>
1.8064

> <Gold.PLP.Chemscore.CHOScore>
0.0000

> <Gold.PLP.Chemscore.Metal>
0.0000

> <Gold.Chemscore.Hbonds>
donor molecule, donor type, donor heavy atom, donor atom, acceptor molecule, acceptor atom, score
      L1  H     1    18       P1  8028  1.00
      P1  H  6933  6944       L1    13  0.81

> <Gold.PLP.Chemscore.Internal.Correction>
0.0609

> <Gold.Rescore>
     Score         DG    S(hbond)    S(metal)    S(lipo)     H(rot)  DE(clash)    DE(int)     intcor
     11.71     -13.55       1.05        0.00      78.76       1.82       0.35       1.49       ----

> <Gold.Chemscore.Fitness>
11.7079

> <Gold.Chemscore.DG>
-13.5456

> <Gold.Chemscore.ZeroCoef>
-5.4800

> <Gold.Chemscore.Hbond>
1.0526

> <Gold.Chemscore.Metal>
0.0000

> <Gold.Chemscore.Lipo>
78.7592

> <Gold.Chemscore.Internal_Hbond>
0.0000

> <Gold.Chemscore.DEClash>
0.3490

> <Gold.Chemscore.DEInternal>
1.4886

> <Gold.Chemscore.Rot>
1.8222

> <Gold.Chemscore.Internal.Correction>
   9.000000E+99

> <Gold.Chemscore.Hbonds>
donor molecule, donor type, donor heavy atom, donor atom, acceptor molecule, acceptor atom, score
      L1  H     1    18       P1  8028  1.00
      P1  H  6933  6944       L1    13  0.04

> <Gold.Chemscore.Hbond.Weighted>
-3.5157

> <Gold.Chemscore.Metal.Weighted>
-0.0000

> <Gold.Chemscore.Lipo.Weighted>
-9.2148

> <Gold.Chemscore.Internal_Hbond.Weighted>
0.0000

> <Gold.Chemscore.DEClash.Weighted>
0.3490

> <Gold.Chemscore.DEInternal.Weighted>
1.4886

> <Gold.Chemscore.Rot.Weighted>
4.6649

> <Gold.Chemscore.Internal.Correction.Weighted>
   9.000000E+99

> <Gold.Protein.RotatedTorsions>
[ 6907 6896 6895 6894 ] final    0.08 input  -60.11 | X-H torsion
[ 7974 7965 7964 7962 ] final   -3.80 input  175.53 | X-H torsion
[ 8008 7997 7996 7995 ] final -127.28 input   59.86 | X-H torsion
[ 10167 10162 10161 10158 ] final -157.80 input  -65.29 | X-H torsion
[ 10718 10713 10712 10709 ] final -171.15 input   66.30 | X-H torsion
[ 10763 10752 10751 10750 ] final -104.12 input  -60.55 | X-H torsion
[ 11005 11000 10999 10996 ] final  -57.99 input  -57.11 | X-H torsion

> <Gold.Protein.ActiveResidues>
 VAL166  LYS551  ARG553  GLY616  TRP617  ASP618  TYR619  PRO620  LYS621  CYS622 
 ASP623  PHE694  ASN695  SER759  ASP760  ASP761  ALA762  ILE779  LEU786  VAL792 
 PHE793  MET794  SER795  GLU796  ALA797  LYS798  CYS799  TRP800  GLU811  SER814 

> <Gold.Protein.RotatedAtoms>
  151.5707  135.1062  159.9994 H   0  0  0  0  0  0  0  0  0  0  0  0  # atno 6907 bound_to 6896
  152.4402  133.7430  159.6662 H   0  0  0  0  0  0  0  0  0  0  0  0  # atno 6908 bound_to 6896
  150.8306  133.8028  159.3123 H   0  0  0  0  0  0  0  0  0  0  0  0  # atno 6909 bound_to 6896
  146.2383  140.1776  142.8332 H   0  0  0  0  0  0  0  0  0  0  0  0  # atno 7974 bound_to 7965
  155.2435  140.0429  157.2978 H   0  0  0  0  0  0  0  0  0  0  0  0  # atno 8008 bound_to 7997
  154.5813  140.2401  155.8019 H   0  0  0  0  0  0  0  0  0  0  0  0  # atno 8009 bound_to 7997
  156.2195  140.2974  155.9926 H   0  0  0  0  0  0  0  0  0  0  0  0  # atno 8010 bound_to 7997
  139.6742  143.9693  152.2301 H   0  0  0  0  0  0  0  0  0  0  0  0  # atno 10167 bound_to 10162
  156.7366  130.9326  151.3108 H   0  0  0  0  0  0  0  0  0  0  0  0  # atno 10718 bound_to 10713
  154.7855  135.4798  153.9938 H   0  0  0  0  0  0  0  0  0  0  0  0  # atno 10763 bound_to 10752
  153.1555  135.6799  153.8826 H   0  0  0  0  0  0  0  0  0  0  0  0  # atno 10764 bound_to 10752
  153.8457  135.3173  155.3407 H   0  0  0  0  0  0  0  0  0  0  0  0  # atno 10765 bound_to 10752
  141.1188  133.6611  156.4852 H   0  0  0  0  0  0  0  0  0  0  0  0  # atno 11005 bound_to 11000
  144.9961  140.8590  143.5310 LP  0  0  0  0  0  0  0  0  0  0  0  0  # atno 17320 bound_to 7965
  145.1788  139.2363  143.5303 LP  0  0  0  0  0  0  0  0  0  0  0  0  # atno 17321 bound_to 7965
  139.9465  144.6648  150.8214 LP  0  0  0  0  0  0  0  0  0  0  0  0  # atno 17342 bound_to 10162
  140.7629  143.3210  151.2622 LP  0  0  0  0  0  0  0  0  0  0  0  0  # atno 17343 bound_to 10162
  157.6836  130.9164  150.0329 LP  0  0  0  0  0  0  0  0  0  0  0  0  # atno 17370 bound_to 10713
  156.1493  130.3642  149.9463 LP  0  0  0  0  0  0  0  0  0  0  0  0  # atno 17371 bound_to 10713
  140.4568  134.6878  157.5066 LP  0  0  0  0  0  0  0  0  0  0  0  0  # atno 17394 bound_to 11000
  140.0130  134.6662  155.9352 LP  0  0  0  0  0  0  0  0  0  0  0  0  # atno 17395 bound_to 11000

$$$$
