AV-unprocessed.smi:2118|AV-procd|sdf|8628|dock3
  -GOLD-   2272011373D 1   1.00000     0.00000
 Structure written by MMmdl.
 40 41  0  0  0  0  0  0  0  0  1 V2000
  152.8963  143.3082  162.8153 C   0  0  0  0  0  0  0  0  0  0  0  0
  152.9744  143.3048  161.2822 C   0  0  0  0  0  0  0  0  0  0  0  0
  151.8791  144.1836  160.6553 C   0  0  0  0  0  0  0  0  0  0  0  0
  151.9444  144.1550  159.1175 C   0  0  0  0  0  0  0  0  0  0  0  0
  151.8951  142.7734  158.5993 N   0  0  0  0  0  0  0  0  0  0  0  0
  150.3626  142.1017  158.1234 S   0  0  0  0  0  0  0  0  0  0  0  0
  150.4324  140.6355  158.2187 O   0  0  0  0  0  0  0  0  0  0  0  0
  149.2833  142.8494  158.7867 O   0  0  0  0  0  0  0  0  0  0  0  0
  150.3587  142.5282  156.4554 N   0  0  0  0  0  0  0  0  0  0  0  0
  150.0926  141.4864  155.4683 C   0  0  0  0  0  0  0  0  0  0  0  0
  148.7115  140.8667  155.7147 C   0  0  0  0  0  0  0  0  0  0  0  0
  147.5873  141.7738  155.2549 C   0  0  0  0  0  0  0  0  0  0  0  0
  147.4236  142.0889  153.8901 C   0  0  0  0  0  0  0  0  0  0  0  0
  146.3632  142.9347  153.5116 C   0  0  0  0  0  0  0  0  0  0  0  0
  145.5089  143.4300  154.5171 C   0  0  0  0  0  0  0  0  0  0  0  0
  145.6553  143.1338  155.8268 N   0  0  0  0  0  0  0  0  0  0  0  0
  146.6748  142.3220  156.1811 C   0  0  0  0  0  0  0  0  0  0  0  0
  152.9248  141.8840  159.1723 C   0  0  0  0  0  0  0  0  0  0  0  0
  152.8752  141.8803  160.7113 C   0  0  0  0  0  0  0  0  0  0  0  0
  151.9466  142.9021  163.1653 H   0  0  0  0  0  0  0  0  0  0  0  0
  152.9917  144.3200  163.2104 H   0  0  0  0  0  0  0  0  0  0  0  0
  153.6959  142.7081  163.2505 H   0  0  0  0  0  0  0  0  0  0  0  0
  153.9436  143.7172  160.9974 H   0  0  0  0  0  0  0  0  0  0  0  0
  150.8964  143.8539  160.9925 H   0  0  0  0  0  0  0  0  0  0  0  0
  151.9870  145.2120  161.0016 H   0  0  0  0  0  0  0  0  0  0  0  0
  151.1365  144.7483  158.6897 H   0  0  0  0  0  0  0  0  0  0  0  0
  152.8743  144.6166  158.7836 H   0  0  0  0  0  0  0  0  0  0  0  0
  149.8283  143.3813  156.2821 H   0  0  0  0  0  0  0  0  0  0  0  0
  150.1439  141.9204  154.4691 H   0  0  0  0  0  0  0  0  0  0  0  0
  150.8712  140.7256  155.5346 H   0  0  0  0  0  0  0  0  0  0  0  0
  148.6308  139.9113  155.1942 H   0  0  0  0  0  0  0  0  0  0  0  0
  148.5823  140.6505  156.7763 H   0  0  0  0  0  0  0  0  0  0  0  0
  148.0969  141.6902  153.1454 H   0  0  0  0  0  0  0  0  0  0  0  0
  146.2078  143.1974  152.4756 H   0  0  0  0  0  0  0  0  0  0  0  0
  144.6854  144.0807  154.2626 H   0  0  0  0  0  0  0  0  0  0  0  0
  146.7638  142.1028  157.2350 H   0  0  0  0  0  0  0  0  0  0  0  0
  152.8099  140.8728  158.7831 H   0  0  0  0  0  0  0  0  0  0  0  0
  153.9037  142.2314  158.8400 H   0  0  0  0  0  0  0  0  0  0  0  0
  153.6931  141.2705  161.0964 H   0  0  0  0  0  0  0  0  0  0  0  0
  151.9567  141.4037  161.0536 H   0  0  0  0  0  0  0  0  0  0  0  0
  1  2  1  0  0  0  0
  1 20  1  0  0  0  0
  1 21  1  0  0  0  0
  1 22  1  0  0  0  0
  2 19  1  0  0  0  0
  2  3  1  0  0  0  0
  2 23  1  0  0  0  0
  3  4  1  0  0  0  0
  3 24  1  0  0  0  0
  3 25  1  0  0  0  0
  4  5  1  0  0  0  0
  4 26  1  0  0  0  0
  4 27  1  0  0  0  0
  5  6  1  0  0  0  0
  5 18  1  0  0  0  0
  6  7  2  0  0  0  0
  6  8  2  0  0  0  0
  6  9  1  0  0  0  0
  9 10  1  0  0  0  0
  9 28  1  0  0  0  0
 10 11  1  0  0  0  0
 10 29  1  0  0  0  0
 10 30  1  0  0  0  0
 11 12  1  0  0  0  0
 11 31  1  0  0  0  0
 11 32  1  0  0  0  0
 12 17  1  0  0  0  0
 12 13  2  0  0  0  0
 13 14  1  0  0  0  0
 13 33  1  0  0  0  0
 14 15  2  0  0  0  0
 14 34  1  0  0  0  0
 15 16  1  0  0  0  0
 15 35  1  0  0  0  0
 16 17  2  0  0  0  0
 17 36  1  0  0  0  0
 18 19  1  0  0  0  0
 18 37  1  0  0  0  0
 18 38  1  0  0  0  0
 19 39  1  0  0  0  0
 19 40  1  0  0  0  0
M  END
> <s_m_source_file>
AV-unprocessed.smi

> <i_m_source_file_index>
2118

> <i_lp_mmshare_version>
43012

> <i_f3d_flags>
0

> <s_epik_input>
W0NIM11bQ0hdMVtDSDJdW0NIMl1OKFtDSDJdW0NIMl0xKVMoPU8pKD1PKVtOSF1bQ0gyXVtDSDJdYzJbY0hdW2NIXVtjSF1uW2NIXTI=

> <s_epik_cmdline>
J2VwaWtfcHl0aG9uJywgJy1waCcsICc3LjAnLCAnLXRuJywgJzgnLCAnLW1hJywgJzIwMCcsICctbWV0YWxfYmluZGluZycsICctaW1hZScsICc8aW5maWxlLm1hZT4nLCAnLW9tYWUnLCAnPG91dGZpbGUubWFlPic=

> <r_epik_Ionization_Penalty>
0.0259724

> <r_epik_Ionization_Penalty_Charging>
0

> <r_epik_Ionization_Penalty_Neutral>
0.0259724

> <r_epik_State_Penalty>
0.0167858

> <r_epik_Charging_Adjusted_Penalty>
0.0167858

> <i_epik_Tot_Q>
0

> <i_epik_Tot_abs_Q>
0

> <r_epik_Metal_State_Penalty>
0.268382

> <b_epik_Metal_Only>
0

> <s_lp_Force_Field>
OPLS_2005

> <r_lp_Energy>
6.97296

> <b_lp_Chiralities_Consistent>
1

> <s_lp_Variant>
AV-unprocessed.smi:2118-1

> <Gold.Version>
5.8.1

> <Gold.Id.Protein>
6NUR|6NUR_protein|mol2

> <Gold.PLP.Fitness>
47.0722

> <Gold.PLP.PLP>
-44.4093

> <Gold.PLP.part.hbond>
-2.0000

> <Gold.PLP.part.metal>
0.0000

> <Gold.PLP.part.buried>
-6.4533

> <Gold.PLP.part.nonpolar>
-35.2980

> <Gold.PLP.part.repulsive>
0.2435

> <Gold.PLP.ligand.clash>
0.0000

> <Gold.PLP.ligand.torsion>
1.2311

> <Gold.PLP.Chemscore.Hbond>
1.0000

> <Gold.PLP.Chemscore.CHOScore>
0.0000

> <Gold.PLP.Chemscore.Metal>
0.0000

> <Gold.Chemscore.Hbonds>
donor molecule, donor type, donor heavy atom, donor atom, acceptor molecule, acceptor atom, score
      L1  H     9    28       P1  8028  1.00

> <Gold.PLP.Chemscore.Internal.Correction>
2.1252

> <Gold.Rescore>
     Score         DG    S(hbond)    S(metal)    S(lipo)     H(rot)  DE(clash)    DE(int)     intcor
     16.46     -17.81       0.99        0.00     109.44       1.47       0.07       1.29       ----

> <Gold.Chemscore.Fitness>
16.4565

> <Gold.Chemscore.DG>
-17.8144

> <Gold.Chemscore.ZeroCoef>
-5.4800

> <Gold.Chemscore.Hbond>
0.9881

> <Gold.Chemscore.Metal>
0.0000

> <Gold.Chemscore.Lipo>
109.4356

> <Gold.Chemscore.Internal_Hbond>
0.0000

> <Gold.Chemscore.DEClash>
0.0719

> <Gold.Chemscore.DEInternal>
1.2860

> <Gold.Chemscore.Rot>
1.4725

> <Gold.Chemscore.Internal.Correction>
   9.000000E+99

> <Gold.Chemscore.Hbonds>
donor molecule, donor type, donor heavy atom, donor atom, acceptor molecule, acceptor atom, score
      L1  H     9    28       P1  8028  1.00

> <Gold.Chemscore.Hbond.Weighted>
-3.3001

> <Gold.Chemscore.Metal.Weighted>
-0.0000

> <Gold.Chemscore.Lipo.Weighted>
-12.8040

> <Gold.Chemscore.Internal_Hbond.Weighted>
0.0000

> <Gold.Chemscore.DEClash.Weighted>
0.0719

> <Gold.Chemscore.DEInternal.Weighted>
1.2860

> <Gold.Chemscore.Rot.Weighted>
3.7697

> <Gold.Chemscore.Internal.Correction.Weighted>
   9.000000E+99

> <Gold.Protein.RotatedTorsions>
[ 6907 6896 6895 6894 ] final  -41.08 input  -60.11 | X-H torsion
[ 7974 7965 7964 7962 ] final  132.54 input  175.53 | X-H torsion
[ 8008 7997 7996 7995 ] final   12.59 input   59.86 | X-H torsion
[ 10167 10162 10161 10158 ] final  -51.83 input  -65.29 | X-H torsion
[ 10718 10713 10712 10709 ] final   73.85 input   66.30 | X-H torsion
[ 10763 10752 10751 10750 ] final  138.29 input  -60.55 | X-H torsion
[ 11005 11000 10999 10996 ] final  136.53 input  -57.11 | X-H torsion

> <Gold.Protein.ActiveResidues>
 VAL166  LYS551  ARG553  GLY616  TRP617  ASP618  TYR619  PRO620  LYS621  CYS622 
 ASP623  PHE694  ASN695  SER759  ASP760  ASP761  ALA762  ILE779  LEU786  VAL792 
 PHE793  MET794  SER795  GLU796  ALA797  LYS798  CYS799  TRP800  GLU811  SER814 

> <Gold.Protein.RotatedAtoms>
  150.9709  134.9082  159.7786 H   0  0  0  0  0  0  0  0  0  0  0  0  # atno 6907 bound_to 6896
  152.5190  134.3542  159.9272 H   0  0  0  0  0  0  0  0  0  0  0  0  # atno 6908 bound_to 6896
  151.3552  133.3869  159.2719 H   0  0  0  0  0  0  0  0  0  0  0  0  # atno 6909 bound_to 6896
  144.9958  139.4361  143.5316 H   0  0  0  0  0  0  0  0  0  0  0  0  # atno 7974 bound_to 7965
  154.8228  140.2886  155.5775 H   0  0  0  0  0  0  0  0  0  0  0  0  # atno 8008 bound_to 7997
  156.2999  140.2547  156.3068 H   0  0  0  0  0  0  0  0  0  0  0  0  # atno 8009 bound_to 7997
  154.9320  140.0383  157.2042 H   0  0  0  0  0  0  0  0  0  0  0  0  # atno 8010 bound_to 7997
  140.6568  143.2605  151.4560 H   0  0  0  0  0  0  0  0  0  0  0  0  # atno 10167 bound_to 10162
  157.6566  130.9649  150.1128 H   0  0  0  0  0  0  0  0  0  0  0  0  # atno 10718 bound_to 10713
  153.8872  135.3037  155.3446 H   0  0  0  0  0  0  0  0  0  0  0  0  # atno 10763 bound_to 10752
  154.7733  135.4874  153.9697 H   0  0  0  0  0  0  0  0  0  0  0  0  # atno 10764 bound_to 10752
  153.1318  135.6805  153.9264 H   0  0  0  0  0  0  0  0  0  0  0  0  # atno 10765 bound_to 10752
  140.0052  134.9462  157.0160 H   0  0  0  0  0  0  0  0  0  0  0  0  # atno 11005 bound_to 11000
  146.3441  139.9317  142.8752 LP  0  0  0  0  0  0  0  0  0  0  0  0  # atno 17320 bound_to 7965
  145.2221  140.9939  143.4039 LP  0  0  0  0  0  0  0  0  0  0  0  0  # atno 17321 bound_to 7965
  139.5793  144.1747  152.1946 LP  0  0  0  0  0  0  0  0  0  0  0  0  # atno 17342 bound_to 10162
  140.1067  144.5492  150.6952 LP  0  0  0  0  0  0  0  0  0  0  0  0  # atno 17343 bound_to 10162
  156.2020  130.3661  149.8776 LP  0  0  0  0  0  0  0  0  0  0  0  0  # atno 17370 bound_to 10713
  156.6677  130.8808  151.3557 LP  0  0  0  0  0  0  0  0  0  0  0  0  # atno 17371 bound_to 10713
  140.4654  134.1441  155.7196 LP  0  0  0  0  0  0  0  0  0  0  0  0  # atno 17394 bound_to 11000
  141.1672  133.8680  157.1680 LP  0  0  0  0  0  0  0  0  0  0  0  0  # atno 17395 bound_to 11000

$$$$
