AV-unprocessed.smi:3241|AV-procd|sdf|12387|dock1
  -GOLD-   2272018253D 1   1.00000     0.00000
 Structure written by MMmdl.
 44 45  0  0  0  0  0  0  0  0  2 V2000
  153.6111  140.6949  160.0592 C   0  0  0  0  0  0  0  0  0  0  0  0
  153.3274  142.1876  160.2916 C   0  0  2  0  0  0  0  0  0  0  0  0
  152.7017  142.4447  161.6770 C   0  0  0  0  0  0  0  0  0  0  0  0
  152.4507  143.9429  161.9115 C   0  0  0  0  0  0  0  0  0  0  0  0
  151.5821  144.5451  160.7964 C   0  0  0  0  0  0  0  0  0  0  0  0
  152.1993  144.2929  159.4107 C   0  0  0  0  0  0  0  0  0  0  0  0
  152.4598  142.7923  159.1658 C   0  0  2  0  0  0  0  0  0  0  0  0
  151.2236  142.0887  159.1222 O   0  0  0  0  0  0  0  0  0  0  0  0
  150.3297  142.5322  158.1136 C   0  0  0  0  0  0  0  0  0  0  0  0
  151.0799  142.5541  156.7786 C   0  0  0  0  0  0  0  0  0  0  0  0
  150.1328  142.5352  155.6472 N   0  3  0  0  0  0  0  0  0  0  0  0
  149.5176  141.2183  155.3883 C   0  0  0  0  0  0  0  0  0  0  0  0
  148.5538  141.2695  154.1917 C   0  0  0  0  0  0  0  0  0  0  0  0
  147.3075  141.9425  154.5120 N   0  0  0  0  0  0  0  0  0  0  0  0
  146.6958  142.9808  153.8416 C   0  0  0  0  0  0  0  0  0  0  0  0
  145.5438  143.2745  154.5135 C   0  0  0  0  0  0  0  0  0  0  0  0
  145.5376  142.3511  155.5960 C   0  0  0  0  0  0  0  0  0  0  0  0
  146.5930  141.5528  155.5904 N   0  0  0  0  0  0  0  0  0  0  0  0
  152.6952  140.1035  160.0864 H   0  0  0  0  0  0  0  0  0  0  0  0
  154.2821  140.3005  160.8227 H   0  0  0  0  0  0  0  0  0  0  0  0
  154.0834  140.5317  159.0903 H   0  0  0  0  0  0  0  0  0  0  0  0
  154.2908  142.6995  160.2702 H   0  0  0  0  0  0  0  0  0  0  0  0
  151.7618  141.8985  161.7678 H   0  0  0  0  0  0  0  0  0  0  0  0
  153.3569  142.0594  162.4591 H   0  0  0  0  0  0  0  0  0  0  0  0
  151.9702  144.0921  162.8787 H   0  0  0  0  0  0  0  0  0  0  0  0
  153.4044  144.4699  161.9559 H   0  0  0  0  0  0  0  0  0  0  0  0
  150.5820  144.1116  160.8378 H   0  0  0  0  0  0  0  0  0  0  0  0
  151.4600  145.6163  160.9593 H   0  0  0  0  0  0  0  0  0  0  0  0
  151.5526  144.7033  158.6355 H   0  0  0  0  0  0  0  0  0  0  0  0
  153.1418  144.8367  159.3358 H   0  0  0  0  0  0  0  0  0  0  0  0
  152.9950  142.6688  158.2223 H   0  0  0  0  0  0  0  0  0  0  0  0
  149.4714  141.8631  158.0458 H   0  0  0  0  0  0  0  0  0  0  0  0
  149.9532  143.5289  158.3490 H   0  0  0  0  0  0  0  0  0  0  0  0
  151.7110  143.4414  156.7143 H   0  0  0  0  0  0  0  0  0  0  0  0
  151.7350  141.6845  156.7129 H   0  0  0  0  0  0  0  0  0  0  0  0
  149.3945  143.2006  155.8285 H   0  0  0  0  0  0  0  0  0  0  0  0
  150.3064  140.4928  155.1860 H   0  0  0  0  0  0  0  0  0  0  0  0
  148.9926  140.8796  156.2825 H   0  0  0  0  0  0  0  0  0  0  0  0
  149.0219  141.7696  153.3423 H   0  0  0  0  0  0  0  0  0  0  0  0
  148.3183  140.2564  153.8639 H   0  0  0  0  0  0  0  0  0  0  0  0
  147.1251  143.4192  152.9528 H   0  0  0  0  0  0  0  0  0  0  0  0
  144.8163  144.0348  154.2702 H   0  0  0  0  0  0  0  0  0  0  0  0
  144.8026  142.2369  156.3790 H   0  0  0  0  0  0  0  0  0  0  0  0
  150.6276  142.8281  154.8164 H   0  0  0  0  0  0  0  0  0  0  0  0
  1  2  1  0  0  0  0
  1 19  1  0  0  0  0
  1 20  1  0  0  0  0
  1 21  1  0  0  0  0
  2  7  1  0  0  0  0
  2  3  1  0  0  0  0
  2 22  1  0  0  0  0
  3  4  1  0  0  0  0
  3 23  1  0  0  0  0
  3 24  1  0  0  0  0
  4  5  1  0  0  0  0
  4 25  1  0  0  0  0
  4 26  1  0  0  0  0
  5  6  1  0  0  0  0
  5 27  1  0  0  0  0
  5 28  1  0  0  0  0
  6  7  1  0  0  0  0
  6 29  1  0  0  0  0
  6 30  1  0  0  0  0
  7  8  1  0  0  0  0
  7 31  1  0  0  0  0
  8  9  1  0  0  0  0
  9 10  1  0  0  0  0
  9 32  1  0  0  0  0
  9 33  1  0  0  0  0
 10 11  1  0  0  0  0
 10 34  1  0  0  0  0
 10 35  1  0  0  0  0
 11 12  1  0  0  0  0
 11 36  1  0  0  0  0
 11 44  1  0  0  0  0
 12 13  1  0  0  0  0
 12 37  1  0  0  0  0
 12 38  1  0  0  0  0
 13 14  1  0  0  0  0
 13 39  1  0  0  0  0
 13 40  1  0  0  0  0
 14 18  1  0  0  0  0
 14 15  1  0  0  0  0
 15 16  2  0  0  0  0
 15 41  1  0  0  0  0
 16 17  1  0  0  0  0
 16 42  1  0  0  0  0
 17 18  2  0  0  0  0
 17 43  1  0  0  0  0
M  CHG  1  11   1
M  END
> <s_m_source_file>
AV-unprocessed.smi

> <i_m_source_file_index>
3241

> <i_lp_mmshare_version>
43012

> <i_f3d_flags>
0

> <s_epik_input>
W0NIM11bQ0BASF0xW0NIMl1bQ0gyXVtDSDJdW0NIMl1bQ0BIXTFPW0NIMl1bQ0gyXVtOSF1bQ0gyXVtDSDJdbjJbY0hdW2NIXVtjSF1uMg==

> <s_epik_cmdline>
J2VwaWtfcHl0aG9uJywgJy1waCcsICc3LjAnLCAnLXRuJywgJzgnLCAnLW1hJywgJzIwMCcsICctbWV0YWxfYmluZGluZycsICctaW1hZScsICc8aW5maWxlLm1hZT4nLCAnLW9tYWUnLCAnPG91dGZpbGUubWFlPic=

> <r_lp_tautomer_probability>
1

> <r_epik_Ionization_Penalty>
0.00924946

> <r_epik_Ionization_Penalty_Charging>
0.00924645

> <r_epik_Ionization_Penalty_Neutral>
3.00629e-06

> <r_epik_State_Penalty>
0.0070118

> <r_epik_Charging_Adjusted_Penalty>
0.0162583

> <i_epik_Tot_Q>
1

> <i_epik_Tot_abs_Q>
1

> <r_epik_Metal_State_Penalty>
0.00702523

> <b_epik_Metal_Only>
0

> <s_lp_Force_Field>
OPLS_2005

> <r_lp_Energy>
14.6648

> <b_lp_Chiralities_Consistent>
1

> <s_lp_Variant>
AV-unprocessed.smi:3241-3

> <Gold.Version>
5.8.1

> <Gold.Id.Protein>
6NUR|6NUR_protein|mol2

> <Gold.PLP.Fitness>
53.7098

> <Gold.PLP.PLP>
-48.0559

> <Gold.PLP.part.hbond>
-1.0000

> <Gold.PLP.part.metal>
0.0000

> <Gold.PLP.part.buried>
-5.7137

> <Gold.PLP.part.nonpolar>
-40.4052

> <Gold.PLP.part.repulsive>
0.2748

> <Gold.PLP.ligand.clash>
0.0000

> <Gold.PLP.ligand.torsion>
0.2795

> <Gold.PLP.Chemscore.Hbond>
1.9840

> <Gold.PLP.Chemscore.CHOScore>
0.0000

> <Gold.PLP.Chemscore.Metal>
0.0000

> <Gold.Chemscore.Hbonds>
donor molecule, donor type, donor heavy atom, donor atom, acceptor molecule, acceptor atom, score
      L1  H    11    36       P1  8028  1.86

> <Gold.PLP.Chemscore.Internal.Correction>
0.2609

> <Gold.Rescore>
     Score         DG    S(hbond)    S(metal)    S(lipo)     H(rot)  DE(clash)    DE(int)     intcor
     18.40     -18.79       1.00        0.00     126.67       1.89       0.20       0.19       ----

> <Gold.Chemscore.Fitness>
18.4009

> <Gold.Chemscore.DG>
-18.7928

> <Gold.Chemscore.ZeroCoef>
-5.4800

> <Gold.Chemscore.Hbond>
0.9978

> <Gold.Chemscore.Metal>
0.0000

> <Gold.Chemscore.Lipo>
126.6670

> <Gold.Chemscore.Internal_Hbond>
0.0000

> <Gold.Chemscore.DEClash>
0.1969

> <Gold.Chemscore.DEInternal>
0.1949

> <Gold.Chemscore.Rot>
1.8906

> <Gold.Chemscore.Internal.Correction>
   9.000000E+99

> <Gold.Chemscore.Hbonds>
donor molecule, donor type, donor heavy atom, donor atom, acceptor molecule, acceptor atom, score
      L1  H    11    36       P1  8028  0.89

> <Gold.Chemscore.Hbond.Weighted>
-3.3327

> <Gold.Chemscore.Metal.Weighted>
-0.0000

> <Gold.Chemscore.Lipo.Weighted>
-14.8200

> <Gold.Chemscore.Internal_Hbond.Weighted>
0.0000

> <Gold.Chemscore.DEClash.Weighted>
0.1969

> <Gold.Chemscore.DEInternal.Weighted>
0.1949

> <Gold.Chemscore.Rot.Weighted>
4.8400

> <Gold.Chemscore.Internal.Correction.Weighted>
   9.000000E+99

> <Gold.Protein.RotatedTorsions>
[ 6907 6896 6895 6894 ] final  -11.56 input  -60.11 | X-H torsion
[ 7974 7965 7964 7962 ] final    1.68 input  175.53 | X-H torsion
[ 8008 7997 7996 7995 ] final    2.75 input   59.86 | X-H torsion
[ 10167 10162 10161 10158 ] final  -85.61 input  -65.29 | X-H torsion
[ 10718 10713 10712 10709 ] final  135.78 input   66.30 | X-H torsion
[ 10763 10752 10751 10750 ] final   -4.04 input  -60.55 | X-H torsion
[ 11005 11000 10999 10996 ] final   55.89 input  -57.11 | X-H torsion

> <Gold.Protein.ActiveResidues>
 VAL166  LYS551  ARG553  GLY616  TRP617  ASP618  TYR619  PRO620  LYS621  CYS622 
 ASP623  PHE694  ASN695  SER759  ASP760  ASP761  ALA762  ILE779  LEU786  VAL792 
 PHE793  MET794  SER795  GLU796  ALA797  LYS798  CYS799  TRP800  GLU811  SER814 

> <Gold.Protein.RotatedAtoms>
  151.3843  135.0945  159.9505 H   0  0  0  0  0  0  0  0  0  0  0  0  # atno 6907 bound_to 6896
  152.5099  133.9042  159.7466 H   0  0  0  0  0  0  0  0  0  0  0  0  # atno 6908 bound_to 6896
  150.9482  133.6524  159.2806 H   0  0  0  0  0  0  0  0  0  0  0  0  # atno 6909 bound_to 6896
  146.2441  140.0950  142.8350 H   0  0  0  0  0  0  0  0  0  0  0  0  # atno 7974 bound_to 7965
  154.6954  140.2662  155.6772 H   0  0  0  0  0  0  0  0  0  0  0  0  # atno 8008 bound_to 7997
  156.2746  140.2783  156.1469 H   0  0  0  0  0  0  0  0  0  0  0  0  # atno 8009 bound_to 7997
  155.0839  140.0373  157.2638 H   0  0  0  0  0  0  0  0  0  0  0  0  # atno 8010 bound_to 7997
  140.4021  143.2658  151.9128 H   0  0  0  0  0  0  0  0  0  0  0  0  # atno 10167 bound_to 10162
  157.4534  131.1068  151.0006 H   0  0  0  0  0  0  0  0  0  0  0  0  # atno 10718 bound_to 10713
  153.3794  135.6998  153.6577 H   0  0  0  0  0  0  0  0  0  0  0  0  # atno 10763 bound_to 10752
  153.5194  135.3615  155.2625 H   0  0  0  0  0  0  0  0  0  0  0  0  # atno 10764 bound_to 10752
  154.8691  135.4154  154.3089 H   0  0  0  0  0  0  0  0  0  0  0  0  # atno 10765 bound_to 10752
  140.0572  134.5654  155.9194 H   0  0  0  0  0  0  0  0  0  0  0  0  # atno 11005 bound_to 11000
  145.0617  140.9093  143.4934 LP  0  0  0  0  0  0  0  0  0  0  0  0  # atno 17320 bound_to 7965
  145.1067  139.2785  143.5658 LP  0  0  0  0  0  0  0  0  0  0  0  0  # atno 17321 bound_to 7965
  139.4784  144.5623  151.8220 LP  0  0  0  0  0  0  0  0  0  0  0  0  # atno 17342 bound_to 10162
  140.4728  144.1562  150.5920 LP  0  0  0  0  0  0  0  0  0  0  0  0  # atno 17343 bound_to 10162
  157.0828  130.5910  149.5424 LP  0  0  0  0  0  0  0  0  0  0  0  0  # atno 17370 bound_to 10713
  155.9997  130.5073  150.7616 LP  0  0  0  0  0  0  0  0  0  0  0  0  # atno 17371 bound_to 10713
  141.1957  133.6588  156.5656 LP  0  0  0  0  0  0  0  0  0  0  0  0  # atno 17394 bound_to 11000
  140.3826  134.7510  157.4671 LP  0  0  0  0  0  0  0  0  0  0  0  0  # atno 17395 bound_to 11000

$$$$
