AV-unprocessed.smi:232|AV-procd|sdf|1767|dock3
  -GOLD-   2262020303D 1   1.00000     0.00000
 Structure written by MMmdl.
 52 55  0  0  0  0  0  0  0  0  1 V2000
  152.1059  145.0946  158.9964 C   0  0  0  0  0  0  0  0  0  0  0  0
  152.7127  143.7547  158.5580 C   0  0  0  0  0  0  0  0  0  0  0  0
  152.5010  142.5759  159.5356 C   0  0  2  0  0  0  0  0  0  0  0  0
  153.0630  142.8909  160.9245 C   0  0  0  0  0  0  0  0  0  0  0  0
  153.2918  141.5093  161.5244 C   0  0  0  0  0  0  0  0  0  0  0  0
  153.7264  140.6563  160.3250 C   0  0  1  0  0  0  0  0  0  0  0  0
  153.3062  139.1802  160.4930 C   0  0  0  0  0  0  0  0  0  0  0  0
  153.1900  141.3453  159.1452 N   0  0  0  0  0  0  0  0  0  0  0  0
  152.7710  140.6091  158.0889 C   0  0  0  0  0  0  0  0  0  0  0  0
  153.4219  139.4628  157.7600 N   0  0  0  0  0  0  0  0  0  0  0  0
  153.0235  138.7475  156.7040 C   0  0  0  0  0  0  0  0  0  0  0  0
  152.0244  138.9976  155.8548 N   0  0  0  0  0  0  0  0  0  0  0  0
  151.3734  140.1509  156.1814 C   0  0  0  0  0  0  0  0  0  0  0  0
  151.6776  141.0077  157.2750 C   0  0  0  0  0  0  0  0  0  0  0  0
  150.7995  142.0836  157.2985 N   0  0  0  0  0  0  0  0  0  0  0  0
  150.0204  141.8767  156.2722 C   0  0  0  0  0  0  0  0  0  0  0  0
  150.3087  140.7512  155.5324 N   0  0  0  0  0  0  0  0  0  0  0  0
  149.6104  140.2893  154.3455 C   0  0  0  0  0  0  0  0  0  0  0  0
  149.0455  138.8556  154.4744 C   0  0  2  0  0  0  0  0  0  0  0  0
  148.4514  138.5667  153.2251 O   0  0  0  0  0  0  0  0  0  0  0  0
  147.9543  138.6634  155.5539 C   0  0  2  0  0  0  0  0  0  0  0  0
  148.3900  138.8862  157.0061 C   0  0  0  0  0  0  0  0  0  0  0  0
  147.4501  138.0106  157.8195 C   0  0  0  0  0  0  0  0  0  0  0  0
  146.8017  137.1009  156.7768 C   0  0  0  0  0  0  0  0  0  0  0  0
  147.5750  137.2951  155.6025 O   0  0  0  0  0  0  0  0  0  0  0  0
  152.4263  145.8960  158.3308 H   0  0  0  0  0  0  0  0  0  0  0  0
  152.4179  145.3584  160.0071 H   0  0  0  0  0  0  0  0  0  0  0  0
  151.0172  145.0734  158.9699 H   0  0  0  0  0  0  0  0  0  0  0  0
  152.3393  143.4902  157.5679 H   0  0  0  0  0  0  0  0  0  0  0  0
  153.7861  143.9077  158.4404 H   0  0  0  0  0  0  0  0  0  0  0  0
  151.4346  142.3703  159.6398 H   0  0  0  0  0  0  0  0  0  0  0  0
  154.0178  143.4126  160.8412 H   0  0  0  0  0  0  0  0  0  0  0  0
  152.3924  143.5084  161.5225 H   0  0  0  0  0  0  0  0  0  0  0  0
  154.0274  141.5115  162.3291 H   0  0  0  0  0  0  0  0  0  0  0  0
  152.3505  141.1388  161.9335 H   0  0  0  0  0  0  0  0  0  0  0  0
  154.8126  140.7033  160.2418 H   0  0  0  0  0  0  0  0  0  0  0  0
  153.6886  138.7768  161.4308 H   0  0  0  0  0  0  0  0  0  0  0  0
  153.6969  138.5507  159.6938 H   0  0  0  0  0  0  0  0  0  0  0  0
  152.2209  139.0728  160.5067 H   0  0  0  0  0  0  0  0  0  0  0  0
  153.5889  137.8483  156.5093 H   0  0  0  0  0  0  0  0  0  0  0  0
  149.2148  142.5505  156.0184 H   0  0  0  0  0  0  0  0  0  0  0  0
  148.8117  140.9912  154.1014 H   0  0  0  0  0  0  0  0  0  0  0  0
  150.3236  140.3358  153.5210 H   0  0  0  0  0  0  0  0  0  0  0  0
  149.8597  138.1478  154.6339 H   0  0  0  0  0  0  0  0  0  0  0  0
  148.9879  137.9306  152.7773 H   0  0  0  0  0  0  0  0  0  0  0  0
  147.0788  139.2787  155.3353 H   0  0  0  0  0  0  0  0  0  0  0  0
  149.4144  138.5416  157.1517 H   0  0  0  0  0  0  0  0  0  0  0  0
  148.3375  139.9328  157.3047 H   0  0  0  0  0  0  0  0  0  0  0  0
  148.0037  137.4377  158.5642 H   0  0  0  0  0  0  0  0  0  0  0  0
  146.6961  138.6013  158.3409 H   0  0  0  0  0  0  0  0  0  0  0  0
  146.7964  136.0528  157.0775 H   0  0  0  0  0  0  0  0  0  0  0  0
  145.7723  137.4072  156.5847 H   0  0  0  0  0  0  0  0  0  0  0  0
  1  2  1  0  0  0  0
  1 26  1  0  0  0  0
  1 27  1  0  0  0  0
  1 28  1  0  0  0  0
  2  3  1  0  0  0  0
  2 29  1  0  0  0  0
  2 30  1  0  0  0  0
  3  8  1  0  0  0  0
  3  4  1  0  0  0  0
  3 31  1  0  0  0  0
  4  5  1  0  0  0  0
  4 32  1  0  0  0  0
  4 33  1  0  0  0  0
  5  6  1  0  0  0  0
  5 34  1  0  0  0  0
  5 35  1  0  0  0  0
  6  7  1  0  0  0  0
  6  8  1  0  0  0  0
  6 36  1  0  0  0  0
  7 37  1  0  0  0  0
  7 38  1  0  0  0  0
  7 39  1  0  0  0  0
  8  9  1  0  0  0  0
  9 14  1  0  0  0  0
  9 10  2  0  0  0  0
 10 11  1  0  0  0  0
 11 12  2  0  0  0  0
 11 40  1  0  0  0  0
 12 13  1  0  0  0  0
 13 17  1  0  0  0  0
 13 14  2  0  0  0  0
 14 15  1  0  0  0  0
 15 16  2  0  0  0  0
 16 17  1  0  0  0  0
 16 41  1  0  0  0  0
 17 18  1  0  0  0  0
 18 19  1  0  0  0  0
 18 42  1  0  0  0  0
 18 43  1  0  0  0  0
 19 20  1  0  0  0  0
 19 21  1  0  0  0  0
 19 44  1  0  0  0  0
 20 45  1  0  0  0  0
 21 25  1  0  0  0  0
 21 22  1  0  0  0  0
 21 46  1  0  0  0  0
 22 23  1  0  0  0  0
 22 47  1  0  0  0  0
 22 48  1  0  0  0  0
 23 24  1  0  0  0  0
 23 49  1  0  0  0  0
 23 50  1  0  0  0  0
 24 25  1  0  0  0  0
 24 51  1  0  0  0  0
 24 52  1  0  0  0  0
M  END
> <s_m_source_file>
AV-unprocessed.smi

> <i_m_source_file_index>
232

> <i_lp_mmshare_version>
43012

> <i_f3d_flags>
0

> <s_epik_input>
W0NIM11bQ0gyXVtDQEBIXTFbQ0gyXVtDSDJdW0NAQEhdKFtDSDNdKU4xYyhuW2NIXW4yKWMoYzIzKW5bY0hdbjNbQ0gyXVtDQEhdKFtPSF0pW0NAQEhdNFtDSDJdW0NIMl1bQ0gyXU80

> <s_epik_cmdline>
J2VwaWtfcHl0aG9uJywgJy1waCcsICc3LjAnLCAnLXRuJywgJzgnLCAnLW1hJywgJzIwMCcsICctbWV0YWxfYmluZGluZycsICctaW1hZScsICc8aW5maWxlLm1hZT4nLCAnLW9tYWUnLCAnPG91dGZpbGUubWFlPic=

> <r_lp_tautomer_probability>
1

> <r_epik_Ionization_Penalty>
0.00258048

> <r_epik_Ionization_Penalty_Charging>
0

> <r_epik_Ionization_Penalty_Neutral>
0.00258048

> <r_epik_State_Penalty>
0.00168551

> <r_epik_Charging_Adjusted_Penalty>
0.00168551

> <i_epik_Tot_Q>
0

> <i_epik_Tot_abs_Q>
0

> <r_epik_Metal_State_Penalty>
-0

> <b_epik_Metal_Only>
0

> <s_lp_Force_Field>
OPLS_2005

> <r_lp_Energy>
58.3797

> <b_lp_Chiralities_Consistent>
1

> <s_lp_Variant>
AV-unprocessed.smi:232-1

> <Gold.Version>
5.8.1

> <Gold.Id.Protein>
6NUR|6NUR_protein|mol2

> <Gold.PLP.Fitness>
50.1383

> <Gold.PLP.PLP>
-41.1686

> <Gold.PLP.part.hbond>
-3.0000

> <Gold.PLP.part.metal>
0.0000

> <Gold.PLP.part.buried>
-0.8841

> <Gold.PLP.part.nonpolar>
-36.5775

> <Gold.PLP.part.repulsive>
0.1140

> <Gold.PLP.ligand.clash>
0.0002

> <Gold.PLP.ligand.torsion>
0.2816

> <Gold.PLP.Chemscore.Hbond>
1.9920

> <Gold.PLP.Chemscore.CHOScore>
1.0000

> <Gold.PLP.Chemscore.Metal>
0.0000

> <Gold.Chemscore.Hbonds>
donor molecule, donor type, donor heavy atom, donor atom, acceptor molecule, acceptor atom, score
      L1  H    20    45       P1  7948  0.91
      P1  H  7997  8010       L1    10  0.94
      L1  C    16    41       P1  8028  1.00

> <Gold.PLP.Chemscore.Internal.Correction>
0.5572

> <Gold.Rescore>
     Score         DG    S(hbond)    S(metal)    S(lipo)     H(rot)  DE(clash)    DE(int)     intcor
      9.52     -15.18       1.30        0.00      93.50       2.18       0.57       5.09       ----

> <Gold.Chemscore.Fitness>
9.5152

> <Gold.Chemscore.DG>
-15.1776

> <Gold.Chemscore.ZeroCoef>
-5.4800

> <Gold.Chemscore.Hbond>
1.2972

> <Gold.Chemscore.Metal>
0.0000

> <Gold.Chemscore.Lipo>
93.4974

> <Gold.Chemscore.Internal_Hbond>
0.0000

> <Gold.Chemscore.DEClash>
0.5717

> <Gold.Chemscore.DEInternal>
5.0907

> <Gold.Chemscore.Rot>
2.1775

> <Gold.Chemscore.Internal.Correction>
   9.000000E+99

> <Gold.Chemscore.Hbonds>
donor molecule, donor type, donor heavy atom, donor atom, acceptor molecule, acceptor atom, score
      L1  H    20    45       P1  7948  0.88
      P1  H  7997  8010       L1    10  0.07

> <Gold.Chemscore.Hbond.Weighted>
-4.3328

> <Gold.Chemscore.Metal.Weighted>
-0.0000

> <Gold.Chemscore.Lipo.Weighted>
-10.9392

> <Gold.Chemscore.Internal_Hbond.Weighted>
0.0000

> <Gold.Chemscore.DEClash.Weighted>
0.5717

> <Gold.Chemscore.DEInternal.Weighted>
5.0907

> <Gold.Chemscore.Rot.Weighted>
5.5744

> <Gold.Chemscore.Internal.Correction.Weighted>
   9.000000E+99

> <Gold.Protein.RotatedTorsions>
[ 6907 6896 6895 6894 ] final   63.47 input  -60.11 | X-H torsion
[ 7974 7965 7964 7962 ] final  107.84 input  175.53 | X-H torsion
[ 8008 7997 7996 7995 ] final   19.37 input   59.86 | X-H torsion
[ 10167 10162 10161 10158 ] final   61.09 input  -65.29 | X-H torsion
[ 10718 10713 10712 10709 ] final   75.55 input   66.30 | X-H torsion
[ 10763 10752 10751 10750 ] final  136.72 input  -60.55 | X-H torsion
[ 11005 11000 10999 10996 ] final  118.30 input  -57.11 | X-H torsion

> <Gold.Protein.ActiveResidues>
 VAL166  LYS551  ARG553  GLY616  TRP617  ASP618  TYR619  PRO620  LYS621  CYS622 
 ASP623  PHE694  ASN695  SER759  ASP760  ASP761  ALA762  ILE779  LEU786  VAL792 
 PHE793  MET794  SER795  GLU796  ALA797  LYS798  CYS799  TRP800  GLU811  SER814 

> <Gold.Protein.RotatedAtoms>
  152.4255  134.5875  159.9964 H   0  0  0  0  0  0  0  0  0  0  0  0  # atno 6907 bound_to 6896
  151.6013  133.3350  159.3056 H   0  0  0  0  0  0  0  0  0  0  0  0  # atno 6908 bound_to 6896
  150.8145  134.7356  159.6783 H   0  0  0  0  0  0  0  0  0  0  0  0  # atno 6909 bound_to 6896
  145.2884  139.2609  143.3878 H   0  0  0  0  0  0  0  0  0  0  0  0  # atno 7974 bound_to 7965
  154.9197  140.3025  155.5223 H   0  0  0  0  0  0  0  0  0  0  0  0  # atno 8008 bound_to 7997
  156.3010  140.2374  156.4182 H   0  0  0  0  0  0  0  0  0  0  0  0  # atno 8009 bound_to 7997
  154.8343  140.0417  157.1487 H   0  0  0  0  0  0  0  0  0  0  0  0  # atno 8010 bound_to 7997
  140.1585  144.4393  150.6721 H   0  0  0  0  0  0  0  0  0  0  0  0  # atno 10167 bound_to 10162
  157.6638  130.9731  150.1369 H   0  0  0  0  0  0  0  0  0  0  0  0  # atno 10718 bound_to 10713
  153.8613  135.3067  155.3438 H   0  0  0  0  0  0  0  0  0  0  0  0  # atno 10763 bound_to 10752
  154.7848  135.4816  153.9924 H   0  0  0  0  0  0  0  0  0  0  0  0  # atno 10764 bound_to 10752
  153.1460  135.6834  153.9048 H   0  0  0  0  0  0  0  0  0  0  0  0  # atno 10765 bound_to 10752
  139.9104  134.9619  156.7482 H   0  0  0  0  0  0  0  0  0  0  0  0  # atno 11005 bound_to 11000
  146.3193  140.3368  142.8645 LP  0  0  0  0  0  0  0  0  0  0  0  0  # atno 17320 bound_to 7965
  144.9194  140.7850  143.5758 LP  0  0  0  0  0  0  0  0  0  0  0  0  # atno 17321 bound_to 7965
  140.6658  143.2267  151.5747 LP  0  0  0  0  0  0  0  0  0  0  0  0  # atno 17342 bound_to 10162
  139.5392  144.2695  152.1315 LP  0  0  0  0  0  0  0  0  0  0  0  0  # atno 17343 bound_to 10162
  156.2202  130.3673  149.8565 LP  0  0  0  0  0  0  0  0  0  0  0  0  # atno 17370 bound_to 10713
  156.6420  130.8709  151.3516 LP  0  0  0  0  0  0  0  0  0  0  0  0  # atno 17371 bound_to 10713
  140.6795  133.9487  155.7902 LP  0  0  0  0  0  0  0  0  0  0  0  0  # atno 17394 bound_to 11000
  141.0520  134.0471  157.3771 LP  0  0  0  0  0  0  0  0  0  0  0  0  # atno 17395 bound_to 11000

$$$$
