AV-unprocessed.smi:692|AV-procd|sdf|3371|dock8
  -GOLD-   22720 0353D 1   1.00000     0.00000
 Structure written by MMmdl.
 36 37  0  0  0  0  0  0  0  0  2 V2000
  147.4115  139.9567  153.3863 C   0  0  0  0  0  0  0  0  0  0  0  0
  148.6760  140.6285  153.9331 C   0  0  0  0  0  0  0  0  0  0  0  0
  149.6555  139.6365  154.4824 C   0  0  0  0  0  0  0  0  0  0  0  0
  149.5818  138.2705  154.3959 C   0  0  0  0  0  0  0  0  0  0  0  0
  150.9311  137.5026  155.1827 S   0  0  0  0  0  0  0  0  0  0  0  0
  151.5735  139.0910  155.6067 C   0  0  0  0  0  0  0  0  0  0  0  0
  152.7059  139.3050  156.2959 N   0  5  0  0  0  0  0  0  0  0  0  0
  152.6459  139.6908  157.5908 C   0  0  0  0  0  0  0  0  0  0  0  0
  153.0162  139.0343  158.5671 O   0  0  0  0  0  0  0  0  0  0  0  0
  152.1213  140.9123  157.7657 N   0  0  0  0  0  0  0  0  0  0  0  0
  151.9271  141.5876  159.0458 C   0  0  1  0  0  0  0  0  0  0  0  0
  153.1913  141.4583  159.8971 C   0  0  0  0  0  0  0  0  0  0  0  0
  152.9877  142.1273  161.2616 C   0  0  0  0  0  0  0  0  0  0  0  0
  152.3740  143.5331  161.1737 C   0  0  0  0  0  0  0  0  0  0  0  0
  152.4934  144.2796  162.1458 O   0  0  0  0  0  0  0  0  0  0  0  0
  151.6996  143.8958  160.0556 N   0  0  0  0  0  0  0  0  0  0  0  0
  151.0768  145.2174  159.9644 C   0  0  0  0  0  0  0  0  0  0  0  0
  151.5926  143.0777  158.8375 C   0  0  0  0  0  0  0  0  0  0  0  0
  150.7849  140.0813  155.1750 N   0  0  0  0  0  0  0  0  0  0  0  0
  146.7168  140.6982  152.9915 H   0  0  0  0  0  0  0  0  0  0  0  0
  146.8936  139.3975  154.1662 H   0  0  0  0  0  0  0  0  0  0  0  0
  147.6530  139.2628  152.5807 H   0  0  0  0  0  0  0  0  0  0  0  0
  149.1423  141.2139  153.1401 H   0  0  0  0  0  0  0  0  0  0  0  0
  148.3967  141.3438  154.7077 H   0  0  0  0  0  0  0  0  0  0  0  0
  148.8188  137.6711  153.9224 H   0  0  0  0  0  0  0  0  0  0  0  0
  151.8332  141.4128  156.9377 H   0  0  0  0  0  0  0  0  0  0  0  0
  151.1068  141.1059  159.5816 H   0  0  0  0  0  0  0  0  0  0  0  0
  153.4436  140.4069  160.0399 H   0  0  0  0  0  0  0  0  0  0  0  0
  154.0391  141.9146  159.3838 H   0  0  0  0  0  0  0  0  0  0  0  0
  152.3215  141.5151  161.8704 H   0  0  0  0  0  0  0  0  0  0  0  0
  153.9375  142.1783  161.7947 H   0  0  0  0  0  0  0  0  0  0  0  0
  150.2815  145.3160  160.7045 H   0  0  0  0  0  0  0  0  0  0  0  0
  150.6391  145.3998  158.9821 H   0  0  0  0  0  0  0  0  0  0  0  0
  151.8107  146.0048  160.1431 H   0  0  0  0  0  0  0  0  0  0  0  0
  152.2719  143.5063  158.0987 H   0  0  0  0  0  0  0  0  0  0  0  0
  150.5876  143.1651  158.4219 H   0  0  0  0  0  0  0  0  0  0  0  0
  1  2  1  0  0  0  0
  1 20  1  0  0  0  0
  1 21  1  0  0  0  0
  1 22  1  0  0  0  0
  2  3  1  0  0  0  0
  2 23  1  0  0  0  0
  2 24  1  0  0  0  0
  3 19  1  0  0  0  0
  3  4  2  0  0  0  0
  4  5  1  0  0  0  0
  4 25  1  0  0  0  0
  5  6  1  0  0  0  0
  6  7  1  0  0  0  0
  6 19  2  0  0  0  0
  7  8  1  0  0  0  0
  8  9  2  0  0  0  0
  8 10  1  0  0  0  0
 10 11  1  0  0  0  0
 10 26  1  0  0  0  0
 11 18  1  0  0  0  0
 11 12  1  0  0  0  0
 11 27  1  0  0  0  0
 12 13  1  0  0  0  0
 12 28  1  0  0  0  0
 12 29  1  0  0  0  0
 13 14  1  0  0  0  0
 13 30  1  0  0  0  0
 13 31  1  0  0  0  0
 14 15  2  0  0  0  0
 14 16  1  0  0  0  0
 16 17  1  0  0  0  0
 16 18  1  0  0  0  0
 17 32  1  0  0  0  0
 17 33  1  0  0  0  0
 17 34  1  0  0  0  0
 18 35  1  0  0  0  0
 18 36  1  0  0  0  0
M  CHG  1   7  -1
M  END
> <s_m_source_file>
AV-unprocessed.smi

> <i_m_source_file_index>
692

> <i_lp_mmshare_version>
43012

> <i_f3d_flags>
0

> <s_epik_input>
W0NIM11bQ0gyXWMxW2NIXXNjKG4xKVtOSF1DKD1PKVtOSF1bQ0BASF0yW0NIMl1bQ0gyXUMoPU8pTihbQ0gzXSlbQ0gyXTI=

> <s_epik_cmdline>
J2VwaWtfcHl0aG9uJywgJy1waCcsICc3LjAnLCAnLXRuJywgJzgnLCAnLW1hJywgJzIwMCcsICctbWV0YWxfYmluZGluZycsICctaW1hZScsICc8aW5maWxlLm1hZT4nLCAnLW9tYWUnLCAnPG91dGZpbGUubWFlPic=

> <r_lp_tautomer_probability>
1

> <r_epik_Ionization_Penalty>
7.06728

> <r_epik_Ionization_Penalty_Charging>
5.78908

> <r_epik_Ionization_Penalty_Neutral>
1.2782

> <r_epik_State_Penalty>
5.78905

> <r_epik_Charging_Adjusted_Penalty>
11.5781

> <i_epik_Tot_Q>
-1

> <i_epik_Tot_abs_Q>
1

> <r_epik_Metal_State_Penalty>
1.76044

> <b_epik_Metal_Only>
1

> <s_lp_Force_Field>
OPLS_2005

> <r_lp_Energy>
4.22105

> <b_lp_Chiralities_Consistent>
1

> <s_lp_Variant>
AV-unprocessed.smi:692-4

> <Gold.Version>
5.8.1

> <Gold.Id.Protein>
6NUR|6NUR_protein|mol2

> <Gold.PLP.Fitness>
43.9033

> <Gold.PLP.PLP>
-38.2103

> <Gold.PLP.part.hbond>
-2.3068

> <Gold.PLP.part.metal>
0.0000

> <Gold.PLP.part.buried>
-1.7877

> <Gold.PLP.part.nonpolar>
-35.1559

> <Gold.PLP.part.repulsive>
0.3166

> <Gold.PLP.ligand.clash>
0.0000

> <Gold.PLP.ligand.torsion>
1.5390

> <Gold.PLP.Chemscore.Hbond>
1.9216

> <Gold.PLP.Chemscore.CHOScore>
0.9990

> <Gold.PLP.Chemscore.Metal>
0.0000

> <Gold.Chemscore.Hbonds>
donor molecule, donor type, donor heavy atom, donor atom, acceptor molecule, acceptor atom, score
      P1  H  7989  7998       L1    19  0.64
      P1  H  7997  8009       L1     7  1.19
      L1  C     4    25       P1  7948  0.97

> <Gold.PLP.Chemscore.Internal.Correction>
0.0091

> <Gold.Rescore>
     Score         DG    S(hbond)    S(metal)    S(lipo)     H(rot)  DE(clash)    DE(int)     intcor
      8.49     -12.31       0.22        0.00      78.94       1.23       1.18       2.64       ----

> <Gold.Chemscore.Fitness>
8.4908

> <Gold.Chemscore.DG>
-12.3062

> <Gold.Chemscore.ZeroCoef>
-5.4800

> <Gold.Chemscore.Hbond>
0.2176

> <Gold.Chemscore.Metal>
0.0000

> <Gold.Chemscore.Lipo>
78.9364

> <Gold.Chemscore.Internal_Hbond>
0.0000

> <Gold.Chemscore.DEClash>
1.1751

> <Gold.Chemscore.DEInternal>
2.6403

> <Gold.Chemscore.Rot>
1.2251

> <Gold.Chemscore.Internal.Correction>
   9.000000E+99

> <Gold.Chemscore.Hbonds>
donor molecule, donor type, donor heavy atom, donor atom, acceptor molecule, acceptor atom, score
      P1  H  7989  7998       L1    19  0.03
      P1  H  7997  8009       L1     7  0.05

> <Gold.Chemscore.Hbond.Weighted>
-0.7269

> <Gold.Chemscore.Metal.Weighted>
-0.0000

> <Gold.Chemscore.Lipo.Weighted>
-9.2356

> <Gold.Chemscore.Internal_Hbond.Weighted>
0.0000

> <Gold.Chemscore.DEClash.Weighted>
1.1751

> <Gold.Chemscore.DEInternal.Weighted>
2.6403

> <Gold.Chemscore.Rot.Weighted>
3.1362

> <Gold.Chemscore.Internal.Correction.Weighted>
   9.000000E+99

> <Gold.Protein.RotatedTorsions>
[ 6907 6896 6895 6894 ] final  128.83 input  -60.11 | X-H torsion
[ 7974 7965 7964 7962 ] final  -75.52 input  175.53 | X-H torsion
[ 8008 7997 7996 7995 ] final -140.12 input   59.86 | X-H torsion
[ 10167 10162 10161 10158 ] final  -33.71 input  -65.29 | X-H torsion
[ 10718 10713 10712 10709 ] final -119.18 input   66.30 | X-H torsion
[ 10763 10752 10751 10750 ] final  113.52 input  -60.55 | X-H torsion
[ 11005 11000 10999 10996 ] final  -41.38 input  -57.11 | X-H torsion

> <Gold.Protein.ActiveResidues>
 VAL166  LYS551  ARG553  GLY616  TRP617  ASP618  TYR619  PRO620  LYS621  CYS622 
 ASP623  PHE694  ASN695  SER759  ASP760  ASP761  ALA762  ILE779  LEU786  VAL792 
 PHE793  MET794  SER795  GLU796  ALA797  LYS798  CYS799  TRP800  GLU811  SER814 

> <Gold.Protein.RotatedAtoms>
  152.3682  133.6384  159.6066 H   0  0  0  0  0  0  0  0  0  0  0  0  # atno 6907 bound_to 6896
  150.7649  133.9314  159.3437 H   0  0  0  0  0  0  0  0  0  0  0  0  # atno 6908 bound_to 6896
  151.7141  135.0908  160.0324 H   0  0  0  0  0  0  0  0  0  0  0  0  # atno 6909 bound_to 6896
  145.6249  140.9353  143.1118 H   0  0  0  0  0  0  0  0  0  0  0  0  # atno 7974 bound_to 7965
  155.4561  140.0542  157.2996 H   0  0  0  0  0  0  0  0  0  0  0  0  # atno 8008 bound_to 7997
  154.4757  140.2060  155.9840 H   0  0  0  0  0  0  0  0  0  0  0  0  # atno 8009 bound_to 7997
  156.1127  140.3201  155.8100 H   0  0  0  0  0  0  0  0  0  0  0  0  # atno 8010 bound_to 7997
  140.7199  143.3600  151.1982 H   0  0  0  0  0  0  0  0  0  0  0  0  # atno 10167 bound_to 10162
  156.1162  130.6287  150.9384 H   0  0  0  0  0  0  0  0  0  0  0  0  # atno 10718 bound_to 10713
  153.4937  135.3653  155.2505 H   0  0  0  0  0  0  0  0  0  0  0  0  # atno 10763 bound_to 10752
  154.8751  135.3983  154.3559 H   0  0  0  0  0  0  0  0  0  0  0  0  # atno 10764 bound_to 10752
  153.4183  135.7079  153.6377 H   0  0  0  0  0  0  0  0  0  0  0  0  # atno 10765 bound_to 10752
  141.0242  133.6849  156.2449 H   0  0  0  0  0  0  0  0  0  0  0  0  # atno 11005 bound_to 11000
  144.7216  139.8011  143.7380 LP  0  0  0  0  0  0  0  0  0  0  0  0  # atno 17320 bound_to 7965
  146.1402  139.4457  143.0113 LP  0  0  0  0  0  0  0  0  0  0  0  0  # atno 17321 bound_to 7965
  139.7150  143.9315  152.2963 LP  0  0  0  0  0  0  0  0  0  0  0  0  # atno 17342 bound_to 10162
  139.9053  144.6888  150.8621 LP  0  0  0  0  0  0  0  0  0  0  0  0  # atno 17343 bound_to 10162
  157.6345  131.0917  150.8376 LP  0  0  0  0  0  0  0  0  0  0  0  0  # atno 17370 bound_to 10713
  156.8479  130.5070  149.5314 LP  0  0  0  0  0  0  0  0  0  0  0  0  # atno 17371 bound_to 10713
  140.6521  134.5056  157.5578 LP  0  0  0  0  0  0  0  0  0  0  0  0  # atno 17394 bound_to 11000
  139.9165  134.8236  156.1350 LP  0  0  0  0  0  0  0  0  0  0  0  0  # atno 17395 bound_to 11000

$$$$
