AV-unprocessed.smi:104|AV-procd|sdf|995|dock8
  -GOLD-   2262017573D 1   1.00000     0.00000
 Structure written by MMmdl.
 47 49  0  0  0  0  0  0  0  0  1 V2000
  153.2243  137.1112  162.2918 C   0  0  0  0  0  0  0  0  0  0  0  0
  152.8938  137.4059  160.8347 C   0  0  0  0  0  0  0  0  0  0  0  0
  152.1833  136.6492  160.1723 O   0  0  0  0  0  0  0  0  0  0  0  0
  153.4579  138.5452  160.4026 O   0  0  0  0  0  0  0  0  0  0  0  0
  153.1475  139.0471  159.1119 C   0  0  0  0  0  0  0  0  0  0  0  0
  151.8833  139.9127  159.1938 C   0  0  2  0  0  0  0  0  0  0  0  0
  150.7935  139.0876  159.6175 O   0  0  0  0  0  0  0  0  0  0  0  0
  149.8016  139.0650  158.6407 C   0  0  2  0  0  0  0  0  0  0  0  0
  149.2021  137.6993  158.5649 N   0  0  0  0  0  0  0  0  0  0  0  0
  149.7874  136.5252  158.1501 C   0  0  0  0  0  0  0  0  0  0  0  0
  151.6006  136.4439  157.5732 Br  0  0  0  0  0  0  0  0  0  0  0  0
  149.0524  135.4490  158.1819 N   0  0  0  0  0  0  0  0  0  0  0  0
  147.8430  135.9198  158.6784 C   0  0  0  0  0  0  0  0  0  0  0  0
  146.5974  135.3121  158.9780 C   0  0  0  0  0  0  0  0  0  0  0  0
  146.3585  134.0056  158.7977 N   0  0  0  0  0  0  0  0  0  0  0  0
  145.6017  136.0852  159.4712 N   0  0  0  0  0  0  0  0  0  0  0  0
  145.8142  137.3910  159.6630 C   0  0  0  0  0  0  0  0  0  0  0  0
  146.9218  138.0994  159.4293 N   0  0  0  0  0  0  0  0  0  0  0  0
  147.9250  137.3213  158.9283 C   0  0  0  0  0  0  0  0  0  0  0  0
  150.4797  139.4267  157.3309 C   0  0  1  0  0  0  0  0  0  0  0  0
  149.5394  139.9253  156.3885 O   0  0  0  0  0  0  0  0  0  0  0  0
  149.9007  140.0981  155.1080 C   0  0  0  0  0  0  0  0  0  0  0  0
  148.9061  140.9539  154.3352 C   0  0  0  0  0  0  0  0  0  0  0  0
  150.9124  139.6444  154.5733 O   0  0  0  0  0  0  0  0  0  0  0  0
  151.4815  140.4627  157.8140 C   0  0  1  0  0  0  0  0  0  0  0  0
  150.8572  141.7358  157.9604 O   0  0  0  0  0  0  0  0  0  0  0  0
  151.5378  142.7700  158.4833 C   0  0  0  0  0  0  0  0  0  0  0  0
  150.7114  144.0483  158.5203 C   0  0  0  0  0  0  0  0  0  0  0  0
  152.6947  142.7390  158.9027 O   0  0  0  0  0  0  0  0  0  0  0  0
  153.1707  138.0229  162.8875 H   0  0  0  0  0  0  0  0  0  0  0  0
  154.2306  136.7002  162.3750 H   0  0  0  0  0  0  0  0  0  0  0  0
  152.5200  136.3887  162.7047 H   0  0  0  0  0  0  0  0  0  0  0  0
  153.9898  139.6449  158.7622 H   0  0  0  0  0  0  0  0  0  0  0  0
  153.0023  138.2437  158.3888 H   0  0  0  0  0  0  0  0  0  0  0  0
  152.0410  140.7207  159.9096 H   0  0  0  0  0  0  0  0  0  0  0  0
  148.9936  139.7418  158.9200 H   0  0  0  0  0  0  0  0  0  0  0  0
  147.0851  133.4068  158.4324 H   0  0  0  0  0  0  0  0  0  0  0  0
  145.4523  133.6230  159.0254 H   0  0  0  0  0  0  0  0  0  0  0  0
  144.9786  137.9487  160.0602 H   0  0  0  0  0  0  0  0  0  0  0  0
  150.9995  138.5423  156.9578 H   0  0  0  0  0  0  0  0  0  0  0  0
  147.8840  140.6484  154.5610 H   0  0  0  0  0  0  0  0  0  0  0  0
  149.0673  140.8517  153.2617 H   0  0  0  0  0  0  0  0  0  0  0  0
  149.0227  142.0037  154.6046 H   0  0  0  0  0  0  0  0  0  0  0  0
  152.3273  140.5291  157.1276 H   0  0  0  0  0  0  0  0  0  0  0  0
  150.2465  144.2281  157.5507 H   0  0  0  0  0  0  0  0  0  0  0  0
  151.3408  144.9041  158.7650 H   0  0  0  0  0  0  0  0  0  0  0  0
  149.9267  143.9690  159.2728 H   0  0  0  0  0  0  0  0  0  0  0  0
  1  2  1  0  0  0  0
  1 30  1  0  0  0  0
  1 31  1  0  0  0  0
  1 32  1  0  0  0  0
  2  3  2  0  0  0  0
  2  4  1  0  0  0  0
  4  5  1  0  0  0  0
  5  6  1  0  0  0  0
  5 33  1  0  0  0  0
  5 34  1  0  0  0  0
  6 25  1  0  0  0  0
  6  7  1  0  0  0  0
  6 35  1  0  0  0  0
  7  8  1  0  0  0  0
  8  9  1  0  0  0  0
  8 20  1  0  0  0  0
  8 36  1  0  0  0  0
  9 19  1  0  0  0  0
  9 10  1  0  0  0  0
 10 11  1  0  0  0  0
 10 12  2  0  0  0  0
 12 13  1  0  0  0  0
 13 19  2  0  0  0  0
 13 14  1  0  0  0  0
 14 15  1  0  0  0  0
 14 16  2  0  0  0  0
 15 37  1  0  0  0  0
 15 38  1  0  0  0  0
 16 17  1  0  0  0  0
 17 18  2  0  0  0  0
 17 39  1  0  0  0  0
 18 19  1  0  0  0  0
 20 21  1  0  0  0  0
 20 25  1  0  0  0  0
 20 40  1  0  0  0  0
 21 22  1  0  0  0  0
 22 23  1  0  0  0  0
 22 24  2  0  0  0  0
 23 41  1  0  0  0  0
 23 42  1  0  0  0  0
 23 43  1  0  0  0  0
 25 26  1  0  0  0  0
 25 44  1  0  0  0  0
 26 27  1  0  0  0  0
 27 28  1  0  0  0  0
 27 29  2  0  0  0  0
 28 45  1  0  0  0  0
 28 46  1  0  0  0  0
 28 47  1  0  0  0  0
M  END
> <s_m_source_file>
AV-unprocessed.smi

> <i_m_source_file_index>
104

> <i_lp_mmshare_version>
43012

> <i_f3d_flags>
0

> <s_epik_input>
W0NIM11DKD1PKU9bQ0gyXVtDQEBIXTFPW0NASF0oW0NAQEhdKE9DKD1PKVtDSDNdKVtDQEhdMU9DKD1PKVtDSDNdKW4oYyhCciluMiljKGMyMyluW2NIXW5jM1tOSDJd

> <s_epik_cmdline>
J2VwaWtfcHl0aG9uJywgJy1waCcsICc3LjAnLCAnLXRuJywgJzgnLCAnLW1hJywgJzIwMCcsICctbWV0YWxfYmluZGluZycsICctaW1hZScsICc8aW5maWxlLm1hZT4nLCAnLW9tYWUnLCAnPG91dGZpbGUubWFlPic=

> <r_lp_tautomer_probability>
1

> <r_epik_Ionization_Penalty>
7.36622e-05

> <r_epik_Ionization_Penalty_Charging>
0

> <r_epik_Ionization_Penalty_Neutral>
7.36622e-05

> <r_epik_State_Penalty>
-0

> <r_epik_Charging_Adjusted_Penalty>
0

> <i_epik_Tot_Q>
0

> <i_epik_Tot_abs_Q>
0

> <r_epik_Metal_State_Penalty>
-0

> <b_epik_Metal_Only>
0

> <s_epik_Chemistry_Notes>
This compound has an ester and may undergo hydrolysis at high or low pH. This compound contains an acetal/aminal-like group ( X-CH(R)-Y where X, Y are N, S, or O) that may be acid/base labile, releasing an aldehyde.

> <s_lp_Force_Field>
OPLS_2005

> <r_lp_Energy>
18.6996

> <b_lp_Chiralities_Consistent>
1

> <s_lp_Variant>
AV-unprocessed.smi:104-3

> <Gold.Version>
5.8.1

> <Gold.Id.Protein>
6NUR|6NUR_protein|mol2

> <Gold.PLP.Fitness>
42.1081

> <Gold.PLP.PLP>
-32.3314

> <Gold.PLP.part.hbond>
-5.0000

> <Gold.PLP.part.metal>
0.0000

> <Gold.PLP.part.buried>
-5.1125

> <Gold.PLP.part.nonpolar>
-23.9666

> <Gold.PLP.part.repulsive>
0.1569

> <Gold.PLP.ligand.clash>
0.0000

> <Gold.PLP.ligand.torsion>
0.6484

> <Gold.PLP.Chemscore.Hbond>
3.6480

> <Gold.PLP.Chemscore.CHOScore>
0.0000

> <Gold.PLP.Chemscore.Metal>
0.0000

> <Gold.Chemscore.Hbonds>
donor molecule, donor type, donor heavy atom, donor atom, acceptor molecule, acceptor atom, score
      P1  H  6896  6907       L1     3  0.91
      P1  H  6896  6909       L1    12  0.17
      P1  H  6934  6947       L1    18  0.64
      P1  H  7989  7998       L1    24  1.00

> <Gold.PLP.Chemscore.Internal.Correction>
0.1297

> <Gold.Rescore>
     Score         DG    S(hbond)    S(metal)    S(lipo)     H(rot)  DE(clash)    DE(int)     intcor
      6.11      -9.37       2.77        0.00      48.45       4.31       0.97       2.29       ----

> <Gold.Chemscore.Fitness>
6.1053

> <Gold.Chemscore.DG>
-9.3654

> <Gold.Chemscore.ZeroCoef>
-5.4800

> <Gold.Chemscore.Hbond>
2.7672

> <Gold.Chemscore.Metal>
0.0000

> <Gold.Chemscore.Lipo>
48.4507

> <Gold.Chemscore.Internal_Hbond>
0.0000

> <Gold.Chemscore.DEClash>
0.9746

> <Gold.Chemscore.DEInternal>
2.2855

> <Gold.Chemscore.Rot>
4.3070

> <Gold.Chemscore.Internal.Correction>
   9.000000E+99

> <Gold.Chemscore.Hbonds>
donor molecule, donor type, donor heavy atom, donor atom, acceptor molecule, acceptor atom, score
      P1  H  6896  6907       L1     3  0.89
      P1  H  6896  6909       L1    12  0.01
      P1  H  6934  6947       L1    18  0.31
      P1  H  7989  7998       L1    24  0.74

> <Gold.Chemscore.Hbond.Weighted>
-9.2425

> <Gold.Chemscore.Metal.Weighted>
-0.0000

> <Gold.Chemscore.Lipo.Weighted>
-5.6687

> <Gold.Chemscore.Internal_Hbond.Weighted>
0.0000

> <Gold.Chemscore.DEClash.Weighted>
0.9746

> <Gold.Chemscore.DEInternal.Weighted>
2.2855

> <Gold.Chemscore.Rot.Weighted>
11.0259

> <Gold.Chemscore.Internal.Correction.Weighted>
   9.000000E+99

> <Gold.Protein.RotatedTorsions>
[ 6907 6896 6895 6894 ] final   36.86 input  -60.11 | X-H torsion
[ 7974 7965 7964 7962 ] final -109.08 input  175.53 | X-H torsion
[ 8008 7997 7996 7995 ] final  151.54 input   59.86 | X-H torsion
[ 10167 10162 10161 10158 ] final    0.75 input  -65.29 | X-H torsion
[ 10718 10713 10712 10709 ] final  -33.34 input   66.30 | X-H torsion
[ 10763 10752 10751 10750 ] final   63.86 input  -60.55 | X-H torsion
[ 11005 11000 10999 10996 ] final -124.54 input  -57.11 | X-H torsion

> <Gold.Protein.ActiveResidues>
 VAL166  LYS551  ARG553  GLY616  TRP617  ASP618  TYR619  PRO620  LYS621  CYS622 
 ASP623  PHE694  ASN695  SER759  ASP760  ASP761  ALA762  ILE779  LEU786  VAL792 
 PHE793  MET794  SER795  GLU796  ALA797  LYS798  CYS799  TRP800  GLU811  SER814 

> <Gold.Protein.RotatedAtoms>
  152.1355  134.9102  160.0556 H   0  0  0  0  0  0  0  0  0  0  0  0  # atno 6907 bound_to 6896
  152.0191  133.3886  159.4259 H   0  0  0  0  0  0  0  0  0  0  0  0  # atno 6908 bound_to 6896
  150.6860  134.3568  159.4976 H   0  0  0  0  0  0  0  0  0  0  0  0  # atno 6909 bound_to 6896
  145.1849  140.8988  143.3458 H   0  0  0  0  0  0  0  0  0  0  0  0  # atno 7974 bound_to 7965
  156.2669  140.2045  156.6192 H   0  0  0  0  0  0  0  0  0  0  0  0  # atno 8008 bound_to 7997
  154.6770  140.0544  157.0251 H   0  0  0  0  0  0  0  0  0  0  0  0  # atno 8009 bound_to 7997
  155.1054  140.3210  155.4538 H   0  0  0  0  0  0  0  0  0  0  0  0  # atno 8010 bound_to 7997
  140.6714  143.7036  150.7932 H   0  0  0  0  0  0  0  0  0  0  0  0  # atno 10167 bound_to 10162
  156.3639  130.4328  149.7601 H   0  0  0  0  0  0  0  0  0  0  0  0  # atno 10718 bound_to 10713
  153.0033  135.5414  154.6418 H   0  0  0  0  0  0  0  0  0  0  0  0  # atno 10763 bound_to 10752
  154.5671  135.2838  155.0865 H   0  0  0  0  0  0  0  0  0  0  0  0  # atno 10764 bound_to 10752
  154.2045  135.6478  153.5149 H   0  0  0  0  0  0  0  0  0  0  0  0  # atno 10765 bound_to 10752
  140.9833  134.0642  157.3740 H   0  0  0  0  0  0  0  0  0  0  0  0  # atno 11005 bound_to 11000
  145.0098  139.3520  143.6125 LP  0  0  0  0  0  0  0  0  0  0  0  0  # atno 17320 bound_to 7965
  146.3446  139.9356  142.8747 LP  0  0  0  0  0  0  0  0  0  0  0  0  # atno 17321 bound_to 7965
  140.0723  143.5049  152.2573 LP  0  0  0  0  0  0  0  0  0  0  0  0  # atno 17342 bound_to 10162
  139.5985  144.7575  151.3228 LP  0  0  0  0  0  0  0  0  0  0  0  0  # atno 17343 bound_to 10162
  156.4754  130.8016  151.3032 LP  0  0  0  0  0  0  0  0  0  0  0  0  # atno 17370 bound_to 10713
  157.7476  131.0022  150.2994 LP  0  0  0  0  0  0  0  0  0  0  0  0  # atno 17371 bound_to 10713
  139.8959  135.0143  156.7027 LP  0  0  0  0  0  0  0  0  0  0  0  0  # atno 17394 bound_to 11000
  140.7153  133.9188  155.8111 LP  0  0  0  0  0  0  0  0  0  0  0  0  # atno 17395 bound_to 11000

$$$$
