#       Name:                AV-unprocessed.smi:1922
#       Creating user name   scv26
#       Creation time:       Fri Mar 27 09:53:14 2020


#       File generated by GOLD software.
#

@<TRIPOS>MOLECULE
AV-unprocessed.smi:1922
    41    42     1
SMALL
NO_CHARGES


@<TRIPOS>ATOM
      1 ****        -0.0393   0.8234  -1.4651 O.2            1 S1                 0.0000
      2 ****         0.6595  -0.1738  -1.2772 C.2            1 S1                 0.0000
      3 ****         2.1935  -0.0829  -1.2849 C.3            1 S1                 0.0000
      4 ****         2.7155   1.2764  -1.0803 N.am           1 S1                 0.0000
      5 ****         3.2691   1.8842  -2.2873 N.pl3          1 S1                -1.0000
      6 ****         3.7660   3.1480  -2.2245 C.2            1 S1                 0.0000
      7 ****         4.2295   3.7313  -3.2017 O.2            1 S1                 0.0000
      8 ****         3.7487   3.8269  -0.9395 C.2            1 S1                 0.0000
      9 ****         3.2557   3.2314   0.1644 C.2            1 S1                 0.0000
     10 ****         2.7065   1.8811   0.1422 C.2            1 S1                 0.0000
     11 ****         2.2647   1.3269   1.1493 O.2            1 S1                 0.0000
     12 ****         0.1522  -1.3975  -1.0632 N.am           1 S1                 0.0000
     13 ****        -1.2668  -1.7294  -0.9903 C.3            1 S1                 0.0000
     14 ****        -1.7589  -1.8055   0.4672 C.3            1 S1                 0.0000
     15 ****        -3.2212  -2.2365   0.5963 C.3            1 S1                 0.0000
     16 ****        -3.6346  -1.8111   2.0091 C.3            1 S1                 0.0000
     17 ****        -2.6929  -0.6630   2.4045 C.3            1 S1                 0.0000
     18 ****        -1.7225  -0.4779   1.2322 C.3            1 S1                 0.0000
     19 ****         2.5962  -0.7410  -0.5127 H              1 S1                 0.0000
     20 ****         2.5487  -0.4918  -2.2325 H              1 S1                 0.0000
     21 ****         4.1423   4.8300  -0.8677 H              1 S1                 0.0000
     22 ****         3.2652   3.7726   1.0984 H              1 S1                 0.0000
     23 ****         0.8037  -2.1564  -0.9255 H              1 S1                 0.0000
     24 ****        -1.8658  -1.0191  -1.5628 H              1 S1                 0.0000
     25 ****        -1.4031  -2.6982  -1.4713 H              1 S1                 0.0000
     26 ****        -1.1466  -2.5283   1.0094 H              1 S1                 0.0000
     27 ****        -3.8307  -1.7044  -0.1358 H              1 S1                 0.0000
     28 ****        -3.3589  -3.3047   0.4262 H              1 S1                 0.0000
     29 ****        -4.6828  -1.5131   2.0463 H              1 S1                 0.0000
     30 ****        -3.5082  -2.6442   2.7015 H              1 S1                 0.0000
     31 ****        -3.2390   0.2575   2.6127 H              1 S1                 0.0000
     32 ****        -2.1459  -0.9286   3.3100 H              1 S1                 0.0000
     33 ****        -0.7180  -0.2115   1.5629 H              1 S1                 0.0000
     34 ****        -2.0807   0.3284   0.5905 H              1 S1                 0.0000
     35 ****         0.3903   1.7119  -1.6263 LP             1 S1                 0.0000
     36 ****        -1.0362   0.7443  -1.4564 LP             1 S1                 0.0000
     37 ****         3.2825   1.3772  -3.1491 LP             1 S1                 0.0000
     38 ****         4.2522   3.2758  -4.0916 LP             1 S1                 0.0000
     39 ****         4.5840   4.6616  -3.1071 LP             1 S1                 0.0000
     40 ****         1.8949   0.3998   1.0883 LP             1 S1                 0.0000
     41 ****         2.2757   1.8040   2.0281 LP             1 S1                 0.0000
@<TRIPOS>BOND
    1    1    2 2     
    2    2    3 1     
    3    2   12 am    
    4    3   19 1     
    5    3   20 1     
    6    3    4 1     
    7    4    5 1     
    8    4   10 am    
    9    5    6 1     
   10    6    7 2     
   11    6    8 1     
   12    8   21 1     
   13    8    9 2     
   14    9   22 1     
   15    9   10 1     
   16   10   11 2     
   17   12   13 1     
   18   12   23 1     
   19   13   14 1     
   20   13   24 1     
   21   13   25 1     
   22   14   18 1     
   23   14   15 1     
   24   14   26 1     
   25   15   16 1     
   26   15   27 1     
   27   15   28 1     
   28   16   17 1     
   29   16   29 1     
   30   16   30 1     
   31   17   18 1     
   32   17   31 1     
   33   17   32 1     
   34   18   33 1     
   35   18   34 1     
   36    1   35 1     
   37    1   36 1     
   38    5   37 1     
   39    7   38 1     
   40    7   39 1     
   41   11   40 1     
   42   11   41 1     
@<TRIPOS>SUBSTRUCTURE
      1 S1             1
@<TRIPOS>SET
LONE_PAIRS      STATIC     ATOMS    <user>   **** ""
7 35 36 37 38 39 40 41
DONOR_HYDROGENS      STATIC     ATOMS    <user>   **** ""
1 23
ATOM$BLUE        STATIC     ATOMS    COLORGROUP SYSTEM
7 35 36 37 38 39 40 41
ATOM$RED        STATIC     ATOMS    COLORGROUP SYSTEM
1 23
