AV-unprocessed.smi:2061|AV-procd|sdf|8363|dock5
  -GOLD-   2272011 33D 1   1.00000     0.00000
 Structure written by MMmdl.
 45 46  0  0  0  0  0  0  0  0  1 V2000
  137.8096  137.3874  154.3479 C   0  0  0  0  0  0  0  0  0  0  0  0
  139.2944  137.2710  154.2970 C   0  0  0  0  0  0  0  0  0  0  0  0
  140.2897  138.1735  154.0469 C   0  0  0  0  0  0  0  0  0  0  0  0
  141.4680  137.3882  154.1571 C   0  0  0  0  0  0  0  0  0  0  0  0
  142.7481  137.9666  153.9617 N   0  0  0  0  0  0  0  0  0  0  0  0
  143.9091  137.5985  154.5298 C   0  0  0  0  0  0  0  0  0  0  0  0
  144.0414  136.6792  155.3380 O   0  0  0  0  0  0  0  0  0  0  0  0
  144.9214  138.3699  154.1065 N   0  0  0  0  0  0  0  0  0  0  0  0
  146.3175  138.2479  154.5209 C   0  0  0  0  0  0  0  0  0  0  0  0
  146.9389  139.6043  154.9604 C   0  0  1  0  0  0  0  0  0  0  0  0
  146.1214  140.1710  156.1493 C   0  0  0  0  0  0  0  0  0  0  0  0
  148.3894  139.5134  155.2539 N   0  0  0  0  0  0  0  0  0  0  0  0
  148.9697  140.8014  155.6463 C   0  0  0  0  0  0  0  0  0  0  0  0
  150.4697  140.7060  155.9779 C   0  0  2  0  0  0  0  0  0  0  0  0
  151.0744  142.0748  156.3084 C   0  0  0  0  0  0  0  0  0  0  0  0
  151.1706  140.1739  154.8591 O   0  0  0  0  0  0  0  0  0  0  0  0
  150.6826  138.9183  154.3927 C   0  0  1  0  0  0  0  0  0  0  0  0
  151.0760  137.7646  155.3312 C   0  0  0  0  0  0  0  0  0  0  0  0
  149.1668  138.9959  154.1217 C   0  0  0  0  0  0  0  0  0  0  0  0
  141.2150  136.1213  154.4479 N   0  0  0  0  0  0  0  0  0  0  0  0
  139.8204  136.0396  154.5381 O   0  0  0  0  0  0  0  0  0  0  0  0
  137.5029  138.4329  154.3861 H   0  0  0  0  0  0  0  0  0  0  0  0
  137.4111  136.8858  155.2300 H   0  0  0  0  0  0  0  0  0  0  0  0
  137.3568  136.9337  153.4663 H   0  0  0  0  0  0  0  0  0  0  0  0
  140.1876  139.2249  153.8218 H   0  0  0  0  0  0  0  0  0  0  0  0
  142.7835  138.7441  153.3193 H   0  0  0  0  0  0  0  0  0  0  0  0
  144.7123  139.1018  153.4436 H   0  0  0  0  0  0  0  0  0  0  0  0
  146.4392  137.5088  155.3146 H   0  0  0  0  0  0  0  0  0  0  0  0
  146.8235  137.8440  153.6465 H   0  0  0  0  0  0  0  0  0  0  0  0
  146.8086  140.2975  154.1279 H   0  0  0  0  0  0  0  0  0  0  0  0
  145.0512  140.1933  155.9481 H   0  0  0  0  0  0  0  0  0  0  0  0
  146.3825  141.2031  156.3780 H   0  0  0  0  0  0  0  0  0  0  0  0
  146.2718  139.5752  157.0502 H   0  0  0  0  0  0  0  0  0  0  0  0
  148.8140  141.5336  154.8523 H   0  0  0  0  0  0  0  0  0  0  0  0
  148.4768  141.1897  156.5353 H   0  0  0  0  0  0  0  0  0  0  0  0
  150.6106  140.0540  156.8403 H   0  0  0  0  0  0  0  0  0  0  0  0
  150.5774  142.5275  157.1667 H   0  0  0  0  0  0  0  0  0  0  0  0
  150.9808  142.7610  155.4663 H   0  0  0  0  0  0  0  0  0  0  0  0
  152.1341  141.9847  156.5483 H   0  0  0  0  0  0  0  0  0  0  0  0
  151.1810  138.7340  153.4406 H   0  0  0  0  0  0  0  0  0  0  0  0
  150.8025  136.8027  154.8970 H   0  0  0  0  0  0  0  0  0  0  0  0
  150.5814  137.8352  156.2997 H   0  0  0  0  0  0  0  0  0  0  0  0
  152.1522  137.7540  155.5044 H   0  0  0  0  0  0  0  0  0  0  0  0
  148.8412  137.9943  153.8486 H   0  0  0  0  0  0  0  0  0  0  0  0
  148.9965  139.6287  153.2493 H   0  0  0  0  0  0  0  0  0  0  0  0
  1  2  1  0  0  0  0
  1 22  1  0  0  0  0
  1 23  1  0  0  0  0
  1 24  1  0  0  0  0
  2 21  1  0  0  0  0
  2  3  2  0  0  0  0
  3  4  1  0  0  0  0
  3 25  1  0  0  0  0
  4  5  1  0  0  0  0
  4 20  2  0  0  0  0
  5  6  1  0  0  0  0
  5 26  1  0  0  0  0
  6  7  2  0  0  0  0
  6  8  1  0  0  0  0
  8  9  1  0  0  0  0
  8 27  1  0  0  0  0
  9 10  1  0  0  0  0
  9 28  1  0  0  0  0
  9 29  1  0  0  0  0
 10 11  1  0  0  0  0
 10 12  1  0  0  0  0
 10 30  1  0  0  0  0
 11 31  1  0  0  0  0
 11 32  1  0  0  0  0
 11 33  1  0  0  0  0
 12 19  1  0  0  0  0
 12 13  1  0  0  0  0
 13 14  1  0  0  0  0
 13 34  1  0  0  0  0
 13 35  1  0  0  0  0
 14 15  1  0  0  0  0
 14 16  1  0  0  0  0
 14 36  1  0  0  0  0
 15 37  1  0  0  0  0
 15 38  1  0  0  0  0
 15 39  1  0  0  0  0
 16 17  1  0  0  0  0
 17 18  1  0  0  0  0
 17 19  1  0  0  0  0
 17 40  1  0  0  0  0
 18 41  1  0  0  0  0
 18 42  1  0  0  0  0
 18 43  1  0  0  0  0
 19 44  1  0  0  0  0
 19 45  1  0  0  0  0
 20 21  1  0  0  0  0
M  END
> <s_m_source_file>
AV-unprocessed.smi

> <i_m_source_file_index>
2061

> <i_lp_mmshare_version>
43012

> <i_f3d_flags>
0

> <s_epik_input>
W0NIM11jMVtjSF1jKG5vMSlbTkhdQyg9TylbTkhdW0NIMl1bQ0BIXShbQ0gzXSlOMltDSDJdW0NAQEhdKFtDSDNdKU9bQ0BASF0oW0NIM10pW0NIMl0y

> <s_epik_cmdline>
J2VwaWtfcHl0aG9uJywgJy1waCcsICc3LjAnLCAnLXRuJywgJzgnLCAnLW1hJywgJzIwMCcsICctbWV0YWxfYmluZGluZycsICctaW1hZScsICc8aW5maWxlLm1hZT4nLCAnLW9tYWUnLCAnPG91dGZpbGUubWFlPic=

> <r_epik_Ionization_Penalty>
0.214073

> <r_epik_Ionization_Penalty_Charging>
0

> <r_epik_Ionization_Penalty_Neutral>
0.214073

> <r_epik_State_Penalty>
0.204211

> <r_epik_Charging_Adjusted_Penalty>
0.204211

> <i_epik_Tot_Q>
0

> <i_epik_Tot_abs_Q>
0

> <r_epik_Metal_State_Penalty>
0.217067

> <b_epik_Metal_Only>
0

> <s_lp_Force_Field>
OPLS_2005

> <r_lp_Energy>
29.4213

> <b_lp_Chiralities_Consistent>
1

> <s_lp_Variant>
AV-unprocessed.smi:2061-4

> <Gold.Version>
5.8.1

> <Gold.Id.Protein>
6NUR|6NUR_protein|mol2

> <Gold.PLP.Fitness>
39.6042

> <Gold.PLP.PLP>
-29.4187

> <Gold.PLP.part.hbond>
-4.4448

> <Gold.PLP.part.metal>
0.0000

> <Gold.PLP.part.buried>
-5.4712

> <Gold.PLP.part.nonpolar>
-19.2194

> <Gold.PLP.part.repulsive>
0.3159

> <Gold.PLP.ligand.clash>
0.0000

> <Gold.PLP.ligand.torsion>
0.2556

> <Gold.PLP.Chemscore.Hbond>
3.5568

> <Gold.PLP.Chemscore.CHOScore>
0.0000

> <Gold.PLP.Chemscore.Metal>
0.0000

> <Gold.Chemscore.Hbonds>
donor molecule, donor type, donor heavy atom, donor atom, acceptor molecule, acceptor atom, score
      L1  H     5    26       P1 10175  0.91
      L1  H     8    27       P1 10175  1.00
      P1  H  7989  7998       L1    16  1.00
      P1  H 11000 11005       L1    21  0.45

> <Gold.PLP.Chemscore.Internal.Correction>
0.0264

> <Gold.Rescore>
     Score         DG    S(hbond)    S(metal)    S(lipo)     H(rot)  DE(clash)    DE(int)     intcor
     18.22     -18.68       2.83        0.00      65.87       1.55       0.04       0.43       ----

> <Gold.Chemscore.Fitness>
18.2167

> <Gold.Chemscore.DG>
-18.6823

> <Gold.Chemscore.ZeroCoef>
-5.4800

> <Gold.Chemscore.Hbond>
2.8314

> <Gold.Chemscore.Metal>
0.0000

> <Gold.Chemscore.Lipo>
65.8680

> <Gold.Chemscore.Internal_Hbond>
0.0000

> <Gold.Chemscore.DEClash>
0.0363

> <Gold.Chemscore.DEInternal>
0.4293

> <Gold.Chemscore.Rot>
1.5474

> <Gold.Chemscore.Internal.Correction>
   9.000000E+99

> <Gold.Chemscore.Hbonds>
donor molecule, donor type, donor heavy atom, donor atom, acceptor molecule, acceptor atom, score
      L1  H     5    26       P1 10175  0.85
      L1  H     8    27       P1 10175  0.98
      P1  H  7989  7998       L1    16  0.34
      P1  H 11000 11005       L1    21  0.02

> <Gold.Chemscore.Hbond.Weighted>
-9.4569

> <Gold.Chemscore.Metal.Weighted>
-0.0000

> <Gold.Chemscore.Lipo.Weighted>
-7.7066

> <Gold.Chemscore.Internal_Hbond.Weighted>
0.0000

> <Gold.Chemscore.DEClash.Weighted>
0.0363

> <Gold.Chemscore.DEInternal.Weighted>
0.4293

> <Gold.Chemscore.Rot.Weighted>
3.9612

> <Gold.Chemscore.Internal.Correction.Weighted>
   9.000000E+99

> <Gold.Protein.RotatedTorsions>
[ 6907 6896 6895 6894 ] final -129.02 input  -60.11 | X-H torsion
[ 7974 7965 7964 7962 ] final    1.19 input  175.53 | X-H torsion
[ 8008 7997 7996 7995 ] final   -9.22 input   59.86 | X-H torsion
[ 10167 10162 10161 10158 ] final  165.72 input  -65.29 | X-H torsion
[ 10718 10713 10712 10709 ] final   49.21 input   66.30 | X-H torsion
[ 10763 10752 10751 10750 ] final  172.32 input  -60.55 | X-H torsion
[ 11005 11000 10999 10996 ] final   59.78 input  -57.11 | X-H torsion

> <Gold.Protein.ActiveResidues>
 VAL166  LYS551  ARG553  GLY616  TRP617  ASP618  TYR619  PRO620  LYS621  CYS622 
 ASP623  PHE694  ASN695  SER759  ASP760  ASP761  ALA762  ILE779  LEU786  VAL792 
 PHE793  MET794  SER795  GLU796  ALA797  LYS798  CYS799  TRP800  GLU811  SER814 

> <Gold.Protein.RotatedAtoms>
  150.9242  133.6844  159.2825 H   0  0  0  0  0  0  0  0  0  0  0  0  # atno 6907 bound_to 6896
  151.4288  135.1006  159.9646 H   0  0  0  0  0  0  0  0  0  0  0  0  # atno 6908 bound_to 6896
  152.4994  133.8676  159.7337 H   0  0  0  0  0  0  0  0  0  0  0  0  # atno 6909 bound_to 6896
  146.2439  140.1024  142.8347 H   0  0  0  0  0  0  0  0  0  0  0  0  # atno 7974 bound_to 7965
  154.5667  140.2360  155.8253 H   0  0  0  0  0  0  0  0  0  0  0  0  # atno 8008 bound_to 7997
  156.2074  140.3036  155.9615 H   0  0  0  0  0  0  0  0  0  0  0  0  # atno 8009 bound_to 7997
  155.2788  140.0421  157.3004 H   0  0  0  0  0  0  0  0  0  0  0  0  # atno 8010 bound_to 7997
  139.4911  144.4102  151.9308 H   0  0  0  0  0  0  0  0  0  0  0  0  # atno 10167 bound_to 10162
  157.4764  130.8287  149.8044 H   0  0  0  0  0  0  0  0  0  0  0  0  # atno 10718 bound_to 10713
  154.4244  135.2758  155.1954 H   0  0  0  0  0  0  0  0  0  0  0  0  # atno 10763 bound_to 10752
  154.3886  135.6071  153.5834 H   0  0  0  0  0  0  0  0  0  0  0  0  # atno 10764 bound_to 10752
  152.9834  135.5898  154.4545 H   0  0  0  0  0  0  0  0  0  0  0  0  # atno 10765 bound_to 10752
  140.0279  134.6056  155.9548 H   0  0  0  0  0  0  0  0  0  0  0  0  # atno 11005 bound_to 11000
  145.0557  140.9050  143.4969 LP  0  0  0  0  0  0  0  0  0  0  0  0  # atno 17320 bound_to 7965
  145.1130  139.2744  143.5627 LP  0  0  0  0  0  0  0  0  0  0  0  0  # atno 17321 bound_to 7965
  140.3543  144.3050  150.5944 LP  0  0  0  0  0  0  0  0  0  0  0  0  # atno 17342 bound_to 10162
  140.5458  143.2215  151.8010 LP  0  0  0  0  0  0  0  0  0  0  0  0  # atno 17343 bound_to 10162
  156.0099  130.3838  150.2301 LP  0  0  0  0  0  0  0  0  0  0  0  0  # atno 17370 bound_to 10713
  157.0485  131.0056  151.3261 LP  0  0  0  0  0  0  0  0  0  0  0  0  # atno 17371 bound_to 10713
  141.1813  133.6547  156.5033 LP  0  0  0  0  0  0  0  0  0  0  0  0  # atno 17394 bound_to 11000
  140.4276  134.7131  157.4924 LP  0  0  0  0  0  0  0  0  0  0  0  0  # atno 17395 bound_to 11000

$$$$
