AV-unprocessed.smi:157|AV-procd|sdf|1301|dock6
  -GOLD-   2262018593D 1   1.00000     0.00000
 Structure written by MMmdl.
 35 37  0  0  0  0  0  0  0  0  1 V2000
  156.6038  138.3334  158.0127 O   0  0  0  0  0  0  0  0  0  0  0  0
  155.6488  137.4407  158.5454 C   0  0  0  0  0  0  0  0  0  0  0  0
  154.4908  138.2218  159.1897 C   0  0  1  0  0  0  0  0  0  0  0  0
  153.9044  139.1280  158.2641 O   0  0  0  0  0  0  0  0  0  0  0  0
  152.6349  139.5017  158.7138 C   0  0  2  0  0  0  0  0  0  0  0  0
  152.7253  140.8493  159.3712 N   0  0  0  0  0  0  0  0  0  0  0  0
  153.3766  141.1595  160.5016 C   0  0  0  0  0  0  0  0  0  0  0  0
  153.2962  142.4316  160.8524 N   0  0  0  0  0  0  0  0  0  0  0  0
  152.5191  143.0081  159.8500 C   0  0  0  0  0  0  0  0  0  0  0  0
  152.1585  142.0449  158.9191 C   0  0  0  0  0  0  0  0  0  0  0  0
  151.4332  142.0195  157.7429 N   0  0  0  0  0  0  0  0  0  0  0  0
  150.6181  142.9997  157.5106 C   0  0  0  0  0  0  0  0  0  0  0  0
  150.4004  144.1705  158.2225 N   0  0  0  0  0  0  0  0  0  0  0  0
  151.4745  145.0353  158.6803 C   0  0  0  0  0  0  0  0  0  0  0  0
  152.2331  144.4813  159.8928 C   0  0  1  0  0  0  0  0  0  0  0  0
  151.4791  144.7208  161.0636 O   0  0  0  0  0  0  0  0  0  0  0  0
  152.1829  138.4450  159.7376 C   0  0  0  0  0  0  0  0  0  0  0  0
  153.2903  137.4059  159.6844 C   0  0  1  0  0  0  0  0  0  0  0  0
  152.9512  136.3612  158.7923 O   0  0  0  0  0  0  0  0  0  0  0  0
  154.8797  138.8101  160.0229 H   0  0  0  0  0  0  0  0  0  0  0  0
  151.9496  139.6414  157.8771 H   0  0  0  0  0  0  0  0  0  0  0  0
  153.1658  145.0362  159.9993 H   0  0  0  0  0  0  0  0  0  0  0  0
  153.4799  136.9688  160.6652 H   0  0  0  0  0  0  0  0  0  0  0  0
  156.7207  138.1352  157.0960 H   0  0  0  0  0  0  0  0  0  0  0  0
  155.2690  136.8206  157.7330 H   0  0  0  0  0  0  0  0  0  0  0  0
  156.1278  136.7692  159.2580 H   0  0  0  0  0  0  0  0  0  0  0  0
  153.9285  140.4389  161.0867 H   0  0  0  0  0  0  0  0  0  0  0  0
  149.9853  142.9478  156.6234 H   0  0  0  0  0  0  0  0  0  0  0  0
  149.5612  144.6993  158.0332 H   0  0  0  0  0  0  0  0  0  0  0  0
  152.1742  145.1479  157.8507 H   0  0  0  0  0  0  0  0  0  0  0  0
  151.0859  146.0328  158.8877 H   0  0  0  0  0  0  0  0  0  0  0  0
  151.1602  145.6101  161.0315 H   0  0  0  0  0  0  0  0  0  0  0  0
  152.1266  138.8881  160.7332 H   0  0  0  0  0  0  0  0  0  0  0  0
  151.1990  138.0501  159.4812 H   0  0  0  0  0  0  0  0  0  0  0  0
  153.7236  136.1270  158.3005 H   0  0  0  0  0  0  0  0  0  0  0  0
  1  2  1  0  0  0  0
  1 24  1  0  0  0  0
  2  3  1  0  0  0  0
  2 25  1  0  0  0  0
  2 26  1  0  0  0  0
  3 20  1  0  0  0  0
  3 18  1  0  0  0  0
  3  4  1  0  0  0  0
  4  5  1  0  0  0  0
  5 21  1  0  0  0  0
  5  6  1  0  0  0  0
  5 17  1  0  0  0  0
  6 10  1  0  0  0  0
  6  7  1  0  0  0  0
  7  8  2  0  0  0  0
  7 27  1  0  0  0  0
  8  9  1  0  0  0  0
  9 15  1  0  0  0  0
  9 10  2  0  0  0  0
 10 11  1  0  0  0  0
 11 12  2  0  0  0  0
 12 13  1  0  0  0  0
 12 28  1  0  0  0  0
 13 14  1  0  0  0  0
 13 29  1  0  0  0  0
 14 15  1  0  0  0  0
 14 30  1  0  0  0  0
 14 31  1  0  0  0  0
 15 22  1  0  0  0  0
 15 16  1  0  0  0  0
 16 32  1  0  0  0  0
 17 18  1  0  0  0  0
 17 33  1  0  0  0  0
 17 34  1  0  0  0  0
 18 23  1  0  0  0  0
 18 19  1  0  0  0  0
 19 35  1  0  0  0  0
M  END
> <s_m_source_file>
AV-unprocessed.smi

> <i_m_source_file_index>
157

> <i_lp_mmshare_version>
43012

> <i_f3d_flags>
0

> <s_epik_input>
W09IXVtDSDJdW0NASF0xT1tDQEhdKFtDSDJdW0NAQEhdMVtPSF0pbihbY0hdbjIpYyhjMjMpTj1bQ0hdW05IXVtDSDJdW0NASF0zW09IXQ==

> <s_epik_cmdline>
J2VwaWtfcHl0aG9uJywgJy1waCcsICc3LjAnLCAnLXRuJywgJzgnLCAnLW1hJywgJzIwMCcsICctbWV0YWxfYmluZGluZycsICctaW1hZScsICc8aW5maWxlLm1hZT4nLCAnLW9tYWUnLCAnPG91dGZpbGUubWFlPic=

> <r_lp_tautomer_probability>
1

> <r_epik_Ionization_Penalty>
0.0357149

> <r_epik_Ionization_Penalty_Charging>
0.0355056

> <r_epik_Ionization_Penalty_Neutral>
0.000209255

> <r_epik_State_Penalty>
0.0296046

> <r_epik_Charging_Adjusted_Penalty>
0.0651102

> <i_epik_Tot_Q>
0

> <i_epik_Tot_abs_Q>
0

> <r_epik_Metal_State_Penalty>
3.03559e-05

> <b_epik_Metal_Only>
0

> <s_epik_Chemistry_Notes>
This compound has an imine and may undergo hydrolysis. This compound contains an acetal/aminal-like group ( X-CH(R)-Y where X, Y are N, S, or O) that may be acid/base labile, releasing an aldehyde.

> <s_lp_Force_Field>
OPLS_2005

> <r_lp_Energy>
44.137

> <b_lp_Chiralities_Consistent>
1

> <s_lp_Variant>
AV-unprocessed.smi:157-11

> <Gold.Version>
5.8.1

> <Gold.Id.Protein>
6NUR|6NUR_protein|mol2

> <Gold.PLP.Fitness>
43.1506

> <Gold.PLP.PLP>
-33.8648

> <Gold.PLP.part.hbond>
-5.4092

> <Gold.PLP.part.metal>
0.0000

> <Gold.PLP.part.buried>
-5.5982

> <Gold.PLP.part.nonpolar>
-24.0139

> <Gold.PLP.part.repulsive>
0.1162

> <Gold.PLP.ligand.clash>
0.0000

> <Gold.PLP.ligand.torsion>
0.1369

> <Gold.PLP.Chemscore.Hbond>
2.3020

> <Gold.PLP.Chemscore.CHOScore>
0.8815

> <Gold.PLP.Chemscore.Metal>
0.0000

> <Gold.Chemscore.Hbonds>
donor molecule, donor type, donor heavy atom, donor atom, acceptor molecule, acceptor atom, score
      L1  H    13    29       P1  8029  0.43
      P1  H  6896  6908       L1    19  0.75
      P1  H  7997  8008       L1     4  1.00
      L1  C    12    28       P1  8028  0.90

> <Gold.PLP.Chemscore.Internal.Correction>
0.0089

> <Gold.Rescore>
     Score         DG    S(hbond)    S(metal)    S(lipo)     H(rot)  DE(clash)    DE(int)     intcor
     10.58     -11.02       2.51        0.00      55.11       3.64       0.24       0.20       ----

> <Gold.Chemscore.Fitness>
10.5822

> <Gold.Chemscore.DG>
-11.0187

> <Gold.Chemscore.ZeroCoef>
-5.4800

> <Gold.Chemscore.Hbond>
2.5147

> <Gold.Chemscore.Metal>
0.0000

> <Gold.Chemscore.Lipo>
55.1135

> <Gold.Chemscore.Internal_Hbond>
0.0000

> <Gold.Chemscore.DEClash>
0.2401

> <Gold.Chemscore.DEInternal>
0.1964

> <Gold.Chemscore.Rot>
3.6362

> <Gold.Chemscore.Internal.Correction>
   9.000000E+99

> <Gold.Chemscore.Hbonds>
donor molecule, donor type, donor heavy atom, donor atom, acceptor molecule, acceptor atom, score
      L1  H    13    29       P1  8029  0.05
      P1  H  6896  6908       L1    19  0.24
      P1  H  7997  8008       L1     4  0.94

> <Gold.Chemscore.Hbond.Weighted>
-8.3991

> <Gold.Chemscore.Metal.Weighted>
-0.0000

> <Gold.Chemscore.Lipo.Weighted>
-6.4483

> <Gold.Chemscore.Internal_Hbond.Weighted>
0.0000

> <Gold.Chemscore.DEClash.Weighted>
0.2401

> <Gold.Chemscore.DEInternal.Weighted>
0.1964

> <Gold.Chemscore.Rot.Weighted>
9.3087

> <Gold.Chemscore.Internal.Correction.Weighted>
   9.000000E+99

> <Gold.Protein.RotatedTorsions>
[ 6907 6896 6895 6894 ] final  -88.30 input  -60.11 | X-H torsion
[ 7974 7965 7964 7962 ] final  -69.19 input  175.53 | X-H torsion
[ 8008 7997 7996 7995 ] final -111.13 input   59.86 | X-H torsion
[ 10167 10162 10161 10158 ] final   83.91 input  -65.29 | X-H torsion
[ 10718 10713 10712 10709 ] final   58.72 input   66.30 | X-H torsion
[ 10763 10752 10751 10750 ] final   55.12 input  -60.55 | X-H torsion
[ 11005 11000 10999 10996 ] final  -10.39 input  -57.11 | X-H torsion

> <Gold.Protein.ActiveResidues>
 VAL166  LYS551  ARG553  GLY616  TRP617  ASP618  TYR619  PRO620  LYS621  CYS622 
 ASP623  PHE694  ASN695  SER759  ASP760  ASP761  ALA762  ILE779  LEU786  VAL792 
 PHE793  MET794  SER795  GLU796  ALA797  LYS798  CYS799  TRP800  GLU811  SER814 

> <Gold.Protein.RotatedAtoms>
  150.6868  134.2763  159.4608 H   0  0  0  0  0  0  0  0  0  0  0  0  # atno 6907 bound_to 6896
  152.0681  134.9548  160.0584 H   0  0  0  0  0  0  0  0  0  0  0  0  # atno 6908 bound_to 6896
  152.0949  133.4185  159.4597 H   0  0  0  0  0  0  0  0  0  0  0  0  # atno 6909 bound_to 6896
  145.7069  140.9094  143.0701 H   0  0  0  0  0  0  0  0  0  0  0  0  # atno 7974 bound_to 7965
  154.9851  140.0396  157.2295 H   0  0  0  0  0  0  0  0  0  0  0  0  # atno 8008 bound_to 7997
  154.7679  140.2796  155.6139 H   0  0  0  0  0  0  0  0  0  0  0  0  # atno 8009 bound_to 7997
  156.2916  140.2616  156.2474 H   0  0  0  0  0  0  0  0  0  0  0  0  # atno 8010 bound_to 7997
  139.9135  144.6257  150.8513 H   0  0  0  0  0  0  0  0  0  0  0  0  # atno 10167 bound_to 10162
  157.5619  130.8842  149.9125 H   0  0  0  0  0  0  0  0  0  0  0  0  # atno 10718 bound_to 10713
  152.9813  135.5721  154.5015 H   0  0  0  0  0  0  0  0  0  0  0  0  # atno 10763 bound_to 10752
  154.4533  135.2779  155.1767 H   0  0  0  0  0  0  0  0  0  0  0  0  # atno 10764 bound_to 10752
  154.3386  135.6234  153.5639 H   0  0  0  0  0  0  0  0  0  0  0  0  # atno 10765 bound_to 10752
  140.7443  133.8644  155.8993 H   0  0  0  0  0  0  0  0  0  0  0  0  # atno 11005 bound_to 11000
  144.6953  139.9022  143.7459 LP  0  0  0  0  0  0  0  0  0  0  0  0  # atno 17320 bound_to 7965
  146.0748  139.3736  143.0501 LP  0  0  0  0  0  0  0  0  0  0  0  0  # atno 17321 bound_to 7965
  140.7680  143.3348  151.2332 LP  0  0  0  0  0  0  0  0  0  0  0  0  # atno 17342 bound_to 10162
  139.6922  143.9673  152.2865 LP  0  0  0  0  0  0  0  0  0  0  0  0  # atno 17343 bound_to 10162
  156.0671  130.3690  150.0856 LP  0  0  0  0  0  0  0  0  0  0  0  0  # atno 17370 bound_to 10713
  156.9019  130.9623  151.3575 LP  0  0  0  0  0  0  0  0  0  0  0  0  # atno 17371 bound_to 10713
  140.9809  134.1407  157.4495 LP  0  0  0  0  0  0  0  0  0  0  0  0  # atno 17394 bound_to 11000
  139.8800  135.0010  156.6042 LP  0  0  0  0  0  0  0  0  0  0  0  0  # atno 17395 bound_to 11000

$$$$
