AV-unprocessed.smi:243|AV-procd|sdf|1855|dock4
  -GOLD-   2262020483D 1   1.00000     0.00000
 Structure written by MMmdl.
 58 61  0  0  0  0  0  0  0  0  2 V2000
  146.6857  133.1129  150.4874 C   0  0  0  0  0  0  0  0  0  0  0  0
  145.9974  133.8914  151.6182 C   0  0  0  0  0  0  0  0  0  0  0  0
  146.9090  134.1708  152.7567 N   0  3  1  0  0  0  0  0  0  0  0  0
  146.2098  134.7243  153.9436 C   0  0  0  0  0  0  0  0  0  0  0  0
  147.2183  135.1371  155.0225 C   0  0  0  0  0  0  0  0  0  0  0  0
  148.1152  133.9528  155.4454 C   0  0  2  0  0  0  0  0  0  0  0  0
  149.0563  134.3189  156.5159 N   0  0  0  0  0  0  0  0  0  0  0  0
  148.6002  134.1273  157.8880 C   0  0  0  0  0  0  0  0  0  0  0  0
  149.8105  135.4322  156.3348 C   0  0  0  0  0  0  0  0  0  0  0  0
  150.3175  135.6541  155.0964 N   0  0  0  0  0  0  0  0  0  0  0  0
  151.0662  136.7347  154.8582 C   0  0  0  0  0  0  0  0  0  0  0  0
  151.4240  137.7039  155.7023 N   0  0  0  0  0  0  0  0  0  0  0  0
  150.9265  137.4816  156.9522 C   0  0  0  0  0  0  0  0  0  0  0  0
  150.1191  136.3800  157.3541 C   0  0  0  0  0  0  0  0  0  0  0  0
  149.7940  136.5013  158.7005 N   0  0  0  0  0  0  0  0  0  0  0  0
  150.3787  137.6067  159.0730 C   0  0  0  0  0  0  0  0  0  0  0  0
  151.0844  138.2580  158.0870 N   0  0  0  0  0  0  0  0  0  0  0  0
  151.8233  139.5037  158.2218 C   0  0  0  0  0  0  0  0  0  0  0  0
  153.1591  139.3494  158.9858 C   0  0  2  0  0  0  0  0  0  0  0  0
  154.1298  138.7934  158.1163 O   0  0  0  0  0  0  0  0  0  0  0  0
  153.0681  138.4725  160.2323 C   0  0  0  0  0  0  0  0  0  0  0  0
  154.0819  139.1096  161.1723 C   0  0  0  0  0  0  0  0  0  0  0  0
  153.8937  140.4932  160.9324 O   0  0  0  0  0  0  0  0  0  0  0  0
  153.7025  140.6838  159.5346 C   0  0  0  0  0  0  0  0  0  0  0  0
  148.7854  133.3220  154.1961 C   0  0  1  0  0  0  0  0  0  0  0  0
  149.5781  132.0491  154.5457 C   0  0  0  0  0  0  0  0  0  0  0  0
  147.7263  132.9869  153.1236 C   0  0  0  0  0  0  0  0  0  0  0  0
  145.9653  132.8462  149.7137 H   0  0  0  0  0  0  0  0  0  0  0  0
  147.1276  132.1877  150.8582 H   0  0  0  0  0  0  0  0  0  0  0  0
  147.4718  133.6940  150.0063 H   0  0  0  0  0  0  0  0  0  0  0  0
  145.5715  134.8226  151.2418 H   0  0  0  0  0  0  0  0  0  0  0  0
  145.1589  133.2887  151.9693 H   0  0  0  0  0  0  0  0  0  0  0  0
  145.6190  135.5965  153.6664 H   0  0  0  0  0  0  0  0  0  0  0  0
  145.5133  133.9838  154.3403 H   0  0  0  0  0  0  0  0  0  0  0  0
  147.8268  135.9542  154.6334 H   0  0  0  0  0  0  0  0  0  0  0  0
  146.6804  135.5342  155.8834 H   0  0  0  0  0  0  0  0  0  0  0  0
  147.4587  133.1916  155.8698 H   0  0  0  0  0  0  0  0  0  0  0  0
  149.3730  134.4124  158.6035 H   0  0  0  0  0  0  0  0  0  0  0  0
  148.3651  133.0766  158.0586 H   0  0  0  0  0  0  0  0  0  0  0  0
  147.7039  134.7103  158.0983 H   0  0  0  0  0  0  0  0  0  0  0  0
  151.4310  136.8375  153.8470 H   0  0  0  0  0  0  0  0  0  0  0  0
  150.3108  137.9794  160.0847 H   0  0  0  0  0  0  0  0  0  0  0  0
  152.0020  139.9097  157.2253 H   0  0  0  0  0  0  0  0  0  0  0  0
  151.1812  140.2228  158.7325 H   0  0  0  0  0  0  0  0  0  0  0  0
  154.2852  137.8974  158.3734 H   0  0  0  0  0  0  0  0  0  0  0  0
  152.0773  138.5552  160.6807 H   0  0  0  0  0  0  0  0  0  0  0  0
  153.2598  137.4153  160.0440 H   0  0  0  0  0  0  0  0  0  0  0  0
  153.9095  138.8542  162.2180 H   0  0  0  0  0  0  0  0  0  0  0  0
  155.1008  138.8230  160.9070 H   0  0  0  0  0  0  0  0  0  0  0  0
  154.6515  140.9620  159.0730 H   0  0  0  0  0  0  0  0  0  0  0  0
  153.0102  141.5115  159.3780 H   0  0  0  0  0  0  0  0  0  0  0  0
  149.4731  134.0442  153.7550 H   0  0  0  0  0  0  0  0  0  0  0  0
  148.9293  131.2863  154.9770 H   0  0  0  0  0  0  0  0  0  0  0  0
  150.3730  132.2469  155.2640 H   0  0  0  0  0  0  0  0  0  0  0  0
  150.0460  131.6228  153.6581 H   0  0  0  0  0  0  0  0  0  0  0  0
  147.0673  132.1912  153.4756 H   0  0  0  0  0  0  0  0  0  0  0  0
  148.2306  132.6069  152.2341 H   0  0  0  0  0  0  0  0  0  0  0  0
  147.5589  134.8757  152.4377 H   0  0  0  0  0  0  0  0  0  0  0  0
  1  2  1  0  0  0  0
  1 28  1  0  0  0  0
  1 29  1  0  0  0  0
  1 30  1  0  0  0  0
  2  3  1  0  0  0  0
  2 31  1  0  0  0  0
  2 32  1  0  0  0  0
  3 27  1  0  0  0  0
  3  4  1  0  0  0  0
  3 58  1  0  0  0  0
  4  5  1  0  0  0  0
  4 33  1  0  0  0  0
  4 34  1  0  0  0  0
  5  6  1  0  0  0  0
  5 35  1  0  0  0  0
  5 36  1  0  0  0  0
  6  7  1  0  0  0  0
  6 25  1  0  0  0  0
  6 37  1  0  0  0  0
  7  8  1  0  0  0  0
  7  9  1  0  0  0  0
  8 38  1  0  0  0  0
  8 39  1  0  0  0  0
  8 40  1  0  0  0  0
  9 14  1  0  0  0  0
  9 10  2  0  0  0  0
 10 11  1  0  0  0  0
 11 12  2  0  0  0  0
 11 41  1  0  0  0  0
 12 13  1  0  0  0  0
 13 17  1  0  0  0  0
 13 14  2  0  0  0  0
 14 15  1  0  0  0  0
 15 16  2  0  0  0  0
 16 17  1  0  0  0  0
 16 42  1  0  0  0  0
 17 18  1  0  0  0  0
 18 19  1  0  0  0  0
 18 43  1  0  0  0  0
 18 44  1  0  0  0  0
 19 24  1  0  0  0  0
 19 20  1  0  0  0  0
 19 21  1  0  0  0  0
 20 45  1  0  0  0  0
 21 22  1  0  0  0  0
 21 46  1  0  0  0  0
 21 47  1  0  0  0  0
 22 23  1  0  0  0  0
 22 48  1  0  0  0  0
 22 49  1  0  0  0  0
 23 24  1  0  0  0  0
 24 50  1  0  0  0  0
 24 51  1  0  0  0  0
 25 26  1  0  0  0  0
 25 27  1  0  0  0  0
 25 52  1  0  0  0  0
 26 53  1  0  0  0  0
 26 54  1  0  0  0  0
 26 55  1  0  0  0  0
 27 56  1  0  0  0  0
 27 57  1  0  0  0  0
M  CHG  1   3   1
M  END
> <s_m_source_file>
AV-unprocessed.smi

> <i_m_source_file_index>
243

> <i_lp_mmshare_version>
43012

> <i_f3d_flags>
0

> <s_epik_input>
W0NIM11bQ0gyXU4xW0NIMl1bQ0gyXVtDQEhdKFtDQEBIXShbQ0gzXSlbQ0gyXTEpTihbQ0gzXSljKG5bY0hdbjIpYyhjMjMpbltjSF1uM1tDSDJdW0NAQF00KFtPSF0pW0NIMl1bQ0gyXU9bQ0gyXTQ=

> <s_epik_cmdline>
J2VwaWtfcHl0aG9uJywgJy1waCcsICc3LjAnLCAnLXRuJywgJzgnLCAnLW1hJywgJzIwMCcsICctbWV0YWxfYmluZGluZycsICctaW1hZScsICc8aW5maWxlLm1hZT4nLCAnLW9tYWUnLCAnPG91dGZpbGUubWFlPic=

> <r_lp_tautomer_probability>
1

> <r_epik_Ionization_Penalty>
0.00253099

> <r_epik_Ionization_Penalty_Charging>
0.00137877

> <r_epik_Ionization_Penalty_Neutral>
0.00115221

> <r_epik_State_Penalty>
-0

> <r_epik_Charging_Adjusted_Penalty>
0.00137877

> <i_epik_Tot_Q>
1

> <i_epik_Tot_abs_Q>
1

> <r_epik_Metal_State_Penalty>
-0

> <b_epik_Metal_Only>
0

> <s_lp_Force_Field>
OPLS_2005

> <r_lp_Energy>
45.753

> <b_lp_Chiralities_Consistent>
1

> <s_lp_Variant>
AV-unprocessed.smi:243-8

> <Gold.Version>
5.8.1

> <Gold.Id.Protein>
6NUR|6NUR_protein|mol2

> <Gold.PLP.Fitness>
46.0790

> <Gold.PLP.PLP>
-32.9849

> <Gold.PLP.part.hbond>
-2.7419

> <Gold.PLP.part.metal>
0.0000

> <Gold.PLP.part.buried>
-6.1916

> <Gold.PLP.part.nonpolar>
-24.2639

> <Gold.PLP.part.repulsive>
0.1857

> <Gold.PLP.ligand.clash>
0.0000

> <Gold.PLP.ligand.torsion>
1.2936

> <Gold.PLP.Chemscore.Hbond>
3.9920

> <Gold.PLP.Chemscore.CHOScore>
0.9925

> <Gold.PLP.Chemscore.Metal>
0.0000

> <Gold.Chemscore.Hbonds>
donor molecule, donor type, donor heavy atom, donor atom, acceptor molecule, acceptor atom, score
      L1  H     3    58       P1  7948  2.00
      P1  H  6896  6909       L1    15  0.60
      P1  H  7997  8008       L1    20  1.00
      L1  C    11    41       P1  7949  1.00

> <Gold.PLP.Chemscore.Internal.Correction>
0.7277

> <Gold.Rescore>
     Score         DG    S(hbond)    S(metal)    S(lipo)     H(rot)  DE(clash)    DE(int)     intcor
     12.72     -16.48       2.63        0.00      74.45       2.53       0.00       3.77       ----

> <Gold.Chemscore.Fitness>
12.7166

> <Gold.Chemscore.DG>
-16.4844

> <Gold.Chemscore.ZeroCoef>
-5.4800

> <Gold.Chemscore.Hbond>
2.6263

> <Gold.Chemscore.Metal>
0.0000

> <Gold.Chemscore.Lipo>
74.4477

> <Gold.Chemscore.Internal_Hbond>
0.0000

> <Gold.Chemscore.DEClash>
0.0000

> <Gold.Chemscore.DEInternal>
3.7678

> <Gold.Chemscore.Rot>
2.5305

> <Gold.Chemscore.Internal.Correction>
   9.000000E+99

> <Gold.Chemscore.Hbonds>
donor molecule, donor type, donor heavy atom, donor atom, acceptor molecule, acceptor atom, score
      L1  H     3    58       P1  7948  0.91
      P1  H  6896  6909       L1    15  0.19
      P1  H  7997  8008       L1    20  0.79

> <Gold.Chemscore.Hbond.Weighted>
-8.7720

> <Gold.Chemscore.Metal.Weighted>
-0.0000

> <Gold.Chemscore.Lipo.Weighted>
-8.7104

> <Gold.Chemscore.Internal_Hbond.Weighted>
0.0000

> <Gold.Chemscore.DEClash.Weighted>
0.0000

> <Gold.Chemscore.DEInternal.Weighted>
3.7678

> <Gold.Chemscore.Rot.Weighted>
6.4780

> <Gold.Chemscore.Internal.Correction.Weighted>
   9.000000E+99

> <Gold.Protein.RotatedTorsions>
[ 6907 6896 6895 6894 ] final   64.38 input  -60.11 | X-H torsion
[ 7974 7965 7964 7962 ] final -128.75 input  175.53 | X-H torsion
[ 8008 7997 7996 7995 ] final -116.05 input   59.86 | X-H torsion
[ 10167 10162 10161 10158 ] final   46.86 input  -65.29 | X-H torsion
[ 10718 10713 10712 10709 ] final  166.99 input   66.30 | X-H torsion
[ 10763 10752 10751 10750 ] final  138.72 input  -60.55 | X-H torsion
[ 11005 11000 10999 10996 ] final   64.49 input  -57.11 | X-H torsion

> <Gold.Protein.ActiveResidues>
 VAL166  LYS551  ARG553  GLY616  TRP617  ASP618  TYR619  PRO620  LYS621  CYS622 
 ASP623  PHE694  ASN695  SER759  ASP760  ASP761  ALA762  ILE779  LEU786  VAL792 
 PHE793  MET794  SER795  GLU796  ALA797  LYS798  CYS799  TRP800  GLU811  SER814 

> <Gold.Protein.RotatedAtoms>
  152.4327  134.5746  159.9930 H   0  0  0  0  0  0  0  0  0  0  0  0  # atno 6907 bound_to 6896
  151.5865  133.3366  159.3027 H   0  0  0  0  0  0  0  0  0  0  0  0  # atno 6908 bound_to 6896
  150.8222  134.7470  159.6846 H   0  0  0  0  0  0  0  0  0  0  0  0  # atno 6909 bound_to 6896
  144.9640  140.7476  143.4711 H   0  0  0  0  0  0  0  0  0  0  0  0  # atno 7974 bound_to 7965
  155.0617  140.0393  157.2579 H   0  0  0  0  0  0  0  0  0  0  0  0  # atno 8008 bound_to 7997
  154.7054  140.2682  155.6655 H   0  0  0  0  0  0  0  0  0  0  0  0  # atno 8009 bound_to 7997
  156.2773  140.2732  156.1678 H   0  0  0  0  0  0  0  0  0  0  0  0  # atno 8010 bound_to 7997
  140.3095  144.2837  150.6202 H   0  0  0  0  0  0  0  0  0  0  0  0  # atno 10167 bound_to 10162
  157.0579  131.0332  151.2657 H   0  0  0  0  0  0  0  0  0  0  0  0  # atno 10718 bound_to 10713
  153.8942  135.3029  155.3448 H   0  0  0  0  0  0  0  0  0  0  0  0  # atno 10763 bound_to 10752
  154.7701  135.4890  153.9636 H   0  0  0  0  0  0  0  0  0  0  0  0  # atno 10764 bound_to 10752
  153.1280  135.6797  153.9323 H   0  0  0  0  0  0  0  0  0  0  0  0  # atno 10765 bound_to 10752
  139.9955  134.6524  156.0017 H   0  0  0  0  0  0  0  0  0  0  0  0  # atno 11005 bound_to 11000
  145.2658  139.1974  143.4868 LP  0  0  0  0  0  0  0  0  0  0  0  0  # atno 17320 bound_to 7965
  146.3362  140.2595  142.8601 LP  0  0  0  0  0  0  0  0  0  0  0  0  # atno 17321 bound_to 7965
  140.5580  143.2196  151.7814 LP  0  0  0  0  0  0  0  0  0  0  0  0  # atno 17342 bound_to 10162
  139.4897  144.4387  151.9789 LP  0  0  0  0  0  0  0  0  0  0  0  0  # atno 17343 bound_to 10162
  157.4978  130.7861  149.7573 LP  0  0  0  0  0  0  0  0  0  0  0  0  # atno 17370 bound_to 10713
  155.9987  130.3892  150.2691 LP  0  0  0  0  0  0  0  0  0  0  0  0  # atno 17371 bound_to 10713
  141.1601  133.6539  156.4290 LP  0  0  0  0  0  0  0  0  0  0  0  0  # atno 17394 bound_to 11000
  140.4826  134.6650  157.5177 LP  0  0  0  0  0  0  0  0  0  0  0  0  # atno 17395 bound_to 11000

$$$$
