AV-unprocessed.smi:1047|AV-procd|sdf|4600|dock5
  -GOLD-   22720 3 93D 1   1.00000     0.00000
 Structure written by MMmdl.
 57 59  0  0  0  0  0  0  0  0  3 V2000
  150.1068  131.0982  154.1532 C   0  0  0  0  0  0  0  0  0  0  0  0
  149.0089  132.1087  153.7925 C   0  0  0  0  0  0  0  0  0  0  0  0
  148.9801  133.2703  154.7155 N   0  3  1  0  0  0  0  0  0  0  0  0
  148.8153  132.8928  156.1411 C   0  0  0  0  0  0  0  0  0  0  0  0
  148.7459  134.1494  157.0251 C   0  0  0  0  0  0  0  0  0  0  0  0
  149.9149  134.9372  156.8387 O   0  0  0  0  0  0  0  0  0  0  0  0
  150.0640  135.3704  155.4908 C   0  0  1  0  0  0  0  0  0  0  0  0
  151.2709  136.3200  155.4028 C   0  0  0  0  0  0  0  0  0  0  0  0
  151.2789  137.0798  154.1553 N   0  0  0  0  0  0  0  0  0  0  0  0
  152.1947  138.2160  154.1700 C   0  0  0  0  0  0  0  0  0  0  0  0
  151.4769  139.5065  154.6007 C   0  0  1  0  0  0  0  0  0  0  0  0
  150.2071  139.5430  153.9788 O   0  0  0  0  0  0  0  0  0  0  0  0
  151.2987  139.5741  156.1300 C   0  0  0  0  0  0  0  0  0  0  0  0
  150.8607  140.8983  156.5961 N   0  0  0  0  0  0  0  0  0  0  0  0
  149.9061  141.7233  156.0865 C   0  0  0  0  0  0  0  0  0  0  0  0
  149.8691  142.8399  156.8650 N   0  3  0  0  0  0  0  0  0  0  0  0
  150.8130  142.7263  157.8876 C   0  0  0  0  0  0  0  0  0  0  0  0
  151.1457  143.5976  158.9178 C   0  0  0  0  0  0  0  0  0  0  0  0
  152.1615  143.1849  159.8092 C   0  0  0  0  0  0  0  0  0  0  0  0
  152.5513  144.1155  160.9453 C   0  0  0  0  0  0  0  0  0  0  0  0
  152.8050  141.9301  159.6514 C   0  0  0  0  0  0  0  0  0  0  0  0
  153.8901  141.4922  160.6205 C   0  0  0  0  0  0  0  0  0  0  0  0
  152.4534  141.0592  158.5953 C   0  0  0  0  0  0  0  0  0  0  0  0
  151.4524  141.4820  157.7233 C   0  0  0  0  0  0  0  0  0  0  0  0
  150.1603  134.1511  154.5489 C   0  0  0  0  0  0  0  0  0  0  0  0
  150.0431  130.2191  153.5116 H   0  0  0  0  0  0  0  0  0  0  0  0
  150.0073  130.7605  155.1851 H   0  0  0  0  0  0  0  0  0  0  0  0
  151.1054  131.5158  154.0290 H   0  0  0  0  0  0  0  0  0  0  0  0
  149.1211  132.4496  152.7621 H   0  0  0  0  0  0  0  0  0  0  0  0
  148.0502  131.5905  153.8433 H   0  0  0  0  0  0  0  0  0  0  0  0
  147.9055  132.3093  156.2786 H   0  0  0  0  0  0  0  0  0  0  0  0
  149.6497  132.2631  156.4543 H   0  0  0  0  0  0  0  0  0  0  0  0
  147.8558  134.7377  156.7958 H   0  0  0  0  0  0  0  0  0  0  0  0
  148.6773  133.8663  158.0755 H   0  0  0  0  0  0  0  0  0  0  0  0
  149.1781  135.9488  155.2223 H   0  0  0  0  0  0  0  0  0  0  0  0
  151.2539  137.0053  156.2512 H   0  0  0  0  0  0  0  0  0  0  0  0
  152.1905  135.7403  155.4919 H   0  0  0  0  0  0  0  0  0  0  0  0
  151.5084  136.4647  153.3811 H   0  0  0  0  0  0  0  0  0  0  0  0
  153.0509  138.0179  154.8165 H   0  0  0  0  0  0  0  0  0  0  0  0
  152.5952  138.3542  153.1648 H   0  0  0  0  0  0  0  0  0  0  0  0
  152.0487  140.3777  154.2772 H   0  0  0  0  0  0  0  0  0  0  0  0
  150.3312  139.5962  153.0437 H   0  0  0  0  0  0  0  0  0  0  0  0
  150.6019  138.8143  156.4846 H   0  0  0  0  0  0  0  0  0  0  0  0
  152.2501  139.3653  156.6212 H   0  0  0  0  0  0  0  0  0  0  0  0
  149.2891  141.5282  155.2210 H   0  0  0  0  0  0  0  0  0  0  0  0
  150.6490  144.5498  159.0330 H   0  0  0  0  0  0  0  0  0  0  0  0
  153.6095  144.3710  160.8862 H   0  0  0  0  0  0  0  0  0  0  0  0
  152.3614  143.6436  161.9097 H   0  0  0  0  0  0  0  0  0  0  0  0
  151.9832  145.0456  160.9112 H   0  0  0  0  0  0  0  0  0  0  0  0
  154.2695  140.5001  160.3733 H   0  0  0  0  0  0  0  0  0  0  0  0
  153.5019  141.4552  161.6388 H   0  0  0  0  0  0  0  0  0  0  0  0
  154.7301  142.1865  160.5947 H   0  0  0  0  0  0  0  0  0  0  0  0
  152.9430  140.1039  158.4797 H   0  0  0  0  0  0  0  0  0  0  0  0
  151.0643  133.5748  154.7522 H   0  0  0  0  0  0  0  0  0  0  0  0
  150.2234  134.4916  153.5144 H   0  0  0  0  0  0  0  0  0  0  0  0
  148.1749  133.8239  154.4599 H   0  0  0  0  0  0  0  0  0  0  0  0
  149.2437  143.6198  156.7081 H   0  0  0  0  0  0  0  0  0  0  0  0
  1  2  1  0  0  0  0
  1 26  1  0  0  0  0
  1 27  1  0  0  0  0
  1 28  1  0  0  0  0
  2  3  1  0  0  0  0
  2 29  1  0  0  0  0
  2 30  1  0  0  0  0
  3 25  1  0  0  0  0
  3  4  1  0  0  0  0
  3 56  1  0  0  0  0
  4  5  1  0  0  0  0
  4 31  1  0  0  0  0
  4 32  1  0  0  0  0
  5  6  1  0  0  0  0
  5 33  1  0  0  0  0
  5 34  1  0  0  0  0
  6  7  1  0  0  0  0
  7  8  1  0  0  0  0
  7 25  1  0  0  0  0
  7 35  1  0  0  0  0
  8  9  1  0  0  0  0
  8 36  1  0  0  0  0
  8 37  1  0  0  0  0
  9 10  1  0  0  0  0
  9 38  1  0  0  0  0
 10 11  1  0  0  0  0
 10 39  1  0  0  0  0
 10 40  1  0  0  0  0
 11 12  1  0  0  0  0
 11 13  1  0  0  0  0
 11 41  1  0  0  0  0
 12 42  1  0  0  0  0
 13 14  1  0  0  0  0
 13 43  1  0  0  0  0
 13 44  1  0  0  0  0
 14 24  1  0  0  0  0
 14 15  1  0  0  0  0
 15 16  2  0  0  0  0
 15 45  1  0  0  0  0
 16 17  1  0  0  0  0
 16 57  1  0  0  0  0
 17 24  2  0  0  0  0
 17 18  1  0  0  0  0
 18 19  2  0  0  0  0
 18 46  1  0  0  0  0
 19 20  1  0  0  0  0
 19 21  1  0  0  0  0
 20 47  1  0  0  0  0
 20 48  1  0  0  0  0
 20 49  1  0  0  0  0
 21 22  1  0  0  0  0
 21 23  2  0  0  0  0
 22 50  1  0  0  0  0
 22 51  1  0  0  0  0
 22 52  1  0  0  0  0
 23 24  1  0  0  0  0
 23 53  1  0  0  0  0
 25 54  1  0  0  0  0
 25 55  1  0  0  0  0
M  CHG  1   3   1
M  CHG  1  16   1
M  END
> <s_m_source_file>
AV-unprocessed.smi

> <i_m_source_file_index>
1047

> <i_lp_mmshare_version>
43012

> <i_f3d_flags>
0

> <s_epik_input>
W0NIM11bQ0gyXU4xW0NIMl1bQ0gyXU9bQ0BIXShbQ0gyXTEpW0NIMl1bTkhdW0NIMl1bQ0BIXShbT0hdKVtDSDJdbihbY0hdbjIpYyhjMjMpW2NIXWMoW0NIM10pYyhbY0hdMylbQ0gzXQ==

> <s_epik_cmdline>
J2VwaWtfcHl0aG9uJywgJy1waCcsICc3LjAnLCAnLXRuJywgJzgnLCAnLW1hJywgJzIwMCcsICctbWV0YWxfYmluZGluZycsICctaW1hZScsICc8aW5maWxlLm1hZT4nLCAnLW9tYWUnLCAnPG91dGZpbGUubWFlPic=

> <r_epik_Ionization_Penalty>
2.03028

> <r_epik_Ionization_Penalty_Charging>
1.21256

> <r_epik_Ionization_Penalty_Neutral>
0.817715

> <r_epik_State_Penalty>
2.54959

> <r_epik_Charging_Adjusted_Penalty>
3.76215

> <i_epik_Tot_Q>
2

> <i_epik_Tot_abs_Q>
2

> <r_epik_Metal_State_Penalty>
6.52811

> <b_epik_Metal_Only>
0

> <s_lp_Force_Field>
OPLS_2005

> <r_lp_Energy>
36.9073

> <b_lp_Chiralities_Consistent>
1

> <s_lp_Variant>
AV-unprocessed.smi:1047-41

> <Gold.Version>
5.8.1

> <Gold.Id.Protein>
6NUR|6NUR_protein|mol2

> <Gold.PLP.Fitness>
58.1962

> <Gold.PLP.PLP>
-48.5861

> <Gold.PLP.part.hbond>
-4.2693

> <Gold.PLP.part.metal>
0.0000

> <Gold.PLP.part.buried>
-3.7943

> <Gold.PLP.part.nonpolar>
-39.8738

> <Gold.PLP.part.repulsive>
0.0220

> <Gold.PLP.ligand.clash>
0.0000

> <Gold.PLP.ligand.torsion>
0.8316

> <Gold.PLP.Chemscore.Hbond>
3.6880

> <Gold.PLP.Chemscore.CHOScore>
0.0000

> <Gold.PLP.Chemscore.Metal>
0.0000

> <Gold.Chemscore.Hbonds>
donor molecule, donor type, donor heavy atom, donor atom, acceptor molecule, acceptor atom, score
      L1  H     9    38       P1  7949  0.94
      L1  H    12    42       P1  7957  0.94
      L1  H    16    57       P1  8028  1.73

> <Gold.PLP.Chemscore.Internal.Correction>
0.2093

> <Gold.Rescore>
     Score         DG    S(hbond)    S(metal)    S(lipo)     H(rot)  DE(clash)    DE(int)     intcor
     19.11     -22.01       2.46        0.00     130.42       2.71       1.99       0.90       ----

> <Gold.Chemscore.Fitness>
19.1119

> <Gold.Chemscore.DG>
-22.0053

> <Gold.Chemscore.ZeroCoef>
-5.4800

> <Gold.Chemscore.Hbond>
2.4552

> <Gold.Chemscore.Metal>
0.0000

> <Gold.Chemscore.Lipo>
130.4244

> <Gold.Chemscore.Internal_Hbond>
0.0000

> <Gold.Chemscore.DEClash>
1.9886

> <Gold.Chemscore.DEInternal>
0.9048

> <Gold.Chemscore.Rot>
2.7088

> <Gold.Chemscore.Internal.Correction>
   9.000000E+99

> <Gold.Chemscore.Hbonds>
donor molecule, donor type, donor heavy atom, donor atom, acceptor molecule, acceptor atom, score
      L1  H     9    38       P1  7949  0.78
      L1  H    12    42       P1  7957  0.82
      L1  H    16    57       P1  8028  0.76

> <Gold.Chemscore.Hbond.Weighted>
-8.2003

> <Gold.Chemscore.Metal.Weighted>
-0.0000

> <Gold.Chemscore.Lipo.Weighted>
-15.2596

> <Gold.Chemscore.Internal_Hbond.Weighted>
0.0000

> <Gold.Chemscore.DEClash.Weighted>
1.9886

> <Gold.Chemscore.DEInternal.Weighted>
0.9048

> <Gold.Chemscore.Rot.Weighted>
6.9346

> <Gold.Chemscore.Internal.Correction.Weighted>
   9.000000E+99

> <Gold.Protein.RotatedTorsions>
[ 6907 6896 6895 6894 ] final   27.10 input  -60.11 | X-H torsion
[ 7974 7965 7964 7962 ] final   -9.35 input  175.53 | X-H torsion
[ 8008 7997 7996 7995 ] final -164.65 input   59.86 | X-H torsion
[ 10167 10162 10161 10158 ] final  -77.36 input  -65.29 | X-H torsion
[ 10718 10713 10712 10709 ] final  -43.08 input   66.30 | X-H torsion
[ 10763 10752 10751 10750 ] final   60.37 input  -60.55 | X-H torsion
[ 11005 11000 10999 10996 ] final  143.89 input  -57.11 | X-H torsion

> <Gold.Protein.ActiveResidues>
 VAL166  LYS551  ARG553  GLY616  TRP617  ASP618  TYR619  PRO620  LYS621  CYS622 
 ASP623  PHE694  ASN695  SER759  ASP760  ASP761  ALA762  ILE779  LEU786  VAL792 
 PHE793  MET794  SER795  GLU796  ALA797  LYS798  CYS799  TRP800  GLU811  SER814 

> <Gold.Protein.RotatedAtoms>
  151.9973  134.9947  160.0563 H   0  0  0  0  0  0  0  0  0  0  0  0  # atno 6907 bound_to 6896
  152.1552  133.4542  159.4842 H   0  0  0  0  0  0  0  0  0  0  0  0  # atno 6908 bound_to 6896
  150.6880  134.2057  159.4383 H   0  0  0  0  0  0  0  0  0  0  0  0  # atno 6909 bound_to 6896
  146.2254  140.2604  142.8351 H   0  0  0  0  0  0  0  0  0  0  0  0  # atno 7974 bound_to 7965
  155.8386  140.0945  157.1748 H   0  0  0  0  0  0  0  0  0  0  0  0  # atno 8008 bound_to 7997
  154.3981  140.1405  156.3762 H   0  0  0  0  0  0  0  0  0  0  0  0  # atno 8009 bound_to 7997
  155.8089  140.3450  155.5448 H   0  0  0  0  0  0  0  0  0  0  0  0  # atno 8010 bound_to 7997
  140.4777  143.2410  151.8107 H   0  0  0  0  0  0  0  0  0  0  0  0  # atno 10167 bound_to 10162
  156.2527  130.4189  149.8631 H   0  0  0  0  0  0  0  0  0  0  0  0  # atno 10718 bound_to 10713
  152.9919  135.5538  154.5863 H   0  0  0  0  0  0  0  0  0  0  0  0  # atno 10763 bound_to 10752
  154.5234  135.2809  155.1245 H   0  0  0  0  0  0  0  0  0  0  0  0  # atno 10764 bound_to 10752
  154.2589  135.6385  153.5320 H   0  0  0  0  0  0  0  0  0  0  0  0  # atno 10765 bound_to 10752
  140.0589  134.9215  157.1150 H   0  0  0  0  0  0  0  0  0  0  0  0  # atno 11005 bound_to 11000
  144.9344  140.8010  143.5669 LP  0  0  0  0  0  0  0  0  0  0  0  0  # atno 17320 bound_to 7965
  145.2550  139.2016  143.4922 LP  0  0  0  0  0  0  0  0  0  0  0  0  # atno 17321 bound_to 7965
  139.4828  144.4812  151.9304 LP  0  0  0  0  0  0  0  0  0  0  0  0  # atno 17342 bound_to 10162
  140.3898  144.2630  150.5900 LP  0  0  0  0  0  0  0  0  0  0  0  0  # atno 17343 bound_to 10162
  156.6174  130.8612  151.3468 LP  0  0  0  0  0  0  0  0  0  0  0  0  # atno 17370 bound_to 10713
  157.7221  130.9572  150.1480 LP  0  0  0  0  0  0  0  0  0  0  0  0  # atno 17371 bound_to 10713
  140.3800  134.2297  155.7171 LP  0  0  0  0  0  0  0  0  0  0  0  0  # atno 17394 bound_to 11000
  141.1964  133.8082  157.0671 LP  0  0  0  0  0  0  0  0  0  0  0  0  # atno 17395 bound_to 11000

$$$$
