AV-unprocessed.smi:2346|AV-procd|sdf|9368|dock7
  -GOLD-   2272012593D 1   1.00000     0.00000
 Structure written by MMmdl.
 45 47  0  0  0  0  0  0  0  0  2 V2000
  149.9353  134.3357  155.5022 C   0  0  0  0  0  0  0  0  0  0  0  0
  150.1195  135.4943  156.3024 O   0  0  0  0  0  0  0  0  0  0  0  0
  149.4812  135.5558  157.5243 C   0  0  0  0  0  0  0  0  0  0  0  0
  148.6249  134.5372  158.0146 C   0  0  0  0  0  0  0  0  0  0  0  0
  148.0028  134.6680  159.2714 C   0  0  0  0  0  0  0  0  0  0  0  0
  147.1269  133.6177  159.7637 C   0  0  0  0  0  0  0  0  0  0  0  0
  146.4300  132.7818  160.1559 N   0  0  0  0  0  0  0  0  0  0  0  0
  148.2312  135.8179  160.0489 C   0  0  0  0  0  0  0  0  0  0  0  0
  149.0803  136.8327  159.5721 C   0  0  0  0  0  0  0  0  0  0  0  0
  149.7111  136.7099  158.3082 C   0  0  0  0  0  0  0  0  0  0  0  0
  150.5539  137.6652  157.7782 O   0  0  0  0  0  0  0  0  0  0  0  0
  150.6702  138.9128  158.4460 C   0  0  0  0  0  0  0  0  0  0  0  0
  151.8351  139.6886  157.8205 C   0  0  0  0  0  0  0  0  0  0  0  0
  151.4426  141.0520  157.4362 N   0  0  0  0  0  0  0  0  0  0  0  0
  150.6466  141.4957  156.4186 C   0  0  0  0  0  0  0  0  0  0  0  0
  149.9214  140.6688  155.4013 C   0  0  1  0  0  0  0  0  0  0  0  0
  149.1209  141.5615  154.4441 C   0  0  0  0  0  0  0  0  0  0  0  0
  150.8051  139.8724  154.6399 O   0  0  0  0  0  0  0  0  0  0  0  0
  150.5999  142.8556  156.5107 N   0  3  0  0  0  0  0  0  0  0  0  0
  151.3671  143.2859  157.5926 C   0  0  0  0  0  0  0  0  0  0  0  0
  151.6192  144.5651  158.0786 C   0  0  0  0  0  0  0  0  0  0  0  0
  152.4451  144.6572  159.2179 C   0  0  0  0  0  0  0  0  0  0  0  0
  152.9837  143.5063  159.8290 C   0  0  0  0  0  0  0  0  0  0  0  0
  152.7217  142.2145  159.3260 C   0  0  0  0  0  0  0  0  0  0  0  0
  151.9068  142.1321  158.1967 C   0  0  0  0  0  0  0  0  0  0  0  0
  150.4817  134.4550  154.5669 H   0  0  0  0  0  0  0  0  0  0  0  0
  148.8841  134.1870  155.2513 H   0  0  0  0  0  0  0  0  0  0  0  0
  150.3199  133.4429  155.9970 H   0  0  0  0  0  0  0  0  0  0  0  0
  148.4328  133.6444  157.4382 H   0  0  0  0  0  0  0  0  0  0  0  0
  147.7578  135.9292  161.0141 H   0  0  0  0  0  0  0  0  0  0  0  0
  149.2310  137.6984  160.1986 H   0  0  0  0  0  0  0  0  0  0  0  0
  149.7475  139.4841  158.3370 H   0  0  0  0  0  0  0  0  0  0  0  0
  150.8548  138.7571  159.5100 H   0  0  0  0  0  0  0  0  0  0  0  0
  152.6834  139.7392  158.5034 H   0  0  0  0  0  0  0  0  0  0  0  0
  152.1962  139.1750  156.9300 H   0  0  0  0  0  0  0  0  0  0  0  0
  149.2360  139.9914  155.9091 H   0  0  0  0  0  0  0  0  0  0  0  0
  148.3957  142.1683  154.9866 H   0  0  0  0  0  0  0  0  0  0  0  0
  148.5696  140.9635  153.7178 H   0  0  0  0  0  0  0  0  0  0  0  0
  149.7728  142.2389  153.8913 H   0  0  0  0  0  0  0  0  0  0  0  0
  151.0768  139.1368  155.1675 H   0  0  0  0  0  0  0  0  0  0  0  0
  151.2054  145.4477  157.6131 H   0  0  0  0  0  0  0  0  0  0  0  0
  152.6683  145.6297  159.6324 H   0  0  0  0  0  0  0  0  0  0  0  0
  153.6111  143.6162  160.7018 H   0  0  0  0  0  0  0  0  0  0  0  0
  153.1378  141.3405  159.8047 H   0  0  0  0  0  0  0  0  0  0  0  0
  150.0740  143.4420  155.8752 H   0  0  0  0  0  0  0  0  0  0  0  0
  1  2  1  0  0  0  0
  1 26  1  0  0  0  0
  1 27  1  0  0  0  0
  1 28  1  0  0  0  0
  2  3  1  0  0  0  0
  3 10  1  0  0  0  0
  3  4  2  0  0  0  0
  4  5  1  0  0  0  0
  4 29  1  0  0  0  0
  5  6  1  0  0  0  0
  5  8  2  0  0  0  0
  6  7  3  0  0  0  0
  8  9  1  0  0  0  0
  8 30  1  0  0  0  0
  9 10  2  0  0  0  0
  9 31  1  0  0  0  0
 10 11  1  0  0  0  0
 11 12  1  0  0  0  0
 12 13  1  0  0  0  0
 12 32  1  0  0  0  0
 12 33  1  0  0  0  0
 13 14  1  0  0  0  0
 13 34  1  0  0  0  0
 13 35  1  0  0  0  0
 14 25  1  0  0  0  0
 14 15  1  0  0  0  0
 15 16  1  0  0  0  0
 15 19  2  0  0  0  0
 16 17  1  0  0  0  0
 16 18  1  0  0  0  0
 16 36  1  0  0  0  0
 17 37  1  0  0  0  0
 17 38  1  0  0  0  0
 17 39  1  0  0  0  0
 18 40  1  0  0  0  0
 19 20  1  0  0  0  0
 19 45  1  0  0  0  0
 20 25  2  0  0  0  0
 20 21  1  0  0  0  0
 21 22  2  0  0  0  0
 21 41  1  0  0  0  0
 22 23  1  0  0  0  0
 22 42  1  0  0  0  0
 23 24  2  0  0  0  0
 23 43  1  0  0  0  0
 24 25  1  0  0  0  0
 24 44  1  0  0  0  0
M  CHG  1  19   1
M  END
> <s_m_source_file>
AV-unprocessed.smi

> <i_m_source_file_index>
2346

> <i_lp_mmshare_version>
43012

> <i_f3d_flags>
0

> <s_epik_input>
W0NIM11PYzFbY0hdYyhDI04pW2NIXVtjSF1jMU9bQ0gyXVtDSDJdbihjKG4yKVtDQEhdKFtDSDNdKVtPSF0pYyhjMjMpW2NIXVtjSF1bY0hdW2NIXTM=

> <s_epik_cmdline>
J2VwaWtfcHl0aG9uJywgJy1waCcsICc3LjAnLCAnLXRuJywgJzgnLCAnLW1hJywgJzIwMCcsICctbWV0YWxfYmluZGluZycsICctaW1hZScsICc8aW5maWxlLm1hZT4nLCAnLW9tYWUnLCAnPG91dGZpbGUubWFlPic=

> <r_epik_Ionization_Penalty>
1.58928

> <r_epik_Ionization_Penalty_Charging>
1.58925

> <r_epik_Ionization_Penalty_Neutral>
2.92192e-05

> <r_epik_State_Penalty>
1.68649

> <r_epik_Charging_Adjusted_Penalty>
3.27574

> <i_epik_Tot_Q>
1

> <i_epik_Tot_abs_Q>
1

> <r_epik_Metal_State_Penalty>
5.74385

> <b_epik_Metal_Only>
0

> <s_lp_Force_Field>
OPLS_2005

> <r_lp_Energy>
24.4742

> <b_lp_Chiralities_Consistent>
1

> <s_lp_Variant>
AV-unprocessed.smi:2346-4

> <Gold.Version>
5.8.1

> <Gold.Id.Protein>
6NUR|6NUR_protein|mol2

> <Gold.PLP.Fitness>
54.8357

> <Gold.PLP.PLP>
-46.9778

> <Gold.PLP.part.hbond>
-2.0000

> <Gold.PLP.part.metal>
0.0000

> <Gold.PLP.part.buried>
-6.0813

> <Gold.PLP.part.nonpolar>
-39.2542

> <Gold.PLP.part.repulsive>
0.0929

> <Gold.PLP.ligand.clash>
0.0000

> <Gold.PLP.ligand.torsion>
0.5913

> <Gold.PLP.Chemscore.Hbond>
2.9840

> <Gold.PLP.Chemscore.CHOScore>
0.0000

> <Gold.PLP.Chemscore.Metal>
0.0000

> <Gold.Chemscore.Hbonds>
donor molecule, donor type, donor heavy atom, donor atom, acceptor molecule, acceptor atom, score
      L1  H    19    45       P1  8028  1.95
      P1  H  7989  7998       L1    18  1.00

> <Gold.PLP.Chemscore.Internal.Correction>
0.0885

> <Gold.Rescore>
     Score         DG    S(hbond)    S(metal)    S(lipo)     H(rot)  DE(clash)    DE(int)     intcor
     18.65     -19.51       1.94        0.00     122.49       2.65       0.29       0.58       ----

> <Gold.Chemscore.Fitness>
18.6452

> <Gold.Chemscore.DG>
-19.5147

> <Gold.Chemscore.ZeroCoef>
-5.4800

> <Gold.Chemscore.Hbond>
1.9397

> <Gold.Chemscore.Metal>
0.0000

> <Gold.Chemscore.Lipo>
122.4923

> <Gold.Chemscore.Internal_Hbond>
0.0000

> <Gold.Chemscore.DEClash>
0.2920

> <Gold.Chemscore.DEInternal>
0.5774

> <Gold.Chemscore.Rot>
2.6467

> <Gold.Chemscore.Internal.Correction>
   9.000000E+99

> <Gold.Chemscore.Hbonds>
donor molecule, donor type, donor heavy atom, donor atom, acceptor molecule, acceptor atom, score
      L1  H    19    45       P1  8028  0.92
      P1  H  7989  7998       L1    18  0.70

> <Gold.Chemscore.Hbond.Weighted>
-6.4787

> <Gold.Chemscore.Metal.Weighted>
-0.0000

> <Gold.Chemscore.Lipo.Weighted>
-14.3316

> <Gold.Chemscore.Internal_Hbond.Weighted>
0.0000

> <Gold.Chemscore.DEClash.Weighted>
0.2920

> <Gold.Chemscore.DEInternal.Weighted>
0.5774

> <Gold.Chemscore.Rot.Weighted>
6.7756

> <Gold.Chemscore.Internal.Correction.Weighted>
   9.000000E+99

> <Gold.Protein.RotatedTorsions>
[ 6907 6896 6895 6894 ] final  178.96 input  -60.11 | X-H torsion
[ 7974 7965 7964 7962 ] final -153.91 input  175.53 | X-H torsion
[ 8008 7997 7996 7995 ] final  -32.93 input   59.86 | X-H torsion
[ 10167 10162 10161 10158 ] final   71.92 input  -65.29 | X-H torsion
[ 10718 10713 10712 10709 ] final  111.29 input   66.30 | X-H torsion
[ 10763 10752 10751 10750 ] final  -84.71 input  -60.55 | X-H torsion
[ 11005 11000 10999 10996 ] final  -19.91 input  -57.11 | X-H torsion

> <Gold.Protein.ActiveResidues>
 VAL166  LYS551  ARG553  GLY616  TRP617  ASP618  TYR619  PRO620  LYS621  CYS622 
 ASP623  PHE694  ASN695  SER759  ASP760  ASP761  ALA762  ILE779  LEU786  VAL792 
 PHE793  MET794  SER795  GLU796  ALA797  LYS798  CYS799  TRP800  GLU811  SER814 

> <Gold.Protein.RotatedAtoms>
  151.6793  133.3312  159.3215 H   0  0  0  0  0  0  0  0  0  0  0  0  # atno 6907 bound_to 6896
  150.7830  134.6794  159.6445 H   0  0  0  0  0  0  0  0  0  0  0  0  # atno 6908 bound_to 6896
  152.3893  134.6471  160.0166 H   0  0  0  0  0  0  0  0  0  0  0  0  # atno 6909 bound_to 6896
  144.7716  140.4460  143.5903 H   0  0  0  0  0  0  0  0  0  0  0  0  # atno 7974 bound_to 7965
  154.4164  140.1724  156.1806 H   0  0  0  0  0  0  0  0  0  0  0  0  # atno 8008 bound_to 7997
  155.9685  140.3387  155.6530 H   0  0  0  0  0  0  0  0  0  0  0  0  # atno 8009 bound_to 7997
  155.6656  140.0706  157.2529 H   0  0  0  0  0  0  0  0  0  0  0  0  # atno 8010 bound_to 7997
  140.0408  144.5390  150.7435 H   0  0  0  0  0  0  0  0  0  0  0  0  # atno 10167 bound_to 10162
  157.6452  131.0948  150.6727 H   0  0  0  0  0  0  0  0  0  0  0  0  # atno 10718 bound_to 10713
  154.6027  135.5511  153.7391 H   0  0  0  0  0  0  0  0  0  0  0  0  # atno 10763 bound_to 10752
  153.0161  135.6370  154.1691 H   0  0  0  0  0  0  0  0  0  0  0  0  # atno 10764 bound_to 10752
  154.1630  135.2896  155.3083 H   0  0  0  0  0  0  0  0  0  0  0  0  # atno 10765 bound_to 10752
  140.8413  133.7924  155.9863 H   0  0  0  0  0  0  0  0  0  0  0  0  # atno 11005 bound_to 11000
  145.6307  139.1536  143.2970 LP  0  0  0  0  0  0  0  0  0  0  0  0  # atno 17320 bound_to 7965
  146.1866  140.6411  142.9164 LP  0  0  0  0  0  0  0  0  0  0  0  0  # atno 17321 bound_to 7965
  140.7261  143.2637  151.4116 LP  0  0  0  0  0  0  0  0  0  0  0  0  # atno 17342 bound_to 10162
  139.6015  144.1286  152.2203 LP  0  0  0  0  0  0  0  0  0  0  0  0  # atno 17343 bound_to 10162
  156.7045  130.4633  149.5564 LP  0  0  0  0  0  0  0  0  0  0  0  0  # atno 17370 bound_to 10713
  156.1772  130.6475  151.0908 LP  0  0  0  0  0  0  0  0  0  0  0  0  # atno 17371 bound_to 10713
  140.8892  134.2516  157.5103 LP  0  0  0  0  0  0  0  0  0  0  0  0  # atno 17394 bound_to 11000
  139.8703  134.9653  156.4525 LP  0  0  0  0  0  0  0  0  0  0  0  0  # atno 17395 bound_to 11000

$$$$
