AV-unprocessed.smi:897|AV-procd|sdf|4082|dock4
  -GOLD-   22720 1573D 1   1.00000     0.00000
 Structure written by MMmdl.
 35 37  0  0  0  0  0  0  0  0  1 V2000
  150.8982  145.3309  159.2201 C   0  0  0  0  0  0  0  0  0  0  0  0
  151.6149  144.0688  159.6517 C   0  0  0  0  0  0  0  0  0  0  0  0
  152.1380  143.9408  160.9517 C   0  0  0  0  0  0  0  0  0  0  0  0
  152.7948  142.7437  161.3015 C   0  0  0  0  0  0  0  0  0  0  0  0
  153.3590  142.5918  162.7060 C   0  0  0  0  0  0  0  0  0  0  0  0
  152.9067  141.7171  160.3277 C   0  0  0  0  0  0  0  0  0  0  0  0
  153.5851  140.4624  160.6482 C   0  0  0  0  0  0  0  0  0  0  0  0
  154.1221  139.4694  160.9024 N   0  0  0  0  0  0  0  0  0  0  0  0
  152.3464  141.9438  159.0399 C   0  0  0  0  0  0  0  0  0  0  0  0
  152.4281  140.9552  158.0413 N   0  0  0  0  0  0  0  0  0  0  0  0
  151.6843  141.0644  156.7907 C   0  0  1  0  0  0  0  0  0  0  0  0
  151.9200  139.8797  155.8448 C   0  0  0  0  0  0  0  0  0  0  0  0
  150.4924  139.3710  155.6109 C   0  0  2  0  0  0  0  0  0  0  0  0
  149.6531  140.3518  154.7808 C   0  0  0  0  0  0  0  0  0  0  0  0
  149.3951  141.4722  155.7879 C   0  0  0  0  0  0  0  0  0  0  0  0
  150.1658  140.9749  157.0182 C   0  0  1  0  0  0  0  0  0  0  0  0
  149.9416  139.5790  156.8992 O   0  0  0  0  0  0  0  0  0  0  0  0
  151.7140  143.0987  158.7211 N   0  0  0  0  0  0  0  0  0  0  0  0
  150.7764  146.0221  160.0546 H   0  0  0  0  0  0  0  0  0  0  0  0
  149.9078  145.0920  158.8312 H   0  0  0  0  0  0  0  0  0  0  0  0
  151.4628  145.8373  158.4367 H   0  0  0  0  0  0  0  0  0  0  0  0
  152.0364  144.7448  161.6661 H   0  0  0  0  0  0  0  0  0  0  0  0
  154.4396  142.4511  162.6712 H   0  0  0  0  0  0  0  0  0  0  0  0
  152.9132  141.7321  163.2067 H   0  0  0  0  0  0  0  0  0  0  0  0
  153.1549  143.4737  163.3135 H   0  0  0  0  0  0  0  0  0  0  0  0
  153.1594  140.2608  158.0979 H   0  0  0  0  0  0  0  0  0  0  0  0
  151.9279  142.0139  156.3118 H   0  0  0  0  0  0  0  0  0  0  0  0
  152.4149  140.1747  154.9190 H   0  0  0  0  0  0  0  0  0  0  0  0
  152.5224  139.1013  156.3158 H   0  0  0  0  0  0  0  0  0  0  0  0
  150.4434  138.3390  155.2626 H   0  0  0  0  0  0  0  0  0  0  0  0
  150.1795  140.6947  153.8894 H   0  0  0  0  0  0  0  0  0  0  0  0
  148.7133  139.8944  154.4696 H   0  0  0  0  0  0  0  0  0  0  0  0
  149.7451  142.4450  155.4407 H   0  0  0  0  0  0  0  0  0  0  0  0
  148.3295  141.5518  156.0063 H   0  0  0  0  0  0  0  0  0  0  0  0
  149.8202  141.4137  157.9552 H   0  0  0  0  0  0  0  0  0  0  0  0
  1  2  1  0  0  0  0
  1 19  1  0  0  0  0
  1 20  1  0  0  0  0
  1 21  1  0  0  0  0
  2 18  1  0  0  0  0
  2  3  2  0  0  0  0
  3  4  1  0  0  0  0
  3 22  1  0  0  0  0
  4  5  1  0  0  0  0
  4  6  2  0  0  0  0
  5 23  1  0  0  0  0
  5 24  1  0  0  0  0
  5 25  1  0  0  0  0
  6  7  1  0  0  0  0
  6  9  1  0  0  0  0
  7  8  3  0  0  0  0
  9 10  1  0  0  0  0
  9 18  2  0  0  0  0
 10 11  1  0  0  0  0
 10 26  1  0  0  0  0
 11 16  1  0  0  0  0
 11 12  1  0  0  0  0
 11 27  1  0  0  0  0
 12 13  1  0  0  0  0
 12 28  1  0  0  0  0
 12 29  1  0  0  0  0
 13 17  1  0  0  0  0
 13 14  1  0  0  0  0
 13 30  1  0  0  0  0
 14 15  1  0  0  0  0
 14 31  1  0  0  0  0
 14 32  1  0  0  0  0
 15 16  1  0  0  0  0
 15 33  1  0  0  0  0
 15 34  1  0  0  0  0
 16 17  1  0  0  0  0
 16 35  1  0  0  0  0
M  END
> <s_m_source_file>
AV-unprocessed.smi

> <i_m_source_file_index>
897

> <i_lp_mmshare_version>
43012

> <i_f3d_flags>
0

> <s_epik_input>
W0NIM11jMVtjSF1jKFtDSDNdKWMoQyNOKWMobjEpW05IXVtDQEhdKFtDSDJdW0NAQEhdMjMpW0NAQEhdKE8zKVtDSDJdW0NIMl0y

> <s_epik_cmdline>
J2VwaWtfcHl0aG9uJywgJy1waCcsICc3LjAnLCAnLXRuJywgJzgnLCAnLW1hJywgJzIwMCcsICctbWV0YWxfYmluZGluZycsICctaW1hZScsICc8aW5maWxlLm1hZT4nLCAnLW9tYWUnLCAnPG91dGZpbGUubWFlPic=

> <r_lp_tautomer_probability>
1

> <r_epik_Ionization_Penalty>
0.000502654

> <r_epik_Ionization_Penalty_Charging>
0

> <r_epik_Ionization_Penalty_Neutral>
0.000502654

> <r_epik_State_Penalty>
-0

> <r_epik_Charging_Adjusted_Penalty>
0

> <i_epik_Tot_Q>
0

> <i_epik_Tot_abs_Q>
0

> <r_epik_Metal_State_Penalty>
-0

> <b_epik_Metal_Only>
0

> <s_lp_Force_Field>
OPLS_2005

> <r_lp_Energy>
43.6408

> <b_lp_Chiralities_Consistent>
1

> <s_lp_Variant>
AV-unprocessed.smi:897-4

> <Gold.Version>
5.8.1

> <Gold.Id.Protein>
6NUR|6NUR_protein|mol2

> <Gold.PLP.Fitness>
39.8809

> <Gold.PLP.PLP>
-39.9445

> <Gold.PLP.part.hbond>
0.0000

> <Gold.PLP.part.metal>
0.0000

> <Gold.PLP.part.buried>
-3.8439

> <Gold.PLP.part.nonpolar>
-35.3410

> <Gold.PLP.part.repulsive>
0.1224

> <Gold.PLP.ligand.clash>
0.0000

> <Gold.PLP.ligand.torsion>
0.0419

> <Gold.PLP.Chemscore.Hbond>
0.0000

> <Gold.PLP.Chemscore.CHOScore>
0.0000

> <Gold.PLP.Chemscore.Metal>
0.0000

> <Gold.PLP.Chemscore.Internal.Correction>
0.0202

> <Gold.Rescore>
     Score         DG    S(hbond)    S(metal)    S(lipo)     H(rot)  DE(clash)    DE(int)     intcor
     15.12     -15.39       0.00        0.00     106.57       1.00       0.22       0.05       ----

> <Gold.Chemscore.Fitness>
15.1188

> <Gold.Chemscore.DG>
-15.3881

> <Gold.Chemscore.ZeroCoef>
-5.4800

> <Gold.Chemscore.Hbond>
0.0000

> <Gold.Chemscore.Metal>
0.0000

> <Gold.Chemscore.Lipo>
106.5652

> <Gold.Chemscore.Internal_Hbond>
0.0000

> <Gold.Chemscore.DEClash>
0.2159

> <Gold.Chemscore.DEInternal>
0.0533

> <Gold.Chemscore.Rot>
1.0000

> <Gold.Chemscore.Internal.Correction>
   9.000000E+99

> <Gold.Chemscore.Hbond.Weighted>
-0.0000

> <Gold.Chemscore.Metal.Weighted>
-0.0000

> <Gold.Chemscore.Lipo.Weighted>
-12.4681

> <Gold.Chemscore.Internal_Hbond.Weighted>
0.0000

> <Gold.Chemscore.DEClash.Weighted>
0.2159

> <Gold.Chemscore.DEInternal.Weighted>
0.0533

> <Gold.Chemscore.Rot.Weighted>
2.5600

> <Gold.Chemscore.Internal.Correction.Weighted>
   9.000000E+99

> <Gold.Protein.RotatedTorsions>
[ 6907 6896 6895 6894 ] final   25.35 input  -60.11 | X-H torsion
[ 7974 7965 7964 7962 ] final -148.63 input  175.53 | X-H torsion
[ 8008 7997 7996 7995 ] final   50.11 input   59.86 | X-H torsion
[ 10167 10162 10161 10158 ] final  143.34 input  -65.29 | X-H torsion
[ 10718 10713 10712 10709 ] final  -77.30 input   66.30 | X-H torsion
[ 10763 10752 10751 10750 ] final -100.03 input  -60.55 | X-H torsion
[ 11005 11000 10999 10996 ] final -156.91 input  -57.11 | X-H torsion

> <Gold.Protein.ActiveResidues>
 VAL166  LYS551  ARG553  GLY616  TRP617  ASP618  TYR619  PRO620  LYS621  CYS622 
 ASP623  PHE694  ASN695  SER759  ASP760  ASP761  ALA762  ILE779  LEU786  VAL792 
 PHE793  MET794  SER795  GLU796  ALA797  LYS798  CYS799  TRP800  GLU811  SER814 

> <Gold.Protein.RotatedAtoms>
  151.9713  135.0075  160.0552 H   0  0  0  0  0  0  0  0  0  0  0  0  # atno 6907 bound_to 6896
  152.1781  133.4684  159.4952 H   0  0  0  0  0  0  0  0  0  0  0  0  # atno 6908 bound_to 6896
  150.6912  134.1786  159.4283 H   0  0  0  0  0  0  0  0  0  0  0  0  # atno 6909 bound_to 6896
  144.8017  140.5171  143.5702 H   0  0  0  0  0  0  0  0  0  0  0  0  # atno 7974 bound_to 7965
  155.4134  140.3443  155.4265 H   0  0  0  0  0  0  0  0  0  0  0  0  # atno 8008 bound_to 7997
  156.1436  140.1549  156.8914 H   0  0  0  0  0  0  0  0  0  0  0  0  # atno 8009 bound_to 7997
  154.4991  140.0819  156.7741 H   0  0  0  0  0  0  0  0  0  0  0  0  # atno 8010 bound_to 7997
  139.4972  144.6046  151.6406 H   0  0  0  0  0  0  0  0  0  0  0  0  # atno 10167 bound_to 10162
  156.0149  130.4488  150.3324 H   0  0  0  0  0  0  0  0  0  0  0  0  # atno 10718 bound_to 10713
  154.7546  135.4950  153.9351 H   0  0  0  0  0  0  0  0  0  0  0  0  # atno 10763 bound_to 10752
  153.1182  135.6725  153.9390 H   0  0  0  0  0  0  0  0  0  0  0  0  # atno 10764 bound_to 10752
  153.9129  135.3097  155.3427 H   0  0  0  0  0  0  0  0  0  0  0  0  # atno 10765 bound_to 10752
  140.6704  134.4254  157.5232 H   0  0  0  0  0  0  0  0  0  0  0  0  # atno 11005 bound_to 11000
  145.5536  139.1477  143.3380 LP  0  0  0  0  0  0  0  0  0  0  0  0  # atno 17320 bound_to 7965
  146.2300  140.5674  142.8979 LP  0  0  0  0  0  0  0  0  0  0  0  0  # atno 17321 bound_to 7965
  140.5705  144.0117  150.6214 LP  0  0  0  0  0  0  0  0  0  0  0  0  # atno 17342 bound_to 10162
  140.3233  143.3123  152.0762 LP  0  0  0  0  0  0  0  0  0  0  0  0  # atno 17343 bound_to 10162
  157.1422  131.0299  151.2922 LP  0  0  0  0  0  0  0  0  0  0  0  0  # atno 17370 bound_to 10713
  157.4462  130.7572  149.7112 LP  0  0  0  0  0  0  0  0  0  0  0  0  # atno 17371 bound_to 10713
  139.8983  134.8616  156.2005 LP  0  0  0  0  0  0  0  0  0  0  0  0  # atno 17394 bound_to 11000
  141.0397  133.6944  156.1575 LP  0  0  0  0  0  0  0  0  0  0  0  0  # atno 17395 bound_to 11000

$$$$
