AV-unprocessed.smi:102|AV-procd|sdf|950|dock2
  -GOLD-   2262017473D 1   1.00000     0.00000
 Structure written by MMmdl.
 44 45  0  0  0  0  0  0  0  0  1 V2000
  146.2147  137.3198  162.0825 C   0  0  0  0  0  0  0  0  0  0  0  0
  147.2465  137.0348  160.9994 C   0  0  0  0  0  0  0  0  0  0  0  0
  148.4528  137.1651  161.2074 O   0  0  0  0  0  0  0  0  0  0  0  0
  146.6820  136.6442  159.8487 O   0  0  0  0  0  0  0  0  0  0  0  0
  147.4919  136.1220  158.8061 C   0  0  0  0  0  0  0  0  0  0  0  0
  148.0545  137.2587  157.9371 C   0  0  1  0  0  0  0  0  0  0  0  0
  148.7693  138.2031  158.7153 O   0  0  0  0  0  0  0  0  0  0  0  0
  149.5904  138.9417  157.8699 C   0  0  1  0  0  0  0  0  0  0  0  0
  150.8615  139.2439  158.6304 N   0  0  0  0  0  0  0  0  0  0  0  0
  151.3153  140.5518  158.7449 C   0  0  0  0  0  0  0  0  0  0  0  0
  152.4864  140.8808  159.3382 C   0  0  0  0  0  0  0  0  0  0  0  0
  152.8549  142.1711  159.4098 F   0  0  0  0  0  0  0  0  0  0  0  0
  153.3623  139.8456  159.8774 C   0  0  0  0  0  0  0  0  0  0  0  0
  154.4347  140.0436  160.4448 O   0  0  0  0  0  0  0  0  0  0  0  0
  152.8951  138.5416  159.6908 N   0  0  0  0  0  0  0  0  0  0  0  0
  151.6951  138.1891  159.0697 C   0  0  0  0  0  0  0  0  0  0  0  0
  151.4067  137.0007  158.9360 O   0  0  0  0  0  0  0  0  0  0  0  0
  149.8494  138.1262  156.5872 C   0  0  2  0  0  0  0  0  0  0  0  0
  149.4374  138.8648  155.4440 O   0  0  0  0  0  0  0  0  0  0  0  0
  150.2305  139.8264  154.9405 C   0  0  0  0  0  0  0  0  0  0  0  0
  149.4385  140.9396  154.2681 C   0  0  0  0  0  0  0  0  0  0  0  0
  151.4606  139.8494  154.9875 O   0  0  0  0  0  0  0  0  0  0  0  0
  148.9887  136.8800  156.7763 C   0  0  1  0  0  0  0  0  0  0  0  0
  149.8509  135.7807  157.0514 O   0  0  0  0  0  0  0  0  0  0  0  0
  150.7246  135.3394  156.1286 C   0  0  0  0  0  0  0  0  0  0  0  0
  150.9843  133.8437  156.2471 C   0  0  0  0  0  0  0  0  0  0  0  0
  151.2682  136.0181  155.2577 O   0  0  0  0  0  0  0  0  0  0  0  0
  153.4811  137.7900  160.0243 H   0  0  0  0  0  0  0  0  0  0  0  0
  145.4989  138.0663  161.7378 H   0  0  0  0  0  0  0  0  0  0  0  0
  146.6991  137.6955  162.9838 H   0  0  0  0  0  0  0  0  0  0  0  0
  145.6718  136.4091  162.3362 H   0  0  0  0  0  0  0  0  0  0  0  0
  148.3121  135.5349  159.2220 H   0  0  0  0  0  0  0  0  0  0  0  0
  146.8898  135.4504  158.1929 H   0  0  0  0  0  0  0  0  0  0  0  0
  147.2095  137.7967  157.5044 H   0  0  0  0  0  0  0  0  0  0  0  0
  149.0976  139.8879  157.6422 H   0  0  0  0  0  0  0  0  0  0  0  0
  150.7227  141.3545  158.3321 H   0  0  0  0  0  0  0  0  0  0  0  0
  150.9089  137.8794  156.5046 H   0  0  0  0  0  0  0  0  0  0  0  0
  148.8927  141.5179  155.0136 H   0  0  0  0  0  0  0  0  0  0  0  0
  148.7228  140.5229  153.5592 H   0  0  0  0  0  0  0  0  0  0  0  0
  150.1060  141.6127  153.7294 H   0  0  0  0  0  0  0  0  0  0  0  0
  148.4028  136.6848  155.8767 H   0  0  0  0  0  0  0  0  0  0  0  0
  150.2010  133.2842  155.7356 H   0  0  0  0  0  0  0  0  0  0  0  0
  151.0014  133.5394  157.2939 H   0  0  0  0  0  0  0  0  0  0  0  0
  151.9437  133.5867  155.7981 H   0  0  0  0  0  0  0  0  0  0  0  0
  1  2  1  0  0  0  0
  1 29  1  0  0  0  0
  1 30  1  0  0  0  0
  1 31  1  0  0  0  0
  2  3  2  0  0  0  0
  2  4  1  0  0  0  0
  4  5  1  0  0  0  0
  5  6  1  0  0  0  0
  5 32  1  0  0  0  0
  5 33  1  0  0  0  0
  6 23  1  0  0  0  0
  6  7  1  0  0  0  0
  6 34  1  0  0  0  0
  7  8  1  0  0  0  0
  8  9  1  0  0  0  0
  8 18  1  0  0  0  0
  8 35  1  0  0  0  0
  9 16  1  0  0  0  0
  9 10  1  0  0  0  0
 10 11  2  0  0  0  0
 10 36  1  0  0  0  0
 11 12  1  0  0  0  0
 11 13  1  0  0  0  0
 13 14  2  0  0  0  0
 13 15  1  0  0  0  0
 15 28  1  0  0  0  0
 15 16  1  0  0  0  0
 16 17  2  0  0  0  0
 18 19  1  0  0  0  0
 18 23  1  0  0  0  0
 18 37  1  0  0  0  0
 19 20  1  0  0  0  0
 20 21  1  0  0  0  0
 20 22  2  0  0  0  0
 21 38  1  0  0  0  0
 21 39  1  0  0  0  0
 21 40  1  0  0  0  0
 23 24  1  0  0  0  0
 23 41  1  0  0  0  0
 24 25  1  0  0  0  0
 25 26  1  0  0  0  0
 25 27  2  0  0  0  0
 26 42  1  0  0  0  0
 26 43  1  0  0  0  0
 26 44  1  0  0  0  0
M  END
> <s_m_source_file>
AV-unprocessed.smi

> <i_m_source_file_index>
102

> <i_lp_mmshare_version>
43012

> <i_f3d_flags>
0

> <s_epik_input>
W0NIM11DKD1PKU9bQ0gyXVtDQEBIXTFPW0NASF0oW0NAQEhdKE9DKD1PKVtDSDNdKVtDQEhdMU9DKD1PKVtDSDNdKW4yW2NIXWMoRiljKD1PKVtuSF1jMj1P

> <s_epik_cmdline>
J2VwaWtfcHl0aG9uJywgJy1waCcsICc3LjAnLCAnLXRuJywgJzgnLCAnLW1hJywgJzIwMCcsICctbWV0YWxfYmluZGluZycsICctaW1hZScsICc8aW5maWxlLm1hZT4nLCAnLW9tYWUnLCAnPG91dGZpbGUubWFlPic=

> <r_lp_tautomer_probability>
0.999537

> <r_epik_Ionization_Penalty>
0.058267

> <r_epik_Ionization_Penalty_Charging>
0.058267

> <r_epik_Ionization_Penalty_Neutral>
6.57791e-16

> <r_epik_State_Penalty>
0.0503774

> <r_epik_Charging_Adjusted_Penalty>
0.108644

> <i_epik_Tot_Q>
0

> <i_epik_Tot_abs_Q>
0

> <r_epik_Metal_State_Penalty>
2.6644

> <b_epik_Metal_Only>
0

> <s_epik_Chemistry_Notes>
This compound has an ester and may undergo hydrolysis at high or low pH. This compound contains an acetal/aminal-like group ( X-CH(R)-Y where X, Y are N, S, or O) that may be acid/base labile, releasing an aldehyde.

> <s_lp_Force_Field>
OPLS_2005

> <r_lp_Energy>
13.4822

> <b_lp_Chiralities_Consistent>
1

> <s_lp_Variant>
AV-unprocessed.smi:102-6

> <Gold.Version>
5.8.1

> <Gold.Id.Protein>
6NUR|6NUR_protein|mol2

> <Gold.PLP.Fitness>
44.3012

> <Gold.PLP.PLP>
-34.3981

> <Gold.PLP.part.hbond>
-4.8241

> <Gold.PLP.part.metal>
0.0000

> <Gold.PLP.part.buried>
-6.7241

> <Gold.PLP.part.nonpolar>
-24.2776

> <Gold.PLP.part.repulsive>
0.2700

> <Gold.PLP.ligand.clash>
0.0000

> <Gold.PLP.ligand.torsion>
1.2051

> <Gold.PLP.Chemscore.Hbond>
3.9920

> <Gold.PLP.Chemscore.CHOScore>
0.0000

> <Gold.PLP.Chemscore.Metal>
0.0000

> <Gold.Chemscore.Hbonds>
donor molecule, donor type, donor heavy atom, donor atom, acceptor molecule, acceptor atom, score
      P1  H  6896  6908       L1    17  0.84
      P1  H  6931  6943       L1     3  0.70
      P1  H  7989  7998       L1    22  0.75
      P1  H 10752 10763       L1    27  1.00

> <Gold.PLP.Chemscore.Internal.Correction>
0.3373

> <Gold.Rescore>
     Score         DG    S(hbond)    S(metal)    S(lipo)     H(rot)  DE(clash)    DE(int)     intcor
      5.82     -11.96       3.77        0.00      36.36       4.05       0.02       6.12       ----

> <Gold.Chemscore.Fitness>
5.8167

> <Gold.Chemscore.DG>
-11.9589

> <Gold.Chemscore.ZeroCoef>
-5.4800

> <Gold.Chemscore.Hbond>
3.7717

> <Gold.Chemscore.Metal>
0.0000

> <Gold.Chemscore.Lipo>
36.3649

> <Gold.Chemscore.Internal_Hbond>
0.0000

> <Gold.Chemscore.DEClash>
0.0234

> <Gold.Chemscore.DEInternal>
6.1187

> <Gold.Chemscore.Rot>
4.0520

> <Gold.Chemscore.Internal.Correction>
   9.000000E+99

> <Gold.Chemscore.Hbonds>
donor molecule, donor type, donor heavy atom, donor atom, acceptor molecule, acceptor atom, score
      P1  H  6896  6908       L1    17  0.78
      P1  H  6931  6943       L1     3  0.70
      P1  H  7989  7998       L1    22  0.09
      P1  H 10752 10763       L1    27  0.91

> <Gold.Chemscore.Hbond.Weighted>
-12.5974

> <Gold.Chemscore.Metal.Weighted>
-0.0000

> <Gold.Chemscore.Lipo.Weighted>
-4.2547

> <Gold.Chemscore.Internal_Hbond.Weighted>
0.0000

> <Gold.Chemscore.DEClash.Weighted>
0.0234

> <Gold.Chemscore.DEInternal.Weighted>
6.1187

> <Gold.Chemscore.Rot.Weighted>
10.3732

> <Gold.Chemscore.Internal.Correction.Weighted>
   9.000000E+99

> <Gold.Protein.RotatedTorsions>
[ 6907 6896 6895 6894 ] final -133.19 input  -60.11 | X-H torsion
[ 7974 7965 7964 7962 ] final -104.95 input  175.53 | X-H torsion
[ 8008 7997 7996 7995 ] final -127.81 input   59.86 | X-H torsion
[ 10167 10162 10161 10158 ] final   27.02 input  -65.29 | X-H torsion
[ 10718 10713 10712 10709 ] final   -3.28 input   66.30 | X-H torsion
[ 10763 10752 10751 10750 ] final   75.88 input  -60.55 | X-H torsion
[ 11005 11000 10999 10996 ] final    8.68 input  -57.11 | X-H torsion

> <Gold.Protein.ActiveResidues>
 VAL166  LYS551  ARG553  GLY616  TRP617  ASP618  TYR619  PRO620  LYS621  CYS622 
 ASP623  PHE694  ASN695  SER759  ASP760  ASP761  ALA762  ILE779  LEU786  VAL792 
 PHE793  MET794  SER795  GLU796  ALA797  LYS798  CYS799  TRP800  GLU811  SER814 

> <Gold.Protein.RotatedAtoms>
  150.9711  133.6343  159.2737 H   0  0  0  0  0  0  0  0  0  0  0  0  # atno 6907 bound_to 6896
  151.3632  135.0907  159.9451 H   0  0  0  0  0  0  0  0  0  0  0  0  # atno 6908 bound_to 6896
  152.5183  133.9280  159.7621 H   0  0  0  0  0  0  0  0  0  0  0  0  # atno 6909 bound_to 6896
  145.2366  140.9190  143.3174 H   0  0  0  0  0  0  0  0  0  0  0  0  # atno 7974 bound_to 7965
  155.2524  140.0433  157.2988 H   0  0  0  0  0  0  0  0  0  0  0  0  # atno 8008 bound_to 7997
  154.5761  140.2387  155.8090 H   0  0  0  0  0  0  0  0  0  0  0  0  # atno 8009 bound_to 7997
  156.2159  140.2985  155.9846 H   0  0  0  0  0  0  0  0  0  0  0  0  # atno 8010 bound_to 7997
  140.4973  144.0371  150.6319 H   0  0  0  0  0  0  0  0  0  0  0  0  # atno 10167 bound_to 10162
  156.7784  130.5322  149.5755 H   0  0  0  0  0  0  0  0  0  0  0  0  # atno 10718 bound_to 10713
  153.0685  135.4972  154.8254 H   0  0  0  0  0  0  0  0  0  0  0  0  # atno 10763 bound_to 10752
  154.6989  135.2998  154.9373 H   0  0  0  0  0  0  0  0  0  0  0  0  # atno 10764 bound_to 10752
  154.0103  135.6755  153.4818 H   0  0  0  0  0  0  0  0  0  0  0  0  # atno 10765 bound_to 10752
  140.5343  134.0436  155.7883 H   0  0  0  0  0  0  0  0  0  0  0  0  # atno 11005 bound_to 11000
  144.9627  139.3962  143.6347 LP  0  0  0  0  0  0  0  0  0  0  0  0  # atno 17320 bound_to 7965
  146.3339  139.8688  142.8843 LP  0  0  0  0  0  0  0  0  0  0  0  0  # atno 17321 bound_to 7965
  140.3657  143.2883  152.0334 LP  0  0  0  0  0  0  0  0  0  0  0  0  # atno 17342 bound_to 10162
  139.4864  144.6269  151.7147 LP  0  0  0  0  0  0  0  0  0  0  0  0  # atno 17343 bound_to 10162
  156.1234  130.6126  151.0227 LP  0  0  0  0  0  0  0  0  0  0  0  0  # atno 17370 bound_to 10713
  157.6658  131.0872  150.7732 LP  0  0  0  0  0  0  0  0  0  0  0  0  # atno 17371 bound_to 10713
  141.1264  133.9376  157.2627 LP  0  0  0  0  0  0  0  0  0  0  0  0  # atno 17394 bound_to 11000
  139.9538  135.0170  156.9069 LP  0  0  0  0  0  0  0  0  0  0  0  0  # atno 17395 bound_to 11000

$$$$
