AV-unprocessed.smi:2472|AV-procd|sdf|9741|dock4
  -GOLD-   2272013383D 1   1.00000     0.00000
 Structure written by MMmdl.
 47 49  0  0  0  0  0  0  0  0  1 V2000
  147.7107  132.9738  160.1819 C   0  0  0  0  0  0  0  0  0  0  0  0
  147.3755  134.2555  160.9241 C   0  0  0  0  0  0  0  0  0  0  0  0
  146.6285  134.2027  162.1208 C   0  0  0  0  0  0  0  0  0  0  0  0
  146.2888  135.2942  162.8373 N   0  0  0  0  0  0  0  0  0  0  0  0
  146.6835  136.4981  162.3749 C   0  0  0  0  0  0  0  0  0  0  0  0
  147.4317  136.6676  161.1940 C   0  0  0  0  0  0  0  0  0  0  0  0
  147.8024  135.5204  160.4522 C   0  0  0  0  0  0  0  0  0  0  0  0
  148.5394  135.5915  159.2375 N   0  0  0  0  0  0  0  0  0  0  0  0
  149.1900  136.6489  158.7237 C   0  0  0  0  0  0  0  0  0  0  0  0
  149.2454  137.7662  159.2373 O   0  0  0  0  0  0  0  0  0  0  0  0
  149.8174  136.3226  157.5794 N   0  0  0  0  0  0  0  0  0  0  0  0
  150.6686  137.1834  156.7366 C   0  0  0  0  0  0  0  0  0  0  0  0
  151.8665  137.8019  157.5140 C   0  0  0  0  0  0  0  0  0  0  0  0
  152.7324  137.0690  157.9941 O   0  0  0  0  0  0  0  0  0  0  0  0
  151.9095  139.1369  157.6552 N   0  0  0  0  0  0  0  0  0  0  0  0
  152.9589  139.8732  158.3420 C   0  0  0  0  0  0  0  0  0  0  0  0
  152.4798  141.1598  158.9807 C   0  0  0  0  0  0  0  0  0  0  0  0
  152.8007  142.4957  158.3534 C   0  0  0  0  0  0  0  0  0  0  0  0
  153.4487  142.0997  159.6586 C   0  0  0  0  0  0  0  0  0  0  0  0
  151.2239  136.3240  155.5752 C   0  0  0  0  0  0  0  0  0  0  0  0
  151.2585  137.2297  154.3461 C   0  0  0  0  0  0  0  0  0  0  0  0
  150.0182  138.1000  154.4995 C   0  0  0  0  0  0  0  0  0  0  0  0
  149.8233  138.2774  156.0108 C   0  0  0  0  0  0  0  0  0  0  0  0
  147.3399  132.0984  160.7163 H   0  0  0  0  0  0  0  0  0  0  0  0
  148.7902  132.8683  160.0714 H   0  0  0  0  0  0  0  0  0  0  0  0
  147.2593  132.9800  159.1895 H   0  0  0  0  0  0  0  0  0  0  0  0
  146.2906  133.2566  162.5174 H   0  0  0  0  0  0  0  0  0  0  0  0
  146.3881  137.3558  162.9612 H   0  0  0  0  0  0  0  0  0  0  0  0
  147.6948  137.6646  160.8751 H   0  0  0  0  0  0  0  0  0  0  0  0
  148.6636  134.7143  158.7541 H   0  0  0  0  0  0  0  0  0  0  0  0
  149.7071  135.3732  157.2547 H   0  0  0  0  0  0  0  0  0  0  0  0
  151.1678  139.6804  157.2384 H   0  0  0  0  0  0  0  0  0  0  0  0
  153.4079  139.2332  159.1032 H   0  0  0  0  0  0  0  0  0  0  0  0
  153.7473  140.1209  157.6296 H   0  0  0  0  0  0  0  0  0  0  0  0
  151.4915  141.0817  159.4306 H   0  0  0  0  0  0  0  0  0  0  0  0
  153.4270  142.5016  157.4633 H   0  0  0  0  0  0  0  0  0  0  0  0
  152.0313  143.2646  158.3874 H   0  0  0  0  0  0  0  0  0  0  0  0
  153.1098  142.6013  160.5629 H   0  0  0  0  0  0  0  0  0  0  0  0
  154.5059  141.8430  159.6363 H   0  0  0  0  0  0  0  0  0  0  0  0
  152.2050  135.8939  155.7839 H   0  0  0  0  0  0  0  0  0  0  0  0
  150.5562  135.4855  155.3688 H   0  0  0  0  0  0  0  0  0  0  0  0
  152.1539  137.8521  154.3658 H   0  0  0  0  0  0  0  0  0  0  0  0
  151.2637  136.6689  153.4110 H   0  0  0  0  0  0  0  0  0  0  0  0
  150.1121  139.0521  153.9764 H   0  0  0  0  0  0  0  0  0  0  0  0
  149.1563  137.5789  154.0809 H   0  0  0  0  0  0  0  0  0  0  0  0
  148.7593  138.2122  156.2402 H   0  0  0  0  0  0  0  0  0  0  0  0
  150.1238  139.2840  156.3049 H   0  0  0  0  0  0  0  0  0  0  0  0
  1  2  1  0  0  0  0
  1 24  1  0  0  0  0
  1 25  1  0  0  0  0
  1 26  1  0  0  0  0
  2  7  1  0  0  0  0
  2  3  2  0  0  0  0
  3  4  1  0  0  0  0
  3 27  1  0  0  0  0
  4  5  2  0  0  0  0
  5  6  1  0  0  0  0
  5 28  1  0  0  0  0
  6  7  2  0  0  0  0
  6 29  1  0  0  0  0
  7  8  1  0  0  0  0
  8  9  1  0  0  0  0
  8 30  1  0  0  0  0
  9 10  2  0  0  0  0
  9 11  1  0  0  0  0
 11 12  1  0  0  0  0
 11 31  1  0  0  0  0
 12 23  1  0  0  0  0
 12 13  1  0  0  0  0
 12 20  1  0  0  0  0
 13 14  2  0  0  0  0
 13 15  1  0  0  0  0
 15 16  1  0  0  0  0
 15 32  1  0  0  0  0
 16 17  1  0  0  0  0
 16 33  1  0  0  0  0
 16 34  1  0  0  0  0
 17 19  1  0  0  0  0
 17 18  1  0  0  0  0
 17 35  1  0  0  0  0
 18 19  1  0  0  0  0
 18 36  1  0  0  0  0
 18 37  1  0  0  0  0
 19 38  1  0  0  0  0
 19 39  1  0  0  0  0
 20 21  1  0  0  0  0
 20 40  1  0  0  0  0
 20 41  1  0  0  0  0
 21 22  1  0  0  0  0
 21 42  1  0  0  0  0
 21 43  1  0  0  0  0
 22 23  1  0  0  0  0
 22 44  1  0  0  0  0
 22 45  1  0  0  0  0
 23 46  1  0  0  0  0
 23 47  1  0  0  0  0
M  END
> <s_m_source_file>
AV-unprocessed.smi

> <i_m_source_file_index>
2472

> <i_lp_mmshare_version>
43012

> <i_f3d_flags>
0

> <s_epik_input>
W0NIM11jMVtjSF1uW2NIXVtjSF1jMVtOSF1DKD1PKVtOSF1DMihbQ0gyXVtDSDJdW0NIMl1bQ0gyXTIpQyg9TylbTkhdW0NIMl1bQ0hdM1tDSDJdW0NIMl0z

> <s_epik_cmdline>
J2VwaWtfcHl0aG9uJywgJy1waCcsICc3LjAnLCAnLXRuJywgJzgnLCAnLW1hJywgJzIwMCcsICctbWV0YWxfYmluZGluZycsICctaW1hZScsICc8aW5maWxlLm1hZT4nLCAnLW9tYWUnLCAnPG91dGZpbGUubWFlPic=

> <r_epik_Ionization_Penalty>
0.187836

> <r_epik_Ionization_Penalty_Charging>
0

> <r_epik_Ionization_Penalty_Neutral>
0.187836

> <r_epik_State_Penalty>
0.177409

> <r_epik_Charging_Adjusted_Penalty>
0.177409

> <i_epik_Tot_Q>
0

> <i_epik_Tot_abs_Q>
0

> <r_epik_Metal_State_Penalty>
0.134269

> <b_epik_Metal_Only>
0

> <s_lp_Force_Field>
OPLS_2005

> <r_lp_Energy>
32.7124

> <b_lp_Chiralities_Consistent>
1

> <s_lp_Variant>
AV-unprocessed.smi:2472-1

> <Gold.Version>
5.8.1

> <Gold.Id.Protein>
6NUR|6NUR_protein|mol2

> <Gold.PLP.Fitness>
38.6244

> <Gold.PLP.PLP>
-39.2330

> <Gold.PLP.part.hbond>
-2.4566

> <Gold.PLP.part.metal>
0.0000

> <Gold.PLP.part.buried>
-5.8429

> <Gold.PLP.part.nonpolar>
-32.1287

> <Gold.PLP.part.repulsive>
0.2649

> <Gold.PLP.ligand.clash>
0.0000

> <Gold.PLP.ligand.torsion>
0.7203

> <Gold.PLP.Chemscore.Hbond>
0.0645

> <Gold.PLP.Chemscore.CHOScore>
0.0000

> <Gold.PLP.Chemscore.Metal>
0.0000

> <Gold.PLP.Chemscore.Internal.Correction>
0.6386

> <Gold.Rescore>
     Score         DG    S(hbond)    S(metal)    S(lipo)     H(rot)  DE(clash)    DE(int)     intcor
     11.89     -13.63       0.17        0.00      99.62       1.59       0.00       1.73       ----

> <Gold.Chemscore.Fitness>
11.8932

> <Gold.Chemscore.DG>
-13.6264

> <Gold.Chemscore.ZeroCoef>
-5.4800

> <Gold.Chemscore.Hbond>
0.1712

> <Gold.Chemscore.Metal>
0.0000

> <Gold.Chemscore.Lipo>
99.6193

> <Gold.Chemscore.Internal_Hbond>
0.0000

> <Gold.Chemscore.DEClash>
0.0038

> <Gold.Chemscore.DEInternal>
1.7294

> <Gold.Chemscore.Rot>
1.5941

> <Gold.Chemscore.Internal.Correction>
   9.000000E+99

> <Gold.Chemscore.Hbond.Weighted>
-0.5718

> <Gold.Chemscore.Metal.Weighted>
-0.0000

> <Gold.Chemscore.Lipo.Weighted>
-11.6555

> <Gold.Chemscore.Internal_Hbond.Weighted>
0.0000

> <Gold.Chemscore.DEClash.Weighted>
0.0038

> <Gold.Chemscore.DEInternal.Weighted>
1.7294

> <Gold.Chemscore.Rot.Weighted>
4.0809

> <Gold.Chemscore.Internal.Correction.Weighted>
   9.000000E+99

> <Gold.Protein.RotatedTorsions>
[ 6907 6896 6895 6894 ] final  145.53 input  -60.11 | X-H torsion
[ 7974 7965 7964 7962 ] final  150.97 input  175.53 | X-H torsion
[ 8008 7997 7996 7995 ] final -137.13 input   59.86 | X-H torsion
[ 10167 10162 10161 10158 ] final  101.13 input  -65.29 | X-H torsion
[ 10718 10713 10712 10709 ] final -140.84 input   66.30 | X-H torsion
[ 10763 10752 10751 10750 ] final  -32.91 input  -60.55 | X-H torsion
[ 11005 11000 10999 10996 ] final   -8.65 input  -57.11 | X-H torsion

> <Gold.Protein.ActiveResidues>
 VAL166  LYS551  ARG553  GLY616  TRP617  ASP618  TYR619  PRO620  LYS621  CYS622 
 ASP623  PHE694  ASN695  SER759  ASP760  ASP761  ALA762  ILE779  LEU786  VAL792 
 PHE793  MET794  SER795  GLU796  ALA797  LYS798  CYS799  TRP800  GLU811  SER814 

> <Gold.Protein.RotatedAtoms>
  152.1796  133.4698  159.4951 H   0  0  0  0  0  0  0  0  0  0  0  0  # atno 6907 bound_to 6896
  150.6932  134.1850  159.4272 H   0  0  0  0  0  0  0  0  0  0  0  0  # atno 6908 bound_to 6896
  151.9760  135.0052  160.0606 H   0  0  0  0  0  0  0  0  0  0  0  0  # atno 6909 bound_to 6896
  144.8326  139.6477  143.6052 H   0  0  0  0  0  0  0  0  0  0  0  0  # atno 7974 bound_to 7965
  155.4068  140.0509  157.3034 H   0  0  0  0  0  0  0  0  0  0  0  0  # atno 8008 bound_to 7997
  154.4965  140.2140  155.9397 H   0  0  0  0  0  0  0  0  0  0  0  0  # atno 8009 bound_to 7997
  156.1412  140.3154  155.8503 H   0  0  0  0  0  0  0  0  0  0  0  0  # atno 8010 bound_to 7997
  139.7465  144.6996  151.0496 H   0  0  0  0  0  0  0  0  0  0  0  0  # atno 10167 bound_to 10162
  156.3270  130.7565  151.1675 H   0  0  0  0  0  0  0  0  0  0  0  0  # atno 10718 bound_to 10713
  153.8215  135.6874  153.4826 H   0  0  0  0  0  0  0  0  0  0  0  0  # atno 10763 bound_to 10752
  153.1566  135.4596  154.9711 H   0  0  0  0  0  0  0  0  0  0  0  0  # atno 10764 bound_to 10752
  154.7925  135.3307  154.7687 H   0  0  0  0  0  0  0  0  0  0  0  0  # atno 10765 bound_to 10752
  140.7258  133.8790  155.8855 H   0  0  0  0  0  0  0  0  0  0  0  0  # atno 11005 bound_to 11000
  146.2627  139.6448  142.9350 LP  0  0  0  0  0  0  0  0  0  0  0  0  # atno 17320 bound_to 7965
  145.4863  141.0438  143.2617 LP  0  0  0  0  0  0  0  0  0  0  0  0  # atno 17321 bound_to 7965
  140.7793  143.4860  150.9955 LP  0  0  0  0  0  0  0  0  0  0  0  0  # atno 17342 bound_to 10162
  139.8548  143.7391  152.3176 LP  0  0  0  0  0  0  0  0  0  0  0  0  # atno 17343 bound_to 10162
  157.7423  131.0492  150.5033 LP  0  0  0  0  0  0  0  0  0  0  0  0  # atno 17370 bound_to 10713
  156.5194  130.4158  149.6259 LP  0  0  0  0  0  0  0  0  0  0  0  0  # atno 17371 bound_to 10713
  140.9964  134.1209  157.4359 LP  0  0  0  0  0  0  0  0  0  0  0  0  # atno 17394 bound_to 11000
  139.8837  135.0056  156.6322 LP  0  0  0  0  0  0  0  0  0  0  0  0  # atno 17395 bound_to 11000

$$$$
