#       Name:                AV-unprocessed.smi:3278
#       Creating user name   scv26
#       Creation time:       Fri Mar 27 18:45:54 2020


#       File generated by GOLD software.
#

@<TRIPOS>MOLECULE
AV-unprocessed.smi:3278
    42    43     1
SMALL
NO_CHARGES


@<TRIPOS>ATOM
      1 ****        -2.8151  -0.3968   3.6718 C.3            1 S1                 0.0000
      2 ****        -2.7616  -0.3243   2.2274 N.pl3          1 S1                 0.0000
      3 ****        -2.1221   0.6036   1.4355 C.2            1 S1                 0.0000
      4 ****        -2.3492   0.2631   0.1299 C.2            1 S1                 0.0000
      5 ****        -1.8553   0.9550  -1.1232 C.3            1 S1                 0.0000
      6 ****        -2.4524   2.3701  -1.2103 C.3            1 S1                 0.0000
      7 ****        -2.2724   0.2833  -2.2976 O.3            1 S1                 0.0000
      8 ****        -0.3125   1.0139  -1.1509 C.3            1 S1                 0.0000
      9 ****         0.2881  -0.3349  -1.0356 N.4            1 S1                 1.0000
     10 ****         1.7667  -0.3793  -1.0427 C.3            1 S1                 0.0000
     11 ****         2.3413   0.0329   0.3311 C.3            1 S1                 0.0000
     12 ****         3.8789   0.0468   0.3559 C.3            1 S1                 0.0000
     13 ****         4.4865  -1.3290   0.0515 C.3            1 S1                 0.0000
     14 ****         4.0293  -1.8889  -1.6102 S.3            1 S1                 0.0000
     15 ****         2.2269  -1.7946  -1.4360 C.3            1 S1                 0.0000
     16 ****        -3.1605  -0.9050   0.2381 C.2            1 S1                 0.0000
     17 ****        -3.3993  -1.2555   1.4908 N.2            1 S1                 0.0000
     18 ****        -2.2455   0.4239   4.1089 H              1 S1                 0.0000
     19 ****        -2.3909  -1.3426   4.0103 H              1 S1                 0.0000
     20 ****        -3.8505  -0.3274   4.0069 H              1 S1                 0.0000
     21 ****        -1.5600   1.4218   1.8613 H              1 S1                 0.0000
     22 ****        -2.1575   2.9795  -0.3552 H              1 S1                 0.0000
     23 ****        -3.5427   2.3393  -1.2294 H              1 S1                 0.0000
     24 ****        -2.1218   2.8897  -2.1106 H              1 S1                 0.0000
     25 ****        -2.0178   0.7976  -3.0490 H              1 S1                 0.0000
     26 ****         0.0351   1.4873  -2.0705 H              1 S1                 0.0000
     27 ****         0.0391   1.6357  -0.3278 H              1 S1                 0.0000
     28 ****        -0.0499  -0.7771  -0.1927 H              1 S1                 0.0000
     29 ****         2.1216   0.3144  -1.8065 H              1 S1                 0.0000
     30 ****         1.9909   1.0276   0.6048 H              1 S1                 0.0000
     31 ****         1.9706  -0.6412   1.1046 H              1 S1                 0.0000
     32 ****         4.2532   0.7801  -0.3595 H              1 S1                 0.0000
     33 ****         4.2187   0.3786   1.3374 H              1 S1                 0.0000
     34 ****         5.5737  -1.2857   0.1192 H              1 S1                 0.0000
     35 ****         4.1495  -2.0654   0.7818 H              1 S1                 0.0000
     36 ****         1.9064  -2.5249  -0.6919 H              1 S1                 0.0000
     37 ****         1.7799  -2.0901  -2.3859 H              1 S1                 0.0000
     38 ****        -3.5764  -1.5101  -0.5543 H              1 S1                 0.0000
     39 ****        -0.0415  -0.8703  -1.8263 H              1 S1                 0.0000
     40 ****        -3.2663   0.1729  -2.2869 LP             1 S1                 0.0000
     41 ****        -1.8377  -0.6161  -2.3429 LP             1 S1                 0.0000
     42 ****        -3.9328  -2.0356   1.8177 LP             1 S1                 0.0000
@<TRIPOS>BOND
    1    1    2 1     
    2    1   18 1     
    3    1   19 1     
    4    1   20 1     
    5    2   17 1     
    6    2    3 1     
    7    3    4 2     
    8    3   21 1     
    9    4    5 1     
   10    4   16 1     
   11    5    6 1     
   12    5    7 1     
   13    5    8 1     
   14    6   22 1     
   15    6   23 1     
   16    6   24 1     
   17    7   25 1     
   18    8    9 1     
   19    8   26 1     
   20    8   27 1     
   21    9   10 1     
   22    9   28 1     
   23    9   39 1     
   24   10   15 1     
   25   10   11 1     
   26   10   29 1     
   27   11   12 1     
   28   11   30 1     
   29   11   31 1     
   30   12   13 1     
   31   12   32 1     
   32   12   33 1     
   33   13   14 1     
   34   13   34 1     
   35   13   35 1     
   36   14   15 1     
   37   15   36 1     
   38   15   37 1     
   39   16   17 2     
   40   16   38 1     
   41    7   40 1     
   42    7   41 1     
   43   17   42 1     
@<TRIPOS>SUBSTRUCTURE
      1 S1             1
@<TRIPOS>SET
LONE_PAIRS      STATIC     ATOMS    <user>   **** ""
3 40 41 42
DONOR_HYDROGENS      STATIC     ATOMS    <user>   **** ""
3 25 28 39
ATOM$BLUE        STATIC     ATOMS    COLORGROUP SYSTEM
3 40 41 42
ATOM$RED        STATIC     ATOMS    COLORGROUP SYSTEM
3 25 28 39
