AV-unprocessed.smi:1772|AV-procd|sdf|7162|dock10
  -GOLD-   22720 8403D 1   1.00000     0.00000
 Structure written by MMmdl.
 34 35  0  0  0  0  0  0  0  0  2 V2000
  145.2430  138.3077  153.4765 O   0  0  0  0  0  0  0  0  0  0  0  0
  146.2655  137.7667  153.0564 C   0  0  0  0  0  0  0  0  0  0  0  0
  146.2716  136.5711  152.4502 N   0  0  0  0  0  0  0  0  0  0  0  0
  145.0911  135.7456  152.2148 C   0  0  0  0  0  0  0  0  0  0  0  0
  145.3055  134.7343  151.0716 C   0  0  1  0  0  0  0  0  0  0  0  0
  146.5569  133.8612  151.2863 C   0  0  0  0  0  0  0  0  0  0  0  0
  146.5408  132.7230  150.2609 C   0  0  0  0  0  0  0  0  0  0  0  0
  144.7746  132.3063  150.0130 S   0  0  0  0  0  0  0  0  0  0  0  0
  144.4636  132.3726  148.5772 O   0  0  0  0  0  0  0  0  0  0  0  0
  144.4340  131.1168  150.8078 O   0  0  0  0  0  0  0  0  0  0  0  0
  144.1086  133.7929  150.8537 C   0  0  0  0  0  0  0  0  0  0  0  0
  147.5042  138.2852  153.1246 N   0  0  0  0  0  0  0  0  0  0  0  0
  147.9191  139.5223  153.6895 C   0  0  0  0  0  0  0  0  0  0  0  0
  147.0321  140.6168  153.5851 C   0  0  0  0  0  0  0  0  0  0  0  0
  147.4041  141.8681  154.1177 C   0  0  0  0  0  0  0  0  0  0  0  0
  148.6066  142.0143  154.7137 N   0  3  0  0  0  0  0  0  0  0  0  0
  149.4940  141.0025  154.8245 C   0  0  0  0  0  0  0  0  0  0  0  0
  149.1775  139.7281  154.3109 C   0  0  0  0  0  0  0  0  0  0  0  0
  147.1547  136.2007  152.1300 H   0  0  0  0  0  0  0  0  0  0  0  0
  144.8133  135.2257  153.1333 H   0  0  0  0  0  0  0  0  0  0  0  0
  144.2597  136.4091  151.9751 H   0  0  0  0  0  0  0  0  0  0  0  0
  145.4608  135.2850  150.1425 H   0  0  0  0  0  0  0  0  0  0  0  0
  147.4746  134.4457  151.2168 H   0  0  0  0  0  0  0  0  0  0  0  0
  146.5282  133.4320  152.2889 H   0  0  0  0  0  0  0  0  0  0  0  0
  146.9456  133.0577  149.3054 H   0  0  0  0  0  0  0  0  0  0  0  0
  147.0955  131.8431  150.5873 H   0  0  0  0  0  0  0  0  0  0  0  0
  143.6822  133.4725  151.8046 H   0  0  0  0  0  0  0  0  0  0  0  0
  143.3180  134.2407  150.2510 H   0  0  0  0  0  0  0  0  0  0  0  0
  148.2299  137.7547  152.6653 H   0  0  0  0  0  0  0  0  0  0  0  0
  146.0700  140.5016  153.1069 H   0  0  0  0  0  0  0  0  0  0  0  0
  146.7806  142.7498  154.0835 H   0  0  0  0  0  0  0  0  0  0  0  0
  150.4275  141.2421  155.3125 H   0  0  0  0  0  0  0  0  0  0  0  0
  149.9104  138.9404  154.3940 H   0  0  0  0  0  0  0  0  0  0  0  0
  148.8573  142.9284  155.0920 H   0  0  0  0  0  0  0  0  0  0  0  0
  1  2  2  0  0  0  0
  2  3  1  0  0  0  0
  2 12  1  0  0  0  0
  3  4  1  0  0  0  0
  3 19  1  0  0  0  0
  4  5  1  0  0  0  0
  4 20  1  0  0  0  0
  4 21  1  0  0  0  0
  5 11  1  0  0  0  0
  5  6  1  0  0  0  0
  5 22  1  0  0  0  0
  6  7  1  0  0  0  0
  6 23  1  0  0  0  0
  6 24  1  0  0  0  0
  7  8  1  0  0  0  0
  7 25  1  0  0  0  0
  7 26  1  0  0  0  0
  8  9  2  0  0  0  0
  8 10  2  0  0  0  0
  8 11  1  0  0  0  0
 11 27  1  0  0  0  0
 11 28  1  0  0  0  0
 12 13  1  0  0  0  0
 12 29  1  0  0  0  0
 13 18  1  0  0  0  0
 13 14  2  0  0  0  0
 14 15  1  0  0  0  0
 14 30  1  0  0  0  0
 15 16  2  0  0  0  0
 15 31  1  0  0  0  0
 16 17  1  0  0  0  0
 16 34  1  0  0  0  0
 17 18  2  0  0  0  0
 17 32  1  0  0  0  0
 18 33  1  0  0  0  0
M  CHG  1  16   1
M  END
> <s_m_source_file>
AV-unprocessed.smi

> <i_m_source_file_index>
1772

> <i_lp_mmshare_version>
43012

> <i_f3d_flags>
0

> <s_epik_input>
W2NIXTFbY0hdbltjSF1bY0hdYzFbTkhdQyg9TylbTkhdW0NIMl1bQ0BASF0oW0NIMl0yKVtDSDJdW0NIMl1TMig9Tyk9Tw==

> <s_epik_cmdline>
J2VwaWtfcHl0aG9uJywgJy1waCcsICc3LjAnLCAnLXRuJywgJzgnLCAnLW1hJywgJzIwMCcsICctbWV0YWxfYmluZGluZycsICctaW1hZScsICc8aW5maWxlLm1hZT4nLCAnLW9tYWUnLCAnPG91dGZpbGUubWFlPic=

> <r_epik_Ionization_Penalty>
1.04917

> <r_epik_Ionization_Penalty_Charging>
1.04915

> <r_epik_Ionization_Penalty_Neutral>
1.90771e-05

> <r_epik_State_Penalty>
1.10185

> <r_epik_Charging_Adjusted_Penalty>
2.151

> <i_epik_Tot_Q>
1

> <i_epik_Tot_abs_Q>
1

> <r_epik_Metal_State_Penalty>
1.19638

> <b_epik_Metal_Only>
0

> <s_lp_Force_Field>
OPLS_2005

> <r_lp_Energy>
14.8117

> <b_lp_Chiralities_Consistent>
1

> <s_lp_Variant>
AV-unprocessed.smi:1772-4

> <Gold.Version>
5.8.1

> <Gold.Id.Protein>
6NUR|6NUR_protein|mol2

> <Gold.PLP.Fitness>
43.2199

> <Gold.PLP.PLP>
-32.0086

> <Gold.PLP.part.hbond>
-4.5657

> <Gold.PLP.part.metal>
0.0000

> <Gold.PLP.part.buried>
-3.6809

> <Gold.PLP.part.nonpolar>
-26.6837

> <Gold.PLP.part.repulsive>
3.4729

> <Gold.PLP.ligand.clash>
0.0000

> <Gold.PLP.ligand.torsion>
0.3958

> <Gold.PLP.Chemscore.Hbond>
4.0000

> <Gold.PLP.Chemscore.CHOScore>
0.0000

> <Gold.PLP.Chemscore.Metal>
0.0000

> <Gold.Chemscore.Hbonds>
donor molecule, donor type, donor heavy atom, donor atom, acceptor molecule, acceptor atom, score
      L1  H     3    19       P1  7948  1.00
      L1  H    12    29       P1  7948  1.00
      L1  H    16    34       P1  8028  2.00

> <Gold.PLP.Chemscore.Internal.Correction>
0.0029

> <Gold.Rescore>
     Score         DG    S(hbond)    S(metal)    S(lipo)     H(rot)  DE(clash)    DE(int)     intcor
     17.68     -19.42       3.02        0.00      61.69       1.32       0.17       1.57       ----

> <Gold.Chemscore.Fitness>
17.6783

> <Gold.Chemscore.DG>
-19.4218

> <Gold.Chemscore.ZeroCoef>
-5.4800

> <Gold.Chemscore.Hbond>
3.0213

> <Gold.Chemscore.Metal>
0.0000

> <Gold.Chemscore.Lipo>
61.6904

> <Gold.Chemscore.Internal_Hbond>
0.0000

> <Gold.Chemscore.DEClash>
0.1732

> <Gold.Chemscore.DEInternal>
1.5703

> <Gold.Chemscore.Rot>
1.3153

> <Gold.Chemscore.Internal.Correction>
   9.000000E+99

> <Gold.Chemscore.Hbonds>
donor molecule, donor type, donor heavy atom, donor atom, acceptor molecule, acceptor atom, score
      L1  H     3    19       P1  7948  0.99
      L1  H    12    29       P1  7948  0.98
      L1  H    16    34       P1  8028  1.00

> <Gold.Chemscore.Hbond.Weighted>
-10.0913

> <Gold.Chemscore.Metal.Weighted>
-0.0000

> <Gold.Chemscore.Lipo.Weighted>
-7.2178

> <Gold.Chemscore.Internal_Hbond.Weighted>
0.0000

> <Gold.Chemscore.DEClash.Weighted>
0.1732

> <Gold.Chemscore.DEInternal.Weighted>
1.5703

> <Gold.Chemscore.Rot.Weighted>
3.3673

> <Gold.Chemscore.Internal.Correction.Weighted>
   9.000000E+99

> <Gold.Protein.RotatedTorsions>
[ 6907 6896 6895 6894 ] final -125.71 input  -60.11 | X-H torsion
[ 7974 7965 7964 7962 ] final -172.24 input  175.53 | X-H torsion
[ 8008 7997 7996 7995 ] final   81.92 input   59.86 | X-H torsion
[ 10167 10162 10161 10158 ] final -131.40 input  -65.29 | X-H torsion
[ 10718 10713 10712 10709 ] final -171.46 input   66.30 | X-H torsion
[ 10763 10752 10751 10750 ] final  -53.67 input  -60.55 | X-H torsion
[ 11005 11000 10999 10996 ] final -132.77 input  -57.11 | X-H torsion

> <Gold.Protein.ActiveResidues>
 VAL166  LYS551  ARG553  GLY616  TRP617  ASP618  TYR619  PRO620  LYS621  CYS622 
 ASP623  PHE694  ASN695  SER759  ASP760  ASP761  ALA762  ILE779  LEU786  VAL792 
 PHE793  MET794  SER795  GLU796  ALA797  LYS798  CYS799  TRP800  GLU811  SER814 

> <Gold.Protein.RotatedAtoms>
  150.8895  133.7262  159.2908 H   0  0  0  0  0  0  0  0  0  0  0  0  # atno 6907 bound_to 6896
  151.4817  135.1051  159.9789 H   0  0  0  0  0  0  0  0  0  0  0  0  # atno 6908 bound_to 6896
  152.4811  133.8210  159.7109 H   0  0  0  0  0  0  0  0  0  0  0  0  # atno 6909 bound_to 6896
  144.7148  140.1802  143.6359 H   0  0  0  0  0  0  0  0  0  0  0  0  # atno 7974 bound_to 7965
  155.9037  140.3432  155.6045 H   0  0  0  0  0  0  0  0  0  0  0  0  # atno 8008 bound_to 7997
  155.7470  140.0815  157.2238 H   0  0  0  0  0  0  0  0  0  0  0  0  # atno 8009 bound_to 7997
  154.4047  140.1560  156.2668 H   0  0  0  0  0  0  0  0  0  0  0  0  # atno 8010 bound_to 7997
  139.9193  143.6401  152.2557 H   0  0  0  0  0  0  0  0  0  0  0  0  # atno 10167 bound_to 10162
  156.7413  130.9343  151.3110 H   0  0  0  0  0  0  0  0  0  0  0  0  # atno 10718 bound_to 10713
  154.1626  135.6472  153.4989 H   0  0  0  0  0  0  0  0  0  0  0  0  # atno 10763 bound_to 10752
  153.0106  135.5364  154.6695 H   0  0  0  0  0  0  0  0  0  0  0  0  # atno 10764 bound_to 10752
  154.6013  135.2944  155.0504 H   0  0  0  0  0  0  0  0  0  0  0  0  # atno 10765 bound_to 10752
  140.9141  134.1530  157.4366 H   0  0  0  0  0  0  0  0  0  0  0  0  # atno 11005 bound_to 11000
  145.8864  139.2351  143.1575 LP  0  0  0  0  0  0  0  0  0  0  0  0  # atno 17320 bound_to 7965
  145.9946  140.8573  143.0049 LP  0  0  0  0  0  0  0  0  0  0  0  0  # atno 17321 bound_to 7965
  139.6875  144.7650  151.1498 LP  0  0  0  0  0  0  0  0  0  0  0  0  # atno 17342 bound_to 10162
  140.7666  143.5636  150.9072 LP  0  0  0  0  0  0  0  0  0  0  0  0  # atno 17343 bound_to 10162
  157.6817  130.9146  150.0284 LP  0  0  0  0  0  0  0  0  0  0  0  0  # atno 17370 bound_to 10713
  156.1463  130.3642  149.9506 LP  0  0  0  0  0  0  0  0  0  0  0  0  # atno 17371 bound_to 10713
  139.8763  134.9947  156.5705 LP  0  0  0  0  0  0  0  0  0  0  0  0  # atno 17394 bound_to 11000
  140.8073  133.8457  155.8779 LP  0  0  0  0  0  0  0  0  0  0  0  0  # atno 17395 bound_to 11000

$$$$
