#       Name:                AV-unprocessed.smi:1984
#       Creating user name   scv26
#       Creation time:       Fri Mar 27 10:23:44 2020


#       File generated by GOLD software.
#

@<TRIPOS>MOLECULE
AV-unprocessed.smi:1984
    41    42     1
SMALL
NO_CHARGES


@<TRIPOS>ATOM
      1 ****        -5.5801   2.7332  -1.5683 C.3            1 S1                 0.0000
      2 ****        -4.4294   1.7731  -1.5015 C.2            1 S1                 0.0000
      3 ****        -4.4682   0.3515  -1.4516 C.2            1 S1                 0.0000
      4 ****        -3.1545  -0.0208  -1.3988 C.2            1 S1                 0.0000
      5 ****        -2.5413  -1.3811  -1.3309 C.3            1 S1                 0.0000
      6 ****        -2.4064   1.1436  -1.4160 N.pl3          1 S1                 0.0000
      7 ****        -0.9608   1.3080  -1.3759 C.3            1 S1                 0.0000
      8 ****        -0.4095   1.1226   0.0407 C.2            1 S1                 0.0000
      9 ****        -0.8716   1.7731   0.9781 O.2            1 S1                 0.0000
     10 ****         0.5784   0.2276   0.1847 N.am           1 S1                 0.0000
     11 ****         1.2193  -0.0937   1.4535 C.3            1 S1                 0.0000
     12 ****         2.4420  -1.0053   1.2498 C.3            1 S1                 0.0000
     13 ****         3.5496  -0.3641   0.3868 C.3            1 S1                 0.0000
     14 ****         4.8149  -1.2210   0.4955 C.3            1 S1                 0.0000
     15 ****         4.8122  -1.8930   2.1990 S.o2           1 S1                 0.0000
     16 ****         4.9326  -3.3573   2.1359 O.2            1 S1                 0.0000
     17 ****         5.7136  -1.0944   3.0430 O.2            1 S1                 0.0000
     18 ****         3.0782  -1.4355   2.5811 C.3            1 S1                 0.0000
     19 ****        -3.1923   2.2406  -1.4832 N.2            1 S1                 0.0000
     20 ****        -6.5344   2.2066  -1.5522 H              1 S1                 0.0000
     21 ****        -5.5440   3.3266  -2.4822 H              1 S1                 0.0000
     22 ****        -5.5669   3.4209  -0.7223 H              1 S1                 0.0000
     23 ****        -5.3314  -0.2973  -1.4535 H              1 S1                 0.0000
     24 ****        -3.3049  -2.1561  -1.3995 H              1 S1                 0.0000
     25 ****        -2.0073  -1.5204  -0.3909 H              1 S1                 0.0000
     26 ****        -1.8371  -1.5331  -2.1487 H              1 S1                 0.0000
     27 ****        -0.5085   0.5945  -2.0659 H              1 S1                 0.0000
     28 ****        -0.6976   2.3046  -1.7342 H              1 S1                 0.0000
     29 ****         0.9015  -0.2663  -0.6346 H              1 S1                 0.0000
     30 ****         1.5194   0.8270   1.9569 H              1 S1                 0.0000
     31 ****         0.4911  -0.5875   2.0988 H              1 S1                 0.0000
     32 ****         2.1158  -1.9129   0.7394 H              1 S1                 0.0000
     33 ****         3.2424  -0.2476  -0.6529 H              1 S1                 0.0000
     34 ****         3.7669   0.6346   0.7677 H              1 S1                 0.0000
     35 ****         4.7747  -2.0606  -0.1988 H              1 S1                 0.0000
     36 ****         5.7304  -0.6584   0.3120 H              1 S1                 0.0000
     37 ****         3.1033  -0.6080   3.2909 H              1 S1                 0.0000
     38 ****         2.5614  -2.2746   3.0472 H              1 S1                 0.0000
     39 ****        -1.6110   2.4268   0.8167 LP             1 S1                 0.0000
     40 ****        -0.5077   1.6479   1.9011 LP             1 S1                 0.0000
     41 ****        -2.9021   3.1971  -1.5126 LP             1 S1                 0.0000
@<TRIPOS>BOND
    1    1    2 1     
    2    1   20 1     
    3    1   21 1     
    4    1   22 1     
    5    2   19 2     
    6    2    3 1     
    7    3    4 2     
    8    3   23 1     
    9    4    5 1     
   10    4    6 1     
   11    5   24 1     
   12    5   25 1     
   13    5   26 1     
   14    6    7 1     
   15    6   19 1     
   16    7    8 1     
   17    7   27 1     
   18    7   28 1     
   19    8    9 2     
   20    8   10 am    
   21   10   11 1     
   22   10   29 1     
   23   11   12 1     
   24   11   30 1     
   25   11   31 1     
   26   12   18 1     
   27   12   13 1     
   28   12   32 1     
   29   13   14 1     
   30   13   33 1     
   31   13   34 1     
   32   14   15 1     
   33   14   35 1     
   34   14   36 1     
   35   15   16 2     
   36   15   17 2     
   37   15   18 1     
   38   18   37 1     
   39   18   38 1     
   40    9   39 1     
   41    9   40 1     
   42   19   41 1     
@<TRIPOS>SUBSTRUCTURE
      1 S1             1
@<TRIPOS>SET
LONE_PAIRS      STATIC     ATOMS    <user>   **** ""
5 39 40 16 17 41
DONOR_HYDROGENS      STATIC     ATOMS    <user>   **** ""
1 29
ATOM$BLUE        STATIC     ATOMS    COLORGROUP SYSTEM
5 39 40 16 17 41
ATOM$RED        STATIC     ATOMS    COLORGROUP SYSTEM
1 29
