AV-unprocessed.smi:196|AV-procd|sdf|1533|dock7
  -GOLD-   2262019383D 1   1.00000     0.00000
 Structure written by MMmdl.
 47 50  0  0  0  0  0  0  0  0  1 V2000
  144.9933  137.1650  158.9260 C   0  0  0  0  0  0  0  0  0  0  0  0
  146.3448  137.3791  159.6271 C   0  0  1  0  0  0  0  0  0  0  0  0
  146.1551  137.9324  160.9290 O   0  0  0  0  0  0  0  0  0  0  0  0
  146.7526  137.0947  161.9084 C   0  0  0  0  0  0  0  0  0  0  0  0
  147.8691  136.3775  161.1607 C   0  0  0  0  0  0  0  0  0  0  0  0
  147.2453  136.1323  159.7939 C   0  0  1  0  0  0  0  0  0  0  0  0
  146.4650  134.9492  159.8668 O   0  0  0  0  0  0  0  0  0  0  0  0
  148.2759  135.9716  158.6514 C   0  0  0  0  0  0  0  0  0  0  0  0
  148.9812  137.2031  158.3323 N   0  0  0  0  0  0  0  0  0  0  0  0
  148.5425  138.2150  157.5075 C   0  0  0  0  0  0  0  0  0  0  0  0
  149.3594  139.2253  157.3815 N   0  0  0  0  0  0  0  0  0  0  0  0
  150.4458  138.8795  158.1745 C   0  0  0  0  0  0  0  0  0  0  0  0
  151.6762  139.5114  158.4924 C   0  0  0  0  0  0  0  0  0  0  0  0
  152.0079  140.7267  157.9977 N   0  0  0  0  0  0  0  0  0  0  0  0
  152.8427  141.5460  158.8738 C   0  0  0  0  0  0  0  0  0  0  0  0
  152.0155  142.7868  159.1921 C   0  0  1  0  0  0  0  0  0  0  0  0
  152.7679  143.8478  159.4824 F   0  0  0  0  0  0  0  0  0  0  0  0
  151.2073  142.9726  157.9170 C   0  0  0  0  0  0  0  0  0  0  0  0
  150.8771  141.5288  157.5029 C   0  0  1  0  0  0  0  0  0  0  0  0
  150.6344  141.4161  155.9867 C   0  0  0  0  0  0  0  0  0  0  0  0
  149.7924  142.2738  155.4019 N   0  0  0  0  0  0  0  0  0  0  0  0
  151.2193  140.5495  155.3407 O   0  0  0  0  0  0  0  0  0  0  0  0
  152.5325  138.8570  159.3213 N   0  0  0  0  0  0  0  0  0  0  0  0
  152.2000  137.6594  159.8132 C   0  0  0  0  0  0  0  0  0  0  0  0
  151.0860  136.9527  159.6087 N   0  0  0  0  0  0  0  0  0  0  0  0
  150.2287  137.6080  158.7742 C   0  0  0  0  0  0  0  0  0  0  0  0
  151.3539  142.6007  160.0392 H   0  0  0  0  0  0  0  0  0  0  0  0
  149.9549  141.2299  158.0060 H   0  0  0  0  0  0  0  0  0  0  0  0
  145.1307  136.7377  157.9325 H   0  0  0  0  0  0  0  0  0  0  0  0
  144.4657  138.1116  158.8096 H   0  0  0  0  0  0  0  0  0  0  0  0
  144.3449  136.4986  159.4954 H   0  0  0  0  0  0  0  0  0  0  0  0
  146.8957  138.1379  159.0698 H   0  0  0  0  0  0  0  0  0  0  0  0
  147.1165  137.6701  162.7597 H   0  0  0  0  0  0  0  0  0  0  0  0
  146.0102  136.3817  162.2696 H   0  0  0  0  0  0  0  0  0  0  0  0
  148.7252  137.0475  161.0694 H   0  0  0  0  0  0  0  0  0  0  0  0
  148.2059  135.4689  161.6619 H   0  0  0  0  0  0  0  0  0  0  0  0
  145.6356  135.1090  159.4428 H   0  0  0  0  0  0  0  0  0  0  0  0
  149.0099  135.2065  158.9078 H   0  0  0  0  0  0  0  0  0  0  0  0
  147.7810  135.6257  157.7429 H   0  0  0  0  0  0  0  0  0  0  0  0
  147.5880  138.1822  157.0022 H   0  0  0  0  0  0  0  0  0  0  0  0
  153.1717  141.0367  159.7815 H   0  0  0  0  0  0  0  0  0  0  0  0
  153.7391  141.8194  158.3155 H   0  0  0  0  0  0  0  0  0  0  0  0
  150.3162  143.5814  158.0721 H   0  0  0  0  0  0  0  0  0  0  0  0
  151.8228  143.4640  157.1608 H   0  0  0  0  0  0  0  0  0  0  0  0
  149.6201  142.2106  154.4085 H   0  0  0  0  0  0  0  0  0  0  0  0
  149.3291  142.9794  155.9558 H   0  0  0  0  0  0  0  0  0  0  0  0
  152.9307  137.2023  160.4643 H   0  0  0  0  0  0  0  0  0  0  0  0
  1  2  1  0  0  0  0
  1 29  1  0  0  0  0
  1 30  1  0  0  0  0
  1 31  1  0  0  0  0
  2  6  1  0  0  0  0
  2  3  1  0  0  0  0
  2 32  1  0  0  0  0
  3  4  1  0  0  0  0
  4  5  1  0  0  0  0
  4 33  1  0  0  0  0
  4 34  1  0  0  0  0
  5  6  1  0  0  0  0
  5 35  1  0  0  0  0
  5 36  1  0  0  0  0
  6  7  1  0  0  0  0
  6  8  1  0  0  0  0
  7 37  1  0  0  0  0
  8  9  1  0  0  0  0
  8 38  1  0  0  0  0
  8 39  1  0  0  0  0
  9 26  1  0  0  0  0
  9 10  1  0  0  0  0
 10 11  2  0  0  0  0
 10 40  1  0  0  0  0
 11 12  1  0  0  0  0
 12 26  2  0  0  0  0
 12 13  1  0  0  0  0
 13 14  1  0  0  0  0
 13 23  2  0  0  0  0
 14 19  1  0  0  0  0
 14 15  1  0  0  0  0
 15 16  1  0  0  0  0
 15 41  1  0  0  0  0
 15 42  1  0  0  0  0
 16 27  1  0  0  0  0
 16 17  1  0  0  0  0
 16 18  1  0  0  0  0
 18 19  1  0  0  0  0
 18 43  1  0  0  0  0
 18 44  1  0  0  0  0
 19 28  1  0  0  0  0
 19 20  1  0  0  0  0
 20 21  1  0  0  0  0
 20 22  2  0  0  0  0
 21 45  1  0  0  0  0
 21 46  1  0  0  0  0
 23 24  1  0  0  0  0
 24 25  2  0  0  0  0
 24 47  1  0  0  0  0
 25 26  1  0  0  0  0
M  END
> <s_m_source_file>
AV-unprocessed.smi

> <i_m_source_file_index>
196

> <i_lp_mmshare_version>
43012

> <i_f3d_flags>
0

> <s_epik_input>
W0NIMl0xW0NIMl1PW0NAQEhdKFtDSDNdKVtDQEBdMShbT0hdKVtDSDJdbihbY0hdbjIpYyhjMjMpbltjSF1uYzNONFtDSDJdW0NASF0oRilbQ0gyXVtDQEhdNEMoPU8pW05IMl0=

> <s_epik_cmdline>
J2VwaWtfcHl0aG9uJywgJy1waCcsICc3LjAnLCAnLXRuJywgJzgnLCAnLW1hJywgJzIwMCcsICctbWV0YWxfYmluZGluZycsICctaW1hZScsICc8aW5maWxlLm1hZT4nLCAnLW9tYWUnLCAnPG91dGZpbGUubWFlPic=

> <r_lp_tautomer_probability>
1

> <r_epik_Ionization_Penalty>
0.000857933

> <r_epik_Ionization_Penalty_Charging>
0

> <r_epik_Ionization_Penalty_Neutral>
0.000857933

> <r_epik_State_Penalty>
0.000462053

> <r_epik_Charging_Adjusted_Penalty>
0.000462053

> <i_epik_Tot_Q>
0

> <i_epik_Tot_abs_Q>
0

> <r_epik_Metal_State_Penalty>
-0

> <b_epik_Metal_Only>
0

> <s_lp_Force_Field>
OPLS_2005

> <r_lp_Energy>
45.9197

> <b_lp_Chiralities_Consistent>
1

> <s_lp_Variant>
AV-unprocessed.smi:196-6

> <Gold.Version>
5.8.1

> <Gold.Id.Protein>
6NUR|6NUR_protein|mol2

> <Gold.PLP.Fitness>
46.9698

> <Gold.PLP.PLP>
-38.3861

> <Gold.PLP.part.hbond>
-4.0000

> <Gold.PLP.part.metal>
0.0000

> <Gold.PLP.part.buried>
-5.9683

> <Gold.PLP.part.nonpolar>
-28.2743

> <Gold.PLP.part.repulsive>
0.2221

> <Gold.PLP.ligand.clash>
0.0000

> <Gold.PLP.ligand.torsion>
1.2736

> <Gold.PLP.Chemscore.Hbond>
3.6800

> <Gold.PLP.Chemscore.CHOScore>
0.0000

> <Gold.PLP.Chemscore.Metal>
0.0000

> <Gold.Chemscore.Hbonds>
donor molecule, donor type, donor heavy atom, donor atom, acceptor molecule, acceptor atom, score
      L1  H    21    46       P1  8028  0.67
      P1  H  6896  6908       L1    25  1.00
      P1  H  6934  6947       L1     3  0.82
      P1  H  7989  7998       L1    22  0.90

> <Gold.PLP.Chemscore.Internal.Correction>
0.0909

> <Gold.Rescore>
     Score         DG    S(hbond)    S(metal)    S(lipo)     H(rot)  DE(clash)    DE(int)     intcor
      9.64     -13.81       2.61        0.00      63.30       3.04       0.22       3.94       ----

> <Gold.Chemscore.Fitness>
9.6436

> <Gold.Chemscore.DG>
-13.8081

> <Gold.Chemscore.ZeroCoef>
-5.4800

> <Gold.Chemscore.Hbond>
2.6071

> <Gold.Chemscore.Metal>
0.0000

> <Gold.Chemscore.Lipo>
63.3009

> <Gold.Chemscore.Internal_Hbond>
0.0000

> <Gold.Chemscore.DEClash>
0.2243

> <Gold.Chemscore.DEInternal>
3.9402

> <Gold.Chemscore.Rot>
3.0413

> <Gold.Chemscore.Internal.Correction>
   9.000000E+99

> <Gold.Chemscore.Hbonds>
donor molecule, donor type, donor heavy atom, donor atom, acceptor molecule, acceptor atom, score
      L1  H    21    46       P1  8028  0.68
      P1  H  6896  6908       L1    25  0.85
      P1  H  6934  6947       L1     3  0.06
      P1  H  7989  7998       L1    22  0.85

> <Gold.Chemscore.Hbond.Weighted>
-8.7076

> <Gold.Chemscore.Metal.Weighted>
-0.0000

> <Gold.Chemscore.Lipo.Weighted>
-7.4062

> <Gold.Chemscore.Internal_Hbond.Weighted>
0.0000

> <Gold.Chemscore.DEClash.Weighted>
0.2243

> <Gold.Chemscore.DEInternal.Weighted>
3.9402

> <Gold.Chemscore.Rot.Weighted>
7.7856

> <Gold.Chemscore.Internal.Correction.Weighted>
   9.000000E+99

> <Gold.Protein.RotatedTorsions>
[ 6907 6896 6895 6894 ] final -136.10 input  -60.11 | X-H torsion
[ 7974 7965 7964 7962 ] final  149.67 input  175.53 | X-H torsion
[ 8008 7997 7996 7995 ] final  126.66 input   59.86 | X-H torsion
[ 10167 10162 10161 10158 ] final  163.18 input  -65.29 | X-H torsion
[ 10718 10713 10712 10709 ] final  127.98 input   66.30 | X-H torsion
[ 10763 10752 10751 10750 ] final   53.08 input  -60.55 | X-H torsion
[ 11005 11000 10999 10996 ] final -122.74 input  -57.11 | X-H torsion

> <Gold.Protein.ActiveResidues>
 VAL166  LYS551  ARG553  GLY616  TRP617  ASP618  TYR619  PRO620  LYS621  CYS622 
 ASP623  PHE694  ASN695  SER759  ASP760  ASP761  ALA762  ILE779  LEU786  VAL792 
 PHE793  MET794  SER795  GLU796  ALA797  LYS798  CYS799  TRP800  GLU811  SER814 

> <Gold.Protein.RotatedAtoms>
  151.0059  133.6011  159.2688 H   0  0  0  0  0  0  0  0  0  0  0  0  # atno 6907 bound_to 6896
  151.3180  135.0810  159.9305 H   0  0  0  0  0  0  0  0  0  0  0  0  # atno 6908 bound_to 6896
  152.5286  133.9712  159.7817 H   0  0  0  0  0  0  0  0  0  0  0  0  # atno 6909 bound_to 6896
  144.8420  139.6311  143.6012 H   0  0  0  0  0  0  0  0  0  0  0  0  # atno 7974 bound_to 7965
  156.2870  140.2687  156.2147 H   0  0  0  0  0  0  0  0  0  0  0  0  # atno 8008 bound_to 7997
  155.0229  140.0386  157.2462 H   0  0  0  0  0  0  0  0  0  0  0  0  # atno 8009 bound_to 7997
  154.7420  140.2727  155.6370 H   0  0  0  0  0  0  0  0  0  0  0  0  # atno 8010 bound_to 7997
  139.4870  144.4363  151.9008 H   0  0  0  0  0  0  0  0  0  0  0  0  # atno 10167 bound_to 10162
  157.5285  131.1098  150.9046 H   0  0  0  0  0  0  0  0  0  0  0  0  # atno 10718 bound_to 10713
  152.9793  135.5791  154.4683 H   0  0  0  0  0  0  0  0  0  0  0  0  # atno 10763 bound_to 10752
  154.4249  135.2772  155.1953 H   0  0  0  0  0  0  0  0  0  0  0  0  # atno 10764 bound_to 10752
  154.3686  135.6173  153.5781 H   0  0  0  0  0  0  0  0  0  0  0  0  # atno 10765 bound_to 10752
  140.9972  134.0455  157.3583 H   0  0  0  0  0  0  0  0  0  0  0  0  # atno 11005 bound_to 11000
  146.2711  139.6638  142.9295 LP  0  0  0  0  0  0  0  0  0  0  0  0  # atno 17320 bound_to 7965
  145.4674  141.0435  143.2718 LP  0  0  0  0  0  0  0  0  0  0  0  0  # atno 17321 bound_to 7965
  140.3812  144.2733  150.5908 LP  0  0  0  0  0  0  0  0  0  0  0  0  # atno 17342 bound_to 10162
  140.5231  143.2261  151.8357 LP  0  0  0  0  0  0  0  0  0  0  0  0  # atno 17343 bound_to 10162
  156.9635  130.5464  149.5287 LP  0  0  0  0  0  0  0  0  0  0  0  0  # atno 17370 bound_to 10713
  156.0404  130.5487  150.8758 LP  0  0  0  0  0  0  0  0  0  0  0  0  # atno 17371 bound_to 10713
  139.9020  135.0168  156.7315 LP  0  0  0  0  0  0  0  0  0  0  0  0  # atno 17394 bound_to 11000
  140.6947  133.9359  155.7987 LP  0  0  0  0  0  0  0  0  0  0  0  0  # atno 17395 bound_to 11000

$$$$
