AV-unprocessed.smi:274|AV-procd|sdf|2059|dock8
  -GOLD-   2262021303D 1   1.00000     0.00000
 Structure written by MMmdl.
 50 53  0  0  0  0  0  0  0  0  1 V2000
  151.7424  139.3330  155.0093 C   0  0  0  0  0  0  0  0  0  0  0  0
  151.0599  140.4988  155.7534 C   0  0  0  0  0  0  0  0  0  0  0  0
  151.8833  140.8381  157.0123 C   0  0  0  0  0  0  0  0  0  0  0  0
  149.5575  140.1987  156.0537 C   0  0  1  0  0  0  0  0  0  0  0  0
  148.8304  141.3877  156.7309 C   0  0  0  0  0  0  0  0  0  0  0  0
  149.0123  141.6181  157.9247 O   0  0  0  0  0  0  0  0  0  0  0  0
  147.9795  142.1351  156.0048 N   0  0  0  0  0  0  0  0  0  0  0  0
  147.6137  141.9142  154.6053 C   0  0  0  0  0  0  0  0  0  0  0  0
  148.5042  140.8786  153.8956 C   0  0  0  0  0  0  0  0  0  0  0  0
  148.8704  139.8025  154.8129 N   0  0  0  0  0  0  0  0  0  0  0  0
  148.0006  138.7599  154.8444 C   0  0  0  0  0  0  0  0  0  0  0  0
  147.8725  138.0091  155.9706 N   0  0  0  0  0  0  0  0  0  0  0  0
  147.0065  136.9923  156.0075 C   0  0  0  0  0  0  0  0  0  0  0  0
  146.1865  136.5596  155.0479 N   0  0  0  0  0  0  0  0  0  0  0  0
  146.3140  137.3064  153.9138 C   0  0  0  0  0  0  0  0  0  0  0  0
  147.1852  138.4168  153.7308 C   0  0  0  0  0  0  0  0  0  0  0  0
  147.0382  138.9285  152.4473 N   0  0  0  0  0  0  0  0  0  0  0  0
  146.1277  138.1673  151.9043 C   0  0  0  0  0  0  0  0  0  0  0  0
  145.6461  137.1598  152.7101 N   0  0  0  0  0  0  0  0  0  0  0  0
  144.6402  136.1666  152.3642 C   0  0  0  0  0  0  0  0  0  0  0  0
  145.0681  135.2245  151.2135 C   0  0  1  0  0  0  0  0  0  0  0  0
  145.2004  135.9772  150.0199 O   0  0  0  0  0  0  0  0  0  0  0  0
  146.3922  134.5230  151.4866 C   0  0  0  0  0  0  0  0  0  0  0  0
  146.2535  133.2249  150.7027 C   0  0  0  0  0  0  0  0  0  0  0  0
  144.8995  132.8665  150.9204 O   0  0  0  0  0  0  0  0  0  0  0  0
  144.1049  134.0489  150.9468 C   0  0  0  0  0  0  0  0  0  0  0  0
  151.6894  138.4110  155.5890 H   0  0  0  0  0  0  0  0  0  0  0  0
  152.7953  139.5469  154.8240 H   0  0  0  0  0  0  0  0  0  0  0  0
  151.2850  139.1428  154.0380 H   0  0  0  0  0  0  0  0  0  0  0  0
  151.1167  141.3704  155.1007 H   0  0  0  0  0  0  0  0  0  0  0  0
  151.8008  140.0518  157.7632 H   0  0  0  0  0  0  0  0  0  0  0  0
  151.5662  141.7753  157.4686 H   0  0  0  0  0  0  0  0  0  0  0  0
  152.9402  140.9546  156.7707 H   0  0  0  0  0  0  0  0  0  0  0  0
  149.5416  139.3677  156.7615 H   0  0  0  0  0  0  0  0  0  0  0  0
  147.5181  142.8999  156.4756 H   0  0  0  0  0  0  0  0  0  0  0  0
  146.5808  141.5646  154.5982 H   0  0  0  0  0  0  0  0  0  0  0  0
  147.6265  142.8620  154.0673 H   0  0  0  0  0  0  0  0  0  0  0  0
  148.0051  140.5111  152.9985 H   0  0  0  0  0  0  0  0  0  0  0  0
  149.4178  141.3587  153.5457 H   0  0  0  0  0  0  0  0  0  0  0  0
  146.9646  136.4479  156.9394 H   0  0  0  0  0  0  0  0  0  0  0  0
  145.7837  138.3214  150.8921 H   0  0  0  0  0  0  0  0  0  0  0  0
  144.4116  135.5851  153.2585 H   0  0  0  0  0  0  0  0  0  0  0  0
  143.7213  136.6914  152.0996 H   0  0  0  0  0  0  0  0  0  0  0  0
  145.5230  135.4066  149.3394 H   0  0  0  0  0  0  0  0  0  0  0  0
  147.2671  135.1081  151.1994 H   0  0  0  0  0  0  0  0  0  0  0  0
  146.4839  134.2887  152.5483 H   0  0  0  0  0  0  0  0  0  0  0  0
  146.4229  133.3892  149.6374 H   0  0  0  0  0  0  0  0  0  0  0  0
  146.9362  132.4476  151.0459 H   0  0  0  0  0  0  0  0  0  0  0  0
  143.3654  133.9343  151.7386 H   0  0  0  0  0  0  0  0  0  0  0  0
  143.5624  134.1612  150.0068 H   0  0  0  0  0  0  0  0  0  0  0  0
  1  2  1  0  0  0  0
  1 27  1  0  0  0  0
  1 28  1  0  0  0  0
  1 29  1  0  0  0  0
  2  3  1  0  0  0  0
  2  4  1  0  0  0  0
  2 30  1  0  0  0  0
  3 31  1  0  0  0  0
  3 32  1  0  0  0  0
  3 33  1  0  0  0  0
  4 10  1  0  0  0  0
  4  5  1  0  0  0  0
  4 34  1  0  0  0  0
  5  6  2  0  0  0  0
  5  7  1  0  0  0  0
  7  8  1  0  0  0  0
  7 35  1  0  0  0  0
  8  9  1  0  0  0  0
  8 36  1  0  0  0  0
  8 37  1  0  0  0  0
  9 10  1  0  0  0  0
  9 38  1  0  0  0  0
  9 39  1  0  0  0  0
 10 11  1  0  0  0  0
 11 16  1  0  0  0  0
 11 12  2  0  0  0  0
 12 13  1  0  0  0  0
 13 14  2  0  0  0  0
 13 40  1  0  0  0  0
 14 15  1  0  0  0  0
 15 19  1  0  0  0  0
 15 16  2  0  0  0  0
 16 17  1  0  0  0  0
 17 18  2  0  0  0  0
 18 19  1  0  0  0  0
 18 41  1  0  0  0  0
 19 20  1  0  0  0  0
 20 21  1  0  0  0  0
 20 42  1  0  0  0  0
 20 43  1  0  0  0  0
 21 26  1  0  0  0  0
 21 22  1  0  0  0  0
 21 23  1  0  0  0  0
 22 44  1  0  0  0  0
 23 24  1  0  0  0  0
 23 45  1  0  0  0  0
 23 46  1  0  0  0  0
 24 25  1  0  0  0  0
 24 47  1  0  0  0  0
 24 48  1  0  0  0  0
 25 26  1  0  0  0  0
 26 49  1  0  0  0  0
 26 50  1  0  0  0  0
M  END
> <s_m_source_file>
AV-unprocessed.smi

> <i_m_source_file_index>
274

> <i_lp_mmshare_version>
43012

> <i_f3d_flags>
0

> <s_epik_input>
W0NIM11bQ0hdKFtDSDNdKVtDQEBIXTFDKD1PKVtOSF1bQ0gyXVtDSDJdTjFjKG5bY0hdbjIpYyhjMjMpbltjSF1uM1tDSDJdW0NAQF00KFtPSF0pW0NIMl1bQ0gyXU9bQ0gyXTQ=

> <s_epik_cmdline>
J2VwaWtfcHl0aG9uJywgJy1waCcsICc3LjAnLCAnLXRuJywgJzgnLCAnLW1hJywgJzIwMCcsICctbWV0YWxfYmluZGluZycsICctaW1hZScsICc8aW5maWxlLm1hZT4nLCAnLW9tYWUnLCAnPG91dGZpbGUubWFlPic=

> <r_lp_tautomer_probability>
1

> <r_epik_Ionization_Penalty>
0.000690079

> <r_epik_Ionization_Penalty_Charging>
0

> <r_epik_Ionization_Penalty_Neutral>
0.000690079

> <r_epik_State_Penalty>
0.000321372

> <r_epik_Charging_Adjusted_Penalty>
0.000321372

> <i_epik_Tot_Q>
0

> <i_epik_Tot_abs_Q>
0

> <r_epik_Metal_State_Penalty>
-0

> <b_epik_Metal_Only>
0

> <s_lp_Force_Field>
OPLS_2005

> <r_lp_Energy>
42.7916

> <b_lp_Chiralities_Consistent>
1

> <s_lp_Variant>
AV-unprocessed.smi:274-2

> <Gold.Version>
5.8.1

> <Gold.Id.Protein>
6NUR|6NUR_protein|mol2

> <Gold.PLP.Fitness>
43.1590

> <Gold.PLP.PLP>
-37.2932

> <Gold.PLP.part.hbond>
-3.0000

> <Gold.PLP.part.metal>
0.0000

> <Gold.PLP.part.buried>
-2.6660

> <Gold.PLP.part.nonpolar>
-33.7039

> <Gold.PLP.part.repulsive>
1.8361

> <Gold.PLP.ligand.clash>
0.0000

> <Gold.PLP.ligand.torsion>
0.2326

> <Gold.PLP.Chemscore.Hbond>
1.0126

> <Gold.PLP.Chemscore.CHOScore>
0.9994

> <Gold.PLP.Chemscore.Metal>
0.0000

> <Gold.Chemscore.Hbonds>
donor molecule, donor type, donor heavy atom, donor atom, acceptor molecule, acceptor atom, score
      L1  H    22    44       P1  7921  1.00
      L1  C    18    41       P1 10171  1.00

> <Gold.PLP.Chemscore.Internal.Correction>
0.2950

> <Gold.Rescore>
     Score         DG    S(hbond)    S(metal)    S(lipo)     H(rot)  DE(clash)    DE(int)     intcor
      9.40     -11.21       0.93        0.00      69.46       2.14       0.18       1.63       ----

> <Gold.Chemscore.Fitness>
9.4041

> <Gold.Chemscore.DG>
-11.2128

> <Gold.Chemscore.ZeroCoef>
-5.4800

> <Gold.Chemscore.Hbond>
0.9259

> <Gold.Chemscore.Metal>
0.0000

> <Gold.Chemscore.Lipo>
69.4575

> <Gold.Chemscore.Internal_Hbond>
0.0000

> <Gold.Chemscore.DEClash>
0.1787

> <Gold.Chemscore.DEInternal>
1.6299

> <Gold.Chemscore.Rot>
2.1431

> <Gold.Chemscore.Internal.Correction>
   9.000000E+99

> <Gold.Chemscore.Hbonds>
donor molecule, donor type, donor heavy atom, donor atom, acceptor molecule, acceptor atom, score
      L1  H    22    44       P1  7921  0.99

> <Gold.Chemscore.Hbond.Weighted>
-3.0925

> <Gold.Chemscore.Metal.Weighted>
-0.0000

> <Gold.Chemscore.Lipo.Weighted>
-8.1265

> <Gold.Chemscore.Internal_Hbond.Weighted>
0.0000

> <Gold.Chemscore.DEClash.Weighted>
0.1787

> <Gold.Chemscore.DEInternal.Weighted>
1.6299

> <Gold.Chemscore.Rot.Weighted>
5.4863

> <Gold.Chemscore.Internal.Correction.Weighted>
   9.000000E+99

> <Gold.Protein.RotatedTorsions>
[ 6907 6896 6895 6894 ] final  -50.85 input  -60.11 | X-H torsion
[ 7974 7965 7964 7962 ] final  128.82 input  175.53 | X-H torsion
[ 8008 7997 7996 7995 ] final  -64.60 input   59.86 | X-H torsion
[ 10167 10162 10161 10158 ] final   26.78 input  -65.29 | X-H torsion
[ 10718 10713 10712 10709 ] final   74.56 input   66.30 | X-H torsion
[ 10763 10752 10751 10750 ] final   26.91 input  -60.55 | X-H torsion
[ 11005 11000 10999 10996 ] final   72.14 input  -57.11 | X-H torsion

> <Gold.Protein.ActiveResidues>
 VAL166  LYS551  ARG553  GLY616  TRP617  ASP618  TYR619  PRO620  LYS621  CYS622 
 ASP623  PHE694  ASN695  SER759  ASP760  ASP761  ALA762  ILE779  LEU786  VAL792 
 PHE793  MET794  SER795  GLU796  ALA797  LYS798  CYS799  TRP800  GLU811  SER814 

> <Gold.Protein.RotatedAtoms>
  150.8667  134.8032  159.7124 H   0  0  0  0  0  0  0  0  0  0  0  0  # atno 6907 bound_to 6896
  152.4686  134.5012  159.9735 H   0  0  0  0  0  0  0  0  0  0  0  0  # atno 6908 bound_to 6896
  151.5107  133.3447  159.2920 H   0  0  0  0  0  0  0  0  0  0  0  0  # atno 6909 bound_to 6896
  145.0354  139.4010  143.5129 H   0  0  0  0  0  0  0  0  0  0  0  0  # atno 7974 bound_to 7965
  154.4622  140.0950  156.6923 H   0  0  0  0  0  0  0  0  0  0  0  0  # atno 8008 bound_to 7997
  155.4962  140.3472  155.4345 H   0  0  0  0  0  0  0  0  0  0  0  0  # atno 8009 bound_to 7997
  156.0890  140.1392  156.9605 H   0  0  0  0  0  0  0  0  0  0  0  0  # atno 8010 bound_to 7997
  140.4994  144.0340  150.6327 H   0  0  0  0  0  0  0  0  0  0  0  0  # atno 10167 bound_to 10162
  157.6597  130.9684  150.1229 H   0  0  0  0  0  0  0  0  0  0  0  0  # atno 10718 bound_to 10713
  153.0591  135.6549  154.0506 H   0  0  0  0  0  0  0  0  0  0  0  0  # atno 10763 bound_to 10752
  154.0178  135.2922  155.3386 H   0  0  0  0  0  0  0  0  0  0  0  0  # atno 10764 bound_to 10752
  154.6921  135.5279  153.8474 H   0  0  0  0  0  0  0  0  0  0  0  0  # atno 10765 bound_to 10752
  139.9506  134.7233  156.0871 H   0  0  0  0  0  0  0  0  0  0  0  0  # atno 11005 bound_to 11000
  146.3503  139.9926  142.8684 LP  0  0  0  0  0  0  0  0  0  0  0  0  # atno 17320 bound_to 7965
  145.1717  140.9724  143.4318 LP  0  0  0  0  0  0  0  0  0  0  0  0  # atno 17321 bound_to 7965
  140.3631  143.2896  152.0361 LP  0  0  0  0  0  0  0  0  0  0  0  0  # atno 17342 bound_to 10162
  139.4868  144.6287  151.7113 LP  0  0  0  0  0  0  0  0  0  0  0  0  # atno 17343 bound_to 10162
  156.2095  130.3665  149.8687 LP  0  0  0  0  0  0  0  0  0  0  0  0  # atno 17370 bound_to 10713
  156.6570  130.8766  151.3541 LP  0  0  0  0  0  0  0  0  0  0  0  0  # atno 17371 bound_to 10713
  141.1168  133.6625  156.3114 LP  0  0  0  0  0  0  0  0  0  0  0  0  # atno 17394 bound_to 11000
  140.5728  134.5823  157.5461 LP  0  0  0  0  0  0  0  0  0  0  0  0  # atno 17395 bound_to 11000

$$$$
