AV-unprocessed.smi:1450|AV-procd|sdf|5897|dock5
  -GOLD-   22720 5583D 1   1.00000     0.00000
 Structure written by MMmdl.
 31 32  0  0  0  0  0  0  0  0  1 V2000
  145.5843  137.9890  153.8273 O   0  0  0  0  0  0  0  0  0  0  0  0
  146.5419  137.5083  153.2213 C   0  0  0  0  0  0  0  0  0  0  0  0
  146.4964  136.3321  152.5805 N   0  0  0  0  0  0  0  0  0  0  0  0
  145.3283  135.4608  152.5109 C   0  0  0  0  0  0  0  0  0  0  0  0
  145.5015  134.3517  151.4568 C   0  0  2  0  0  0  0  0  0  0  0  0
  144.3333  133.3907  151.3482 C   0  0  0  0  0  0  0  0  0  0  0  0
  144.9735  132.1931  150.6532 C   0  0  0  0  0  0  0  0  0  0  0  0
  146.3347  132.1796  151.0732 O   0  0  0  0  0  0  0  0  0  0  0  0
  146.6501  133.3891  151.7565 C   0  0  0  0  0  0  0  0  0  0  0  0
  147.7623  138.0637  153.1293 N   0  0  0  0  0  0  0  0  0  0  0  0
  148.2057  139.3113  153.6448 C   0  0  0  0  0  0  0  0  0  0  0  0
  147.3810  140.4543  153.7815 C   0  0  0  0  0  0  0  0  0  0  0  0
  147.9448  141.6421  154.2861 C   0  0  0  0  0  0  0  0  0  0  0  0
  149.3109  141.6460  154.6289 C   0  0  0  0  0  0  0  0  0  0  0  0
  150.1115  140.5683  154.4909 N   0  0  0  0  0  0  0  0  0  0  0  0
  149.5644  139.4335  154.0053 C   0  0  0  0  0  0  0  0  0  0  0  0
  147.3317  136.0114  152.1131 H   0  0  0  0  0  0  0  0  0  0  0  0
  145.1271  135.0224  153.4898 H   0  0  0  0  0  0  0  0  0  0  0  0
  144.4624  136.0772  152.2682 H   0  0  0  0  0  0  0  0  0  0  0  0
  145.6753  134.8004  150.4769 H   0  0  0  0  0  0  0  0  0  0  0  0
  143.9824  133.1033  152.3405 H   0  0  0  0  0  0  0  0  0  0  0  0
  143.4895  133.8001  150.7919 H   0  0  0  0  0  0  0  0  0  0  0  0
  144.4724  131.2552  150.8944 H   0  0  0  0  0  0  0  0  0  0  0  0
  144.9466  132.3230  149.5706 H   0  0  0  0  0  0  0  0  0  0  0  0
  147.6165  133.7834  151.4410 H   0  0  0  0  0  0  0  0  0  0  0  0
  146.7068  133.1727  152.8243 H   0  0  0  0  0  0  0  0  0  0  0  0
  148.4724  137.5047  152.6793 H   0  0  0  0  0  0  0  0  0  0  0  0
  146.3403  140.4492  153.4972 H   0  0  0  0  0  0  0  0  0  0  0  0
  147.3444  142.5321  154.4031 H   0  0  0  0  0  0  0  0  0  0  0  0
  149.7747  142.5406  155.0178 H   0  0  0  0  0  0  0  0  0  0  0  0
  150.2352  138.5925  153.9055 H   0  0  0  0  0  0  0  0  0  0  0  0
  1  2  2  0  0  0  0
  2  3  1  0  0  0  0
  2 10  1  0  0  0  0
  3  4  1  0  0  0  0
  3 17  1  0  0  0  0
  4  5  1  0  0  0  0
  4 18  1  0  0  0  0
  4 19  1  0  0  0  0
  5  9  1  0  0  0  0
  5  6  1  0  0  0  0
  5 20  1  0  0  0  0
  6  7  1  0  0  0  0
  6 21  1  0  0  0  0
  6 22  1  0  0  0  0
  7  8  1  0  0  0  0
  7 23  1  0  0  0  0
  7 24  1  0  0  0  0
  8  9  1  0  0  0  0
  9 25  1  0  0  0  0
  9 26  1  0  0  0  0
 10 11  1  0  0  0  0
 10 27  1  0  0  0  0
 11 16  1  0  0  0  0
 11 12  2  0  0  0  0
 12 13  1  0  0  0  0
 12 28  1  0  0  0  0
 13 14  2  0  0  0  0
 13 29  1  0  0  0  0
 14 15  1  0  0  0  0
 14 30  1  0  0  0  0
 15 16  2  0  0  0  0
 16 31  1  0  0  0  0
M  END
> <s_m_source_file>
AV-unprocessed.smi

> <i_m_source_file_index>
1450

> <i_lp_mmshare_version>
43012

> <i_f3d_flags>
0

> <s_epik_input>
W2NIXTFuW2NIXVtjSF1bY0hdYzFbTkhdQyg9TylbTkhdW0NIMl1bQ0BASF0yW0NIMl1bQ0gyXU9bQ0gyXTI=

> <s_epik_cmdline>
J2VwaWtfcHl0aG9uJywgJy1waCcsICc3LjAnLCAnLXRuJywgJzgnLCAnLW1hJywgJzIwMCcsICctbWV0YWxfYmluZGluZycsICctaW1hZScsICc8aW5maWxlLm1hZT4nLCAnLW9tYWUnLCAnPG91dGZpbGUubWFlPic=

> <r_epik_Ionization_Penalty>
0.00478342

> <r_epik_Ionization_Penalty_Charging>
0

> <r_epik_Ionization_Penalty_Neutral>
0.00478342

> <r_epik_State_Penalty>
0.0034384

> <r_epik_Charging_Adjusted_Penalty>
0.0034384

> <i_epik_Tot_Q>
0

> <i_epik_Tot_abs_Q>
0

> <r_epik_Metal_State_Penalty>
-0

> <b_epik_Metal_Only>
0

> <s_lp_Force_Field>
OPLS_2005

> <r_lp_Energy>
20.8722

> <b_lp_Chiralities_Consistent>
1

> <s_lp_Variant>
AV-unprocessed.smi:1450-1

> <Gold.Version>
5.8.1

> <Gold.Id.Protein>
6NUR|6NUR_protein|mol2

> <Gold.PLP.Fitness>
38.7224

> <Gold.PLP.PLP>
-27.5424

> <Gold.PLP.part.hbond>
-3.4915

> <Gold.PLP.part.metal>
0.0000

> <Gold.PLP.part.buried>
0.3732

> <Gold.PLP.part.nonpolar>
-25.7905

> <Gold.PLP.part.repulsive>
1.7422

> <Gold.PLP.ligand.clash>
0.0000

> <Gold.PLP.ligand.torsion>
0.2695

> <Gold.PLP.Chemscore.Hbond>
2.9040

> <Gold.PLP.Chemscore.CHOScore>
1.0000

> <Gold.PLP.Chemscore.Metal>
0.0000

> <Gold.Chemscore.Hbonds>
donor molecule, donor type, donor heavy atom, donor atom, acceptor molecule, acceptor atom, score
      L1  H     3    17       P1  7948  0.98
      L1  H    10    27       P1  7948  1.00
      P1  H  7989  7998       L1    15  0.86
      L1  C    14    30       P1  8028  1.00

> <Gold.PLP.Chemscore.Internal.Correction>
0.0070

> <Gold.Rescore>
     Score         DG    S(hbond)    S(metal)    S(lipo)     H(rot)  DE(clash)    DE(int)     intcor
     15.52     -17.02       2.18        0.00      63.44       1.24       0.21       1.28       ----

> <Gold.Chemscore.Fitness>
15.5240

> <Gold.Chemscore.DG>
-17.0154

> <Gold.Chemscore.ZeroCoef>
-5.4800

> <Gold.Chemscore.Hbond>
2.1810

> <Gold.Chemscore.Metal>
0.0000

> <Gold.Chemscore.Lipo>
63.4401

> <Gold.Chemscore.Internal_Hbond>
0.0000

> <Gold.Chemscore.DEClash>
0.2111

> <Gold.Chemscore.DEInternal>
1.2803

> <Gold.Chemscore.Rot>
1.2390

> <Gold.Chemscore.Internal.Correction>
   9.000000E+99

> <Gold.Chemscore.Hbonds>
donor molecule, donor type, donor heavy atom, donor atom, acceptor molecule, acceptor atom, score
      L1  H     3    17       P1  7948  0.92
      L1  H    10    27       P1  7948  0.94
      P1  H  7989  7998       L1    15  0.41

> <Gold.Chemscore.Hbond.Weighted>
-7.2847

> <Gold.Chemscore.Metal.Weighted>
-0.0000

> <Gold.Chemscore.Lipo.Weighted>
-7.4225

> <Gold.Chemscore.Internal_Hbond.Weighted>
0.0000

> <Gold.Chemscore.DEClash.Weighted>
0.2111

> <Gold.Chemscore.DEInternal.Weighted>
1.2803

> <Gold.Chemscore.Rot.Weighted>
3.1718

> <Gold.Chemscore.Internal.Correction.Weighted>
   9.000000E+99

> <Gold.Protein.RotatedTorsions>
[ 6907 6896 6895 6894 ] final   23.62 input  -60.11 | X-H torsion
[ 7974 7965 7964 7962 ] final   -2.99 input  175.53 | X-H torsion
[ 8008 7997 7996 7995 ] final  -43.16 input   59.86 | X-H torsion
[ 10167 10162 10161 10158 ] final  107.19 input  -65.29 | X-H torsion
[ 10718 10713 10712 10709 ] final -153.91 input   66.30 | X-H torsion
[ 10763 10752 10751 10750 ] final  -41.75 input  -60.55 | X-H torsion
[ 11005 11000 10999 10996 ] final  -55.13 input  -57.11 | X-H torsion

> <Gold.Protein.ActiveResidues>
 VAL166  LYS551  ARG553  GLY616  TRP617  ASP618  TYR619  PRO620  LYS621  CYS622 
 ASP623  PHE694  ASN695  SER759  ASP760  ASP761  ALA762  ILE779  LEU786  VAL792 
 PHE793  MET794  SER795  GLU796  ALA797  LYS798  CYS799  TRP800  GLU811  SER814 

> <Gold.Protein.RotatedAtoms>
  151.9452  135.0195  160.0538 H   0  0  0  0  0  0  0  0  0  0  0  0  # atno 6907 bound_to 6896
  152.2002  133.4831  159.5062 H   0  0  0  0  0  0  0  0  0  0  0  0  # atno 6908 bound_to 6896
  150.6953  134.1518  159.4186 H   0  0  0  0  0  0  0  0  0  0  0  0  # atno 6909 bound_to 6896
  146.2396  140.1654  142.8332 H   0  0  0  0  0  0  0  0  0  0  0  0  # atno 7974 bound_to 7965
  154.3997  140.1455  156.3473 H   0  0  0  0  0  0  0  0  0  0  0  0  # atno 8008 bound_to 7997
  155.8302  140.3466  155.5546 H   0  0  0  0  0  0  0  0  0  0  0  0  # atno 8009 bound_to 7997
  155.8196  140.0896  157.1847 H   0  0  0  0  0  0  0  0  0  0  0  0  # atno 8010 bound_to 7997
  139.6947  144.7103  151.1288 H   0  0  0  0  0  0  0  0  0  0  0  0  # atno 10167 bound_to 10162
  156.4922  130.8353  151.2575 H   0  0  0  0  0  0  0  0  0  0  0  0  # atno 10718 bound_to 10713
  153.9676  135.6732  153.4746 H   0  0  0  0  0  0  0  0  0  0  0  0  # atno 10763 bound_to 10752
  153.0808  135.4924  154.8495 H   0  0  0  0  0  0  0  0  0  0  0  0  # atno 10764 bound_to 10752
  154.7237  135.3122  154.8966 H   0  0  0  0  0  0  0  0  0  0  0  0  # atno 10765 bound_to 10752
  141.1059  133.6613  156.4424 H   0  0  0  0  0  0  0  0  0  0  0  0  # atno 11005 bound_to 11000
  145.0055  140.8669  143.5256 LP  0  0  0  0  0  0  0  0  0  0  0  0  # atno 17320 bound_to 7965
  145.1680  139.2420  143.5357 LP  0  0  0  0  0  0  0  0  0  0  0  0  # atno 17321 bound_to 7965
  140.7693  143.5509  150.9206 LP  0  0  0  0  0  0  0  0  0  0  0  0  # atno 17342 bound_to 10162
  139.9188  143.6631  152.3101 LP  0  0  0  0  0  0  0  0  0  0  0  0  # atno 17343 bound_to 10162
  157.7472  131.0009  150.2945 LP  0  0  0  0  0  0  0  0  0  0  0  0  # atno 17370 bound_to 10713
  156.3415  130.3816  149.7405 LP  0  0  0  0  0  0  0  0  0  0  0  0  # atno 17371 bound_to 10713
  140.4902  134.6582  157.5208 LP  0  0  0  0  0  0  0  0  0  0  0  0  # atno 17394 bound_to 11000
  139.9929  134.6956  155.9658 LP  0  0  0  0  0  0  0  0  0  0  0  0  # atno 17395 bound_to 11000

$$$$
