#       Name:                AV-unprocessed.smi:1122
#       Creating user name   scv26
#       Creation time:       Fri Mar 27 03:38:57 2020


#       File generated by GOLD software.
#

@<TRIPOS>MOLECULE
AV-unprocessed.smi:1122
    45    46     1
SMALL
NO_CHARGES


@<TRIPOS>ATOM
      1 ****        -3.8984   3.9372  -0.2787 C.3            1 S1                 0.0000
      2 ****        -2.4177   4.3214  -0.3261 C.3            1 S1                 0.0000
      3 ****        -1.6368   3.1305  -0.3130 O.3            1 S1                 0.0000
      4 ****        -0.2594   3.2384  -0.3448 C.ar           1 S1                 0.0000
      5 ****         0.2913   4.4779  -0.3773 N.ar           1 S1                 0.0000
      6 ****         1.6357   4.5836  -0.4012 C.ar           1 S1                 0.0000
      7 ****         2.4964   3.4707  -0.3875 C.ar           1 S1                 0.0000
      8 ****         1.9278   2.1840  -0.3560 C.ar           1 S1                 0.0000
      9 ****         0.5177   2.0568  -0.3463 C.ar           1 S1                 0.0000
     10 ****        -0.1574   0.8065  -0.2936 N.am           1 S1                 0.0000
     11 ****         0.2770  -0.3940  -0.7116 C.2            1 S1                 0.0000
     12 ****         1.3642  -0.6095  -1.2469 O.2            1 S1                 0.0000
     13 ****        -0.6405  -1.3447  -0.4862 N.am           1 S1                 0.0000
     14 ****        -0.4971  -2.7575  -0.8229 C.3            1 S1                 0.0000
     15 ****         0.0435  -3.5759   0.3623 C.3            1 S1                 0.0000
     16 ****         1.4973  -3.2944   0.7421 C.3            1 S1                 0.0000
     17 ****         1.9405  -4.5792   1.4240 C.3            1 S1                 0.0000
     18 ****         0.8757  -5.6040   1.0201 C.3            1 S1                 0.0000
     19 ****         0.0823  -4.9552   0.0356 O.3            1 S1                 0.0000
     20 ****        -4.5312   4.8247  -0.2902 H              1 S1                 0.0000
     21 ****        -4.1282   3.3744   0.6262 H              1 S1                 0.0000
     22 ****        -4.1709   3.3207  -1.1357 H              1 S1                 0.0000
     23 ****        -2.2174   4.8974  -1.2309 H              1 S1                 0.0000
     24 ****        -2.1750   4.9472   0.5344 H              1 S1                 0.0000
     25 ****         2.0376   5.5856  -0.4249 H              1 S1                 0.0000
     26 ****         3.5684   3.6012  -0.3957 H              1 S1                 0.0000
     27 ****         2.5801   1.3250  -0.3243 H              1 S1                 0.0000
     28 ****        -1.1099   0.8445   0.0390 H              1 S1                 0.0000
     29 ****        -1.5066  -1.0714  -0.0453 H              1 S1                 0.0000
     30 ****        -1.4838  -3.1307  -1.0978 H              1 S1                 0.0000
     31 ****         0.1336  -2.8893  -1.7037 H              1 S1                 0.0000
     32 ****        -0.6018  -3.4463   1.2335 H              1 S1                 0.0000
     33 ****         2.0966  -3.1352  -0.1555 H              1 S1                 0.0000
     34 ****         1.6051  -2.4159   1.3789 H              1 S1                 0.0000
     35 ****         2.9355  -4.8754   1.0902 H              1 S1                 0.0000
     36 ****         1.9700  -4.4646   2.5082 H              1 S1                 0.0000
     37 ****         1.3083  -6.5249   0.6286 H              1 S1                 0.0000
     38 ****         0.2480  -5.8599   1.8747 H              1 S1                 0.0000
     39 ****        -1.9081   2.5921  -1.1108 LP             1 S1                 0.0000
     40 ****        -1.8736   2.6327   0.5213 LP             1 S1                 0.0000
     41 ****        -0.2862   5.2943  -0.3834 LP             1 S1                 0.0000
     42 ****         2.0038   0.1436  -1.4007 LP             1 S1                 0.0000
     43 ****         1.6078  -1.5377  -1.5281 LP             1 S1                 0.0000
     44 ****         0.4900  -5.0807  -0.8689 LP             1 S1                 0.0000
     45 ****        -0.8435  -5.3333   0.0393 LP             1 S1                 0.0000
@<TRIPOS>BOND
    1    1    2 1     
    2    1   20 1     
    3    1   21 1     
    4    1   22 1     
    5    2    3 1     
    6    2   23 1     
    7    2   24 1     
    8    3    4 1     
    9    4    9 ar    
   10    4    5 ar    
   11    5    6 ar    
   12    6    7 ar    
   13    6   25 1     
   14    7    8 ar    
   15    7   26 1     
   16    8    9 ar    
   17    8   27 1     
   18    9   10 1     
   19   10   11 am    
   20   10   28 1     
   21   11   12 2     
   22   11   13 am    
   23   13   14 1     
   24   13   29 1     
   25   14   15 1     
   26   14   30 1     
   27   14   31 1     
   28   15   19 1     
   29   15   16 1     
   30   15   32 1     
   31   16   17 1     
   32   16   33 1     
   33   16   34 1     
   34   17   18 1     
   35   17   35 1     
   36   17   36 1     
   37   18   19 1     
   38   18   37 1     
   39   18   38 1     
   40    3   39 1     
   41    3   40 1     
   42    5   41 1     
   43   12   42 1     
   44   12   43 1     
   45   19   44 1     
   46   19   45 1     
@<TRIPOS>SUBSTRUCTURE
      1 S1             1
@<TRIPOS>SET
LONE_PAIRS      STATIC     ATOMS    <user>   **** ""
7 39 40 41 42 43 44 45
DONOR_HYDROGENS      STATIC     ATOMS    <user>   **** ""
2 28 29
ATOM$BLUE        STATIC     ATOMS    COLORGROUP SYSTEM
7 39 40 41 42 43 44 45
ATOM$RED        STATIC     ATOMS    COLORGROUP SYSTEM
2 28 29
