AV-unprocessed.smi:1053|AV-procd|sdf|4617|dock3
  -GOLD-   22720 3123D 1   1.00000     0.00000
 Structure written by MMmdl.
 38 39  0  0  0  0  0  0  0  0  2 V2000
  147.4560  128.3565  152.0156 C   0  0  0  0  0  0  0  0  0  0  0  0
  146.3777  129.4389  152.1653 C   0  0  0  0  0  0  0  0  0  0  0  0
  146.9224  130.8116  152.0162 N   0  3  1  0  0  0  0  0  0  0  0  0
  145.8845  131.7865  151.6053 C   0  0  0  0  0  0  0  0  0  0  0  0
  146.5001  133.1824  151.4215 C   0  0  0  0  0  0  0  0  0  0  0  0
  147.1430  133.5749  152.6264 O   0  0  0  0  0  0  0  0  0  0  0  0
  148.2176  132.7087  152.9763 C   0  0  1  0  0  0  0  0  0  0  0  0
  148.9125  133.2598  154.2329 C   0  0  0  0  0  0  0  0  0  0  0  0
  149.1058  134.7027  154.1699 N   0  0  0  0  0  0  0  0  0  0  0  0
  149.6005  135.4818  155.2004 C   0  0  0  0  0  0  0  0  0  0  0  0
  149.4814  135.0327  156.4550 N   0  0  0  0  0  0  0  0  0  0  0  0
  149.9751  135.8162  157.4377 C   0  0  0  0  0  0  0  0  0  0  0  0
  150.5893  137.0533  157.1617 C   0  0  0  0  0  0  0  0  0  0  0  0
  150.6610  137.4273  155.8011 C   0  0  0  0  0  0  0  0  0  0  0  0
  151.2965  138.7352  155.3537 C   0  0  0  0  0  0  0  0  0  0  0  0
  150.4086  139.4537  154.6662 F   0  0  0  0  0  0  0  0  0  0  0  0
  151.7114  139.4588  156.3942 F   0  0  0  0  0  0  0  0  0  0  0  0
  152.3449  138.4816  154.5703 F   0  0  0  0  0  0  0  0  0  0  0  0
  150.1624  136.6324  154.8253 N   0  0  0  0  0  0  0  0  0  0  0  0
  147.6420  131.2994  153.2195 C   0  0  0  0  0  0  0  0  0  0  0  0
  147.0054  127.3639  152.0339 H   0  0  0  0  0  0  0  0  0  0  0  0
  148.1878  128.3924  152.8221 H   0  0  0  0  0  0  0  0  0  0  0  0
  147.9893  128.4590  151.0701 H   0  0  0  0  0  0  0  0  0  0  0  0
  145.6263  129.2699  151.3929 H   0  0  0  0  0  0  0  0  0  0  0  0
  145.8644  129.3406  153.1228 H   0  0  0  0  0  0  0  0  0  0  0  0
  145.4202  131.4656  150.6720 H   0  0  0  0  0  0  0  0  0  0  0  0
  145.0974  131.8230  152.3602 H   0  0  0  0  0  0  0  0  0  0  0  0
  147.2102  133.1929  150.5929 H   0  0  0  0  0  0  0  0  0  0  0  0
  145.7224  133.9082  151.1837 H   0  0  0  0  0  0  0  0  0  0  0  0
  148.9400  132.6674  152.1585 H   0  0  0  0  0  0  0  0  0  0  0  0
  148.3664  132.9797  155.1346 H   0  0  0  0  0  0  0  0  0  0  0  0
  149.9020  132.8115  154.3249 H   0  0  0  0  0  0  0  0  0  0  0  0
  148.7477  135.1919  153.3623 H   0  0  0  0  0  0  0  0  0  0  0  0
  149.8784  135.4539  158.4505 H   0  0  0  0  0  0  0  0  0  0  0  0
  150.9816  137.6737  157.9537 H   0  0  0  0  0  0  0  0  0  0  0  0
  146.9599  131.3135  154.0713 H   0  0  0  0  0  0  0  0  0  0  0  0
  148.4549  130.6194  153.4724 H   0  0  0  0  0  0  0  0  0  0  0  0
  147.5937  130.7773  151.2621 H   0  0  0  0  0  0  0  0  0  0  0  0
  1  2  1  0  0  0  0
  1 21  1  0  0  0  0
  1 22  1  0  0  0  0
  1 23  1  0  0  0  0
  2  3  1  0  0  0  0
  2 24  1  0  0  0  0
  2 25  1  0  0  0  0
  3 20  1  0  0  0  0
  3  4  1  0  0  0  0
  3 38  1  0  0  0  0
  4  5  1  0  0  0  0
  4 26  1  0  0  0  0
  4 27  1  0  0  0  0
  5  6  1  0  0  0  0
  5 28  1  0  0  0  0
  5 29  1  0  0  0  0
  6  7  1  0  0  0  0
  7  8  1  0  0  0  0
  7 20  1  0  0  0  0
  7 30  1  0  0  0  0
  8  9  1  0  0  0  0
  8 31  1  0  0  0  0
  8 32  1  0  0  0  0
  9 10  1  0  0  0  0
  9 33  1  0  0  0  0
 10 19  1  0  0  0  0
 10 11  2  0  0  0  0
 11 12  1  0  0  0  0
 12 13  2  0  0  0  0
 12 34  1  0  0  0  0
 13 14  1  0  0  0  0
 13 35  1  0  0  0  0
 14 15  1  0  0  0  0
 14 19  2  0  0  0  0
 15 16  1  0  0  0  0
 15 17  1  0  0  0  0
 15 18  1  0  0  0  0
 20 36  1  0  0  0  0
 20 37  1  0  0  0  0
M  CHG  1   3   1
M  END
> <s_m_source_file>
AV-unprocessed.smi

> <i_m_source_file_index>
1053

> <i_lp_mmshare_version>
43012

> <i_f3d_flags>
0

> <s_epik_input>
W0NIM11bQ0gyXU4xW0NIMl1bQ0gyXU9bQ0BIXShbQ0gyXTEpW0NIMl1bTkhdYzJuW2NIXVtjSF1jKG4yKUMoRikoRilG

> <s_epik_cmdline>
J2VwaWtfcHl0aG9uJywgJy1waCcsICc3LjAnLCAnLXRuJywgJzgnLCAnLW1hJywgJzIwMCcsICctbWV0YWxfYmluZGluZycsICctaW1hZScsICc8aW5maWxlLm1hZT4nLCAnLW9tYWUnLCAnPG91dGZpbGUubWFlPic=

> <r_lp_tautomer_probability>
1

> <r_epik_Ionization_Penalty>
0.178506

> <r_epik_Ionization_Penalty_Charging>
0.178504

> <r_epik_Ionization_Penalty_Neutral>
2.47619e-06

> <r_epik_State_Penalty>
0.167974

> <r_epik_Charging_Adjusted_Penalty>
0.346478

> <i_epik_Tot_Q>
1

> <i_epik_Tot_abs_Q>
1

> <r_epik_Metal_State_Penalty>
0.167974

> <b_epik_Metal_Only>
0

> <s_lp_Force_Field>
OPLS_2005

> <r_lp_Energy>
10.9386

> <b_lp_Chiralities_Consistent>
1

> <s_lp_Variant>
AV-unprocessed.smi:1053-1

> <Gold.Version>
5.8.1

> <Gold.Id.Protein>
6NUR|6NUR_protein|mol2

> <Gold.PLP.Fitness>
39.9073

> <Gold.PLP.PLP>
-34.8640

> <Gold.PLP.part.hbond>
-2.0000

> <Gold.PLP.part.metal>
0.0000

> <Gold.PLP.part.buried>
-2.9382

> <Gold.PLP.part.nonpolar>
-29.8499

> <Gold.PLP.part.repulsive>
0.3873

> <Gold.PLP.ligand.clash>
0.0000

> <Gold.PLP.ligand.torsion>
0.4886

> <Gold.PLP.Chemscore.Hbond>
2.0000

> <Gold.PLP.Chemscore.CHOScore>
0.0000

> <Gold.PLP.Chemscore.Metal>
0.0000

> <Gold.Chemscore.Hbonds>
donor molecule, donor type, donor heavy atom, donor atom, acceptor molecule, acceptor atom, score
      L1  H     3    38       P1 10747  1.00
      L1  H     9    33       P1  7948  1.00

> <Gold.PLP.Chemscore.Internal.Correction>
0.0205

> <Gold.Rescore>
     Score         DG    S(hbond)    S(metal)    S(lipo)     H(rot)  DE(clash)    DE(int)     intcor
     14.55     -15.06       1.72        0.00      66.92       1.55       0.09       0.43       ----

> <Gold.Chemscore.Fitness>
14.5462

> <Gold.Chemscore.DG>
-15.0612

> <Gold.Chemscore.ZeroCoef>
-5.4800

> <Gold.Chemscore.Hbond>
1.7163

> <Gold.Chemscore.Metal>
0.0000

> <Gold.Chemscore.Lipo>
66.9156

> <Gold.Chemscore.Internal_Hbond>
0.0000

> <Gold.Chemscore.DEClash>
0.0854

> <Gold.Chemscore.DEInternal>
0.4295

> <Gold.Chemscore.Rot>
1.5549

> <Gold.Chemscore.Internal.Correction>
   9.000000E+99

> <Gold.Chemscore.Hbonds>
donor molecule, donor type, donor heavy atom, donor atom, acceptor molecule, acceptor atom, score
      L1  H     3    38       P1 10747  1.00
      L1  H     9    33       P1  7948  0.67

> <Gold.Chemscore.Hbond.Weighted>
-5.7326

> <Gold.Chemscore.Metal.Weighted>
-0.0000

> <Gold.Chemscore.Lipo.Weighted>
-7.8291

> <Gold.Chemscore.Internal_Hbond.Weighted>
0.0000

> <Gold.Chemscore.DEClash.Weighted>
0.0854

> <Gold.Chemscore.DEInternal.Weighted>
0.4295

> <Gold.Chemscore.Rot.Weighted>
3.9806

> <Gold.Chemscore.Internal.Correction.Weighted>
   9.000000E+99

> <Gold.Protein.RotatedTorsions>
[ 6907 6896 6895 6894 ] final  -20.61 input  -60.11 | X-H torsion
[ 7974 7965 7964 7962 ] final  144.69 input  175.53 | X-H torsion
[ 8008 7997 7996 7995 ] final   75.26 input   59.86 | X-H torsion
[ 10167 10162 10161 10158 ] final -115.19 input  -65.29 | X-H torsion
[ 10718 10713 10712 10709 ] final   33.06 input   66.30 | X-H torsion
[ 10763 10752 10751 10750 ] final  -83.70 input  -60.55 | X-H torsion
[ 11005 11000 10999 10996 ] final -141.50 input  -57.11 | X-H torsion

> <Gold.Protein.ActiveResidues>
 VAL166  LYS551  ARG553  GLY616  TRP617  ASP618  TYR619  PRO620  LYS621  CYS622 
 ASP623  PHE694  ASN695  SER759  ASP760  ASP761  ALA762  ILE779  LEU786  VAL792 
 PHE793  MET794  SER795  GLU796  ALA797  LYS798  CYS799  TRP800  GLU811  SER814 

> <Gold.Protein.RotatedAtoms>
  151.2456  135.0604  159.9041 H   0  0  0  0  0  0  0  0  0  0  0  0  # atno 6907 bound_to 6896
  152.5387  134.0387  159.8068 H   0  0  0  0  0  0  0  0  0  0  0  0  # atno 6908 bound_to 6896
  151.0587  133.5513  159.2667 H   0  0  0  0  0  0  0  0  0  0  0  0  # atno 6909 bound_to 6896
  144.8815  139.5692  143.5841 H   0  0  0  0  0  0  0  0  0  0  0  0  # atno 7974 bound_to 7965
  155.8103  140.3473  155.5454 H   0  0  0  0  0  0  0  0  0  0  0  0  # atno 8008 bound_to 7997
  155.8447  140.0947  157.1732 H   0  0  0  0  0  0  0  0  0  0  0  0  # atno 8009 bound_to 7997
  154.4006  140.1387  156.3759 H   0  0  0  0  0  0  0  0  0  0  0  0  # atno 8010 bound_to 7997
  140.0928  143.4684  152.1859 H   0  0  0  0  0  0  0  0  0  0  0  0  # atno 10167 bound_to 10162
  157.2931  130.7312  149.6622 H   0  0  0  0  0  0  0  0  0  0  0  0  # atno 10718 bound_to 10713
  154.5908  135.5547  153.7276 H   0  0  0  0  0  0  0  0  0  0  0  0  # atno 10763 bound_to 10752
  153.0116  135.6343  154.1852 H   0  0  0  0  0  0  0  0  0  0  0  0  # atno 10764 bound_to 10752
  154.1793  135.2888  155.3037 H   0  0  0  0  0  0  0  0  0  0  0  0  # atno 10765 bound_to 10752
  140.8318  134.2507  157.4853 H   0  0  0  0  0  0  0  0  0  0  0  0  # atno 11005 bound_to 11000
  146.2997  139.7388  142.9100 LP  0  0  0  0  0  0  0  0  0  0  0  0  # atno 17320 bound_to 7965
  145.3946  141.0377  143.3105 LP  0  0  0  0  0  0  0  0  0  0  0  0  # atno 17321 bound_to 7965
  139.5715  144.7465  151.3879 LP  0  0  0  0  0  0  0  0  0  0  0  0  # atno 17342 bound_to 10162
  140.7019  143.7610  150.7417 LP  0  0  0  0  0  0  0  0  0  0  0  0  # atno 17343 bound_to 10162
  155.9668  130.4303  150.4869 LP  0  0  0  0  0  0  0  0  0  0  0  0  # atno 17370 bound_to 10713
  157.2836  131.0612  151.2181 LP  0  0  0  0  0  0  0  0  0  0  0  0  # atno 17371 bound_to 10713
  139.8705  134.9590  156.4318 LP  0  0  0  0  0  0  0  0  0  0  0  0  # atno 17394 bound_to 11000
  140.8990  133.7793  155.9658 LP  0  0  0  0  0  0  0  0  0  0  0  0  # atno 17395 bound_to 11000

$$$$
