#       Name:                AV-unprocessed.smi:1592
#       Creating user name   scv26
#       Creation time:       Fri Mar 27 07:04:15 2020


#       File generated by GOLD software.
#

@<TRIPOS>MOLECULE
AV-unprocessed.smi:1592
    31    32     1
SMALL
NO_CHARGES


@<TRIPOS>ATOM
      1 ****        -0.1648   1.2340  -0.9485 O.2            1 S1                 0.0000
      2 ****         0.2802   0.3448  -0.2208 C.2            1 S1                 0.0000
      3 ****        -0.4689  -0.5791   0.4083 N.am           1 S1                 0.0000
      4 ****        -1.8798  -0.7577   0.3729 C.ar           1 S1                 0.0000
      5 ****        -2.7074   0.0520  -0.3351 N.ar           1 S1                 0.0000
      6 ****        -4.0356  -0.1823  -0.3183 C.ar           1 S1                 0.0000
      7 ****        -4.6236  -1.2366   0.4023 C.ar           1 S1                 0.0000
      8 ****        -3.7796  -2.0843   1.1404 C.ar           1 S1                 0.0000
      9 ****        -2.3905  -1.8464   1.1287 C.ar           1 S1                 0.0000
     10 ****        -1.5698  -2.6737   1.8468 O.co2          1 S1                -1.0000
     11 ****         1.7900   0.2528   0.0274 C.3            1 S1                 0.0000
     12 ****         2.6385   0.3418  -1.2552 C.3            1 S1                 0.0000
     13 ****         3.3664   1.6655  -1.1187 C.3            1 S1                 0.0000
     14 ****         3.4503   1.8248   0.3922 C.3            1 S1                 0.0000
     15 ****         2.1805   1.3672   0.8273 O.3            1 S1                 0.0000
     16 ****         0.0259  -1.2465   0.9824 H              1 S1                 0.0000
     17 ****        -4.6479   0.4923  -0.8980 H              1 S1                 0.0000
     18 ****        -5.6920  -1.3911   0.3896 H              1 S1                 0.0000
     19 ****        -4.1941  -2.9057   1.7066 H              1 S1                 0.0000
     20 ****         2.0322  -0.6672   0.5628 H              1 S1                 0.0000
     21 ****         3.3559  -0.4795  -1.2767 H              1 S1                 0.0000
     22 ****         2.0589   0.2899  -2.1781 H              1 S1                 0.0000
     23 ****         4.3422   1.6709  -1.6049 H              1 S1                 0.0000
     24 ****         2.7646   2.4697  -1.5446 H              1 S1                 0.0000
     25 ****         4.2332   1.1902   0.8105 H              1 S1                 0.0000
     26 ****         3.6347   2.8541   0.7005 H              1 S1                 0.0000
     27 ****        -1.1497   1.3050  -1.1061 LP             1 S1                 0.0000
     28 ****         0.4590   1.8847  -1.3815 LP             1 S1                 0.0000
     29 ****        -2.3360   0.8150  -0.8642 LP             1 S1                 0.0000
     30 ****         2.2348   1.0890   1.7863 LP             1 S1                 0.0000
     31 ****         1.5083   2.1013   0.7307 LP             1 S1                 0.0000
@<TRIPOS>BOND
    1    1    2 2     
    2    2    3 am    
    3    2   11 1     
    4    3   16 1     
    5    3    4 1     
    6    4    9 ar    
    7    4    5 ar    
    8    5    6 ar    
    9    6   17 1     
   10    6    7 ar    
   11    7   18 1     
   12    7    8 ar    
   13    8    9 ar    
   14    8   19 1     
   15    9   10 ar    
   16   11   15 1     
   17   11   12 1     
   18   11   20 1     
   19   12   13 1     
   20   12   21 1     
   21   12   22 1     
   22   13   14 1     
   23   13   23 1     
   24   13   24 1     
   25   14   15 1     
   26   14   25 1     
   27   14   26 1     
   28    1   27 1     
   29    1   28 1     
   30    5   29 1     
   31   15   30 1     
   32   15   31 1     
@<TRIPOS>SUBSTRUCTURE
      1 S1             1
@<TRIPOS>SET
LONE_PAIRS      STATIC     ATOMS    <user>   **** ""
6 27 28 29 10 30 31
DONOR_HYDROGENS      STATIC     ATOMS    <user>   **** ""
1 16
ATOM$BLUE        STATIC     ATOMS    COLORGROUP SYSTEM
6 27 28 29 10 30 31
ATOM$RED        STATIC     ATOMS    COLORGROUP SYSTEM
1 16
