AV-unprocessed.smi:1|AV-procd|sdf|17|dock6
  -GOLD-   2262015113D 1   1.00000     0.00000
 Structure written by MMmdl.
 56 61  0  0  0  0  0  0  0  0  2 V2000
  154.5533  140.1279  162.0074 O   0  0  0  0  0  0  0  0  0  0  0  0
  153.7148  140.2566  161.1126 C   0  0  0  0  0  0  0  0  0  0  0  0
  153.2042  139.2931  160.3043 N   0  5  0  0  0  0  0  0  0  0  0  0
  153.8252  138.1079  160.2069 C   0  0  0  0  0  0  0  0  0  0  0  0
  154.2389  137.6451  158.9991 N   0  0  0  0  0  0  0  0  0  0  0  0
  154.8632  136.4650  158.9042 C   0  0  0  0  0  0  0  0  0  0  0  0
  155.1684  135.5945  159.8720 N   0  0  0  0  0  0  0  0  0  0  0  0
  154.7451  136.0452  161.0884 C   0  0  0  0  0  0  0  0  0  0  0  0
  154.0700  137.2754  161.3330 C   0  0  0  0  0  0  0  0  0  0  0  0
  153.7824  137.4163  162.6827 N   0  0  0  0  0  0  0  0  0  0  0  0
  154.2911  136.2931  163.1857 C   0  0  0  0  0  0  0  0  0  0  0  0
  154.8818  135.4384  162.3235 N   0  0  0  0  0  0  0  0  0  0  0  0
  155.5533  134.1253  162.5864 C   0  0  2  0  0  0  0  0  0  0  0  0
  154.7117  133.3404  163.3766 O   0  0  0  0  0  0  0  0  0  0  0  0
  155.1267  133.4000  164.7357 C   0  0  1  0  0  0  0  0  0  0  0  0
  154.6150  132.1763  165.5009 C   0  0  0  0  0  0  0  0  0  0  0  0
  155.4790  131.9147  166.5944 O   0  0  0  0  0  0  0  0  0  0  0  0
  156.0151  130.6888  166.7486 C   0  0  0  0  0  0  0  0  0  0  0  0
  156.2401  129.9204  165.8112 O   0  0  0  0  0  0  0  0  0  0  0  0
  156.3065  130.3559  168.1729 C   0  0  0  0  0  0  0  0  0  0  0  0
  156.2821  129.0032  168.5859 C   0  0  0  0  0  0  0  0  0  0  0  0
  156.5505  128.6567  169.9244 C   0  0  0  0  0  0  0  0  0  0  0  0
  156.8462  129.6588  170.8665 C   0  0  0  0  0  0  0  0  0  0  0  0
  156.8738  131.0082  170.4683 C   0  0  0  0  0  0  0  0  0  0  0  0
  156.6063  131.3569  169.1299 C   0  0  0  0  0  0  0  0  0  0  0  0
  156.6501  133.4499  164.6207 C   0  0  2  0  0  0  0  0  0  0  0  0
  157.2430  134.0911  165.7361 O   0  0  0  0  0  0  0  0  0  0  0  0
  157.4389  135.7128  165.3858 S   0  0  0  0  0  0  0  0  0  0  0  0
  156.3769  136.4638  166.0725 O   0  0  0  0  0  0  0  0  0  0  0  0
  158.8644  136.0449  165.5294 O   0  0  0  0  0  0  0  0  0  0  0  0
  157.0715  135.6628  163.7586 O   0  0  0  0  0  0  0  0  0  0  0  0
  156.8698  134.3115  163.3684 C   0  0  2  0  0  0  0  0  0  0  0  0
  153.2064  141.6360  160.7895 C   0  0  0  0  0  0  0  0  0  0  0  0
  153.3198  142.1330  159.4710 C   0  0  0  0  0  0  0  0  0  0  0  0
  152.8767  143.4321  159.1546 C   0  0  0  0  0  0  0  0  0  0  0  0
  152.3235  144.2519  160.1561 C   0  0  0  0  0  0  0  0  0  0  0  0
  152.2169  143.7727  161.4751 C   0  0  0  0  0  0  0  0  0  0  0  0
  152.6595  142.4737  161.7922 C   0  0  0  0  0  0  0  0  0  0  0  0
  155.1622  136.1764  157.9075 H   0  0  0  0  0  0  0  0  0  0  0  0
  154.2309  136.0877  164.2438 H   0  0  0  0  0  0  0  0  0  0  0  0
  155.6822  133.6781  161.5999 H   0  0  0  0  0  0  0  0  0  0  0  0
  154.7570  134.3201  165.1909 H   0  0  0  0  0  0  0  0  0  0  0  0
  153.5931  132.3417  165.8455 H   0  0  0  0  0  0  0  0  0  0  0  0
  154.6053  131.3059  164.8435 H   0  0  0  0  0  0  0  0  0  0  0  0
  156.0562  128.2162  167.8807 H   0  0  0  0  0  0  0  0  0  0  0  0
  156.5285  127.6206  170.2279 H   0  0  0  0  0  0  0  0  0  0  0  0
  157.0512  129.3928  171.8930 H   0  0  0  0  0  0  0  0  0  0  0  0
  157.1005  131.7780  171.1912 H   0  0  0  0  0  0  0  0  0  0  0  0
  156.6364  132.4020  168.8579 H   0  0  0  0  0  0  0  0  0  0  0  0
  157.0651  132.4520  164.4734 H   0  0  0  0  0  0  0  0  0  0  0  0
  157.7169  133.9662  162.7752 H   0  0  0  0  0  0  0  0  0  0  0  0
  153.7443  141.5170  158.6912 H   0  0  0  0  0  0  0  0  0  0  0  0
  152.9636  143.7993  158.1429 H   0  0  0  0  0  0  0  0  0  0  0  0
  151.9846  145.2482  159.9139 H   0  0  0  0  0  0  0  0  0  0  0  0
  151.7982  144.4024  162.2461 H   0  0  0  0  0  0  0  0  0  0  0  0
  152.5791  142.1290  162.8131 H   0  0  0  0  0  0  0  0  0  0  0  0
  1  2  2  0  0  0  0
  2  3  1  0  0  0  0
  2 33  1  0  0  0  0
  3  4  1  0  0  0  0
  4  9  1  0  0  0  0
  4  5  2  0  0  0  0
  5  6  1  0  0  0  0
  6  7  2  0  0  0  0
  6 39  1  0  0  0  0
  7  8  1  0  0  0  0
  8 12  1  0  0  0  0
  8  9  2  0  0  0  0
  9 10  1  0  0  0  0
 10 11  2  0  0  0  0
 11 12  1  0  0  0  0
 11 40  1  0  0  0  0
 12 13  1  0  0  0  0
 13 32  1  0  0  0  0
 13 14  1  0  0  0  0
 13 41  1  0  0  0  0
 14 15  1  0  0  0  0
 15 16  1  0  0  0  0
 15 26  1  0  0  0  0
 15 42  1  0  0  0  0
 16 17  1  0  0  0  0
 16 43  1  0  0  0  0
 16 44  1  0  0  0  0
 17 18  1  0  0  0  0
 18 19  2  0  0  0  0
 18 20  1  0  0  0  0
 20 25  1  0  0  0  0
 20 21  2  0  0  0  0
 21 22  1  0  0  0  0
 21 45  1  0  0  0  0
 22 23  2  0  0  0  0
 22 46  1  0  0  0  0
 23 24  1  0  0  0  0
 23 47  1  0  0  0  0
 24 25  2  0  0  0  0
 24 48  1  0  0  0  0
 25 49  1  0  0  0  0
 26 32  1  0  0  0  0
 26 27  1  0  0  0  0
 26 50  1  0  0  0  0
 27 28  1  0  0  0  0
 28 29  2  0  0  0  0
 28 30  2  0  0  0  0
 28 31  1  0  0  0  0
 31 32  1  0  0  0  0
 32 51  1  0  0  0  0
 33 38  1  0  0  0  0
 33 34  2  0  0  0  0
 34 35  1  0  0  0  0
 34 52  1  0  0  0  0
 35 36  2  0  0  0  0
 35 53  1  0  0  0  0
 36 37  1  0  0  0  0
 36 54  1  0  0  0  0
 37 38  2  0  0  0  0
 37 55  1  0  0  0  0
 38 56  1  0  0  0  0
M  CHG  1   3  -1
M  END
> <s_m_source_file>
AV-unprocessed.smi

> <i_m_source_file_index>
1

> <i_lp_mmshare_version>
43012

> <i_f3d_flags>
0

> <s_epik_input>
W2NIXTFbY0hdW2NIXVtjSF1bY0hdYzFDKD1PKVtOSF1jKG5bY0hdbjIpYyhjMjMpbltjSF1uM1tDQEBIXShbQ0BIXShbQ0BIXTQ1KU9TKE81KSg9Tyk9TylPW0NASF00W0NIMl1PQyg9TyljNltjSF1bY0hdW2NIXVtjSF1bY0hdNg==

> <s_epik_cmdline>
J2VwaWtfcHl0aG9uJywgJy1waCcsICc3LjAnLCAnLXRuJywgJzgnLCAnLW1hJywgJzIwMCcsICctbWV0YWxfYmluZGluZycsICctaW1hZScsICc8aW5maWxlLm1hZT4nLCAnLW9tYWUnLCAnPG91dGZpbGUubWFlPic=

> <r_lp_tautomer_probability>
1

> <r_epik_Ionization_Penalty>
4.39121

> <r_epik_Ionization_Penalty_Charging>
3.39398

> <r_epik_Ionization_Penalty_Neutral>
0.997232

> <r_epik_State_Penalty>
3.39839

> <r_epik_Charging_Adjusted_Penalty>
6.79237

> <i_epik_Tot_Q>
-1

> <i_epik_Tot_abs_Q>
1

> <r_epik_Metal_State_Penalty>
0.497663

> <b_epik_Metal_Only>
1

> <s_epik_Chemistry_Notes>
This compound has an ester and may undergo hydrolysis at high or low pH. This compound contains an acetal/aminal-like group ( X-CH(R)-Y where X, Y are N, S, or O) that may be acid/base labile, releasing an aldehyde.

> <s_lp_Force_Field>
OPLS_2005

> <r_lp_Energy>
42.9132

> <b_lp_Chiralities_Consistent>
1

> <s_lp_Variant>
AV-unprocessed.smi:1-17

> <Gold.Version>
5.8.1

> <Gold.Id.Protein>
6NUR|6NUR_protein|mol2

> <Gold.PLP.Fitness>
47.5367

> <Gold.PLP.PLP>
-53.2589

> <Gold.PLP.part.hbond>
0.0000

> <Gold.PLP.part.metal>
0.0000

> <Gold.PLP.part.buried>
-6.1253

> <Gold.PLP.part.nonpolar>
-47.1505

> <Gold.PLP.part.repulsive>
0.1702

> <Gold.PLP.ligand.clash>
0.0000

> <Gold.PLP.ligand.torsion>
3.0951

> <Gold.PLP.Chemscore.Hbond>
0.0000

> <Gold.PLP.Chemscore.CHOScore>
0.0000

> <Gold.PLP.Chemscore.Metal>
0.0000

> <Gold.PLP.Chemscore.Internal.Correction>
0.4679

> <Gold.Rescore>
     Score         DG    S(hbond)    S(metal)    S(lipo)     H(rot)  DE(clash)    DE(int)     intcor
      6.87     -14.98       0.00        0.00     127.42       2.11       0.01       8.10       ----

> <Gold.Chemscore.Fitness>
6.8652

> <Gold.Chemscore.DG>
-14.9776

> <Gold.Chemscore.ZeroCoef>
-5.4800

> <Gold.Chemscore.Hbond>
0.0000

> <Gold.Chemscore.Metal>
0.0000

> <Gold.Chemscore.Lipo>
127.4217

> <Gold.Chemscore.Internal_Hbond>
0.0000

> <Gold.Chemscore.DEClash>
0.0126

> <Gold.Chemscore.DEInternal>
8.0997

> <Gold.Chemscore.Rot>
2.1136

> <Gold.Chemscore.Internal.Correction>
   9.000000E+99

> <Gold.Chemscore.Hbond.Weighted>
-0.0000

> <Gold.Chemscore.Metal.Weighted>
-0.0000

> <Gold.Chemscore.Lipo.Weighted>
-14.9083

> <Gold.Chemscore.Internal_Hbond.Weighted>
0.0000

> <Gold.Chemscore.DEClash.Weighted>
0.0126

> <Gold.Chemscore.DEInternal.Weighted>
8.0997

> <Gold.Chemscore.Rot.Weighted>
5.4107

> <Gold.Chemscore.Internal.Correction.Weighted>
   9.000000E+99

> <Gold.Protein.RotatedTorsions>
[ 6907 6896 6895 6894 ] final   96.16 input  -60.11 | X-H torsion
[ 7974 7965 7964 7962 ] final  -94.48 input  175.53 | X-H torsion
[ 8008 7997 7996 7995 ] final  -84.94 input   59.86 | X-H torsion
[ 10167 10162 10161 10158 ] final  179.18 input  -65.29 | X-H torsion
[ 10718 10713 10712 10709 ] final   52.31 input   66.30 | X-H torsion
[ 10763 10752 10751 10750 ] final    2.63 input  -60.55 | X-H torsion
[ 11005 11000 10999 10996 ] final -127.63 input  -57.11 | X-H torsion

> <Gold.Protein.ActiveResidues>
 VAL166  LYS551  ARG553  GLY616  TRP617  ASP618  TYR619  PRO620  LYS621  CYS622 
 ASP623  PHE694  ASN695  SER759  ASP760  ASP761  ALA762  ILE779  LEU786  VAL792 
 PHE793  MET794  SER795  GLU796  ALA797  LYS798  CYS799  TRP800  GLU811  SER814 

> <Gold.Protein.RotatedAtoms>
  152.5437  134.0929  159.8284 H   0  0  0  0  0  0  0  0  0  0  0  0  # atno 6907 bound_to 6896
  151.1016  133.5232  159.2617 H   0  0  0  0  0  0  0  0  0  0  0  0  # atno 6908 bound_to 6896
  151.1984  135.0441  159.8916 H   0  0  0  0  0  0  0  0  0  0  0  0  # atno 6909 bound_to 6896
  145.3727  140.9507  143.2438 H   0  0  0  0  0  0  0  0  0  0  0  0  # atno 7974 bound_to 7965
  154.6352  140.0598  156.9780 H   0  0  0  0  0  0  0  0  0  0  0  0  # atno 8008 bound_to 7997
  155.1602  140.3282  155.4394 H   0  0  0  0  0  0  0  0  0  0  0  0  # atno 8009 bound_to 7997
  156.2503  140.1932  156.6710 H   0  0  0  0  0  0  0  0  0  0  0  0  # atno 8010 bound_to 7997
  139.5325  144.2592  152.0721 H   0  0  0  0  0  0  0  0  0  0  0  0  # atno 10167 bound_to 10162
  157.5063  130.8471  149.8379 H   0  0  0  0  0  0  0  0  0  0  0  0  # atno 10718 bound_to 10713
  153.2932  135.6950  153.7273 H   0  0  0  0  0  0  0  0  0  0  0  0  # atno 10763 bound_to 10752
  153.6216  135.3426  155.3013 H   0  0  0  0  0  0  0  0  0  0  0  0  # atno 10764 bound_to 10752
  154.8530  135.4387  154.2020 H   0  0  0  0  0  0  0  0  0  0  0  0  # atno 10765 bound_to 10752
  140.9584  134.0970  157.3993 H   0  0  0  0  0  0  0  0  0  0  0  0  # atno 11005 bound_to 11000
  144.8565  139.5242  143.6832 LP  0  0  0  0  0  0  0  0  0  0  0  0  # atno 17320 bound_to 7965
  146.2878  139.7053  142.9183 LP  0  0  0  0  0  0  0  0  0  0  0  0  # atno 17321 bound_to 7965
  140.2057  144.4613  150.6409 LP  0  0  0  0  0  0  0  0  0  0  0  0  # atno 17342 bound_to 10162
  140.6512  143.2225  151.6072 LP  0  0  0  0  0  0  0  0  0  0  0  0  # atno 17343 bound_to 10162
  156.0260  130.3779  150.1821 LP  0  0  0  0  0  0  0  0  0  0  0  0  # atno 17370 bound_to 10713
  157.0011  130.9922  151.3390 LP  0  0  0  0  0  0  0  0  0  0  0  0  # atno 17371 bound_to 10713
  139.8870  135.0086  156.6531 LP  0  0  0  0  0  0  0  0  0  0  0  0  # atno 17394 bound_to 11000
  140.7503  133.8903  155.8342 LP  0  0  0  0  0  0  0  0  0  0  0  0  # atno 17395 bound_to 11000

$$$$
