AV-unprocessed.smi:2358|AV-procd|sdf|9403|dock6
  -GOLD-   2272013 33D 1   1.00000     0.00000
 Structure written by MMmdl.
 45 47  0  0  0  0  0  0  0  0  1 V2000
  152.4446  145.2106  158.3732 C   0  0  0  0  0  0  0  0  0  0  0  0
  152.1416  143.7349  158.5331 C   0  0  0  0  0  0  0  0  0  0  0  0
  152.6077  143.0305  159.6612 C   0  0  0  0  0  0  0  0  0  0  0  0
  152.3205  141.6593  159.8054 C   0  0  0  0  0  0  0  0  0  0  0  0
  152.8250  140.9083  161.0203 C   0  0  0  0  0  0  0  0  0  0  0  0
  151.5661  140.9949  158.8167 C   0  0  0  0  0  0  0  0  0  0  0  0
  151.0937  141.6843  157.6812 C   0  0  0  0  0  0  0  0  0  0  0  0
  150.3660  140.9545  156.7654 O   0  0  0  0  0  0  0  0  0  0  0  0
  149.9908  141.5838  155.5471 C   0  0  0  0  0  0  0  0  0  0  0  0
  149.2301  140.5713  154.6747 C   0  0  2  0  0  0  0  0  0  0  0  0
  149.2986  141.0315  153.3386 O   0  0  0  0  0  0  0  0  0  0  0  0
  147.7389  140.4826  155.0692 C   0  0  0  0  0  0  0  0  0  0  0  0
  147.2020  141.7801  155.4968 N   0  0  0  0  0  0  0  0  0  0  0  0
  146.9221  142.6430  154.4529 N   0  0  0  0  0  0  0  0  0  0  0  0
  146.4312  143.8186  154.6727 C   0  0  0  0  0  0  0  0  0  0  0  0
  146.1336  144.7079  153.5644 N   0  0  0  0  0  0  0  0  0  0  0  0
  145.2733  145.8000  153.6856 C   0  0  0  0  0  0  0  0  0  0  0  0
  145.2367  146.3906  152.4415 C   0  0  0  0  0  0  0  0  0  0  0  0
  146.0508  145.6889  151.5542 N   0  0  0  0  0  0  0  0  0  0  0  0
  146.5478  144.7033  152.2896 C   0  0  0  0  0  0  0  0  0  0  0  0
  146.1803  144.2517  156.0431 C   0  0  0  0  0  0  0  0  0  0  0  0
  146.4586  143.4013  157.0549 C   0  0  0  0  0  0  0  0  0  0  0  0
  147.0015  142.0654  156.8169 C   0  0  0  0  0  0  0  0  0  0  0  0
  147.2534  141.2689  157.7206 O   0  0  0  0  0  0  0  0  0  0  0  0
  151.3872  143.0650  157.5484 C   0  0  0  0  0  0  0  0  0  0  0  0
  153.1608  145.5533  159.1207 H   0  0  0  0  0  0  0  0  0  0  0  0
  151.5314  145.7963  158.4808 H   0  0  0  0  0  0  0  0  0  0  0  0
  152.8647  145.4070  157.3862 H   0  0  0  0  0  0  0  0  0  0  0  0
  153.1855  143.5405  160.4186 H   0  0  0  0  0  0  0  0  0  0  0  0
  152.4711  139.8768  161.0278 H   0  0  0  0  0  0  0  0  0  0  0  0
  152.4797  141.3923  161.9342 H   0  0  0  0  0  0  0  0  0  0  0  0
  153.9151  140.8945  161.0294 H   0  0  0  0  0  0  0  0  0  0  0  0
  151.3455  139.9429  158.9252 H   0  0  0  0  0  0  0  0  0  0  0  0
  149.3321  142.4198  155.7873 H   0  0  0  0  0  0  0  0  0  0  0  0
  150.8569  141.9831  155.0156 H   0  0  0  0  0  0  0  0  0  0  0  0
  149.7055  139.5930  154.7562 H   0  0  0  0  0  0  0  0  0  0  0  0
  149.2377  140.2869  152.7601 H   0  0  0  0  0  0  0  0  0  0  0  0
  147.1498  140.1294  154.2211 H   0  0  0  0  0  0  0  0  0  0  0  0
  147.5924  139.7258  155.8426 H   0  0  0  0  0  0  0  0  0  0  0  0
  144.7559  146.0890  154.5859 H   0  0  0  0  0  0  0  0  0  0  0  0
  144.6865  147.2618  152.1177 H   0  0  0  0  0  0  0  0  0  0  0  0
  147.2275  143.9643  151.8908 H   0  0  0  0  0  0  0  0  0  0  0  0
  145.7876  145.2258  156.2812 H   0  0  0  0  0  0  0  0  0  0  0  0
  146.2771  143.7169  158.0719 H   0  0  0  0  0  0  0  0  0  0  0  0
  151.0423  143.6332  156.6978 H   0  0  0  0  0  0  0  0  0  0  0  0
  1  2  1  0  0  0  0
  1 26  1  0  0  0  0
  1 27  1  0  0  0  0
  1 28  1  0  0  0  0
  2 25  1  0  0  0  0
  2  3  2  0  0  0  0
  3  4  1  0  0  0  0
  3 29  1  0  0  0  0
  4  5  1  0  0  0  0
  4  6  2  0  0  0  0
  5 30  1  0  0  0  0
  5 31  1  0  0  0  0
  5 32  1  0  0  0  0
  6  7  1  0  0  0  0
  6 33  1  0  0  0  0
  7  8  1  0  0  0  0
  7 25  2  0  0  0  0
  8  9  1  0  0  0  0
  9 10  1  0  0  0  0
  9 34  1  0  0  0  0
  9 35  1  0  0  0  0
 10 11  1  0  0  0  0
 10 12  1  0  0  0  0
 10 36  1  0  0  0  0
 11 37  1  0  0  0  0
 12 13  1  0  0  0  0
 12 38  1  0  0  0  0
 12 39  1  0  0  0  0
 13 23  1  0  0  0  0
 13 14  1  0  0  0  0
 14 15  2  0  0  0  0
 15 16  1  0  0  0  0
 15 21  1  0  0  0  0
 16 20  1  0  0  0  0
 16 17  1  0  0  0  0
 17 18  2  0  0  0  0
 17 40  1  0  0  0  0
 18 19  1  0  0  0  0
 18 41  1  0  0  0  0
 19 20  2  0  0  0  0
 20 42  1  0  0  0  0
 21 22  2  0  0  0  0
 21 43  1  0  0  0  0
 22 23  1  0  0  0  0
 22 44  1  0  0  0  0
 23 24  2  0  0  0  0
 25 45  1  0  0  0  0
M  END
> <s_m_source_file>
AV-unprocessed.smi

> <i_m_source_file_index>
2358

> <i_lp_mmshare_version>
43012

> <i_f3d_flags>
0

> <s_epik_input>
W0NIM11jMVtjSF1jKFtDSDNdKVtjSF1jKFtjSF0xKU9bQ0gyXVtDQEhdKFtPSF0pW0NIMl1uMm5jKFtjSF1bY0hdYzI9TyktbjNbY0hdW2NIXW5bY0hdMw==

> <s_epik_cmdline>
J2VwaWtfcHl0aG9uJywgJy1waCcsICc3LjAnLCAnLXRuJywgJzgnLCAnLW1hJywgJzIwMCcsICctbWV0YWxfYmluZGluZycsICctaW1hZScsICc8aW5maWxlLm1hZT4nLCAnLW9tYWUnLCAnPG91dGZpbGUubWFlPic=

> <r_lp_tautomer_probability>
1

> <r_epik_Ionization_Penalty>
0.03707

> <r_epik_Ionization_Penalty_Charging>
0.0370699

> <r_epik_Ionization_Penalty_Neutral>
1.17174e-07

> <r_epik_State_Penalty>
0.0310055

> <r_epik_Charging_Adjusted_Penalty>
0.0680754

> <i_epik_Tot_Q>
0

> <i_epik_Tot_abs_Q>
0

> <r_epik_Metal_State_Penalty>
0.0291724

> <b_epik_Metal_Only>
0

> <s_lp_Force_Field>
OPLS_2005

> <r_lp_Energy>
37.1438

> <b_lp_Chiralities_Consistent>
1

> <s_lp_Variant>
AV-unprocessed.smi:2358-1

> <Gold.Version>
5.8.1

> <Gold.Id.Protein>
6NUR|6NUR_protein|mol2

> <Gold.PLP.Fitness>
57.0757

> <Gold.PLP.PLP>
-53.7433

> <Gold.PLP.part.hbond>
-4.4721

> <Gold.PLP.part.metal>
0.0000

> <Gold.PLP.part.buried>
-9.4394

> <Gold.PLP.part.nonpolar>
-40.0857

> <Gold.PLP.part.repulsive>
0.3299

> <Gold.PLP.ligand.clash>
0.0000

> <Gold.PLP.ligand.torsion>
0.8976

> <Gold.PLP.Chemscore.Hbond>
1.6920

> <Gold.PLP.Chemscore.CHOScore>
0.0000

> <Gold.PLP.Chemscore.Metal>
0.0000

> <Gold.Chemscore.Hbonds>
donor molecule, donor type, donor heavy atom, donor atom, acceptor molecule, acceptor atom, score
      L1  H    11    37       P1  7957  0.67
      P1  H  7989  7998       L1    11  0.02
      P1  H  8011  8017       L1    11  1.00

> <Gold.PLP.Chemscore.Internal.Correction>
0.0515

> <Gold.Rescore>
     Score         DG    S(hbond)    S(metal)    S(lipo)     H(rot)  DE(clash)    DE(int)     intcor
     14.08     -16.24       0.97        0.00     121.07       2.60       1.34       0.83       ----

> <Gold.Chemscore.Fitness>
14.0753

> <Gold.Chemscore.DG>
-16.2429

> <Gold.Chemscore.ZeroCoef>
-5.4800

> <Gold.Chemscore.Hbond>
0.9731

> <Gold.Chemscore.Metal>
0.0000

> <Gold.Chemscore.Lipo>
121.0703

> <Gold.Chemscore.Internal_Hbond>
0.0000

> <Gold.Chemscore.DEClash>
1.3384

> <Gold.Chemscore.DEInternal>
0.8292

> <Gold.Chemscore.Rot>
2.5986

> <Gold.Chemscore.Internal.Correction>
   9.000000E+99

> <Gold.Chemscore.Hbonds>
donor molecule, donor type, donor heavy atom, donor atom, acceptor molecule, acceptor atom, score
      L1  H    11    37       P1  7957  0.66
      P1  H  8011  8017       L1    11  0.55

> <Gold.Chemscore.Hbond.Weighted>
-3.2501

> <Gold.Chemscore.Metal.Weighted>
-0.0000

> <Gold.Chemscore.Lipo.Weighted>
-14.1652

> <Gold.Chemscore.Internal_Hbond.Weighted>
0.0000

> <Gold.Chemscore.DEClash.Weighted>
1.3384

> <Gold.Chemscore.DEInternal.Weighted>
0.8292

> <Gold.Chemscore.Rot.Weighted>
6.6524

> <Gold.Chemscore.Internal.Correction.Weighted>
   9.000000E+99

> <Gold.Protein.RotatedTorsions>
[ 6907 6896 6895 6894 ] final   47.36 input  -60.11 | X-H torsion
[ 7974 7965 7964 7962 ] final  158.55 input  175.53 | X-H torsion
[ 8008 7997 7996 7995 ] final  106.74 input   59.86 | X-H torsion
[ 10167 10162 10161 10158 ] final  -14.53 input  -65.29 | X-H torsion
[ 10718 10713 10712 10709 ] final  -59.34 input   66.30 | X-H torsion
[ 10763 10752 10751 10750 ] final   80.48 input  -60.55 | X-H torsion
[ 11005 11000 10999 10996 ] final  -41.93 input  -57.11 | X-H torsion

> <Gold.Protein.ActiveResidues>
 VAL166  LYS551  ARG553  GLY616  TRP617  ASP618  TYR619  PRO620  LYS621  CYS622 
 ASP623  PHE694  ASN695  SER759  ASP760  ASP761  ALA762  ILE779  LEU786  VAL792 
 PHE793  MET794  SER795  GLU796  ALA797  LYS798  CYS799  TRP800  GLU811  SER814 

> <Gold.Protein.RotatedAtoms>
  152.2671  134.7972  160.0420 H   0  0  0  0  0  0  0  0  0  0  0  0  # atno 6907 bound_to 6896
  151.8598  133.3450  159.3708 H   0  0  0  0  0  0  0  0  0  0  0  0  # atno 6908 bound_to 6896
  150.7138  134.5145  159.5668 H   0  0  0  0  0  0  0  0  0  0  0  0  # atno 6909 bound_to 6896
  144.7839  139.7494  143.6248 H   0  0  0  0  0  0  0  0  0  0  0  0  # atno 7974 bound_to 7965
  156.1768  140.3107  155.9073 H   0  0  0  0  0  0  0  0  0  0  0  0  # atno 8008 bound_to 7997
  155.3471  140.0469  157.3063 H   0  0  0  0  0  0  0  0  0  0  0  0  # atno 8009 bound_to 7997
  154.5299  140.2227  155.8834 H   0  0  0  0  0  0  0  0  0  0  0  0  # atno 8010 bound_to 7997
  140.7203  143.5312  150.9518 H   0  0  0  0  0  0  0  0  0  0  0  0  # atno 10167 bound_to 10162
  156.1069  130.4179  150.0702 H   0  0  0  0  0  0  0  0  0  0  0  0  # atno 10718 bound_to 10713
  153.1037  135.4801  154.8913 H   0  0  0  0  0  0  0  0  0  0  0  0  # atno 10763 bound_to 10752
  154.7407  135.3081  154.8735 H   0  0  0  0  0  0  0  0  0  0  0  0  # atno 10764 bound_to 10752
  153.9344  135.6841  153.4798 H   0  0  0  0  0  0  0  0  0  0  0  0  # atno 10765 bound_to 10752
  141.0280  133.6832  156.2525 H   0  0  0  0  0  0  0  0  0  0  0  0  # atno 11005 bound_to 11000
  146.2062  139.5387  142.9711 LP  0  0  0  0  0  0  0  0  0  0  0  0  # atno 17320 bound_to 7965
  145.5974  141.0360  143.2037 LP  0  0  0  0  0  0  0  0  0  0  0  0  # atno 17321 bound_to 7965
  139.9032  143.6810  152.3128 LP  0  0  0  0  0  0  0  0  0  0  0  0  # atno 17342 bound_to 10162
  139.7167  144.7610  151.1023 LP  0  0  0  0  0  0  0  0  0  0  0  0  # atno 17343 bound_to 10162
  156.8675  130.9513  151.3612 LP  0  0  0  0  0  0  0  0  0  0  0  0  # atno 17370 bound_to 10713
  157.6246  130.8682  149.9168 LP  0  0  0  0  0  0  0  0  0  0  0  0  # atno 17371 bound_to 10713
  140.6456  134.5120  157.5573 LP  0  0  0  0  0  0  0  0  0  0  0  0  # atno 17394 bound_to 11000
  139.9189  134.8189  156.1276 LP  0  0  0  0  0  0  0  0  0  0  0  0  # atno 17395 bound_to 11000

$$$$
