AV-unprocessed.smi:1578|AV-procd|sdf|6351|dock3
  -GOLD-   22720 6573D 1   1.00000     0.00000
 Structure written by MMmdl.
 44 45  0  0  0  0  0  0  0  0  1 V2000
  151.4694  137.3887  157.4537 C   0  0  0  0  0  0  0  0  0  0  0  0
  150.9055  138.3545  158.5038 C   0  0  1  0  0  0  0  0  0  0  0  0
  150.9874  139.8219  158.0250 C   0  0  0  0  0  0  0  0  0  0  0  0
  151.4549  140.7818  159.0270 N   0  0  0  0  0  0  0  0  0  0  0  0
  152.8285  140.5359  159.4566 C   0  0  0  0  0  0  0  0  0  0  0  0
  153.2705  141.5411  160.5337 C   0  0  0  0  0  0  0  0  0  0  0  0
  153.1277  142.8672  160.0344 O   0  0  0  0  0  0  0  0  0  0  0  0
  151.7947  143.1627  159.6286 C   0  0  0  0  0  0  0  0  0  0  0  0
  151.3447  142.1562  158.5545 C   0  0  0  0  0  0  0  0  0  0  0  0
  149.5133  138.0077  158.7836 N   0  0  0  0  0  0  0  0  0  0  0  0
  149.0411  136.7653  158.9703 C   0  0  0  0  0  0  0  0  0  0  0  0
  149.7027  135.7457  158.7738 O   0  0  0  0  0  0  0  0  0  0  0  0
  147.5991  136.6561  159.4770 C   0  0  0  0  0  0  0  0  0  0  0  0
  147.5012  135.7235  160.6123 N   0  0  0  0  0  0  0  0  0  0  0  0
  147.6887  134.3539  160.3417 C   0  0  0  0  0  0  0  0  0  0  0  0
  147.6642  133.4075  161.2999 C   0  0  0  0  0  0  0  0  0  0  0  0
  147.8203  131.9313  160.9692 C   0  0  0  0  0  0  0  0  0  0  0  0
  148.7534  131.3883  161.7500 F   0  0  0  0  0  0  0  0  0  0  0  0
  146.6787  131.2709  161.1649 F   0  0  0  0  0  0  0  0  0  0  0  0
  148.1907  131.7595  159.6997 F   0  0  0  0  0  0  0  0  0  0  0  0
  147.3991  133.8630  162.6505 C   0  0  0  0  0  0  0  0  0  0  0  0
  147.2083  135.1679  162.9256 C   0  0  0  0  0  0  0  0  0  0  0  0
  147.2564  136.1873  161.8756 C   0  0  0  0  0  0  0  0  0  0  0  0
  147.0883  137.3833  162.1166 O   0  0  0  0  0  0  0  0  0  0  0  0
  152.5136  137.6147  157.2362 H   0  0  0  0  0  0  0  0  0  0  0  0
  150.9136  137.4492  156.5174 H   0  0  0  0  0  0  0  0  0  0  0  0
  151.4221  136.3570  157.8038 H   0  0  0  0  0  0  0  0  0  0  0  0
  151.5137  138.2357  159.4014 H   0  0  0  0  0  0  0  0  0  0  0  0
  151.6172  139.8836  157.1364 H   0  0  0  0  0  0  0  0  0  0  0  0
  149.9886  140.1174  157.7006 H   0  0  0  0  0  0  0  0  0  0  0  0
  152.9302  139.5283  159.8566 H   0  0  0  0  0  0  0  0  0  0  0  0
  153.5020  140.6001  158.6007 H   0  0  0  0  0  0  0  0  0  0  0  0
  152.6760  141.4192  161.4409 H   0  0  0  0  0  0  0  0  0  0  0  0
  154.3119  141.3719  160.8067 H   0  0  0  0  0  0  0  0  0  0  0  0
  151.1305  143.1285  160.4936 H   0  0  0  0  0  0  0  0  0  0  0  0
  151.7576  144.1788  159.2360 H   0  0  0  0  0  0  0  0  0  0  0  0
  151.9486  142.2888  157.6554 H   0  0  0  0  0  0  0  0  0  0  0  0
  150.3130  142.3699  158.2731 H   0  0  0  0  0  0  0  0  0  0  0  0
  148.8849  138.7783  158.9592 H   0  0  0  0  0  0  0  0  0  0  0  0
  147.2193  137.6390  159.7630 H   0  0  0  0  0  0  0  0  0  0  0  0
  146.9682  136.3331  158.6480 H   0  0  0  0  0  0  0  0  0  0  0  0
  147.8608  134.1202  159.3010 H   0  0  0  0  0  0  0  0  0  0  0  0
  147.3589  133.1466  163.4577 H   0  0  0  0  0  0  0  0  0  0  0  0
  147.0174  135.4725  163.9442 H   0  0  0  0  0  0  0  0  0  0  0  0
  1  2  1  0  0  0  0
  1 25  1  0  0  0  0
  1 26  1  0  0  0  0
  1 27  1  0  0  0  0
  2  3  1  0  0  0  0
  2 10  1  0  0  0  0
  2 28  1  0  0  0  0
  3  4  1  0  0  0  0
  3 29  1  0  0  0  0
  3 30  1  0  0  0  0
  4  9  1  0  0  0  0
  4  5  1  0  0  0  0
  5  6  1  0  0  0  0
  5 31  1  0  0  0  0
  5 32  1  0  0  0  0
  6  7  1  0  0  0  0
  6 33  1  0  0  0  0
  6 34  1  0  0  0  0
  7  8  1  0  0  0  0
  8  9  1  0  0  0  0
  8 35  1  0  0  0  0
  8 36  1  0  0  0  0
  9 37  1  0  0  0  0
  9 38  1  0  0  0  0
 10 11  1  0  0  0  0
 10 39  1  0  0  0  0
 11 12  2  0  0  0  0
 11 13  1  0  0  0  0
 13 14  1  0  0  0  0
 13 40  1  0  0  0  0
 13 41  1  0  0  0  0
 14 23  1  0  0  0  0
 14 15  1  0  0  0  0
 15 16  2  0  0  0  0
 15 42  1  0  0  0  0
 16 17  1  0  0  0  0
 16 21  1  0  0  0  0
 17 18  1  0  0  0  0
 17 19  1  0  0  0  0
 17 20  1  0  0  0  0
 21 22  2  0  0  0  0
 21 43  1  0  0  0  0
 22 23  1  0  0  0  0
 22 44  1  0  0  0  0
 23 24  2  0  0  0  0
M  END
> <s_m_source_file>
AV-unprocessed.smi

> <i_m_source_file_index>
1578

> <i_lp_mmshare_version>
43012

> <i_f3d_flags>
0

> <s_epik_input>
W0NIMl0xW0NIMl1PW0NIMl1bQ0gyXU4xW0NIMl1bQ0BASF0oW0NIM10pW05IXUMoPU8pW0NIMl1uMltjSF1jKEMoRikoRilGKVtjSF1bY0hdYzI9Tw==

> <s_epik_cmdline>
J2VwaWtfcHl0aG9uJywgJy1waCcsICc3LjAnLCAnLXRuJywgJzgnLCAnLW1hJywgJzIwMCcsICctbWV0YWxfYmluZGluZycsICctaW1hZScsICc8aW5maWxlLm1hZT4nLCAnLW9tYWUnLCAnPG91dGZpbGUubWFlPic=

> <r_lp_tautomer_probability>
1

> <r_epik_Ionization_Penalty>
0.237382

> <r_epik_Ionization_Penalty_Charging>
1.80451e-08

> <r_epik_Ionization_Penalty_Neutral>
0.237382

> <r_epik_State_Penalty>
0.228245

> <r_epik_Charging_Adjusted_Penalty>
0.228245

> <i_epik_Tot_Q>
0

> <i_epik_Tot_abs_Q>
0

> <r_epik_Metal_State_Penalty>
0.228219

> <b_epik_Metal_Only>
0

> <s_lp_Force_Field>
OPLS_2005

> <r_lp_Energy>
36.9554

> <b_lp_Chiralities_Consistent>
1

> <s_lp_Variant>
AV-unprocessed.smi:1578-2

> <Gold.Version>
5.8.1

> <Gold.Id.Protein>
6NUR|6NUR_protein|mol2

> <Gold.PLP.Fitness>
48.9848

> <Gold.PLP.PLP>
-45.3477

> <Gold.PLP.part.hbond>
-3.0000

> <Gold.PLP.part.metal>
0.0000

> <Gold.PLP.part.buried>
-6.3798

> <Gold.PLP.part.nonpolar>
-36.6999

> <Gold.PLP.part.repulsive>
0.2065

> <Gold.PLP.ligand.clash>
1.1071

> <Gold.PLP.ligand.torsion>
1.2288

> <Gold.PLP.Chemscore.Hbond>
2.3541

> <Gold.PLP.Chemscore.CHOScore>
0.0000

> <Gold.PLP.Chemscore.Metal>
0.0000

> <Gold.Chemscore.Hbonds>
donor molecule, donor type, donor heavy atom, donor atom, acceptor molecule, acceptor atom, score
      P1  H  6896  6908       L1    12  1.00
      P1  H  6931  6943       L1    24  0.55
      P1  H  6934  6947       L1    24  0.70

> <Gold.PLP.Chemscore.Internal.Correction>
0.1395

> <Gold.Rescore>
     Score         DG    S(hbond)    S(metal)    S(lipo)     H(rot)  DE(clash)    DE(int)     intcor
     14.60     -18.37       2.49        0.00      84.80       2.09       0.02       3.75       ----

> <Gold.Chemscore.Fitness>
14.6001

> <Gold.Chemscore.DG>
-18.3710

> <Gold.Chemscore.ZeroCoef>
-5.4800

> <Gold.Chemscore.Hbond>
2.4929

> <Gold.Chemscore.Metal>
0.0000

> <Gold.Chemscore.Lipo>
84.7974

> <Gold.Chemscore.Internal_Hbond>
0.0000

> <Gold.Chemscore.DEClash>
0.0174

> <Gold.Chemscore.DEInternal>
3.7535

> <Gold.Chemscore.Rot>
2.0924

> <Gold.Chemscore.Internal.Correction>
   9.000000E+99

> <Gold.Chemscore.Hbonds>
donor molecule, donor type, donor heavy atom, donor atom, acceptor molecule, acceptor atom, score
      P1  H  6896  6908       L1    12  1.00
      P1  H  6931  6943       L1    24  0.27
      P1  H  6934  6947       L1    24  0.67

> <Gold.Chemscore.Hbond.Weighted>
-8.3263

> <Gold.Chemscore.Metal.Weighted>
-0.0000

> <Gold.Chemscore.Lipo.Weighted>
-9.9213

> <Gold.Chemscore.Internal_Hbond.Weighted>
0.0000

> <Gold.Chemscore.DEClash.Weighted>
0.0174

> <Gold.Chemscore.DEInternal.Weighted>
3.7535

> <Gold.Chemscore.Rot.Weighted>
5.3566

> <Gold.Chemscore.Internal.Correction.Weighted>
   9.000000E+99

> <Gold.Protein.RotatedTorsions>
[ 6907 6896 6895 6894 ] final  177.67 input  -60.11 | X-H torsion
[ 7974 7965 7964 7962 ] final  173.73 input  175.53 | X-H torsion
[ 8008 7997 7996 7995 ] final  -70.47 input   59.86 | X-H torsion
[ 10167 10162 10161 10158 ] final  151.59 input  -65.29 | X-H torsion
[ 10718 10713 10712 10709 ] final -179.89 input   66.30 | X-H torsion
[ 10763 10752 10751 10750 ] final -165.11 input  -60.55 | X-H torsion
[ 11005 11000 10999 10996 ] final  115.47 input  -57.11 | X-H torsion

> <Gold.Protein.ActiveResidues>
 VAL166  LYS551  ARG553  GLY616  TRP617  ASP618  TYR619  PRO620  LYS621  CYS622 
 ASP623  PHE694  ASN695  SER759  ASP760  ASP761  ALA762  ILE779  LEU786  VAL792 
 PHE793  MET794  SER795  GLU796  ALA797  LYS798  CYS799  TRP800  GLU811  SER814 

> <Gold.Protein.RotatedAtoms>
  151.7003  133.3311  159.3264 H   0  0  0  0  0  0  0  0  0  0  0  0  # atno 6907 bound_to 6896
  150.7739  134.6621  159.6355 H   0  0  0  0  0  0  0  0  0  0  0  0  # atno 6908 bound_to 6896
  152.3774  134.6646  160.0207 H   0  0  0  0  0  0  0  0  0  0  0  0  # atno 6909 bound_to 6896
  144.7237  139.9691  143.6436 H   0  0  0  0  0  0  0  0  0  0  0  0  # atno 7974 bound_to 7965
  154.5014  140.0834  156.7806 H   0  0  0  0  0  0  0  0  0  0  0  0  # atno 8008 bound_to 7997
  155.3994  140.3436  155.4238 H   0  0  0  0  0  0  0  0  0  0  0  0  # atno 8009 bound_to 7997
  156.1461  140.1544  156.8832 H   0  0  0  0  0  0  0  0  0  0  0  0  # atno 8010 bound_to 7997
  139.4839  144.5428  151.7535 H   0  0  0  0  0  0  0  0  0  0  0  0  # atno 10167 bound_to 10162
  156.8658  130.9767  151.3078 H   0  0  0  0  0  0  0  0  0  0  0  0  # atno 10718 bound_to 10713
  154.6963  135.2980  154.9406 H   0  0  0  0  0  0  0  0  0  0  0  0  # atno 10763 bound_to 10752
  154.0353  135.6664  153.4788 H   0  0  0  0  0  0  0  0  0  0  0  0  # atno 10764 bound_to 10752
  153.0648  135.5094  154.8083 H   0  0  0  0  0  0  0  0  0  0  0  0  # atno 10765 bound_to 10752
  139.9011  134.9584  156.7050 H   0  0  0  0  0  0  0  0  0  0  0  0  # atno 11005 bound_to 11000
  146.0577  139.3572  143.0601 LP  0  0  0  0  0  0  0  0  0  0  0  0  # atno 17320 bound_to 7965
  145.8134  140.9715  143.0937 LP  0  0  0  0  0  0  0  0  0  0  0  0  # atno 17321 bound_to 7965
  140.4970  144.1226  150.5962 LP  0  0  0  0  0  0  0  0  0  0  0  0  # atno 17342 bound_to 10162
  140.4106  143.2659  151.9837 LP  0  0  0  0  0  0  0  0  0  0  0  0  # atno 17343 bound_to 10162
  157.6224  130.8665  149.9131 LP  0  0  0  0  0  0  0  0  0  0  0  0  # atno 17370 bound_to 10713
  156.0752  130.3680  150.0692 LP  0  0  0  0  0  0  0  0  0  0  0  0  # atno 17371 bound_to 10713
  140.7120  133.9214  155.8091 LP  0  0  0  0  0  0  0  0  0  0  0  0  # atno 17394 bound_to 11000
  141.0292  134.0779  157.4033 LP  0  0  0  0  0  0  0  0  0  0  0  0  # atno 17395 bound_to 11000

$$$$
