AV-unprocessed.smi:1244|AV-procd|sdf|5224|dock3
  -GOLD-   22720 4323D 1   1.00000     0.00000
 Structure written by MMmdl.
 55 57  0  0  0  0  0  0  0  0  2 V2000
  141.4217  140.4201  154.8516 C   0  0  0  0  0  0  0  0  0  0  0  0
  142.1689  140.9896  156.0707 C   0  0  2  0  0  0  0  0  0  0  0  0
  142.9864  142.2579  155.7551 C   0  0  0  0  0  0  0  0  0  0  0  0
  144.2087  141.9308  154.9830 N   0  3  1  0  0  0  0  0  0  0  0  0
  144.9779  143.1421  154.6037 C   0  0  0  0  0  0  0  0  0  0  0  0
  146.2187  142.8090  153.7527 C   0  0  0  0  0  0  0  0  0  0  0  0
  147.4311  142.7758  154.5618 N   0  0  0  0  0  0  0  0  0  0  0  0
  148.2359  141.7112  154.6871 C   0  0  0  0  0  0  0  0  0  0  0  0
  148.0410  140.6427  154.1074 O   0  0  0  0  0  0  0  0  0  0  0  0
  149.2732  141.9753  155.4984 N   0  0  0  0  0  0  0  0  0  0  0  0
  150.3507  141.1141  155.8505 C   0  0  0  0  0  0  0  0  0  0  0  0
  150.5408  139.8665  155.2074 C   0  0  0  0  0  0  0  0  0  0  0  0
  151.5765  139.0192  155.6367 C   0  0  0  0  0  0  0  0  0  0  0  0
  152.3790  139.4422  156.7091 C   0  0  0  0  0  0  0  0  0  0  0  0
  152.2027  140.6198  157.3409 N   0  0  0  0  0  0  0  0  0  0  0  0
  151.2168  141.4545  156.9290 C   0  0  0  0  0  0  0  0  0  0  0  0
  151.0896  142.6827  157.6171 N   0  0  0  0  0  0  0  0  0  0  0  0
  149.8469  143.0204  158.3035 C   0  0  0  0  0  0  0  0  0  0  0  0
  150.2093  144.1796  159.2267 C   0  0  0  0  0  0  0  0  0  0  0  0
  151.6272  143.8188  159.6592 C   0  0  0  0  0  0  0  0  0  0  0  0
  152.2203  143.1318  158.4247 C   0  0  0  0  0  0  0  0  0  0  0  0
  145.0116  140.9124  155.7017 C   0  0  0  0  0  0  0  0  0  0  0  0
  144.1654  139.6543  155.9680 C   0  0  1  0  0  0  0  0  0  0  0  0
  144.9325  138.6072  156.7828 C   0  0  0  0  0  0  0  0  0  0  0  0
  142.9978  140.0135  156.7022 O   0  0  0  0  0  0  0  0  0  0  0  0
  140.6972  141.1412  154.4722 H   0  0  0  0  0  0  0  0  0  0  0  0
  140.8751  139.5154  155.1187 H   0  0  0  0  0  0  0  0  0  0  0  0
  142.0937  140.1750  154.0297 H   0  0  0  0  0  0  0  0  0  0  0  0
  141.4094  141.2598  156.8050 H   0  0  0  0  0  0  0  0  0  0  0  0
  142.3689  142.9681  155.2033 H   0  0  0  0  0  0  0  0  0  0  0  0
  143.2761  142.7487  156.6857 H   0  0  0  0  0  0  0  0  0  0  0  0
  144.3275  143.7993  154.0245 H   0  0  0  0  0  0  0  0  0  0  0  0
  145.2597  143.6989  155.4990 H   0  0  0  0  0  0  0  0  0  0  0  0
  146.1178  141.8302  153.2856 H   0  0  0  0  0  0  0  0  0  0  0  0
  146.3321  143.5307  152.9417 H   0  0  0  0  0  0  0  0  0  0  0  0
  147.6670  143.6155  155.0708 H   0  0  0  0  0  0  0  0  0  0  0  0
  149.3575  142.9272  155.8244 H   0  0  0  0  0  0  0  0  0  0  0  0
  149.8953  139.5357  154.4083 H   0  0  0  0  0  0  0  0  0  0  0  0
  151.7423  138.0627  155.1637 H   0  0  0  0  0  0  0  0  0  0  0  0
  153.1797  138.8163  157.0743 H   0  0  0  0  0  0  0  0  0  0  0  0
  149.0633  143.2945  157.5965 H   0  0  0  0  0  0  0  0  0  0  0  0
  149.4922  142.1796  158.9012 H   0  0  0  0  0  0  0  0  0  0  0  0
  150.2167  145.1158  158.6667 H   0  0  0  0  0  0  0  0  0  0  0  0
  149.5198  144.2883  160.0643 H   0  0  0  0  0  0  0  0  0  0  0  0
  152.2075  144.6832  159.9826 H   0  0  0  0  0  0  0  0  0  0  0  0
  151.5872  143.1116  160.4887 H   0  0  0  0  0  0  0  0  0  0  0  0
  152.8779  142.3078  158.7061 H   0  0  0  0  0  0  0  0  0  0  0  0
  152.8040  143.8483  157.8461 H   0  0  0  0  0  0  0  0  0  0  0  0
  145.8871  140.6344  155.1161 H   0  0  0  0  0  0  0  0  0  0  0  0
  145.3759  141.3310  156.6416 H   0  0  0  0  0  0  0  0  0  0  0  0
  143.8793  139.1986  155.0198 H   0  0  0  0  0  0  0  0  0  0  0  0
  145.8362  138.2893  156.2624 H   0  0  0  0  0  0  0  0  0  0  0  0
  144.3200  137.7215  156.9541 H   0  0  0  0  0  0  0  0  0  0  0  0
  145.2275  139.0011  157.7559 H   0  0  0  0  0  0  0  0  0  0  0  0
  143.8945  141.5081  154.1210 H   0  0  0  0  0  0  0  0  0  0  0  0
  1  2  1  0  0  0  0
  1 26  1  0  0  0  0
  1 27  1  0  0  0  0
  1 28  1  0  0  0  0
  2 25  1  0  0  0  0
  2  3  1  0  0  0  0
  2 29  1  0  0  0  0
  3  4  1  0  0  0  0
  3 30  1  0  0  0  0
  3 31  1  0  0  0  0
  4  5  1  0  0  0  0
  4 22  1  0  0  0  0
  4 55  1  0  0  0  0
  5  6  1  0  0  0  0
  5 32  1  0  0  0  0
  5 33  1  0  0  0  0
  6  7  1  0  0  0  0
  6 34  1  0  0  0  0
  6 35  1  0  0  0  0
  7  8  1  0  0  0  0
  7 36  1  0  0  0  0
  8  9  2  0  0  0  0
  8 10  1  0  0  0  0
 10 11  1  0  0  0  0
 10 37  1  0  0  0  0
 11 16  1  0  0  0  0
 11 12  2  0  0  0  0
 12 13  1  0  0  0  0
 12 38  1  0  0  0  0
 13 14  2  0  0  0  0
 13 39  1  0  0  0  0
 14 15  1  0  0  0  0
 14 40  1  0  0  0  0
 15 16  2  0  0  0  0
 16 17  1  0  0  0  0
 17 21  1  0  0  0  0
 17 18  1  0  0  0  0
 18 19  1  0  0  0  0
 18 41  1  0  0  0  0
 18 42  1  0  0  0  0
 19 20  1  0  0  0  0
 19 43  1  0  0  0  0
 19 44  1  0  0  0  0
 20 21  1  0  0  0  0
 20 45  1  0  0  0  0
 20 46  1  0  0  0  0
 21 47  1  0  0  0  0
 21 48  1  0  0  0  0
 22 23  1  0  0  0  0
 22 49  1  0  0  0  0
 22 50  1  0  0  0  0
 23 24  1  0  0  0  0
 23 25  1  0  0  0  0
 23 51  1  0  0  0  0
 24 52  1  0  0  0  0
 24 53  1  0  0  0  0
 24 54  1  0  0  0  0
M  CHG  1   4   1
M  END
> <s_m_source_file>
AV-unprocessed.smi

> <i_m_source_file_index>
1244

> <i_lp_mmshare_version>
43012

> <i_f3d_flags>
0

> <s_epik_input>
W0NIM11bQ0BASF0xW0NIMl1OKFtDSDJdW0NASF0oTzEpW0NIM10pW0NIMl1bQ0gyXVtOSF1DKD1PKVtOSF1jMltjSF1bY0hdW2NIXW5jMk4zW0NIMl1bQ0gyXVtDSDJdW0NIMl0z

> <s_epik_cmdline>
J2VwaWtfcHl0aG9uJywgJy1waCcsICc3LjAnLCAnLXRuJywgJzgnLCAnLW1hJywgJzIwMCcsICctbWV0YWxfYmluZGluZycsICctaW1hZScsICc8aW5maWxlLm1hZT4nLCAnLW9tYWUnLCAnPG91dGZpbGUubWFlPic=

> <r_lp_tautomer_probability>
1

> <r_epik_Ionization_Penalty>
0.684913

> <r_epik_Ionization_Penalty_Charging>
0.602531

> <r_epik_Ionization_Penalty_Neutral>
0.0823829

> <r_epik_State_Penalty>
0.678827

> <r_epik_Charging_Adjusted_Penalty>
1.28136

> <i_epik_Tot_Q>
1

> <i_epik_Tot_abs_Q>
1

> <r_epik_Metal_State_Penalty>
0.67806

> <b_epik_Metal_Only>
0

> <s_lp_Force_Field>
OPLS_2005

> <r_lp_Energy>
45.4431

> <b_lp_Chiralities_Consistent>
1

> <s_lp_Variant>
AV-unprocessed.smi:1244-4

> <Gold.Version>
5.8.1

> <Gold.Id.Protein>
6NUR|6NUR_protein|mol2

> <Gold.PLP.Fitness>
46.4155

> <Gold.PLP.PLP>
-35.4419

> <Gold.PLP.part.hbond>
-3.5367

> <Gold.PLP.part.metal>
0.0000

> <Gold.PLP.part.buried>
-4.0215

> <Gold.PLP.part.nonpolar>
-28.8760

> <Gold.PLP.part.repulsive>
0.5605

> <Gold.PLP.ligand.clash>
0.0000

> <Gold.PLP.ligand.torsion>
0.5357

> <Gold.PLP.Chemscore.Hbond>
3.8920

> <Gold.PLP.Chemscore.CHOScore>
0.0000

> <Gold.PLP.Chemscore.Metal>
0.0000

> <Gold.Chemscore.Hbonds>
donor molecule, donor type, donor heavy atom, donor atom, acceptor molecule, acceptor atom, score
      L1  H     4    55       P1 10175  1.70
      L1  H     7    36       P1  8028  0.85
      L1  H    10    37       P1  8028  0.98

> <Gold.PLP.Chemscore.Internal.Correction>
0.3690

> <Gold.Rescore>
     Score         DG    S(hbond)    S(metal)    S(lipo)     H(rot)  DE(clash)    DE(int)     intcor
     16.55     -18.59       2.37        0.00      79.47       1.60       0.10       1.94       ----

> <Gold.Chemscore.Fitness>
16.5499

> <Gold.Chemscore.DG>
-18.5885

> <Gold.Chemscore.ZeroCoef>
-5.4800

> <Gold.Chemscore.Hbond>
2.3654

> <Gold.Chemscore.Metal>
0.0000

> <Gold.Chemscore.Lipo>
79.4749

> <Gold.Chemscore.Internal_Hbond>
0.0000

> <Gold.Chemscore.DEClash>
0.1008

> <Gold.Chemscore.DEInternal>
1.9378

> <Gold.Chemscore.Rot>
1.5978

> <Gold.Chemscore.Internal.Correction>
   9.000000E+99

> <Gold.Chemscore.Hbonds>
donor molecule, donor type, donor heavy atom, donor atom, acceptor molecule, acceptor atom, score
      L1  H     4    55       P1 10175  0.15
      L1  H     7    36       P1  8028  0.14
      L1  H    10    37       P1  8028  0.93

> <Gold.Chemscore.Hbond.Weighted>
-7.9004

> <Gold.Chemscore.Metal.Weighted>
-0.0000

> <Gold.Chemscore.Lipo.Weighted>
-9.2986

> <Gold.Chemscore.Internal_Hbond.Weighted>
0.0000

> <Gold.Chemscore.DEClash.Weighted>
0.1008

> <Gold.Chemscore.DEInternal.Weighted>
1.9378

> <Gold.Chemscore.Rot.Weighted>
4.0905

> <Gold.Chemscore.Internal.Correction.Weighted>
   9.000000E+99

> <Gold.Protein.RotatedTorsions>
[ 6907 6896 6895 6894 ] final -147.34 input  -60.11 | X-H torsion
[ 7974 7965 7964 7962 ] final -109.42 input  175.53 | X-H torsion
[ 8008 7997 7996 7995 ] final   54.51 input   59.86 | X-H torsion
[ 10167 10162 10161 10158 ] final -131.79 input  -65.29 | X-H torsion
[ 10718 10713 10712 10709 ] final -100.53 input   66.30 | X-H torsion
[ 10763 10752 10751 10750 ] final  176.48 input  -60.55 | X-H torsion
[ 11005 11000 10999 10996 ] final  -39.48 input  -57.11 | X-H torsion

> <Gold.Protein.ActiveResidues>
 VAL166  LYS551  ARG553  GLY616  TRP617  ASP618  TYR619  PRO620  LYS621  CYS622 
 ASP623  PHE694  ASN695  SER759  ASP760  ASP761  ALA762  ILE779  LEU786  VAL792 
 PHE793  MET794  SER795  GLU796  ALA797  LYS798  CYS799  TRP800  GLU811  SER814 

> <Gold.Protein.RotatedAtoms>
  151.1543  133.4887  159.2594 H   0  0  0  0  0  0  0  0  0  0  0  0  # atno 6907 bound_to 6896
  151.1521  135.0232  159.8683 H   0  0  0  0  0  0  0  0  0  0  0  0  # atno 6908 bound_to 6896
  152.5463  134.1426  159.8538 H   0  0  0  0  0  0  0  0  0  0  0  0  # atno 6909 bound_to 6896
  145.1807  140.8970  143.3481 H   0  0  0  0  0  0  0  0  0  0  0  0  # atno 7974 bound_to 7965
  155.4859  140.3470  155.4347 H   0  0  0  0  0  0  0  0  0  0  0  0  # atno 8008 bound_to 7997
  156.1009  140.1435  156.9497 H   0  0  0  0  0  0  0  0  0  0  0  0  # atno 8009 bound_to 7997
  154.4693  140.0906  156.7080 H   0  0  0  0  0  0  0  0  0  0  0  0  # atno 8010 bound_to 7997
  139.9152  143.6447  152.2566 H   0  0  0  0  0  0  0  0  0  0  0  0  # atno 10167 bound_to 10162
  156.0166  130.5332  150.6831 H   0  0  0  0  0  0  0  0  0  0  0  0  # atno 10718 bound_to 10713
  154.4817  135.2775  155.1565 H   0  0  0  0  0  0  0  0  0  0  0  0  # atno 10763 bound_to 10752
  154.3273  135.6197  153.5538 H   0  0  0  0  0  0  0  0  0  0  0  0  # atno 10764 bound_to 10752
  152.9876  135.5757  154.5219 H   0  0  0  0  0  0  0  0  0  0  0  0  # atno 10765 bound_to 10752
  141.0105  133.6910  156.2192 H   0  0  0  0  0  0  0  0  0  0  0  0  # atno 11005 bound_to 11000
  145.0139  139.3485  143.6106 LP  0  0  0  0  0  0  0  0  0  0  0  0  # atno 17320 bound_to 7965
  146.3453  139.9412  142.8740 LP  0  0  0  0  0  0  0  0  0  0  0  0  # atno 17321 bound_to 7965
  139.6908  144.7647  151.1442 LP  0  0  0  0  0  0  0  0  0  0  0  0  # atno 17342 bound_to 10162
  140.7676  143.5591  150.9118 LP  0  0  0  0  0  0  0  0  0  0  0  0  # atno 17343 bound_to 10162
  157.4529  131.0874  151.0827 LP  0  0  0  0  0  0  0  0  0  0  0  0  # atno 17370 bound_to 10713
  157.1337  130.6113  149.5536 LP  0  0  0  0  0  0  0  0  0  0  0  0  # atno 17371 bound_to 10713
  140.6742  134.4836  157.5588 LP  0  0  0  0  0  0  0  0  0  0  0  0  # atno 17394 bound_to 11000
  139.9087  134.8392  156.1609 LP  0  0  0  0  0  0  0  0  0  0  0  0  # atno 17395 bound_to 11000

$$$$
