#       Name:                AV-unprocessed.smi:1452
#       Creating user name   scv26
#       Creation time:       Fri Mar 27 05:59:15 2020


#       File generated by GOLD software.
#

@<TRIPOS>MOLECULE
AV-unprocessed.smi:1452
    43    45     1
SMALL
NO_CHARGES


@<TRIPOS>ATOM
      1 ****        -2.3866  -1.7910   1.2047 O.2            1 S1                 0.0000
      2 ****        -1.1616  -1.7170   1.2830 C.2            1 S1                 0.0000
      3 ****        -0.3974  -2.8237   1.3955 N.am           1 S1                 0.0000
      4 ****        -0.7546  -4.2032   1.4472 C.ar           1 S1                 0.0000
      5 ****         0.3409  -5.0960   1.4383 C.ar           1 S1                 0.0000
      6 ****         0.1084  -6.4835   1.5060 C.ar           1 S1                 0.0000
      7 ****        -1.2171  -6.9453   1.5865 C.ar           1 S1                 0.0000
      8 ****        -2.2511  -5.9917   1.5964 C.ar           1 S1                 0.0000
      9 ****        -2.0301  -4.6616   1.5308 N.ar           1 S1                 0.0000
     10 ****        -0.5035  -0.5463   1.2631 N.am           1 S1                 0.0000
     11 ****        -1.1191   0.7622   1.0690 C.3            1 S1                 0.0000
     12 ****        -0.2495   1.9157   1.5523 C.3            1 S1                 0.0000
     13 ****        -0.8421   3.1233   0.8193 C.3            1 S1                 0.0000
     14 ****        -1.4566   2.6087  -0.4293 N.4            1 S1                 1.0000
     15 ****        -0.9394   3.2529  -1.6665 C.3            1 S1                 0.0000
     16 ****        -1.3056   2.4293  -2.9099 C.3            1 S1                 0.0000
     17 ****        -0.6731   1.0257  -2.8626 C.3            1 S1                 0.0000
     18 ****        -0.3571   0.5693  -1.4255 C.3            1 S1                 0.0000
     19 ****        -1.3854   1.1198  -0.4055 C.3            1 S1                 0.0000
     20 ****         0.5822  -2.6423   1.5597 H              1 S1                 0.0000
     21 ****         1.3543  -4.7254   1.3799 H              1 S1                 0.0000
     22 ****         0.9334  -7.1804   1.4976 H              1 S1                 0.0000
     23 ****        -1.4355  -8.0015   1.6411 H              1 S1                 0.0000
     24 ****        -3.2830  -6.3036   1.6598 H              1 S1                 0.0000
     25 ****         0.5040  -0.5732   1.3370 H              1 S1                 0.0000
     26 ****        -2.0615   0.8046   1.6197 H              1 S1                 0.0000
     27 ****        -0.2616   2.0331   2.6363 H              1 S1                 0.0000
     28 ****         0.7859   1.7664   1.2415 H              1 S1                 0.0000
     29 ****        -1.6336   3.5730   1.4196 H              1 S1                 0.0000
     30 ****        -0.0910   3.8947   0.6437 H              1 S1                 0.0000
     31 ****        -1.3479   4.2613  -1.7388 H              1 S1                 0.0000
     32 ****         0.1459   3.3552  -1.6124 H              1 S1                 0.0000
     33 ****        -2.3913   2.3385  -2.9677 H              1 S1                 0.0000
     34 ****        -0.9948   2.9473  -3.8178 H              1 S1                 0.0000
     35 ****        -1.3492   0.3159  -3.3405 H              1 S1                 0.0000
     36 ****         0.2466   1.0086  -3.4486 H              1 S1                 0.0000
     37 ****        -0.3199  -0.5201  -1.4010 H              1 S1                 0.0000
     38 ****         0.6416   0.9110  -1.1499 H              1 S1                 0.0000
     39 ****        -2.3653   0.7316  -0.6879 H              1 S1                 0.0000
     40 ****        -2.4394   2.8358  -0.3748 H              1 S1                 0.0000
     41 ****        -2.8358  -2.6842   1.2238 LP             1 S1                 0.0000
     42 ****        -2.9336  -0.9579   1.1219 LP             1 S1                 0.0000
     43 ****        -2.7975  -4.0206   1.5437 LP             1 S1                 0.0000
@<TRIPOS>BOND
    1    1    2 2     
    2    2    3 am    
    3    2   10 am    
    4    3    4 1     
    5    3   20 1     
    6    4    9 ar    
    7    4    5 ar    
    8    5    6 ar    
    9    5   21 1     
   10    6    7 ar    
   11    6   22 1     
   12    7    8 ar    
   13    7   23 1     
   14    8    9 ar    
   15    8   24 1     
   16   10   11 1     
   17   10   25 1     
   18   11   19 1     
   19   11   12 1     
   20   11   26 1     
   21   12   13 1     
   22   12   27 1     
   23   12   28 1     
   24   13   14 1     
   25   13   29 1     
   26   13   30 1     
   27   14   19 1     
   28   14   15 1     
   29   14   40 1     
   30   15   16 1     
   31   15   31 1     
   32   15   32 1     
   33   16   17 1     
   34   16   33 1     
   35   16   34 1     
   36   17   18 1     
   37   17   35 1     
   38   17   36 1     
   39   18   19 1     
   40   18   37 1     
   41   18   38 1     
   42   19   39 1     
   43    1   41 1     
   44    1   42 1     
   45    9   43 1     
@<TRIPOS>SUBSTRUCTURE
      1 S1             1
@<TRIPOS>SET
LONE_PAIRS      STATIC     ATOMS    <user>   **** ""
3 41 42 43
DONOR_HYDROGENS      STATIC     ATOMS    <user>   **** ""
3 20 25 40
ATOM$BLUE        STATIC     ATOMS    COLORGROUP SYSTEM
3 41 42 43
ATOM$RED        STATIC     ATOMS    COLORGROUP SYSTEM
3 20 25 40
