AV-unprocessed.smi:895|AV-procd|sdf|4074|dock2
  -GOLD-   22720 1563D 1   1.00000     0.00000
 Structure written by MMmdl.
 44 45  0  0  0  0  0  0  0  0  1 V2000
  150.2769  133.0921  156.2610 C   0  0  0  0  0  0  0  0  0  0  0  0
  149.5109  134.0743  155.3536 C   0  0  0  0  0  0  0  0  0  0  0  0
  149.5216  133.5791  153.8977 C   0  0  0  0  0  0  0  0  0  0  0  0
  148.1558  134.0883  155.7581 O   0  0  0  0  0  0  0  0  0  0  0  0
  150.0453  135.5227  155.4264 C   0  0  0  0  0  0  0  0  0  0  0  0
  149.3367  136.4230  154.5247 N   0  0  0  0  0  0  0  0  0  0  0  0
  148.7230  137.5488  154.9078 C   0  0  0  0  0  0  0  0  0  0  0  0
  148.6880  137.9532  156.0701 O   0  0  0  0  0  0  0  0  0  0  0  0
  148.1532  138.1781  153.8717 N   0  0  0  0  0  0  0  0  0  0  0  0
  147.4061  139.4328  153.9425 C   0  0  1  0  0  0  0  0  0  0  0  0
  146.5458  139.4867  155.2234 C   0  0  0  0  0  0  0  0  0  0  0  0
  145.7766  140.8128  155.3237 C   0  0  0  0  0  0  0  0  0  0  0  0
  146.7214  142.0220  155.2544 C   0  0  0  0  0  0  0  0  0  0  0  0
  147.5933  141.9831  153.9853 C   0  0  0  0  0  0  0  0  0  0  0  0
  148.3572  140.6516  153.7950 C   0  0  1  0  0  0  0  0  0  0  0  0
  149.5661  140.5708  154.6186 N   0  0  0  0  0  0  0  0  0  0  0  0
  149.9394  141.4220  155.6398 C   0  0  0  0  0  0  0  0  0  0  0  0
  151.1387  140.9875  156.1261 C   0  0  0  0  0  0  0  0  0  0  0  0
  151.4292  139.8459  155.3304 C   0  0  0  0  0  0  0  0  0  0  0  0
  150.4903  139.6014  154.4322 N   0  0  0  0  0  0  0  0  0  0  0  0
  151.3384  133.0757  156.0123 H   0  0  0  0  0  0  0  0  0  0  0  0
  149.8979  132.0756  156.1502 H   0  0  0  0  0  0  0  0  0  0  0  0
  150.1875  133.3537  157.3157 H   0  0  0  0  0  0  0  0  0  0  0  0
  150.5384  133.5292  153.5070 H   0  0  0  0  0  0  0  0  0  0  0  0
  148.9520  134.2427  153.2461 H   0  0  0  0  0  0  0  0  0  0  0  0
  149.0888  132.5815  153.8119 H   0  0  0  0  0  0  0  0  0  0  0  0
  147.6216  133.8138  155.0284 H   0  0  0  0  0  0  0  0  0  0  0  0
  149.9218  135.9029  156.4419 H   0  0  0  0  0  0  0  0  0  0  0  0
  151.1153  135.5499  155.2118 H   0  0  0  0  0  0  0  0  0  0  0  0
  149.3196  136.1716  153.5473 H   0  0  0  0  0  0  0  0  0  0  0  0
  148.2476  137.7629  152.9563 H   0  0  0  0  0  0  0  0  0  0  0  0
  146.7208  139.4709  153.0932 H   0  0  0  0  0  0  0  0  0  0  0  0
  145.8350  138.6597  155.2269 H   0  0  0  0  0  0  0  0  0  0  0  0
  147.1647  139.3517  156.1100 H   0  0  0  0  0  0  0  0  0  0  0  0
  145.0499  140.8730  154.5126 H   0  0  0  0  0  0  0  0  0  0  0  0
  145.2053  140.8407  156.2520 H   0  0  0  0  0  0  0  0  0  0  0  0
  146.1377  142.9428  155.2670 H   0  0  0  0  0  0  0  0  0  0  0  0
  147.3456  142.0540  156.1466 H   0  0  0  0  0  0  0  0  0  0  0  0
  146.9448  142.1353  153.1217 H   0  0  0  0  0  0  0  0  0  0  0  0
  148.2910  142.8213  153.9848 H   0  0  0  0  0  0  0  0  0  0  0  0
  148.7103  140.6466  152.7624 H   0  0  0  0  0  0  0  0  0  0  0  0
  149.3267  142.2621  155.9323 H   0  0  0  0  0  0  0  0  0  0  0  0
  151.7196  141.4196  156.9270 H   0  0  0  0  0  0  0  0  0  0  0  0
  152.2884  139.1932  155.3773 H   0  0  0  0  0  0  0  0  0  0  0  0
  1  2  1  0  0  0  0
  1 21  1  0  0  0  0
  1 22  1  0  0  0  0
  1 23  1  0  0  0  0
  2  3  1  0  0  0  0
  2  4  1  0  0  0  0
  2  5  1  0  0  0  0
  3 24  1  0  0  0  0
  3 25  1  0  0  0  0
  3 26  1  0  0  0  0
  4 27  1  0  0  0  0
  5  6  1  0  0  0  0
  5 28  1  0  0  0  0
  5 29  1  0  0  0  0
  6  7  1  0  0  0  0
  6 30  1  0  0  0  0
  7  8  2  0  0  0  0
  7  9  1  0  0  0  0
  9 10  1  0  0  0  0
  9 31  1  0  0  0  0
 10 15  1  0  0  0  0
 10 11  1  0  0  0  0
 10 32  1  0  0  0  0
 11 12  1  0  0  0  0
 11 33  1  0  0  0  0
 11 34  1  0  0  0  0
 12 13  1  0  0  0  0
 12 35  1  0  0  0  0
 12 36  1  0  0  0  0
 13 14  1  0  0  0  0
 13 37  1  0  0  0  0
 13 38  1  0  0  0  0
 14 15  1  0  0  0  0
 14 39  1  0  0  0  0
 14 40  1  0  0  0  0
 15 16  1  0  0  0  0
 15 41  1  0  0  0  0
 16 20  1  0  0  0  0
 16 17  1  0  0  0  0
 17 18  2  0  0  0  0
 17 42  1  0  0  0  0
 18 19  1  0  0  0  0
 18 43  1  0  0  0  0
 19 20  2  0  0  0  0
 19 44  1  0  0  0  0
M  END
> <s_m_source_file>
AV-unprocessed.smi

> <i_m_source_file_index>
895

> <i_lp_mmshare_version>
43012

> <i_f3d_flags>
0

> <s_epik_input>
W0NIM11DKFtDSDNdKShbT0hdKVtDSDJdW05IXUMoPU8pW05IXVtDQEBIXTFbQ0gyXVtDSDJdW0NIMl1bQ0gyXVtDQEhdMW4yW2NIXVtjSF1bY0hdbjI=

> <s_epik_cmdline>
J2VwaWtfcHl0aG9uJywgJy1waCcsICc3LjAnLCAnLXRuJywgJzgnLCAnLW1hJywgJzIwMCcsICctbWV0YWxfYmluZGluZycsICctaW1hZScsICc8aW5maWxlLm1hZT4nLCAnLW9tYWUnLCAnPG91dGZpbGUubWFlPic=

> <r_lp_tautomer_probability>
1

> <r_epik_Ionization_Penalty>
0.000440451

> <r_epik_Ionization_Penalty_Charging>
0

> <r_epik_Ionization_Penalty_Neutral>
0.000440451

> <r_epik_State_Penalty>
-0

> <r_epik_Charging_Adjusted_Penalty>
0

> <i_epik_Tot_Q>
0

> <i_epik_Tot_abs_Q>
0

> <r_epik_Metal_State_Penalty>
-0

> <b_epik_Metal_Only>
0

> <s_lp_Force_Field>
OPLS_2005

> <r_lp_Energy>
15.0391

> <b_lp_Chiralities_Consistent>
1

> <s_lp_Variant>
AV-unprocessed.smi:895-2

> <Gold.Version>
5.8.1

> <Gold.Id.Protein>
6NUR|6NUR_protein|mol2

> <Gold.PLP.Fitness>
39.8689

> <Gold.PLP.PLP>
-31.8605

> <Gold.PLP.part.hbond>
-3.0000

> <Gold.PLP.part.metal>
0.0000

> <Gold.PLP.part.buried>
-1.4995

> <Gold.PLP.part.nonpolar>
-27.8382

> <Gold.PLP.part.repulsive>
0.1674

> <Gold.PLP.ligand.clash>
0.0000

> <Gold.PLP.ligand.torsion>
0.4855

> <Gold.PLP.Chemscore.Hbond>
1.9600

> <Gold.PLP.Chemscore.CHOScore>
1.0000

> <Gold.PLP.Chemscore.Metal>
0.0000

> <Gold.Chemscore.Hbonds>
donor molecule, donor type, donor heavy atom, donor atom, acceptor molecule, acceptor atom, score
      L1  H     6    30       P1  7948  1.00
      L1  H     9    31       P1  7948  0.96
      L1  C    17    42       P1  8028  1.00

> <Gold.PLP.Chemscore.Internal.Correction>
0.0995

> <Gold.Rescore>
     Score         DG    S(hbond)    S(metal)    S(lipo)     H(rot)  DE(clash)    DE(int)     intcor
      8.78     -13.73       1.75        0.00      68.41       2.19       0.24       4.70       ----

> <Gold.Chemscore.Fitness>
8.7827

> <Gold.Chemscore.DG>
-13.7256

> <Gold.Chemscore.ZeroCoef>
-5.4800

> <Gold.Chemscore.Hbond>
1.7522

> <Gold.Chemscore.Metal>
0.0000

> <Gold.Chemscore.Lipo>
68.4142

> <Gold.Chemscore.Internal_Hbond>
0.0000

> <Gold.Chemscore.DEClash>
0.2387

> <Gold.Chemscore.DEInternal>
4.7042

> <Gold.Chemscore.Rot>
2.1919

> <Gold.Chemscore.Internal.Correction>
   9.000000E+99

> <Gold.Chemscore.Hbonds>
donor molecule, donor type, donor heavy atom, donor atom, acceptor molecule, acceptor atom, score
      L1  H     6    30       P1  7948  0.78
      L1  H     9    31       P1  7948  0.89

> <Gold.Chemscore.Hbond.Weighted>
-5.8525

> <Gold.Chemscore.Metal.Weighted>
-0.0000

> <Gold.Chemscore.Lipo.Weighted>
-8.0045

> <Gold.Chemscore.Internal_Hbond.Weighted>
0.0000

> <Gold.Chemscore.DEClash.Weighted>
0.2387

> <Gold.Chemscore.DEInternal.Weighted>
4.7042

> <Gold.Chemscore.Rot.Weighted>
5.6113

> <Gold.Chemscore.Internal.Correction.Weighted>
   9.000000E+99

> <Gold.Protein.RotatedTorsions>
[ 6907 6896 6895 6894 ] final   -1.65 input  -60.11 | X-H torsion
[ 7974 7965 7964 7962 ] final  -34.18 input  175.53 | X-H torsion
[ 8008 7997 7996 7995 ] final   29.10 input   59.86 | X-H torsion
[ 10167 10162 10161 10158 ] final   -9.42 input  -65.29 | X-H torsion
[ 10718 10713 10712 10709 ] final  132.42 input   66.30 | X-H torsion
[ 10763 10752 10751 10750 ] final  164.15 input  -60.55 | X-H torsion
[ 11005 11000 10999 10996 ] final  -64.50 input  -57.11 | X-H torsion

> <Gold.Protein.ActiveResidues>
 VAL166  LYS551  ARG553  GLY616  TRP617  ASP618  TYR619  PRO620  LYS621  CYS622 
 ASP623  PHE694  ASN695  SER759  ASP760  ASP761  ALA762  ILE779  LEU786  VAL792 
 PHE793  MET794  SER795  GLU796  ALA797  LYS798  CYS799  TRP800  GLU811  SER814 

> <Gold.Protein.RotatedAtoms>
  151.5427  135.1068  159.9929 H   0  0  0  0  0  0  0  0  0  0  0  0  # atno 6907 bound_to 6896
  152.4528  133.7659  159.6783 H   0  0  0  0  0  0  0  0  0  0  0  0  # atno 6908 bound_to 6896
  150.8462  133.7792  159.3067 H   0  0  0  0  0  0  0  0  0  0  0  0  # atno 6909 bound_to 6896
  146.0850  140.6007  142.8890 H   0  0  0  0  0  0  0  0  0  0  0  0  # atno 7974 bound_to 7965
  155.0691  140.3198  155.4636 H   0  0  0  0  0  0  0  0  0  0  0  0  # atno 8008 bound_to 7997
  156.2795  140.2115  156.5764 H   0  0  0  0  0  0  0  0  0  0  0  0  # atno 8009 bound_to 7997
  154.7069  140.0502  157.0500 H   0  0  0  0  0  0  0  0  0  0  0  0  # atno 8010 bound_to 7997
  140.7087  143.5860  150.8943 H   0  0  0  0  0  0  0  0  0  0  0  0  # atno 10167 bound_to 10162
  157.4873  131.1089  150.9603 H   0  0  0  0  0  0  0  0  0  0  0  0  # atno 10718 bound_to 10713
  154.3046  135.2758  155.2595 H   0  0  0  0  0  0  0  0  0  0  0  0  # atno 10763 bound_to 10752
  154.5017  135.5806  153.6539 H   0  0  0  0  0  0  0  0  0  0  0  0  # atno 10764 bound_to 10752
  152.9896  135.6159  154.3219 H   0  0  0  0  0  0  0  0  0  0  0  0  # atno 10765 bound_to 10752
  141.1426  133.6667  156.5842 H   0  0  0  0  0  0  0  0  0  0  0  0  # atno 11005 bound_to 11000
  144.7319  140.4698  143.6931 LP  0  0  0  0  0  0  0  0  0  0  0  0  # atno 17320 bound_to 7965
  145.6146  139.1517  143.3056 LP  0  0  0  0  0  0  0  0  0  0  0  0  # atno 17321 bound_to 7965
  139.9586  143.6190  152.3009 LP  0  0  0  0  0  0  0  0  0  0  0  0  # atno 17342 bound_to 10162
  139.6734  144.7660  151.1740 LP  0  0  0  0  0  0  0  0  0  0  0  0  # atno 17343 bound_to 10162
  157.0317  130.5714  149.5344 LP  0  0  0  0  0  0  0  0  0  0  0  0  # atno 17370 bound_to 10713
  156.0154  130.5247  150.8117 LP  0  0  0  0  0  0  0  0  0  0  0  0  # atno 17371 bound_to 10713
  140.3814  134.7520  157.4663 LP  0  0  0  0  0  0  0  0  0  0  0  0  # atno 17394 bound_to 11000
  140.0635  134.5962  155.8722 LP  0  0  0  0  0  0  0  0  0  0  0  0  # atno 17395 bound_to 11000

$$$$
