#       Name:                AV-unprocessed.smi:2377
#       Creating user name   scv26
#       Creation time:       Fri Mar 27 13:07:44 2020


#       File generated by GOLD software.
#

@<TRIPOS>MOLECULE
AV-unprocessed.smi:2377
    27    27     1
SMALL
NO_CHARGES


@<TRIPOS>ATOM
      1 ****        -2.9777   2.1647  -0.0793 C.3            1 S1                 0.0000
      2 ****        -1.5091   2.0830  -0.1830 N.4            1 S1                 1.0000
      3 ****        -0.9730   0.7151  -0.0339 C.3            1 S1                 0.0000
      4 ****         0.5625   0.6954  -0.1352 C.3            1 S1                 0.0000
      5 ****         1.0991   1.4643   0.9243 O.3            1 S1                 0.0000
      6 ****         1.0942  -0.7287  -0.1255 C.ar           1 S1                 0.0000
      7 ****         1.1747  -1.4778   1.0692 C.ar           1 S1                 0.0000
      8 ****         1.6675  -2.7957   1.0147 C.ar           1 S1                 0.0000
      9 ****         2.0583  -3.3146  -0.2356 C.ar           1 S1                 0.0000
     10 ****         1.9823  -2.6111  -1.3855 N.ar           1 S1                 0.0000
     11 ****         1.5101  -1.3479  -1.3245 C.ar           1 S1                 0.0000
     12 ****        -3.3027   3.1986  -0.1959 H              1 S1                 0.0000
     13 ****        -3.3177   1.8076   0.8934 H              1 S1                 0.0000
     14 ****        -3.4550   1.5666  -0.8563 H              1 S1                 0.0000
     15 ****        -1.2271   2.4434  -1.0834 H              1 S1                 0.0000
     16 ****        -1.2974   0.2968   0.9203 H              1 S1                 0.0000
     17 ****        -1.4015   0.0899  -0.8187 H              1 S1                 0.0000
     18 ****         0.8677   1.1706  -1.0686 H              1 S1                 0.0000
     19 ****         2.0382   1.5060   0.8209 H              1 S1                 0.0000
     20 ****         0.8632  -1.0534   2.0124 H              1 S1                 0.0000
     21 ****         1.7442  -3.3952   1.9099 H              1 S1                 0.0000
     22 ****         2.4402  -4.3218  -0.3143 H              1 S1                 0.0000
     23 ****         1.4611  -0.8169  -2.2638 H              1 S1                 0.0000
     24 ****        -1.1012   2.6615   0.5382 H              1 S1                 0.0000
     25 ****         0.8751   1.0350   1.7993 LP             1 S1                 0.0000
     26 ****         0.7159   2.3876   0.8984 LP             1 S1                 0.0000
     27 ****         2.2670  -3.0135  -2.2556 LP             1 S1                 0.0000
@<TRIPOS>BOND
    1    1    2 1     
    2    1   12 1     
    3    1   13 1     
    4    1   14 1     
    5    2    3 1     
    6    2   15 1     
    7    2   24 1     
    8    3    4 1     
    9    3   16 1     
   10    3   17 1     
   11    4    5 1     
   12    4    6 1     
   13    4   18 1     
   14    5   19 1     
   15    6   11 ar    
   16    6    7 ar    
   17    7    8 ar    
   18    7   20 1     
   19    8    9 ar    
   20    8   21 1     
   21    9   10 ar    
   22    9   22 1     
   23   10   11 ar    
   24   11   23 1     
   25    5   25 1     
   26    5   26 1     
   27   10   27 1     
@<TRIPOS>SUBSTRUCTURE
      1 S1             1
@<TRIPOS>SET
LONE_PAIRS      STATIC     ATOMS    <user>   **** ""
3 25 26 27
DONOR_HYDROGENS      STATIC     ATOMS    <user>   **** ""
3 15 24 19
ATOM$BLUE        STATIC     ATOMS    COLORGROUP SYSTEM
3 25 26 27
ATOM$RED        STATIC     ATOMS    COLORGROUP SYSTEM
3 15 24 19
