AV-unprocessed.smi:2439|AV-procd|sdf|9605|dock5
  -GOLD-   2272013233D 1   1.00000     0.00000
 Structure written by MMmdl.
 41 43  0  0  0  0  0  0  0  0  2 V2000
  150.3957  137.2828  154.6167 N   0  0  0  0  0  0  0  0  0  0  0  0
  149.7007  138.1829  154.4034 C   0  0  0  0  0  0  0  0  0  0  0  0
  148.8258  139.3177  154.1346 C   0  0  0  0  0  0  0  0  0  0  0  0
  149.2043  140.5955  154.5975 C   0  0  0  0  0  0  0  0  0  0  0  0
  148.3650  141.6946  154.3395 C   0  0  0  0  0  0  0  0  0  0  0  0
  147.1740  141.4700  153.6260 C   0  0  0  0  0  0  0  0  0  0  0  0
  146.8003  140.2533  153.1775 N   0  0  0  0  0  0  0  0  0  0  0  0
  147.6035  139.1885  153.4214 C   0  0  0  0  0  0  0  0  0  0  0  0
  147.1869  137.9317  152.9432 N   0  0  0  0  0  0  0  0  0  0  0  0
  145.7777  137.5877  152.7926 C   0  0  0  0  0  0  0  0  0  0  0  0
  145.5705  136.1194  152.3824 C   0  0  2  0  0  0  0  0  0  0  0  0
  145.7268  135.9333  150.8571 C   0  0  0  0  0  0  0  0  0  0  0  0
  145.4068  134.5463  150.4403 N   0  3  1  0  0  0  0  0  0  0  0  0
  146.4953  133.5739  150.7325 C   0  0  0  0  0  0  0  0  0  0  0  0
  146.1432  132.1709  150.2173 C   0  0  0  0  0  0  0  0  0  0  0  0
  144.8198  131.6896  150.8224 C   0  0  0  0  0  0  0  0  0  0  0  0
  143.7070  132.7004  150.5132 C   0  0  0  0  0  0  0  0  0  0  0  0
  144.0703  134.1351  150.9526 C   0  0  1  0  0  0  0  0  0  0  0  0
  143.9751  134.3670  152.4752 C   0  0  0  0  0  0  0  0  0  0  0  0
  144.2513  135.7340  152.7585 O   0  0  0  0  0  0  0  0  0  0  0  0
  150.1258  140.7371  155.1440 H   0  0  0  0  0  0  0  0  0  0  0  0
  148.6275  142.6848  154.6816 H   0  0  0  0  0  0  0  0  0  0  0  0
  146.5035  142.2883  153.4085 H   0  0  0  0  0  0  0  0  0  0  0  0
  147.8788  137.2748  152.6108 H   0  0  0  0  0  0  0  0  0  0  0  0
  145.2709  137.7845  153.7376 H   0  0  0  0  0  0  0  0  0  0  0  0
  145.3200  138.2547  152.0611 H   0  0  0  0  0  0  0  0  0  0  0  0
  146.2945  135.4935  152.9049 H   0  0  0  0  0  0  0  0  0  0  0  0
  145.0488  136.6107  150.3359 H   0  0  0  0  0  0  0  0  0  0  0  0
  146.7347  136.1984  150.5357 H   0  0  0  0  0  0  0  0  0  0  0  0
  147.4172  133.9124  150.2584 H   0  0  0  0  0  0  0  0  0  0  0  0
  146.6942  133.5282  151.8033 H   0  0  0  0  0  0  0  0  0  0  0  0
  146.0691  132.1850  149.1288 H   0  0  0  0  0  0  0  0  0  0  0  0
  146.9421  131.4714  150.4646 H   0  0  0  0  0  0  0  0  0  0  0  0
  144.5579  130.7101  150.4207 H   0  0  0  0  0  0  0  0  0  0  0  0
  144.9261  131.5648  151.9004 H   0  0  0  0  0  0  0  0  0  0  0  0
  143.5207  132.6966  149.4383 H   0  0  0  0  0  0  0  0  0  0  0  0
  142.7736  132.3859  150.9816 H   0  0  0  0  0  0  0  0  0  0  0  0
  143.3394  134.7999  150.4889 H   0  0  0  0  0  0  0  0  0  0  0  0
  142.9686  134.1390  152.8268 H   0  0  0  0  0  0  0  0  0  0  0  0
  144.6562  133.7219  153.0312 H   0  0  0  0  0  0  0  0  0  0  0  0
  145.3302  134.5634  149.4331 H   0  0  0  0  0  0  0  0  0  0  0  0
  1  2  3  0  0  0  0
  2  3  1  0  0  0  0
  3  8  1  0  0  0  0
  3  4  2  0  0  0  0
  4  5  1  0  0  0  0
  4 21  1  0  0  0  0
  5  6  2  0  0  0  0
  5 22  1  0  0  0  0
  6  7  1  0  0  0  0
  6 23  1  0  0  0  0
  7  8  2  0  0  0  0
  8  9  1  0  0  0  0
  9 10  1  0  0  0  0
  9 24  1  0  0  0  0
 10 11  1  0  0  0  0
 10 25  1  0  0  0  0
 10 26  1  0  0  0  0
 11 20  1  0  0  0  0
 11 12  1  0  0  0  0
 11 27  1  0  0  0  0
 12 13  1  0  0  0  0
 12 28  1  0  0  0  0
 12 29  1  0  0  0  0
 13 18  1  0  0  0  0
 13 14  1  0  0  0  0
 13 41  1  0  0  0  0
 14 15  1  0  0  0  0
 14 30  1  0  0  0  0
 14 31  1  0  0  0  0
 15 16  1  0  0  0  0
 15 32  1  0  0  0  0
 15 33  1  0  0  0  0
 16 17  1  0  0  0  0
 16 34  1  0  0  0  0
 16 35  1  0  0  0  0
 17 18  1  0  0  0  0
 17 36  1  0  0  0  0
 17 37  1  0  0  0  0
 18 19  1  0  0  0  0
 18 38  1  0  0  0  0
 19 20  1  0  0  0  0
 19 39  1  0  0  0  0
 19 40  1  0  0  0  0
M  CHG  1  13   1
M  END
> <s_m_source_file>
AV-unprocessed.smi

> <i_m_source_file_index>
2439

> <i_lp_mmshare_version>
43012

> <i_f3d_flags>
0

> <s_epik_input>
TiNDYzFbY0hdW2NIXVtjSF1uYzFbTkhdW0NIMl1bQ0BIXShbQ0gyXTIpT1tDSDJdW0NAQEhdKE4yMylbQ0gyXVtDSDJdW0NIMl1bQ0gyXTM=

> <s_epik_cmdline>
J2VwaWtfcHl0aG9uJywgJy1waCcsICc3LjAnLCAnLXRuJywgJzgnLCAnLW1hJywgJzIwMCcsICctbWV0YWxfYmluZGluZycsICctaW1hZScsICc8aW5maWxlLm1hZT4nLCAnLW9tYWUnLCAnPG91dGZpbGUubWFlPic=

> <r_epik_Ionization_Penalty>
0.0803594

> <r_epik_Ionization_Penalty_Charging>
0.0803403

> <r_epik_Ionization_Penalty_Neutral>
1.90988e-05

> <r_epik_State_Penalty>
0.0711481

> <r_epik_Charging_Adjusted_Penalty>
0.151488

> <i_epik_Tot_Q>
1

> <i_epik_Tot_abs_Q>
1

> <r_epik_Metal_State_Penalty>
0.0711482

> <b_epik_Metal_Only>
0

> <s_lp_Force_Field>
OPLS_2005

> <r_lp_Energy>
31.3603

> <b_lp_Chiralities_Consistent>
1

> <s_lp_Variant>
AV-unprocessed.smi:2439-3

> <Gold.Version>
5.8.1

> <Gold.Id.Protein>
6NUR|6NUR_protein|mol2

> <Gold.PLP.Fitness>
42.7805

> <Gold.PLP.PLP>
-37.6390

> <Gold.PLP.part.hbond>
-2.0000

> <Gold.PLP.part.metal>
0.0000

> <Gold.PLP.part.buried>
-4.3840

> <Gold.PLP.part.nonpolar>
-32.1567

> <Gold.PLP.part.repulsive>
0.5978

> <Gold.PLP.ligand.clash>
0.0000

> <Gold.PLP.ligand.torsion>
0.4294

> <Gold.PLP.Chemscore.Hbond>
2.0000

> <Gold.PLP.Chemscore.CHOScore>
0.0000

> <Gold.PLP.Chemscore.Metal>
0.0000

> <Gold.Chemscore.Hbonds>
donor molecule, donor type, donor heavy atom, donor atom, acceptor molecule, acceptor atom, score
      L1  H     9    24       P1  7948  1.00
      L1  H    13    41       P1  7921  1.00

> <Gold.PLP.Chemscore.Internal.Correction>
0.0003

> <Gold.Rescore>
     Score         DG    S(hbond)    S(metal)    S(lipo)     H(rot)  DE(clash)    DE(int)     intcor
     19.40     -20.00       1.98        0.00      95.24       1.27       0.24       0.36       ----

> <Gold.Chemscore.Fitness>
19.4035

> <Gold.Chemscore.DG>
-20.0032

> <Gold.Chemscore.ZeroCoef>
-5.4800

> <Gold.Chemscore.Hbond>
1.9823

> <Gold.Chemscore.Metal>
0.0000

> <Gold.Chemscore.Lipo>
95.2390

> <Gold.Chemscore.Internal_Hbond>
0.0000

> <Gold.Chemscore.DEClash>
0.2413

> <Gold.Chemscore.DEInternal>
0.3584

> <Gold.Chemscore.Rot>
1.2659

> <Gold.Chemscore.Internal.Correction>
   9.000000E+99

> <Gold.Chemscore.Hbonds>
donor molecule, donor type, donor heavy atom, donor atom, acceptor molecule, acceptor atom, score
      L1  H     9    24       P1  7948  1.00
      L1  H    13    41       P1  7921  0.92

> <Gold.Chemscore.Hbond.Weighted>
-6.6210

> <Gold.Chemscore.Metal.Weighted>
-0.0000

> <Gold.Chemscore.Lipo.Weighted>
-11.1430

> <Gold.Chemscore.Internal_Hbond.Weighted>
0.0000

> <Gold.Chemscore.DEClash.Weighted>
0.2413

> <Gold.Chemscore.DEInternal.Weighted>
0.3584

> <Gold.Chemscore.Rot.Weighted>
3.2408

> <Gold.Chemscore.Internal.Correction.Weighted>
   9.000000E+99

> <Gold.Protein.RotatedTorsions>
[ 6907 6896 6895 6894 ] final  -75.82 input  -60.11 | X-H torsion
[ 7974 7965 7964 7962 ] final  156.66 input  175.53 | X-H torsion
[ 8008 7997 7996 7995 ] final -107.28 input   59.86 | X-H torsion
[ 10167 10162 10161 10158 ] final  156.54 input  -65.29 | X-H torsion
[ 10718 10713 10712 10709 ] final   14.17 input   66.30 | X-H torsion
[ 10763 10752 10751 10750 ] final  140.10 input  -60.55 | X-H torsion
[ 11005 11000 10999 10996 ] final   -1.70 input  -57.11 | X-H torsion

> <Gold.Protein.ActiveResidues>
 VAL166  LYS551  ARG553  GLY616  TRP617  ASP618  TYR619  PRO620  LYS621  CYS622 
 ASP623  PHE694  ASN695  SER759  ASP760  ASP761  ALA762  ILE779  LEU786  VAL792 
 PHE793  MET794  SER795  GLU796  ALA797  LYS798  CYS799  TRP800  GLU811  SER814 

> <Gold.Protein.RotatedAtoms>
  150.7046  134.4664  159.5404 H   0  0  0  0  0  0  0  0  0  0  0  0  # atno 6907 bound_to 6896
  152.2329  134.8302  160.0480 H   0  0  0  0  0  0  0  0  0  0  0  0  # atno 6908 bound_to 6896
  151.9111  133.3526  159.3901 H   0  0  0  0  0  0  0  0  0  0  0  0  # atno 6909 bound_to 6896
  144.7950  139.7233  143.6206 H   0  0  0  0  0  0  0  0  0  0  0  0  # atno 7974 bound_to 7965
  154.9270  140.0406  157.2028 H   0  0  0  0  0  0  0  0  0  0  0  0  # atno 8008 bound_to 7997
  154.8198  140.2881  155.5773 H   0  0  0  0  0  0  0  0  0  0  0  0  # atno 8009 bound_to 7997
  156.2979  140.2521  156.3103 H   0  0  0  0  0  0  0  0  0  0  0  0  # atno 8010 bound_to 7997
  139.4821  144.4999  151.8184 H   0  0  0  0  0  0  0  0  0  0  0  0  # atno 10167 bound_to 10162
  157.0352  130.6209  149.5742 H   0  0  0  0  0  0  0  0  0  0  0  0  # atno 10718 bound_to 10713
  153.9171  135.3005  155.3448 H   0  0  0  0  0  0  0  0  0  0  0  0  # atno 10763 bound_to 10752
  154.7594  135.4941  153.9439 H   0  0  0  0  0  0  0  0  0  0  0  0  # atno 10764 bound_to 10752
  153.1162  135.6771  153.9517 H   0  0  0  0  0  0  0  0  0  0  0  0  # atno 10765 bound_to 10752
  140.6502  133.9411  155.8376 H   0  0  0  0  0  0  0  0  0  0  0  0  # atno 11005 bound_to 11000
  146.2215  139.5644  142.9615 LP  0  0  0  0  0  0  0  0  0  0  0  0  # atno 17320 bound_to 7965
  145.5697  141.0395  143.2181 LP  0  0  0  0  0  0  0  0  0  0  0  0  # atno 17321 bound_to 7965
  140.4491  144.1880  150.5896 LP  0  0  0  0  0  0  0  0  0  0  0  0  # atno 17342 bound_to 10162
  140.4603  143.2451  151.9228 LP  0  0  0  0  0  0  0  0  0  0  0  0  # atno 17343 bound_to 10162
  156.0056  130.5142  150.7818 LP  0  0  0  0  0  0  0  0  0  0  0  0  # atno 17370 bound_to 10713
  157.5147  131.0928  151.0154 LP  0  0  0  0  0  0  0  0  0  0  0  0  # atno 17371 bound_to 10713
  141.0542  134.0440  157.3744 LP  0  0  0  0  0  0  0  0  0  0  0  0  # atno 17394 bound_to 11000
  139.9048  135.0176  156.7438 LP  0  0  0  0  0  0  0  0  0  0  0  0  # atno 17395 bound_to 11000

$$$$
