AV-unprocessed.smi:528|AV-procd|sdf|2832|dock10
  -GOLD-   2262023323D 1   1.00000     0.00000
 Structure written by MMmdl.
 45 47  0  0  0  0  0  0  0  0  1 V2000
  150.3202  141.6101  156.3434 C   0  0  0  0  0  0  0  0  0  0  0  0
  150.5974  141.4508  157.8483 C   0  0  1  0  0  0  0  0  0  0  0  0
  150.7230  140.0326  158.1785 N   0  0  0  0  0  0  0  0  0  0  0  0
  151.6351  139.1891  157.6712 C   0  0  0  0  0  0  0  0  0  0  0  0
  152.5052  139.5356  156.8711 O   0  0  0  0  0  0  0  0  0  0  0  0
  151.5530  137.7386  158.1677 C   0  0  0  0  0  0  0  0  0  0  0  0
  152.8206  137.2386  158.7258 N   0  0  0  0  0  0  0  0  0  0  0  0
  153.1334  137.6152  160.0471 C   0  0  0  0  0  0  0  0  0  0  0  0
  154.2663  137.2354  160.6688 C   0  0  0  0  0  0  0  0  0  0  0  0
  154.5524  137.6147  162.1134 C   0  0  0  0  0  0  0  0  0  0  0  0
  155.7233  137.1206  162.5161 F   0  0  0  0  0  0  0  0  0  0  0  0
  154.5982  138.9405  162.2333 F   0  0  0  0  0  0  0  0  0  0  0  0
  153.6021  137.1568  162.9293 F   0  0  0  0  0  0  0  0  0  0  0  0
  155.1578  136.3750  159.9162 C   0  0  0  0  0  0  0  0  0  0  0  0
  154.8720  136.0024  158.6532 C   0  0  0  0  0  0  0  0  0  0  0  0
  153.6471  136.4434  157.9822 C   0  0  0  0  0  0  0  0  0  0  0  0
  153.3793  136.1171  156.8255 O   0  0  0  0  0  0  0  0  0  0  0  0
  151.8802  142.1923  158.2934 C   0  0  2  0  0  0  0  0  0  0  0  0
  152.1755  142.1246  159.8099 C   0  0  0  0  0  0  0  0  0  0  0  0
  152.4489  143.5949  160.1763 C   0  0  2  0  0  0  0  0  0  0  0  0
  151.1166  144.3661  160.1855 C   0  0  0  0  0  0  0  0  0  0  0  0
  150.7797  144.4748  158.6871 C   0  0  0  0  0  0  0  0  0  0  0  0
  151.9442  143.7155  158.0176 C   0  0  1  0  0  0  0  0  0  0  0  0
  153.1116  144.1255  158.9101 C   0  0  0  0  0  0  0  0  0  0  0  0
  150.1662  142.6559  156.0775 H   0  0  0  0  0  0  0  0  0  0  0  0
  149.4216  141.0682  156.0473 H   0  0  0  0  0  0  0  0  0  0  0  0
  151.1493  141.2324  155.7444 H   0  0  0  0  0  0  0  0  0  0  0  0
  149.7483  141.8521  158.4024 H   0  0  0  0  0  0  0  0  0  0  0  0
  150.0523  139.6611  158.8356 H   0  0  0  0  0  0  0  0  0  0  0  0
  150.7564  137.6795  158.9105 H   0  0  0  0  0  0  0  0  0  0  0  0
  151.2262  137.0949  157.3486 H   0  0  0  0  0  0  0  0  0  0  0  0
  152.3918  138.2396  160.5240 H   0  0  0  0  0  0  0  0  0  0  0  0
  156.0741  136.0275  160.3702 H   0  0  0  0  0  0  0  0  0  0  0  0
  155.5618  135.3638  158.1210 H   0  0  0  0  0  0  0  0  0  0  0  0
  152.7219  141.7351  157.7693 H   0  0  0  0  0  0  0  0  0  0  0  0
  151.3479  141.7139  160.3898 H   0  0  0  0  0  0  0  0  0  0  0  0
  153.0515  141.5033  160.0006 H   0  0  0  0  0  0  0  0  0  0  0  0
  153.0307  143.7175  161.0901 H   0  0  0  0  0  0  0  0  0  0  0  0
  150.3413  143.8473  160.7505 H   0  0  0  0  0  0  0  0  0  0  0  0
  151.2427  145.3573  160.6229 H   0  0  0  0  0  0  0  0  0  0  0  0
  149.7978  144.0723  158.4420 H   0  0  0  0  0  0  0  0  0  0  0  0
  150.7833  145.5207  158.3774 H   0  0  0  0  0  0  0  0  0  0  0  0
  152.0772  143.9634  156.9642 H   0  0  0  0  0  0  0  0  0  0  0  0
  153.2850  145.2032  158.9315 H   0  0  0  0  0  0  0  0  0  0  0  0
  154.0467  143.6186  158.6656 H   0  0  0  0  0  0  0  0  0  0  0  0
  1  2  1  0  0  0  0
  1 25  1  0  0  0  0
  1 26  1  0  0  0  0
  1 27  1  0  0  0  0
  2  3  1  0  0  0  0
  2 18  1  0  0  0  0
  2 28  1  0  0  0  0
  3  4  1  0  0  0  0
  3 29  1  0  0  0  0
  4  5  2  0  0  0  0
  4  6  1  0  0  0  0
  6  7  1  0  0  0  0
  6 30  1  0  0  0  0
  6 31  1  0  0  0  0
  7 16  1  0  0  0  0
  7  8  1  0  0  0  0
  8  9  2  0  0  0  0
  8 32  1  0  0  0  0
  9 10  1  0  0  0  0
  9 14  1  0  0  0  0
 10 11  1  0  0  0  0
 10 12  1  0  0  0  0
 10 13  1  0  0  0  0
 14 15  2  0  0  0  0
 14 33  1  0  0  0  0
 15 16  1  0  0  0  0
 15 34  1  0  0  0  0
 16 17  2  0  0  0  0
 18 23  1  0  0  0  0
 18 19  1  0  0  0  0
 18 35  1  0  0  0  0
 19 20  1  0  0  0  0
 19 36  1  0  0  0  0
 19 37  1  0  0  0  0
 20 24  1  0  0  0  0
 20 21  1  0  0  0  0
 20 38  1  0  0  0  0
 21 22  1  0  0  0  0
 21 39  1  0  0  0  0
 21 40  1  0  0  0  0
 22 23  1  0  0  0  0
 22 41  1  0  0  0  0
 22 42  1  0  0  0  0
 23 24  1  0  0  0  0
 23 43  1  0  0  0  0
 24 44  1  0  0  0  0
 24 45  1  0  0  0  0
M  END
> <s_m_source_file>
AV-unprocessed.smi

> <i_m_source_file_index>
528

> <i_lp_mmshare_version>
43012

> <i_f3d_flags>
0

> <s_epik_input>
W0NIMl0xW0NIMl1bQ0BASF0oW0NIMl0yKVtDQEBIXShbQ0gyXVtDQEhdMTIpW0NASF0oW0NIM10pW05IXUMoPU8pW0NIMl1uM1tjSF1jKEMoRikoRilGKVtjSF1bY0hdYzM9Tw==

> <s_epik_cmdline>
J2VwaWtfcHl0aG9uJywgJy1waCcsICc3LjAnLCAnLXRuJywgJzgnLCAnLW1hJywgJzIwMCcsICctbWV0YWxfYmluZGluZycsICctaW1hZScsICc8aW5maWxlLm1hZT4nLCAnLW9tYWUnLCAnPG91dGZpbGUubWFlPic=

> <r_lp_tautomer_probability>
1

> <r_epik_Ionization_Penalty>
4.09479e-08

> <r_epik_Ionization_Penalty_Charging>
1.9321e-08

> <r_epik_Ionization_Penalty_Neutral>
2.16269e-08

> <r_epik_State_Penalty>
-0

> <r_epik_Charging_Adjusted_Penalty>
1.9321e-08

> <i_epik_Tot_Q>
0

> <i_epik_Tot_abs_Q>
0

> <r_epik_Metal_State_Penalty>
-0

> <b_epik_Metal_Only>
0

> <s_lp_Force_Field>
OPLS_2005

> <r_lp_Energy>
63.1325

> <b_lp_Chiralities_Consistent>
1

> <s_lp_Variant>
AV-unprocessed.smi:528-2

> <Gold.Version>
5.8.1

> <Gold.Id.Protein>
6NUR|6NUR_protein|mol2

> <Gold.PLP.Fitness>
48.2783

> <Gold.PLP.PLP>
-42.9166

> <Gold.PLP.part.hbond>
-2.0000

> <Gold.PLP.part.metal>
0.0000

> <Gold.PLP.part.buried>
-6.4408

> <Gold.PLP.part.nonpolar>
-34.2535

> <Gold.PLP.part.repulsive>
0.1313

> <Gold.PLP.ligand.clash>
0.0000

> <Gold.PLP.ligand.torsion>
0.3434

> <Gold.PLP.Chemscore.Hbond>
2.0000

> <Gold.PLP.Chemscore.CHOScore>
0.0000

> <Gold.PLP.Chemscore.Metal>
0.0000

> <Gold.Chemscore.Hbonds>
donor molecule, donor type, donor heavy atom, donor atom, acceptor molecule, acceptor atom, score
      P1  H  7997  8009       L1     5  1.00
      P1  H 10752 10765       L1    17  1.00

> <Gold.PLP.Chemscore.Internal.Correction>
0.0484

> <Gold.Rescore>
     Score         DG    S(hbond)    S(metal)    S(lipo)     H(rot)  DE(clash)    DE(int)     intcor
     20.45     -21.63       2.00        0.00     118.41       1.71       0.09       1.08       ----

> <Gold.Chemscore.Fitness>
20.4528

> <Gold.Chemscore.DG>
-21.6285

> <Gold.Chemscore.ZeroCoef>
-5.4800

> <Gold.Chemscore.Hbond>
1.9997

> <Gold.Chemscore.Metal>
0.0000

> <Gold.Chemscore.Lipo>
118.4071

> <Gold.Chemscore.Internal_Hbond>
0.0000

> <Gold.Chemscore.DEClash>
0.0926

> <Gold.Chemscore.DEInternal>
1.0831

> <Gold.Chemscore.Rot>
1.7125

> <Gold.Chemscore.Internal.Correction>
   9.000000E+99

> <Gold.Chemscore.Hbonds>
donor molecule, donor type, donor heavy atom, donor atom, acceptor molecule, acceptor atom, score
      P1  H  7997  8009       L1     5  0.99
      P1  H 10752 10765       L1    17  1.00

> <Gold.Chemscore.Hbond.Weighted>
-6.6789

> <Gold.Chemscore.Metal.Weighted>
-0.0000

> <Gold.Chemscore.Lipo.Weighted>
-13.8536

> <Gold.Chemscore.Internal_Hbond.Weighted>
0.0000

> <Gold.Chemscore.DEClash.Weighted>
0.0926

> <Gold.Chemscore.DEInternal.Weighted>
1.0831

> <Gold.Chemscore.Rot.Weighted>
4.3840

> <Gold.Chemscore.Internal.Correction.Weighted>
   9.000000E+99

> <Gold.Protein.RotatedTorsions>
[ 6907 6896 6895 6894 ] final  -46.45 input  -60.11 | X-H torsion
[ 7974 7965 7964 7962 ] final -125.64 input  175.53 | X-H torsion
[ 8008 7997 7996 7995 ] final -175.35 input   59.86 | X-H torsion
[ 10167 10162 10161 10158 ] final  178.63 input  -65.29 | X-H torsion
[ 10718 10713 10712 10709 ] final -179.28 input   66.30 | X-H torsion
[ 10763 10752 10751 10750 ] final -118.51 input  -60.55 | X-H torsion
[ 11005 11000 10999 10996 ] final -139.18 input  -57.11 | X-H torsion

> <Gold.Protein.ActiveResidues>
 VAL166  LYS551  ARG553  GLY616  TRP617  ASP618  TYR619  PRO620  LYS621  CYS622 
 ASP623  PHE694  ASN695  SER759  ASP760  ASP761  ALA762  ILE779  LEU786  VAL792 
 PHE793  MET794  SER795  GLU796  ALA797  LYS798  CYS799  TRP800  GLU811  SER814 

> <Gold.Protein.RotatedAtoms>
  150.9111  134.8527  159.7425 H   0  0  0  0  0  0  0  0  0  0  0  0  # atno 6907 bound_to 6896
  152.4944  134.4358  159.9537 H   0  0  0  0  0  0  0  0  0  0  0  0  # atno 6908 bound_to 6896
  151.4400  133.3606  159.2815 H   0  0  0  0  0  0  0  0  0  0  0  0  # atno 6909 bound_to 6896
  144.9955  140.7772  143.4528 H   0  0  0  0  0  0  0  0  0  0  0  0  # atno 7974 bound_to 7965
  155.9814  140.1182  157.0723 H   0  0  0  0  0  0  0  0  0  0  0  0  # atno 8008 bound_to 7997
  154.4184  140.1143  156.5509 H   0  0  0  0  0  0  0  0  0  0  0  0  # atno 8009 bound_to 7997
  155.6465  140.3473  155.4735 H   0  0  0  0  0  0  0  0  0  0  0  0  # atno 8010 bound_to 7997
  139.5302  144.2657  152.0670 H   0  0  0  0  0  0  0  0  0  0  0  0  # atno 10167 bound_to 10162
  156.8568  130.9738  151.3087 H   0  0  0  0  0  0  0  0  0  0  0  0  # atno 10718 bound_to 10713
  154.8589  135.4271  154.2151 H   0  0  0  0  0  0  0  0  0  0  0  0  # atno 10763 bound_to 10752
  153.3168  135.6979  153.7072 H   0  0  0  0  0  0  0  0  0  0  0  0  # atno 10764 bound_to 10752
  153.6143  135.3513  155.2963 H   0  0  0  0  0  0  0  0  0  0  0  0  # atno 10765 bound_to 10752
  140.8544  134.2246  157.4742 H   0  0  0  0  0  0  0  0  0  0  0  0  # atno 11005 bound_to 11000
  145.2226  139.2152  143.5085 LP  0  0  0  0  0  0  0  0  0  0  0  0  # atno 17320 bound_to 7965
  146.3441  140.2087  142.8590 LP  0  0  0  0  0  0  0  0  0  0  0  0  # atno 17321 bound_to 7965
  140.2120  144.4553  150.6381 LP  0  0  0  0  0  0  0  0  0  0  0  0  # atno 17342 bound_to 10162
  140.6474  143.2217  151.6154 LP  0  0  0  0  0  0  0  0  0  0  0  0  # atno 17343 bound_to 10162
  157.6273  130.8701  149.9211 LP  0  0  0  0  0  0  0  0  0  0  0  0  # atno 17370 bound_to 10713
  156.0798  130.3674  150.0603 LP  0  0  0  0  0  0  0  0  0  0  0  0  # atno 17371 bound_to 10713
  139.8705  134.9699  156.4683 LP  0  0  0  0  0  0  0  0  0  0  0  0  # atno 17394 bound_to 11000
  140.8754  133.7957  155.9408 LP  0  0  0  0  0  0  0  0  0  0  0  0  # atno 17395 bound_to 11000

$$$$
