AV-unprocessed.smi:203|AV-procd|sdf|1594|dock5
  -GOLD-   2262019493D 1   1.00000     0.00000
 Structure written by MMmdl.
 57 61  0  0  0  0  0  0  0  0  1 V2000
  149.4160  133.2554  154.3952 O   0  0  0  0  0  0  0  0  0  0  0  0
  148.9123  134.1729  155.0386 C   0  0  0  0  0  0  0  0  0  0  0  0
  149.3927  135.6122  154.9652 C   0  0  0  0  0  0  0  0  0  0  0  0
  148.3108  136.3955  155.7368 C   0  0  1  0  0  0  0  0  0  0  0  0
  147.4158  137.3139  154.8450 C   0  0  2  0  0  0  0  0  0  0  0  0
  146.2730  136.5367  154.1387 C   0  0  0  0  0  0  0  0  0  0  0  0
  145.4065  137.4610  153.2732 C   0  0  0  0  0  0  0  0  0  0  0  0
  146.2864  138.2070  152.2646 C   0  0  0  0  0  0  0  0  0  0  0  0
  147.4015  138.9699  152.9918 C   0  0  0  0  0  0  0  0  0  0  0  0
  148.1856  138.0800  153.8478 N   0  0  0  0  0  0  0  0  0  0  0  0
  149.2912  138.7144  154.2976 C   0  0  0  0  0  0  0  0  0  0  0  0
  150.4903  138.1718  153.9738 N   0  0  0  0  0  0  0  0  0  0  0  0
  151.6192  138.7465  154.3998 C   0  0  0  0  0  0  0  0  0  0  0  0
  151.7687  139.8463  155.1416 N   0  0  0  0  0  0  0  0  0  0  0  0
  150.5626  140.3978  155.4602 C   0  0  0  0  0  0  0  0  0  0  0  0
  149.2834  139.9027  155.0814 C   0  0  0  0  0  0  0  0  0  0  0  0
  148.2859  140.7266  155.5893 N   0  0  0  0  0  0  0  0  0  0  0  0
  148.9384  141.6540  156.2356 C   0  0  0  0  0  0  0  0  0  0  0  0
  150.3089  141.5307  156.2127 N   0  0  0  0  0  0  0  0  0  0  0  0
  151.2676  142.4155  156.8520 C   0  0  0  0  0  0  0  0  0  0  0  0
  151.2470  142.2899  158.3904 C   0  0  1  0  0  0  0  0  0  0  0  0
  151.9370  141.1065  158.7440 O   0  0  0  0  0  0  0  0  0  0  0  0
  151.9374  143.4682  159.1070 C   0  0  1  0  0  0  0  0  0  0  0  0
  151.2723  144.8302  158.8951 C   0  0  0  0  0  0  0  0  0  0  0  0
  151.6975  145.6319  160.1139 C   0  0  0  0  0  0  0  0  0  0  0  0
  152.1467  144.5657  161.1153 C   0  0  0  0  0  0  0  0  0  0  0  0
  151.8048  143.3247  160.5137 O   0  0  0  0  0  0  0  0  0  0  0  0
  147.5092  135.3180  156.4983 C   0  0  0  0  0  0  0  0  0  0  0  0
  147.8904  134.0607  155.8848 N   0  0  0  0  0  0  0  0  0  0  0  0
  150.3612  135.6915  155.4598 H   0  0  0  0  0  0  0  0  0  0  0  0
  149.5136  135.9415  153.9328 H   0  0  0  0  0  0  0  0  0  0  0  0
  148.8011  137.0065  156.4952 H   0  0  0  0  0  0  0  0  0  0  0  0
  146.9421  138.0420  155.5044 H   0  0  0  0  0  0  0  0  0  0  0  0
  146.6850  135.7515  153.5046 H   0  0  0  0  0  0  0  0  0  0  0  0
  145.6345  136.0363  154.8658 H   0  0  0  0  0  0  0  0  0  0  0  0
  144.6437  136.8823  152.7517 H   0  0  0  0  0  0  0  0  0  0  0  0
  144.8807  138.1760  153.9071 H   0  0  0  0  0  0  0  0  0  0  0  0
  146.7248  137.4978  151.5610 H   0  0  0  0  0  0  0  0  0  0  0  0
  145.6817  138.8976  151.6763 H   0  0  0  0  0  0  0  0  0  0  0  0
  148.0509  139.4497  152.2578 H   0  0  0  0  0  0  0  0  0  0  0  0
  146.9662  139.7654  153.5986 H   0  0  0  0  0  0  0  0  0  0  0  0
  152.5338  138.2532  154.1054 H   0  0  0  0  0  0  0  0  0  0  0  0
  148.4354  142.4573  156.7545 H   0  0  0  0  0  0  0  0  0  0  0  0
  152.2635  142.1987  156.4631 H   0  0  0  0  0  0  0  0  0  0  0  0
  151.0300  143.4343  156.5453 H   0  0  0  0  0  0  0  0  0  0  0  0
  150.2136  142.2092  158.7302 H   0  0  0  0  0  0  0  0  0  0  0  0
  151.7112  140.8818  159.6338 H   0  0  0  0  0  0  0  0  0  0  0  0
  152.9939  143.5289  158.8376 H   0  0  0  0  0  0  0  0  0  0  0  0
  151.5650  145.3031  157.9573 H   0  0  0  0  0  0  0  0  0  0  0  0
  150.1867  144.7212  158.8940 H   0  0  0  0  0  0  0  0  0  0  0  0
  152.5229  146.3049  159.8785 H   0  0  0  0  0  0  0  0  0  0  0  0
  150.8721  146.2318  160.4982 H   0  0  0  0  0  0  0  0  0  0  0  0
  153.2264  144.6087  161.2654 H   0  0  0  0  0  0  0  0  0  0  0  0
  151.6626  144.6740  162.0862 H   0  0  0  0  0  0  0  0  0  0  0  0
  147.7960  135.2932  157.5504 H   0  0  0  0  0  0  0  0  0  0  0  0
  146.4308  135.4708  156.4564 H   0  0  0  0  0  0  0  0  0  0  0  0
  147.4164  133.1920  156.0860 H   0  0  0  0  0  0  0  0  0  0  0  0
  1  2  2  0  0  0  0
  2 29  1  0  0  0  0
  2  3  1  0  0  0  0
  3  4  1  0  0  0  0
  3 30  1  0  0  0  0
  3 31  1  0  0  0  0
  4  5  1  0  0  0  0
  4 28  1  0  0  0  0
  4 32  1  0  0  0  0
  5 10  1  0  0  0  0
  5  6  1  0  0  0  0
  5 33  1  0  0  0  0
  6  7  1  0  0  0  0
  6 34  1  0  0  0  0
  6 35  1  0  0  0  0
  7  8  1  0  0  0  0
  7 36  1  0  0  0  0
  7 37  1  0  0  0  0
  8  9  1  0  0  0  0
  8 38  1  0  0  0  0
  8 39  1  0  0  0  0
  9 10  1  0  0  0  0
  9 40  1  0  0  0  0
  9 41  1  0  0  0  0
 10 11  1  0  0  0  0
 11 16  1  0  0  0  0
 11 12  2  0  0  0  0
 12 13  1  0  0  0  0
 13 14  2  0  0  0  0
 13 42  1  0  0  0  0
 14 15  1  0  0  0  0
 15 19  1  0  0  0  0
 15 16  2  0  0  0  0
 16 17  1  0  0  0  0
 17 18  2  0  0  0  0
 18 19  1  0  0  0  0
 18 43  1  0  0  0  0
 19 20  1  0  0  0  0
 20 21  1  0  0  0  0
 20 44  1  0  0  0  0
 20 45  1  0  0  0  0
 21 22  1  0  0  0  0
 21 23  1  0  0  0  0
 21 46  1  0  0  0  0
 22 47  1  0  0  0  0
 23 27  1  0  0  0  0
 23 24  1  0  0  0  0
 23 48  1  0  0  0  0
 24 25  1  0  0  0  0
 24 49  1  0  0  0  0
 24 50  1  0  0  0  0
 25 26  1  0  0  0  0
 25 51  1  0  0  0  0
 25 52  1  0  0  0  0
 26 27  1  0  0  0  0
 26 53  1  0  0  0  0
 26 54  1  0  0  0  0
 28 29  1  0  0  0  0
 28 55  1  0  0  0  0
 28 56  1  0  0  0  0
 29 57  1  0  0  0  0
M  END
> <s_m_source_file>
AV-unprocessed.smi

> <i_m_source_file_index>
203

> <i_lp_mmshare_version>
43012

> <i_f3d_flags>
0

> <s_epik_input>
Tz1DMVtDSDJdW0NASF0oW0NIMl1bTkhdMSlbQ0BASF0yW0NIMl1bQ0gyXVtDSDJdW0NIMl1OMmMobltjSF1uMyljKGMzNCluW2NIXW40W0NIMl1bQ0BIXShbT0hdKVtDQEBIXTVbQ0gyXVtDSDJdW0NIMl1PNQ==

> <s_epik_cmdline>
J2VwaWtfcHl0aG9uJywgJy1waCcsICc3LjAnLCAnLXRuJywgJzgnLCAnLW1hJywgJzIwMCcsICctbWV0YWxfYmluZGluZycsICctaW1hZScsICc8aW5maWxlLm1hZT4nLCAnLW9tYWUnLCAnPG91dGZpbGUubWFlPic=

> <r_lp_tautomer_probability>
1

> <r_epik_Ionization_Penalty>
0.00175146

> <r_epik_Ionization_Penalty_Charging>
0

> <r_epik_Ionization_Penalty_Neutral>
0.00175146

> <r_epik_State_Penalty>
0.00109045

> <r_epik_Charging_Adjusted_Penalty>
0.00109045

> <i_epik_Tot_Q>
0

> <i_epik_Tot_abs_Q>
0

> <r_epik_Metal_State_Penalty>
-0

> <b_epik_Metal_Only>
0

> <s_lp_Force_Field>
OPLS_2005

> <r_lp_Energy>
57.3178

> <b_lp_Chiralities_Consistent>
1

> <s_lp_Variant>
AV-unprocessed.smi:203-13

> <Gold.Version>
5.8.1

> <Gold.Id.Protein>
6NUR|6NUR_protein|mol2

> <Gold.PLP.Fitness>
42.9762

> <Gold.PLP.PLP>
-41.8173

> <Gold.PLP.part.hbond>
-1.0000

> <Gold.PLP.part.metal>
0.0000

> <Gold.PLP.part.buried>
-6.1658

> <Gold.PLP.part.nonpolar>
-36.9944

> <Gold.PLP.part.repulsive>
2.5722

> <Gold.PLP.ligand.clash>
0.0000

> <Gold.PLP.ligand.torsion>
0.7612

> <Gold.PLP.Chemscore.Hbond>
0.1350

> <Gold.PLP.Chemscore.CHOScore>
0.6686

> <Gold.PLP.Chemscore.Metal>
0.0000

> <Gold.Chemscore.Hbonds>
donor molecule, donor type, donor heavy atom, donor atom, acceptor molecule, acceptor atom, score
      P1  H  7989  7998       L1    14  0.12
      L1  C    18    43       P1  8028  0.63

> <Gold.PLP.Chemscore.Internal.Correction>
0.2705

> <Gold.Rescore>
     Score         DG    S(hbond)    S(metal)    S(lipo)     H(rot)  DE(clash)    DE(int)     intcor
      8.74      -9.42       0.00        0.00      93.15       2.72       0.16       0.53       ----

> <Gold.Chemscore.Fitness>
8.7402

> <Gold.Chemscore.DG>
-9.4229

> <Gold.Chemscore.ZeroCoef>
-5.4800

> <Gold.Chemscore.Hbond>
0.0000

> <Gold.Chemscore.Metal>
0.0000

> <Gold.Chemscore.Lipo>
93.1499

> <Gold.Chemscore.Internal_Hbond>
0.0000

> <Gold.Chemscore.DEClash>
0.1570

> <Gold.Chemscore.DEInternal>
0.5257

> <Gold.Chemscore.Rot>
2.7171

> <Gold.Chemscore.Internal.Correction>
   9.000000E+99

> <Gold.Chemscore.Hbond.Weighted>
-0.0000

> <Gold.Chemscore.Metal.Weighted>
-0.0000

> <Gold.Chemscore.Lipo.Weighted>
-10.8985

> <Gold.Chemscore.Internal_Hbond.Weighted>
0.0000

> <Gold.Chemscore.DEClash.Weighted>
0.1570

> <Gold.Chemscore.DEInternal.Weighted>
0.5257

> <Gold.Chemscore.Rot.Weighted>
6.9557

> <Gold.Chemscore.Internal.Correction.Weighted>
   9.000000E+99

> <Gold.Protein.RotatedTorsions>
[ 6907 6896 6895 6894 ] final   60.43 input  -60.11 | X-H torsion
[ 7974 7965 7964 7962 ] final -143.25 input  175.53 | X-H torsion
[ 8008 7997 7996 7995 ] final  -25.87 input   59.86 | X-H torsion
[ 10167 10162 10161 10158 ] final  134.17 input  -65.29 | X-H torsion
[ 10718 10713 10712 10709 ] final  139.24 input   66.30 | X-H torsion
[ 10763 10752 10751 10750 ] final -114.27 input  -60.55 | X-H torsion
[ 11005 11000 10999 10996 ] final -106.45 input  -57.11 | X-H torsion

> <Gold.Protein.ActiveResidues>
 VAL166  LYS551  ARG553  GLY616  TRP617  ASP618  TYR619  PRO620  LYS621  CYS622 
 ASP623  PHE694  ASN695  SER759  ASP760  ASP761  ALA762  ILE779  LEU786  VAL792 
 PHE793  MET794  SER795  GLU796  ALA797  LYS798  CYS799  TRP800  GLU811  SER814 

> <Gold.Protein.RotatedAtoms>
  152.4002  134.6298  160.0072 H   0  0  0  0  0  0  0  0  0  0  0  0  # atno 6907 bound_to 6896
  151.6505  133.3315  159.3159 H   0  0  0  0  0  0  0  0  0  0  0  0  # atno 6908 bound_to 6896
  150.7904  134.6965  159.6571 H   0  0  0  0  0  0  0  0  0  0  0  0  # atno 6909 bound_to 6896
  144.8383  140.5857  143.5469 H   0  0  0  0  0  0  0  0  0  0  0  0  # atno 7974 bound_to 7965
  154.4454  140.1915  156.0686 H   0  0  0  0  0  0  0  0  0  0  0  0  # atno 8008 bound_to 7997
  156.0528  140.3306  155.7344 H   0  0  0  0  0  0  0  0  0  0  0  0  # atno 8009 bound_to 7997
  155.5531  140.0597  157.2836 H   0  0  0  0  0  0  0  0  0  0  0  0  # atno 8010 bound_to 7997
  139.5267  144.6580  151.5101 H   0  0  0  0  0  0  0  0  0  0  0  0  # atno 10167 bound_to 10162
  157.4166  131.1034  151.0398 H   0  0  0  0  0  0  0  0  0  0  0  0  # atno 10718 bound_to 10713
  154.8433  135.4424  154.1479 H   0  0  0  0  0  0  0  0  0  0  0  0  # atno 10763 bound_to 10752
  153.2647  135.6939  153.7548 H   0  0  0  0  0  0  0  0  0  0  0  0  # atno 10764 bound_to 10752
  153.6811  135.3403  155.3154 H   0  0  0  0  0  0  0  0  0  0  0  0  # atno 10765 bound_to 10752
  141.1004  133.8894  157.1857 H   0  0  0  0  0  0  0  0  0  0  0  0  # atno 11005 bound_to 11000
  145.4748  139.1500  143.3794 LP  0  0  0  0  0  0  0  0  0  0  0  0  # atno 17320 bound_to 7965
  146.2679  140.4882  142.8826 LP  0  0  0  0  0  0  0  0  0  0  0  0  # atno 17321 bound_to 7965
  140.6415  143.8879  150.6696 LP  0  0  0  0  0  0  0  0  0  0  0  0  # atno 17342 bound_to 10162
  140.2215  143.3805  152.1639 LP  0  0  0  0  0  0  0  0  0  0  0  0  # atno 17343 bound_to 10162
  157.1343  130.6116  149.5538 LP  0  0  0  0  0  0  0  0  0  0  0  0  # atno 17370 bound_to 10713
  155.9867  130.4903  150.7091 LP  0  0  0  0  0  0  0  0  0  0  0  0  # atno 17371 bound_to 10713
  139.9854  135.0084  156.9849 LP  0  0  0  0  0  0  0  0  0  0  0  0  # atno 17394 bound_to 11000
  140.5036  134.1072  155.7255 LP  0  0  0  0  0  0  0  0  0  0  0  0  # atno 17395 bound_to 11000

$$$$
