AV-unprocessed.smi:1971|AV-procd|sdf|7973|dock2
  -GOLD-   2272010143D 1   1.00000     0.00000
 Structure written by MMmdl.
 42 43  0  0  0  0  0  0  0  0  2 V2000
  151.5180  145.5091  159.9262 C   0  0  0  0  0  0  0  0  0  0  0  0
  152.5443  144.3697  160.0007 C   0  0  0  0  0  0  0  0  0  0  0  0
  152.0657  143.0783  159.5115 N   0  0  0  0  0  0  0  0  0  0  0  0
  153.0803  142.0301  159.6107 C   0  0  0  0  0  0  0  0  0  0  0  0
  152.5571  140.6793  159.0873 C   0  0  0  0  0  0  0  0  0  0  0  0
  152.1234  140.7466  157.6830 N   0  0  0  0  0  0  0  0  0  0  0  0
  151.6109  139.4501  157.1782 C   0  0  1  0  0  0  0  0  0  0  0  0
  150.3904  138.9369  157.9843 C   0  0  0  0  0  0  0  0  0  0  0  0
  151.2471  139.4797  155.6659 C   0  0  0  0  0  0  0  0  0  0  0  0
  150.4530  138.3255  155.2474 N   0  0  0  0  0  0  0  0  0  0  0  0
  150.8527  137.0455  155.2205 C   0  0  0  0  0  0  0  0  0  0  0  0
  151.9930  136.7450  155.5813 O   0  0  0  0  0  0  0  0  0  0  0  0
  149.9070  136.1927  154.7643 N   0  5  0  0  0  0  0  0  0  0  0  0
  150.0583  134.8688  154.9305 C   0  0  0  0  0  0  0  0  0  0  0  0
  150.6771  134.3328  155.9887 N   0  0  0  0  0  0  0  0  0  0  0  0
  150.7133  132.9375  155.9622 C   0  0  0  0  0  0  0  0  0  0  0  0
  150.0999  132.3980  154.8627 C   0  0  0  0  0  0  0  0  0  0  0  0
  149.4530  133.6339  153.8222 S   0  0  0  0  0  0  0  0  0  0  0  0
  151.1247  141.8229  157.5875 C   0  0  0  0  0  0  0  0  0  0  0  0
  151.6567  143.1683  158.1132 C   0  0  0  0  0  0  0  0  0  0  0  0
  151.9788  146.4572  160.2041 H   0  0  0  0  0  0  0  0  0  0  0  0
  150.6790  145.3473  160.6023 H   0  0  0  0  0  0  0  0  0  0  0  0
  151.1234  145.6172  158.9156 H   0  0  0  0  0  0  0  0  0  0  0  0
  153.4087  144.6709  159.4075 H   0  0  0  0  0  0  0  0  0  0  0  0
  152.9047  144.2693  161.0255 H   0  0  0  0  0  0  0  0  0  0  0  0
  153.9732  142.3176  159.0534 H   0  0  0  0  0  0  0  0  0  0  0  0
  153.3879  141.9011  160.6478 H   0  0  0  0  0  0  0  0  0  0  0  0
  153.3697  139.9654  159.2042 H   0  0  0  0  0  0  0  0  0  0  0  0
  151.7362  140.3326  159.7171 H   0  0  0  0  0  0  0  0  0  0  0  0
  152.4023  138.7086  157.2976 H   0  0  0  0  0  0  0  0  0  0  0  0
  150.0061  137.9937  157.5990 H   0  0  0  0  0  0  0  0  0  0  0  0
  149.5721  139.6573  157.9625 H   0  0  0  0  0  0  0  0  0  0  0  0
  150.6338  138.7315  159.0252 H   0  0  0  0  0  0  0  0  0  0  0  0
  150.7557  140.4211  155.4152 H   0  0  0  0  0  0  0  0  0  0  0  0
  152.1396  139.4285  155.0457 H   0  0  0  0  0  0  0  0  0  0  0  0
  149.5105  138.5155  154.9402 H   0  0  0  0  0  0  0  0  0  0  0  0
  151.1971  132.4082  156.7695 H   0  0  0  0  0  0  0  0  0  0  0  0
  149.9880  131.3563  154.6032 H   0  0  0  0  0  0  0  0  0  0  0  0
  150.8330  141.9855  156.5519 H   0  0  0  0  0  0  0  0  0  0  0  0
  150.2210  141.5454  158.1323 H   0  0  0  0  0  0  0  0  0  0  0  0
  150.8780  143.9243  158.0060 H   0  0  0  0  0  0  0  0  0  0  0  0
  152.4954  143.4965  157.4967 H   0  0  0  0  0  0  0  0  0  0  0  0
  1  2  1  0  0  0  0
  1 21  1  0  0  0  0
  1 22  1  0  0  0  0
  1 23  1  0  0  0  0
  2  3  1  0  0  0  0
  2 24  1  0  0  0  0
  2 25  1  0  0  0  0
  3 20  1  0  0  0  0
  3  4  1  0  0  0  0
  4  5  1  0  0  0  0
  4 26  1  0  0  0  0
  4 27  1  0  0  0  0
  5  6  1  0  0  0  0
  5 28  1  0  0  0  0
  5 29  1  0  0  0  0
  6  7  1  0  0  0  0
  6 19  1  0  0  0  0
  7  8  1  0  0  0  0
  7  9  1  0  0  0  0
  7 30  1  0  0  0  0
  8 31  1  0  0  0  0
  8 32  1  0  0  0  0
  8 33  1  0  0  0  0
  9 10  1  0  0  0  0
  9 34  1  0  0  0  0
  9 35  1  0  0  0  0
 10 11  1  0  0  0  0
 10 36  1  0  0  0  0
 11 12  2  0  0  0  0
 11 13  1  0  0  0  0
 13 14  1  0  0  0  0
 14 18  1  0  0  0  0
 14 15  2  0  0  0  0
 15 16  1  0  0  0  0
 16 17  2  0  0  0  0
 16 37  1  0  0  0  0
 17 18  1  0  0  0  0
 17 38  1  0  0  0  0
 19 20  1  0  0  0  0
 19 39  1  0  0  0  0
 19 40  1  0  0  0  0
 20 41  1  0  0  0  0
 20 42  1  0  0  0  0
M  CHG  1  13  -1
M  END
> <s_m_source_file>
AV-unprocessed.smi

> <i_m_source_file_index>
1971

> <i_lp_mmshare_version>
43012

> <i_f3d_flags>
0

> <s_epik_input>
W0NIM11bQ0gyXU4xW0NIMl1bQ0gyXU4oW0NIMl1bQ0gyXTEpW0NASF0oW0NIM10pW0NIMl1bTkhdQyg9TylbTkhdYzJuW2NIXVtjSF1zMg==

> <s_epik_cmdline>
J2VwaWtfcHl0aG9uJywgJy1waCcsICc3LjAnLCAnLXRuJywgJzgnLCAnLW1hJywgJzIwMCcsICctbWV0YWxfYmluZGluZycsICctaW1hZScsICc8aW5maWxlLm1hZT4nLCAnLW9tYWUnLCAnPG91dGZpbGUubWFlPic=

> <r_lp_tautomer_probability>
0.999

> <r_epik_Ionization_Penalty>
9.52272

> <r_epik_Ionization_Penalty_Charging>
5.92713

> <r_epik_Ionization_Penalty_Neutral>
3.59559

> <r_epik_State_Penalty>
7.69531

> <r_epik_Charging_Adjusted_Penalty>
13.6224

> <i_epik_Tot_Q>
-1

> <i_epik_Tot_abs_Q>
1

> <r_epik_Metal_State_Penalty>
3.66212

> <b_epik_Metal_Only>
1

> <s_lp_Force_Field>
OPLS_2005

> <r_lp_Energy>
38.2579

> <b_lp_Chiralities_Consistent>
1

> <s_lp_Variant>
AV-unprocessed.smi:1971-12

> <Gold.Version>
5.8.1

> <Gold.Id.Protein>
6NUR|6NUR_protein|mol2

> <Gold.PLP.Fitness>
38.9092

> <Gold.PLP.PLP>
-36.6368

> <Gold.PLP.part.hbond>
-1.0000

> <Gold.PLP.part.metal>
0.0000

> <Gold.PLP.part.buried>
-6.2436

> <Gold.PLP.part.nonpolar>
-29.3952

> <Gold.PLP.part.repulsive>
0.9169

> <Gold.PLP.ligand.clash>
0.0000

> <Gold.PLP.ligand.torsion>
0.4204

> <Gold.PLP.Chemscore.Hbond>
1.0000

> <Gold.PLP.Chemscore.CHOScore>
0.0000

> <Gold.PLP.Chemscore.Metal>
0.0000

> <Gold.Chemscore.Hbonds>
donor molecule, donor type, donor heavy atom, donor atom, acceptor molecule, acceptor atom, score
      P1  H 10752 10764       L1    12  1.00

> <Gold.PLP.Chemscore.Internal.Correction>
0.1131

> <Gold.Rescore>
     Score         DG    S(hbond)    S(metal)    S(lipo)     H(rot)  DE(clash)    DE(int)     intcor
     13.16     -15.08       0.98        0.00      91.26       1.70       0.10       1.82       ----

> <Gold.Chemscore.Fitness>
13.1603

> <Gold.Chemscore.DG>
-15.0823

> <Gold.Chemscore.ZeroCoef>
-5.4800

> <Gold.Chemscore.Hbond>
0.9841

> <Gold.Chemscore.Metal>
0.0000

> <Gold.Chemscore.Lipo>
91.2554

> <Gold.Chemscore.Internal_Hbond>
0.0000

> <Gold.Chemscore.DEClash>
0.0998

> <Gold.Chemscore.DEInternal>
1.8221

> <Gold.Chemscore.Rot>
1.7037

> <Gold.Chemscore.Internal.Correction>
   9.000000E+99

> <Gold.Chemscore.Hbonds>
donor molecule, donor type, donor heavy atom, donor atom, acceptor molecule, acceptor atom, score
      P1  H 10752 10764       L1    12  0.94

> <Gold.Chemscore.Hbond.Weighted>
-3.2868

> <Gold.Chemscore.Metal.Weighted>
-0.0000

> <Gold.Chemscore.Lipo.Weighted>
-10.6769

> <Gold.Chemscore.Internal_Hbond.Weighted>
0.0000

> <Gold.Chemscore.DEClash.Weighted>
0.0998

> <Gold.Chemscore.DEInternal.Weighted>
1.8221

> <Gold.Chemscore.Rot.Weighted>
4.3614

> <Gold.Chemscore.Internal.Correction.Weighted>
   9.000000E+99

> <Gold.Protein.RotatedTorsions>
[ 6907 6896 6895 6894 ] final   43.07 input  -60.11 | X-H torsion
[ 7974 7965 7964 7962 ] final  153.40 input  175.53 | X-H torsion
[ 8008 7997 7996 7995 ] final   50.97 input   59.86 | X-H torsion
[ 10167 10162 10161 10158 ] final -167.57 input  -65.29 | X-H torsion
[ 10718 10713 10712 10709 ] final -116.39 input   66.30 | X-H torsion
[ 10763 10752 10751 10750 ] final  -32.46 input  -60.55 | X-H torsion
[ 11005 11000 10999 10996 ] final  -20.03 input  -57.11 | X-H torsion

> <Gold.Protein.ActiveResidues>
 VAL166  LYS551  ARG553  GLY616  TRP617  ASP618  TYR619  PRO620  LYS621  CYS622 
 ASP623  PHE694  ASN695  SER759  ASP760  ASP761  ALA762  ILE779  LEU786  VAL792 
 PHE793  MET794  SER795  GLU796  ALA797  LYS798  CYS799  TRP800  GLU811  SER814 

> <Gold.Protein.RotatedAtoms>
  152.2158  134.8459  160.0491 H   0  0  0  0  0  0  0  0  0  0  0  0  # atno 6907 bound_to 6896
  151.9261  133.3593  159.3922 H   0  0  0  0  0  0  0  0  0  0  0  0  # atno 6908 bound_to 6896
  150.6987  134.4510  159.5380 H   0  0  0  0  0  0  0  0  0  0  0  0  # atno 6909 bound_to 6896
  144.8157  139.6796  143.6122 H   0  0  0  0  0  0  0  0  0  0  0  0  # atno 7974 bound_to 7965
  155.4276  140.3449  155.4277 H   0  0  0  0  0  0  0  0  0  0  0  0  # atno 8008 bound_to 7997
  156.1356  140.1527  156.9031 H   0  0  0  0  0  0  0  0  0  0  0  0  # atno 8009 bound_to 7997
  154.4929  140.0836  156.7613 H   0  0  0  0  0  0  0  0  0  0  0  0  # atno 8010 bound_to 7997
  139.6041  144.0949  152.1774 H   0  0  0  0  0  0  0  0  0  0  0  0  # atno 10167 bound_to 10162
  156.0960  130.6133  150.9030 H   0  0  0  0  0  0  0  0  0  0  0  0  # atno 10718 bound_to 10713
  153.8141  135.6880  153.4836 H   0  0  0  0  0  0  0  0  0  0  0  0  # atno 10763 bound_to 10752
  153.1610  135.4580  154.9770 H   0  0  0  0  0  0  0  0  0  0  0  0  # atno 10764 bound_to 10752
  154.7955  135.3317  154.7619 H   0  0  0  0  0  0  0  0  0  0  0  0  # atno 10765 bound_to 10752
  140.8425  133.7916  155.9876 H   0  0  0  0  0  0  0  0  0  0  0  0  # atno 11005 bound_to 11000
  146.2460  139.6098  142.9459 LP  0  0  0  0  0  0  0  0  0  0  0  0  # atno 17320 bound_to 7965
  145.5220  141.0431  143.2430 LP  0  0  0  0  0  0  0  0  0  0  0  0  # atno 17321 bound_to 7965
  140.0552  144.5900  150.7305 LP  0  0  0  0  0  0  0  0  0  0  0  0  # atno 17342 bound_to 10162
  140.7272  143.2649  151.4080 LP  0  0  0  0  0  0  0  0  0  0  0  0  # atno 17343 bound_to 10162
  157.6121  131.0935  150.8776 LP  0  0  0  0  0  0  0  0  0  0  0  0  # atno 17370 bound_to 10713
  156.8913  130.5214  149.5286 LP  0  0  0  0  0  0  0  0  0  0  0  0  # atno 17371 bound_to 10713
  140.8880  134.2530  157.5110 LP  0  0  0  0  0  0  0  0  0  0  0  0  # atno 17394 bound_to 11000
  139.8703  134.9647  156.4505 LP  0  0  0  0  0  0  0  0  0  0  0  0  # atno 17395 bound_to 11000

$$$$
