AV-unprocessed.smi:266|AV-procd|sdf|2033|dock2
  -GOLD-   2262021243D 1   1.00000     0.00000
 Structure written by MMmdl.
 52 55  0  0  0  0  0  0  0  0  1 V2000
  145.6703  137.7184  162.5343 C   0  0  0  0  0  0  0  0  0  0  0  0
  146.1479  136.5217  161.6934 C   0  0  2  0  0  0  0  0  0  0  0  0
  145.3084  135.4176  162.0372 O   0  0  0  0  0  0  0  0  0  0  0  0
  146.0913  134.2882  162.3963 C   0  0  0  0  0  0  0  0  0  0  0  0
  147.3866  134.8927  162.9146 C   0  0  0  0  0  0  0  0  0  0  0  0
  147.6032  136.0553  161.9526 C   0  0  2  0  0  0  0  0  0  0  0  0
  148.3893  137.0429  162.5964 O   0  0  0  0  0  0  0  0  0  0  0  0
  148.3043  135.6588  160.6250 C   0  0  0  0  0  0  0  0  0  0  0  0
  148.4101  136.7403  159.6572 N   0  0  0  0  0  0  0  0  0  0  0  0
  147.3720  137.3539  158.9955 C   0  0  0  0  0  0  0  0  0  0  0  0
  147.7231  138.3017  158.1715 N   0  0  0  0  0  0  0  0  0  0  0  0
  149.1093  138.3551  158.2722 C   0  0  0  0  0  0  0  0  0  0  0  0
  150.1289  139.1406  157.6548 C   0  0  0  0  0  0  0  0  0  0  0  0
  149.8994  140.0738  156.6889 N   0  0  0  0  0  0  0  0  0  0  0  0
  148.5134  140.4009  156.3626 C   0  0  0  0  0  0  0  0  0  0  0  0
  150.9034  141.1143  156.4590 C   0  0  0  0  0  0  0  0  0  0  0  0
  150.9044  142.2241  157.5327 C   0  0  2  0  0  0  0  0  0  0  0  0
  151.6616  143.4773  157.0514 C   0  0  0  0  0  0  0  0  0  0  0  0
  151.8647  144.4187  158.2420 C   0  0  0  0  0  0  0  0  0  0  0  0
  152.1274  143.3266  159.6863 S   0  0  0  0  0  0  0  0  0  0  0  0
  153.5691  143.1955  159.9463 O   0  0  0  0  0  0  0  0  0  0  0  0
  151.1959  143.7119  160.7571 O   0  0  0  0  0  0  0  0  0  0  0  0
  151.5316  141.7965  158.8734 C   0  0  0  0  0  0  0  0  0  0  0  0
  151.4090  138.9135  158.0572 N   0  0  0  0  0  0  0  0  0  0  0  0
  151.6825  137.9793  158.9714 C   0  0  0  0  0  0  0  0  0  0  0  0
  150.8405  137.1641  159.6060 N   0  0  0  0  0  0  0  0  0  0  0  0
  149.5524  137.3899  159.2228 C   0  0  0  0  0  0  0  0  0  0  0  0
  146.2399  138.6190  162.3035 H   0  0  0  0  0  0  0  0  0  0  0  0
  145.7691  137.5198  163.6019 H   0  0  0  0  0  0  0  0  0  0  0  0
  144.6210  137.9371  162.3349 H   0  0  0  0  0  0  0  0  0  0  0  0
  146.0033  136.7592  160.6386 H   0  0  0  0  0  0  0  0  0  0  0  0
  145.5866  133.6721  163.1405 H   0  0  0  0  0  0  0  0  0  0  0  0
  146.2729  133.6761  161.5121 H   0  0  0  0  0  0  0  0  0  0  0  0
  147.2209  135.2642  163.9275 H   0  0  0  0  0  0  0  0  0  0  0  0
  148.2067  134.1777  162.9628 H   0  0  0  0  0  0  0  0  0  0  0  0
  149.0902  136.6132  163.0624 H   0  0  0  0  0  0  0  0  0  0  0  0
  149.3115  135.2905  160.8236 H   0  0  0  0  0  0  0  0  0  0  0  0
  147.7728  134.8305  160.1540 H   0  0  0  0  0  0  0  0  0  0  0  0
  146.3397  137.0683  159.1380 H   0  0  0  0  0  0  0  0  0  0  0  0
  147.9384  139.4962  156.1614 H   0  0  0  0  0  0  0  0  0  0  0  0
  148.4630  141.0278  155.4721 H   0  0  0  0  0  0  0  0  0  0  0  0
  148.0376  140.9406  157.1823 H   0  0  0  0  0  0  0  0  0  0  0  0
  151.9011  140.6986  156.3430 H   0  0  0  0  0  0  0  0  0  0  0  0
  150.6800  141.5671  155.4923 H   0  0  0  0  0  0  0  0  0  0  0  0
  149.8760  142.5316  157.7275 H   0  0  0  0  0  0  0  0  0  0  0  0
  152.6384  143.1806  156.6672 H   0  0  0  0  0  0  0  0  0  0  0  0
  151.1381  143.9774  156.2360 H   0  0  0  0  0  0  0  0  0  0  0  0
  152.7118  145.0933  158.1168 H   0  0  0  0  0  0  0  0  0  0  0  0
  150.9676  145.0105  158.4243 H   0  0  0  0  0  0  0  0  0  0  0  0
  150.8286  141.2791  159.5263 H   0  0  0  0  0  0  0  0  0  0  0  0
  152.3971  141.1530  158.7161 H   0  0  0  0  0  0  0  0  0  0  0  0
  152.7260  137.8644  159.2259 H   0  0  0  0  0  0  0  0  0  0  0  0
  1  2  1  0  0  0  0
  1 28  1  0  0  0  0
  1 29  1  0  0  0  0
  1 30  1  0  0  0  0
  2  6  1  0  0  0  0
  2  3  1  0  0  0  0
  2 31  1  0  0  0  0
  3  4  1  0  0  0  0
  4  5  1  0  0  0  0
  4 32  1  0  0  0  0
  4 33  1  0  0  0  0
  5  6  1  0  0  0  0
  5 34  1  0  0  0  0
  5 35  1  0  0  0  0
  6  7  1  0  0  0  0
  6  8  1  0  0  0  0
  7 36  1  0  0  0  0
  8  9  1  0  0  0  0
  8 37  1  0  0  0  0
  8 38  1  0  0  0  0
  9 27  1  0  0  0  0
  9 10  1  0  0  0  0
 10 11  2  0  0  0  0
 10 39  1  0  0  0  0
 11 12  1  0  0  0  0
 12 27  2  0  0  0  0
 12 13  1  0  0  0  0
 13 14  1  0  0  0  0
 13 24  2  0  0  0  0
 14 15  1  0  0  0  0
 14 16  1  0  0  0  0
 15 40  1  0  0  0  0
 15 41  1  0  0  0  0
 15 42  1  0  0  0  0
 16 17  1  0  0  0  0
 16 43  1  0  0  0  0
 16 44  1  0  0  0  0
 17 23  1  0  0  0  0
 17 18  1  0  0  0  0
 17 45  1  0  0  0  0
 18 19  1  0  0  0  0
 18 46  1  0  0  0  0
 18 47  1  0  0  0  0
 19 20  1  0  0  0  0
 19 48  1  0  0  0  0
 19 49  1  0  0  0  0
 20 21  2  0  0  0  0
 20 22  2  0  0  0  0
 20 23  1  0  0  0  0
 23 50  1  0  0  0  0
 23 51  1  0  0  0  0
 24 25  1  0  0  0  0
 25 26  2  0  0  0  0
 25 52  1  0  0  0  0
 26 27  1  0  0  0  0
M  END
> <s_m_source_file>
AV-unprocessed.smi

> <i_m_source_file_index>
266

> <i_lp_mmshare_version>
43012

> <i_f3d_flags>
0

> <s_epik_input>
W0NIMl0xW0NIMl1PW0NAQEhdKFtDSDNdKVtDQEBdMShbT0hdKVtDSDJdbihbY0hdbjIpYyhjMjMpbltjSF1uYzNOKFtDSDNdKVtDSDJdW0NAQEhdKFtDSDJdNClbQ0gyXVtDSDJdUzQoPU8pPU8=

> <s_epik_cmdline>
J2VwaWtfcHl0aG9uJywgJy1waCcsICc3LjAnLCAnLXRuJywgJzgnLCAnLW1hJywgJzIwMCcsICctbWV0YWxfYmluZGluZycsICctaW1hZScsICc8aW5maWxlLm1hZT4nLCAnLW9tYWUnLCAnPG91dGZpbGUubWFlPic=

> <r_lp_tautomer_probability>
1

> <r_epik_Ionization_Penalty>
0.00155497

> <r_epik_Ionization_Penalty_Charging>
0

> <r_epik_Ionization_Penalty_Neutral>
0.00155497

> <r_epik_State_Penalty>
-0

> <r_epik_Charging_Adjusted_Penalty>
0

> <i_epik_Tot_Q>
0

> <i_epik_Tot_abs_Q>
0

> <r_epik_Metal_State_Penalty>
-0

> <b_epik_Metal_Only>
0

> <s_lp_Force_Field>
OPLS_2005

> <r_lp_Energy>
29.9122

> <b_lp_Chiralities_Consistent>
1

> <s_lp_Variant>
AV-unprocessed.smi:266-3

> <Gold.Version>
5.8.1

> <Gold.Id.Protein>
6NUR|6NUR_protein|mol2

> <Gold.PLP.Fitness>
52.3345

> <Gold.PLP.PLP>
-46.7556

> <Gold.PLP.part.hbond>
-2.9393

> <Gold.PLP.part.metal>
0.0000

> <Gold.PLP.part.buried>
-8.1050

> <Gold.PLP.part.nonpolar>
-36.4547

> <Gold.PLP.part.repulsive>
0.1362

> <Gold.PLP.ligand.clash>
0.0000

> <Gold.PLP.ligand.torsion>
0.5042

> <Gold.PLP.Chemscore.Hbond>
1.9750

> <Gold.PLP.Chemscore.CHOScore>
0.0000

> <Gold.PLP.Chemscore.Metal>
0.0000

> <Gold.Chemscore.Hbonds>
donor molecule, donor type, donor heavy atom, donor atom, acceptor molecule, acceptor atom, score
      P1  H  6896  6909       L1    26  0.84
      P1  H  6931  6943       L1     7  0.94

> <Gold.PLP.Chemscore.Internal.Correction>
0.6622

> <Gold.Rescore>
     Score         DG    S(hbond)    S(metal)    S(lipo)     H(rot)  DE(clash)    DE(int)     intcor
     12.32     -15.53       1.70        0.00      90.90       2.45       0.30       2.92       ----

> <Gold.Chemscore.Fitness>
12.3194

> <Gold.Chemscore.DG>
-15.5312

> <Gold.Chemscore.ZeroCoef>
-5.4800

> <Gold.Chemscore.Hbond>
1.7008

> <Gold.Chemscore.Metal>
0.0000

> <Gold.Chemscore.Lipo>
90.8966

> <Gold.Chemscore.Internal_Hbond>
0.0000

> <Gold.Chemscore.DEClash>
0.2955

> <Gold.Chemscore.DEInternal>
2.9163

> <Gold.Chemscore.Rot>
2.4471

> <Gold.Chemscore.Internal.Correction>
   9.000000E+99

> <Gold.Chemscore.Hbonds>
donor molecule, donor type, donor heavy atom, donor atom, acceptor molecule, acceptor atom, score
      P1  H  6896  6909       L1    26  0.69
      P1  H  6931  6943       L1     7  0.38

> <Gold.Chemscore.Hbond.Weighted>
-5.6808

> <Gold.Chemscore.Metal.Weighted>
-0.0000

> <Gold.Chemscore.Lipo.Weighted>
-10.6349

> <Gold.Chemscore.Internal_Hbond.Weighted>
0.0000

> <Gold.Chemscore.DEClash.Weighted>
0.2955

> <Gold.Chemscore.DEInternal.Weighted>
2.9163

> <Gold.Chemscore.Rot.Weighted>
6.2645

> <Gold.Chemscore.Internal.Correction.Weighted>
   9.000000E+99

> <Gold.Protein.RotatedTorsions>
[ 6907 6896 6895 6894 ] final  100.86 input  -60.11 | X-H torsion
[ 7974 7965 7964 7962 ] final  112.08 input  175.53 | X-H torsion
[ 8008 7997 7996 7995 ] final  170.56 input   59.86 | X-H torsion
[ 10167 10162 10161 10158 ] final  101.65 input  -65.29 | X-H torsion
[ 10718 10713 10712 10709 ] final    2.24 input   66.30 | X-H torsion
[ 10763 10752 10751 10750 ] final -175.56 input  -60.55 | X-H torsion
[ 11005 11000 10999 10996 ] final -173.93 input  -57.11 | X-H torsion

> <Gold.Protein.ActiveResidues>
 VAL166  LYS551  ARG553  GLY616  TRP617  ASP618  TYR619  PRO620  LYS621  CYS622 
 ASP623  PHE694  ASN695  SER759  ASP760  ASP761  ALA762  ILE779  LEU786  VAL792 
 PHE793  MET794  SER795  GLU796  ALA797  LYS798  CYS799  TRP800  GLU811  SER814 

> <Gold.Protein.RotatedAtoms>
  152.5362  134.0213  159.7982 H   0  0  0  0  0  0  0  0  0  0  0  0  # atno 6907 bound_to 6896
  151.0399  133.5708  159.2659 H   0  0  0  0  0  0  0  0  0  0  0  0  # atno 6908 bound_to 6896
  151.2682  135.0683  159.9177 H   0  0  0  0  0  0  0  0  0  0  0  0  # atno 6909 bound_to 6896
  145.2341  139.2807  143.4152 H   0  0  0  0  0  0  0  0  0  0  0  0  # atno 7974 bound_to 7965
  156.1354  140.1535  156.9003 H   0  0  0  0  0  0  0  0  0  0  0  0  # atno 8008 bound_to 7997
  154.4943  140.0842  156.7701 H   0  0  0  0  0  0  0  0  0  0  0  0  # atno 8009 bound_to 7997
  155.4179  140.3421  155.4271 H   0  0  0  0  0  0  0  0  0  0  0  0  # atno 8010 bound_to 7997
  139.7419  144.7009  151.0563 H   0  0  0  0  0  0  0  0  0  0  0  0  # atno 10167 bound_to 10162
  156.8601  130.5584  149.5663 H   0  0  0  0  0  0  0  0  0  0  0  0  # atno 10718 bound_to 10713
  154.5829  135.2838  155.0714 H   0  0  0  0  0  0  0  0  0  0  0  0  # atno 10763 bound_to 10752
  154.2043  135.6419  153.5100 H   0  0  0  0  0  0  0  0  0  0  0  0  # atno 10764 bound_to 10752
  153.0094  135.5476  154.6489 H   0  0  0  0  0  0  0  0  0  0  0  0  # atno 10765 bound_to 10752
  140.4802  134.6083  157.4916 H   0  0  0  0  0  0  0  0  0  0  0  0  # atno 11005 bound_to 11000
  146.3345  140.2685  142.8605 LP  0  0  0  0  0  0  0  0  0  0  0  0  # atno 17320 bound_to 7965
  144.9649  140.8312  143.5490 LP  0  0  0  0  0  0  0  0  0  0  0  0  # atno 17321 bound_to 7965
  140.7787  143.4914  150.9888 LP  0  0  0  0  0  0  0  0  0  0  0  0  # atno 17342 bound_to 10162
  139.8602  143.7324  152.3174 LP  0  0  0  0  0  0  0  0  0  0  0  0  # atno 17343 bound_to 10162
  156.0781  130.5798  150.9512 LP  0  0  0  0  0  0  0  0  0  0  0  0  # atno 17370 bound_to 10713
  157.6255  131.0926  150.8542 LP  0  0  0  0  0  0  0  0  0  0  0  0  # atno 17371 bound_to 10713
  139.9831  134.7105  155.9823 LP  0  0  0  0  0  0  0  0  0  0  0  0  # atno 17394 bound_to 11000
  141.1535  133.6545  156.4087 LP  0  0  0  0  0  0  0  0  0  0  0  0  # atno 17395 bound_to 11000

$$$$
