#       Name:                AV-unprocessed.smi:2452
#       Creating user name   scv26
#       Creation time:       Fri Mar 27 13:32:26 2020


#       File generated by GOLD software.
#

@<TRIPOS>MOLECULE
AV-unprocessed.smi:2452
    41    42     1
SMALL
NO_CHARGES


@<TRIPOS>ATOM
      1 ****        -2.9514  -1.6569  -0.3586 C.3            1 S1                 0.0000
      2 ****        -3.3963  -0.2968  -0.8201 C.2            1 S1                 0.0000
      3 ****        -4.6477  -0.1317  -1.2230 N.2            1 S1                 0.0000
      4 ****        -4.7595   1.1980  -1.6577 O.3            1 S1                 0.0000
      5 ****        -3.5580   1.8134  -1.5039 C.2            1 S1                 0.0000
      6 ****        -3.4675   3.2396  -1.9297 C.3            1 S1                 0.0000
      7 ****        -2.6783   0.9277  -0.9554 C.2            1 S1                 0.0000
      8 ****        -1.3172   1.2082  -0.6773 N.am           1 S1                 0.0000
      9 ****        -0.5939   0.7350   0.3486 C.2            1 S1                 0.0000
     10 ****        -1.0379   0.0337   1.2576 O.2            1 S1                 0.0000
     11 ****         0.6817   1.1389   0.2778 N.am           1 S1                 0.0000
     12 ****         1.7256   0.7770   1.2299 C.3            1 S1                 0.0000
     13 ****         2.2354  -0.6549   0.9945 C.3            1 S1                 0.0000
     14 ****         3.3166  -1.0957   1.9761 C.3            1 S1                 0.0000
     15 ****         4.0081  -2.2233   1.2305 C.3            1 S1                 0.0000
     16 ****         3.6834  -1.9469  -0.2414 C.3            1 S1                 0.0000
     17 ****         2.9075  -0.7542  -0.2511 O.3            1 S1                 0.0000
     18 ****        -1.9104  -1.8426  -0.6231 H              1 S1                 0.0000
     19 ****        -3.5473  -2.4477  -0.8154 H              1 S1                 0.0000
     20 ****        -3.0469  -1.7549   0.7227 H              1 S1                 0.0000
     21 ****        -2.4287   3.5583  -2.0153 H              1 S1                 0.0000
     22 ****        -3.9621   3.8886  -1.2072 H              1 S1                 0.0000
     23 ****        -3.9455   3.3854  -2.8985 H              1 S1                 0.0000
     24 ****        -0.8701   1.8838  -1.2792 H              1 S1                 0.0000
     25 ****         0.9581   1.7180  -0.5014 H              1 S1                 0.0000
     26 ****         2.5451   1.4891   1.1303 H              1 S1                 0.0000
     27 ****         1.3465   0.8806   2.2481 H              1 S1                 0.0000
     28 ****         1.4114  -1.3710   1.0136 H              1 S1                 0.0000
     29 ****         4.0235  -0.2831   2.1497 H              1 S1                 0.0000
     30 ****         2.9132  -1.4064   2.9403 H              1 S1                 0.0000
     31 ****         5.0811  -2.2356   1.4239 H              1 S1                 0.0000
     32 ****         3.6009  -3.1900   1.5293 H              1 S1                 0.0000
     33 ****         4.5812  -1.8200  -0.8470 H              1 S1                 0.0000
     34 ****         3.1001  -2.7649  -0.6660 H              1 S1                 0.0000
     35 ****        -5.3722  -0.8210  -1.2183 LP             1 S1                 0.0000
     36 ****        -5.4517   1.6721  -1.1135 LP             1 S1                 0.0000
     37 ****        -5.0244   1.2149  -2.6219 LP             1 S1                 0.0000
     38 ****        -2.0046  -0.2223   1.2649 LP             1 S1                 0.0000
     39 ****        -0.4320  -0.2799   1.9886 LP             1 S1                 0.0000
     40 ****         3.5049   0.0377  -0.3780 LP             1 S1                 0.0000
     41 ****         2.2397  -0.7904  -0.9946 LP             1 S1                 0.0000
@<TRIPOS>BOND
    1    1    2 1     
    2    1   18 1     
    3    1   19 1     
    4    1   20 1     
    5    2    7 1     
    6    2    3 2     
    7    3    4 1     
    8    4    5 1     
    9    5    6 1     
   10    5    7 2     
   11    6   21 1     
   12    6   22 1     
   13    6   23 1     
   14    7    8 1     
   15    8    9 am    
   16    8   24 1     
   17    9   10 2     
   18    9   11 am    
   19   11   12 1     
   20   11   25 1     
   21   12   13 1     
   22   12   26 1     
   23   12   27 1     
   24   13   17 1     
   25   13   14 1     
   26   13   28 1     
   27   14   15 1     
   28   14   29 1     
   29   14   30 1     
   30   15   16 1     
   31   15   31 1     
   32   15   32 1     
   33   16   17 1     
   34   16   33 1     
   35   16   34 1     
   36    3   35 1     
   37    4   36 1     
   38    4   37 1     
   39   10   38 1     
   40   10   39 1     
   41   17   40 1     
   42   17   41 1     
@<TRIPOS>SUBSTRUCTURE
      1 S1             1
@<TRIPOS>SET
LONE_PAIRS      STATIC     ATOMS    <user>   **** ""
7 35 36 37 38 39 40 41
DONOR_HYDROGENS      STATIC     ATOMS    <user>   **** ""
2 24 25
ATOM$BLUE        STATIC     ATOMS    COLORGROUP SYSTEM
7 35 36 37 38 39 40 41
ATOM$RED        STATIC     ATOMS    COLORGROUP SYSTEM
2 24 25
