AV-unprocessed.smi:2641|AV-procd|sdf|10272|dock1
  -GOLD-   2272014283D 1   1.00000     0.00000
 Structure written by MMmdl.
 39 40  0  0  0  0  0  0  0  0  2 V2000
  153.1149  143.1820  163.0711 C   0  0  0  0  0  0  0  0  0  0  0  0
  152.7830  143.1693  161.5936 C   0  0  0  0  0  0  0  0  0  0  0  0
  153.2907  142.1615  160.7466 C   0  0  0  0  0  0  0  0  0  0  0  0
  152.9462  142.1972  159.3817 C   0  0  0  0  0  0  0  0  0  0  0  0
  152.1104  143.2340  158.9174 C   0  0  0  0  0  0  0  0  0  0  0  0
  151.7032  143.3121  157.4567 C   0  0  0  0  0  0  0  0  0  0  0  0
  150.9383  142.0540  157.0417 C   0  0  0  0  0  0  0  0  0  0  0  0
  151.4311  140.9498  157.2678 O   0  0  0  0  0  0  0  0  0  0  0  0
  149.7484  142.2677  156.4486 N   0  0  0  0  0  0  0  0  0  0  0  0
  148.7223  141.3476  155.9298 C   0  0  0  0  0  0  0  0  0  0  0  0
  147.4518  141.6515  156.7660 C   0  0  0  0  0  0  0  0  0  0  0  0
  146.4631  142.1389  156.1729 O   0  0  0  0  0  0  0  0  0  0  0  0
  147.4964  141.4386  157.9985 O   0  5  0  0  0  0  0  0  0  0  0  0
  148.5093  141.7089  154.4312 C   0  0  0  0  0  0  0  0  0  0  0  0
  147.4916  140.7972  153.7170 C   0  0  0  0  0  0  0  0  0  0  0  0
  147.8869  139.3187  153.8376 C   0  0  0  0  0  0  0  0  0  0  0  0
  148.0786  138.9146  155.3062 C   0  0  0  0  0  0  0  0  0  0  0  0
  149.0993  139.8326  156.0069 C   0  0  0  0  0  0  0  0  0  0  0  0
  151.6599  144.1951  159.8472 C   0  0  0  0  0  0  0  0  0  0  0  0
  151.9846  144.1689  161.1579 N   0  0  0  0  0  0  0  0  0  0  0  0
  153.6852  142.2974  163.3562 H   0  0  0  0  0  0  0  0  0  0  0  0
  152.2016  143.2023  163.6667 H   0  0  0  0  0  0  0  0  0  0  0  0
  153.7073  144.0632  163.3184 H   0  0  0  0  0  0  0  0  0  0  0  0
  153.9284  141.3784  161.1303 H   0  0  0  0  0  0  0  0  0  0  0  0
  153.3173  141.4414  158.7047 H   0  0  0  0  0  0  0  0  0  0  0  0
  151.0705  144.1853  157.2933 H   0  0  0  0  0  0  0  0  0  0  0  0
  152.5908  143.4477  156.8366 H   0  0  0  0  0  0  0  0  0  0  0  0
  149.4917  143.2397  156.3561 H   0  0  0  0  0  0  0  0  0  0  0  0
  148.2049  142.7505  154.3177 H   0  0  0  0  0  0  0  0  0  0  0  0
  149.4649  141.6329  153.9099 H   0  0  0  0  0  0  0  0  0  0  0  0
  146.4950  140.9458  154.1340 H   0  0  0  0  0  0  0  0  0  0  0  0
  147.4241  141.0749  152.6648 H   0  0  0  0  0  0  0  0  0  0  0  0
  147.1266  138.6899  153.3738 H   0  0  0  0  0  0  0  0  0  0  0  0
  148.8125  139.1432  153.2878 H   0  0  0  0  0  0  0  0  0  0  0  0
  147.1202  138.9471  155.8254 H   0  0  0  0  0  0  0  0  0  0  0  0
  148.4176  137.8798  155.3608 H   0  0  0  0  0  0  0  0  0  0  0  0
  150.0628  139.6739  155.5212 H   0  0  0  0  0  0  0  0  0  0  0  0
  149.2264  139.5069  157.0403 H   0  0  0  0  0  0  0  0  0  0  0  0
  151.0203  145.0065  159.5317 H   0  0  0  0  0  0  0  0  0  0  0  0
  1  2  1  0  0  0  0
  1 21  1  0  0  0  0
  1 22  1  0  0  0  0
  1 23  1  0  0  0  0
  2 20  1  0  0  0  0
  2  3  2  0  0  0  0
  3  4  1  0  0  0  0
  3 24  1  0  0  0  0
  4  5  2  0  0  0  0
  4 25  1  0  0  0  0
  5  6  1  0  0  0  0
  5 19  1  0  0  0  0
  6  7  1  0  0  0  0
  6 26  1  0  0  0  0
  6 27  1  0  0  0  0
  7  8  2  0  0  0  0
  7  9  1  0  0  0  0
  9 10  1  0  0  0  0
  9 28  1  0  0  0  0
 10 18  1  0  0  0  0
 10 11  1  0  0  0  0
 10 14  1  0  0  0  0
 11 12  2  0  0  0  0
 11 13  1  0  0  0  0
 14 15  1  0  0  0  0
 14 29  1  0  0  0  0
 14 30  1  0  0  0  0
 15 16  1  0  0  0  0
 15 31  1  0  0  0  0
 15 32  1  0  0  0  0
 16 17  1  0  0  0  0
 16 33  1  0  0  0  0
 16 34  1  0  0  0  0
 17 18  1  0  0  0  0
 17 35  1  0  0  0  0
 17 36  1  0  0  0  0
 18 37  1  0  0  0  0
 18 38  1  0  0  0  0
 19 20  2  0  0  0  0
 19 39  1  0  0  0  0
M  CHG  1  13  -1
M  END
> <s_m_source_file>
AV-unprocessed.smi

> <i_m_source_file_index>
2641

> <i_lp_mmshare_version>
43012

> <i_f3d_flags>
0

> <s_epik_input>
W0NIM11jMVtjSF1bY0hdYyhbY0hdbjEpW0NIMl1DKD1PKVtOSF1DMihDKD1PKVtPSF0pW0NIMl1bQ0gyXVtDSDJdW0NIMl1bQ0gyXTI=

> <s_epik_cmdline>
J2VwaWtfcHl0aG9uJywgJy1waCcsICc3LjAnLCAnLXRuJywgJzgnLCAnLW1hJywgJzIwMCcsICctbWV0YWxfYmluZGluZycsICctaW1hZScsICc8aW5maWxlLm1hZT4nLCAnLW9tYWUnLCAnPG91dGZpbGUubWFlPic=

> <r_epik_Ionization_Penalty>
0.0190831

> <r_epik_Ionization_Penalty_Charging>
0.000391215

> <r_epik_Ionization_Penalty_Neutral>
0.0186919

> <r_epik_State_Penalty>
0.0148876

> <r_epik_Charging_Adjusted_Penalty>
0.0152789

> <i_epik_Tot_Q>
-1

> <i_epik_Tot_abs_Q>
1

> <r_epik_Metal_State_Penalty>
0.0144298

> <b_epik_Metal_Only>
0

> <s_lp_Force_Field>
OPLS_2005

> <r_lp_Energy>
4.43457

> <b_lp_Chiralities_Consistent>
1

> <s_lp_Variant>
AV-unprocessed.smi:2641-1

> <Gold.Version>
5.8.1

> <Gold.Id.Protein>
6NUR|6NUR_protein|mol2

> <Gold.PLP.Fitness>
43.7042

> <Gold.PLP.PLP>
-40.8150

> <Gold.PLP.part.hbond>
-1.2712

> <Gold.PLP.part.metal>
0.0000

> <Gold.PLP.part.buried>
-5.4991

> <Gold.PLP.part.nonpolar>
-33.3921

> <Gold.PLP.part.repulsive>
0.3732

> <Gold.PLP.ligand.clash>
0.0000

> <Gold.PLP.ligand.torsion>
0.0975

> <Gold.PLP.Chemscore.Hbond>
1.0000

> <Gold.PLP.Chemscore.CHOScore>
0.0000

> <Gold.PLP.Chemscore.Metal>
0.0000

> <Gold.Chemscore.Hbonds>
donor molecule, donor type, donor heavy atom, donor atom, acceptor molecule, acceptor atom, score
      L1  H     9    28       P1  8028  1.00

> <Gold.PLP.Chemscore.Internal.Correction>
0.0842

> <Gold.Rescore>
     Score         DG    S(hbond)    S(metal)    S(lipo)     H(rot)  DE(clash)    DE(int)     intcor
     13.43     -17.33       1.00        0.00     113.29       1.85       0.10       3.80       ----

> <Gold.Chemscore.Fitness>
13.4294

> <Gold.Chemscore.DG>
-17.3297

> <Gold.Chemscore.ZeroCoef>
-5.4800

> <Gold.Chemscore.Hbond>
0.9953

> <Gold.Chemscore.Metal>
0.0000

> <Gold.Chemscore.Lipo>
113.2899

> <Gold.Chemscore.Internal_Hbond>
0.0000

> <Gold.Chemscore.DEClash>
0.1012

> <Gold.Chemscore.DEInternal>
3.7991

> <Gold.Chemscore.Rot>
1.8474

> <Gold.Chemscore.Internal.Correction>
   9.000000E+99

> <Gold.Chemscore.Hbonds>
donor molecule, donor type, donor heavy atom, donor atom, acceptor molecule, acceptor atom, score
      L1  H     9    28       P1  8028  1.00

> <Gold.Chemscore.Hbond.Weighted>
-3.3242

> <Gold.Chemscore.Metal.Weighted>
-0.0000

> <Gold.Chemscore.Lipo.Weighted>
-13.2549

> <Gold.Chemscore.Internal_Hbond.Weighted>
0.0000

> <Gold.Chemscore.DEClash.Weighted>
0.1012

> <Gold.Chemscore.DEInternal.Weighted>
3.7991

> <Gold.Chemscore.Rot.Weighted>
4.7294

> <Gold.Chemscore.Internal.Correction.Weighted>
   9.000000E+99

> <Gold.Protein.RotatedTorsions>
[ 6907 6896 6895 6894 ] final  134.63 input  -60.11 | X-H torsion
[ 7974 7965 7964 7962 ] final -121.99 input  175.53 | X-H torsion
[ 8008 7997 7996 7995 ] final  135.14 input   59.86 | X-H torsion
[ 10167 10162 10161 10158 ] final -157.70 input  -65.29 | X-H torsion
[ 10718 10713 10712 10709 ] final  132.52 input   66.30 | X-H torsion
[ 10763 10752 10751 10750 ] final  -37.93 input  -60.55 | X-H torsion
[ 11005 11000 10999 10996 ] final  157.46 input  -57.11 | X-H torsion

> <Gold.Protein.ActiveResidues>
 VAL166  LYS551  ARG553  GLY616  TRP617  ASP618  TYR619  PRO620  LYS621  CYS622 
 ASP623  PHE694  ASN695  SER759  ASP760  ASP761  ALA762  ILE779  LEU786  VAL792 
 PHE793  MET794  SER795  GLU796  ALA797  LYS798  CYS799  TRP800  GLU811  SER814 

> <Gold.Protein.RotatedAtoms>
  152.3092  133.5735  159.5669 H   0  0  0  0  0  0  0  0  0  0  0  0  # atno 6907 bound_to 6896
  150.7315  134.0177  159.3699 H   0  0  0  0  0  0  0  0  0  0  0  0  # atno 6908 bound_to 6896
  151.8071  135.0692  160.0459 H   0  0  0  0  0  0  0  0  0  0  0  0  # atno 6909 bound_to 6896
  145.0343  140.8093  143.4304 H   0  0  0  0  0  0  0  0  0  0  0  0  # atno 7974 bound_to 7965
  156.3002  140.2478  156.3533 H   0  0  0  0  0  0  0  0  0  0  0  0  # atno 8008 bound_to 7997
  154.8945  140.0408  157.1877 H   0  0  0  0  0  0  0  0  0  0  0  0  # atno 8009 bound_to 7997
  154.8563  140.2914  155.5570 H   0  0  0  0  0  0  0  0  0  0  0  0  # atno 8010 bound_to 7997
  139.6750  143.9679  152.2305 H   0  0  0  0  0  0  0  0  0  0  0  0  # atno 10167 bound_to 10162
  157.4863  131.1088  150.9616 H   0  0  0  0  0  0  0  0  0  0  0  0  # atno 10718 bound_to 10713
  153.9044  135.6799  153.4754 H   0  0  0  0  0  0  0  0  0  0  0  0  # atno 10763 bound_to 10752
  153.1112  135.4782  154.9035 H   0  0  0  0  0  0  0  0  0  0  0  0  # atno 10764 bound_to 10752
  154.7559  135.3197  154.8426 H   0  0  0  0  0  0  0  0  0  0  0  0  # atno 10765 bound_to 10752
  140.1772  134.8501  157.2760 H   0  0  0  0  0  0  0  0  0  0  0  0  # atno 11005 bound_to 11000
  145.1729  139.2394  143.5332 LP  0  0  0  0  0  0  0  0  0  0  0  0  # atno 17320 bound_to 7965
  146.3502  140.1485  142.8593 LP  0  0  0  0  0  0  0  0  0  0  0  0  # atno 17321 bound_to 7965
  139.9454  144.6655  150.8225 LP  0  0  0  0  0  0  0  0  0  0  0  0  # atno 17342 bound_to 10162
  140.7632  143.3217  151.2607 LP  0  0  0  0  0  0  0  0  0  0  0  0  # atno 17343 bound_to 10162
  157.0333  130.5720  149.5346 LP  0  0  0  0  0  0  0  0  0  0  0  0  # atno 17370 bound_to 10713
  156.0148  130.5242  150.8102 LP  0  0  0  0  0  0  0  0  0  0  0  0  # atno 17371 bound_to 10713
  140.2309  134.3910  155.7522 LP  0  0  0  0  0  0  0  0  0  0  0  0  # atno 17394 bound_to 11000
  141.2221  133.7214  156.8639 LP  0  0  0  0  0  0  0  0  0  0  0  0  # atno 17395 bound_to 11000

$$$$
