AV-unprocessed.smi:1496|AV-procd|sdf|6057|dock7
  -GOLD-   22720 6173D 1   1.00000     0.00000
 Structure written by MMmdl.
 43 44  0  0  0  0  0  0  0  0  2 V2000
  145.4466  132.6633  150.6258 C   0  0  0  0  0  0  0  0  0  0  0  0
  146.2063  133.7283  151.4327 C   0  0  0  0  0  0  0  0  0  0  0  0
  147.7022  133.3499  151.4856 C   0  0  0  0  0  0  0  0  0  0  0  0
  145.9840  135.1225  150.8001 C   0  0  0  0  0  0  0  0  0  0  0  0
  146.4607  136.2093  151.6889 N   0  3  1  0  0  0  0  0  0  0  0  0
  146.3221  137.5495  151.0671 C   0  0  0  0  0  0  0  0  0  0  0  0
  146.4374  138.6895  152.0973 C   0  0  0  0  0  0  0  0  0  0  0  0
  147.8306  139.0152  152.3801 N   0  0  0  0  0  0  0  0  0  0  0  0
  148.3809  139.0249  153.6026 C   0  0  0  0  0  0  0  0  0  0  0  0
  147.7537  138.7552  154.6268 O   0  0  0  0  0  0  0  0  0  0  0  0
  149.6845  139.3472  153.5485 N   0  0  0  0  0  0  0  0  0  0  0  0
  150.6089  139.4759  154.6203 C   0  0  0  0  0  0  0  0  0  0  0  0
  150.2400  139.6874  155.9712 C   0  0  0  0  0  0  0  0  0  0  0  0
  151.2533  139.8191  156.9401 C   0  0  0  0  0  0  0  0  0  0  0  0
  152.5965  139.7411  156.5240 C   0  0  0  0  0  0  0  0  0  0  0  0
  152.9629  139.5533  155.2387 N   0  0  0  0  0  0  0  0  0  0  0  0
  151.9860  139.4292  154.3152 C   0  0  0  0  0  0  0  0  0  0  0  0
  145.8104  136.1048  153.0167 C   0  0  0  0  0  0  0  0  0  0  0  0
  146.0672  134.7200  153.6274 C   0  0  0  0  0  0  0  0  0  0  0  0
  145.6209  133.7014  152.7372 O   0  0  0  0  0  0  0  0  0  0  0  0
  145.8103  132.6080  149.5993 H   0  0  0  0  0  0  0  0  0  0  0  0
  144.3789  132.8823  150.5868 H   0  0  0  0  0  0  0  0  0  0  0  0
  145.5611  131.6743  151.0712 H   0  0  0  0  0  0  0  0  0  0  0  0
  148.1174  133.2625  150.4811 H   0  0  0  0  0  0  0  0  0  0  0  0
  147.8476  132.3913  151.9848 H   0  0  0  0  0  0  0  0  0  0  0  0
  148.3030  134.0908  152.0122 H   0  0  0  0  0  0  0  0  0  0  0  0
  146.4957  135.1765  149.8380 H   0  0  0  0  0  0  0  0  0  0  0  0
  144.9226  135.2798  150.5997 H   0  0  0  0  0  0  0  0  0  0  0  0
  147.1123  137.6842  150.3269 H   0  0  0  0  0  0  0  0  0  0  0  0
  145.3784  137.6028  150.5221 H   0  0  0  0  0  0  0  0  0  0  0  0
  145.9234  139.5894  151.7587 H   0  0  0  0  0  0  0  0  0  0  0  0
  145.9613  138.3940  153.0326 H   0  0  0  0  0  0  0  0  0  0  0  0
  148.4175  139.2433  151.5904 H   0  0  0  0  0  0  0  0  0  0  0  0
  150.0767  139.4612  152.6252 H   0  0  0  0  0  0  0  0  0  0  0  0
  149.2094  139.7661  156.2803 H   0  0  0  0  0  0  0  0  0  0  0  0
  151.0062  139.9806  157.9790 H   0  0  0  0  0  0  0  0  0  0  0  0
  153.3976  139.8380  157.2418 H   0  0  0  0  0  0  0  0  0  0  0  0
  152.3163  139.2827  153.2971 H   0  0  0  0  0  0  0  0  0  0  0  0
  146.1893  136.8695  153.6935 H   0  0  0  0  0  0  0  0  0  0  0  0
  144.7372  136.2737  152.9145 H   0  0  0  0  0  0  0  0  0  0  0  0
  147.1212  134.5885  153.8717 H   0  0  0  0  0  0  0  0  0  0  0  0
  145.5210  134.6223  154.5657 H   0  0  0  0  0  0  0  0  0  0  0  0
  147.4492  136.0521  151.8250 H   0  0  0  0  0  0  0  0  0  0  0  0
  1  2  1  0  0  0  0
  1 21  1  0  0  0  0
  1 22  1  0  0  0  0
  1 23  1  0  0  0  0
  2 20  1  0  0  0  0
  2  3  1  0  0  0  0
  2  4  1  0  0  0  0
  3 24  1  0  0  0  0
  3 25  1  0  0  0  0
  3 26  1  0  0  0  0
  4  5  1  0  0  0  0
  4 27  1  0  0  0  0
  4 28  1  0  0  0  0
  5  6  1  0  0  0  0
  5 18  1  0  0  0  0
  5 43  1  0  0  0  0
  6  7  1  0  0  0  0
  6 29  1  0  0  0  0
  6 30  1  0  0  0  0
  7  8  1  0  0  0  0
  7 31  1  0  0  0  0
  7 32  1  0  0  0  0
  8  9  1  0  0  0  0
  8 33  1  0  0  0  0
  9 10  2  0  0  0  0
  9 11  1  0  0  0  0
 11 12  1  0  0  0  0
 11 34  1  0  0  0  0
 12 17  1  0  0  0  0
 12 13  2  0  0  0  0
 13 14  1  0  0  0  0
 13 35  1  0  0  0  0
 14 15  2  0  0  0  0
 14 36  1  0  0  0  0
 15 16  1  0  0  0  0
 15 37  1  0  0  0  0
 16 17  2  0  0  0  0
 17 38  1  0  0  0  0
 18 19  1  0  0  0  0
 18 39  1  0  0  0  0
 18 40  1  0  0  0  0
 19 20  1  0  0  0  0
 19 41  1  0  0  0  0
 19 42  1  0  0  0  0
M  CHG  1   5   1
M  END
> <s_m_source_file>
AV-unprocessed.smi

> <i_m_source_file_index>
1496

> <i_lp_mmshare_version>
43012

> <i_f3d_flags>
0

> <s_epik_input>
W0NIM11DMShbQ0gzXSlbQ0gyXU4oW0NIMl1bQ0gyXU8xKVtDSDJdW0NIMl1bTkhdQyg9TylbTkhdYzJbY0hdW2NIXVtjSF1uW2NIXTI=

> <s_epik_cmdline>
J2VwaWtfcHl0aG9uJywgJy1waCcsICc3LjAnLCAnLXRuJywgJzgnLCAnLW1hJywgJzIwMCcsICctbWV0YWxfYmluZGluZycsICctaW1hZScsICc8aW5maWxlLm1hZT4nLCAnLW9tYWUnLCAnPG91dGZpbGUubWFlPic=

> <r_epik_Ionization_Penalty>
0.606681

> <r_epik_Ionization_Penalty_Charging>
0.602531

> <r_epik_Ionization_Penalty_Neutral>
0.00415082

> <r_epik_State_Penalty>
0.607427

> <r_epik_Charging_Adjusted_Penalty>
1.20996

> <i_epik_Tot_Q>
1

> <i_epik_Tot_abs_Q>
1

> <r_epik_Metal_State_Penalty>
0.604583

> <b_epik_Metal_Only>
0

> <s_lp_Force_Field>
OPLS_2005

> <r_lp_Energy>
21.2927

> <b_lp_Chiralities_Consistent>
1

> <s_lp_Variant>
AV-unprocessed.smi:1496-3

> <Gold.Version>
5.8.1

> <Gold.Id.Protein>
6NUR|6NUR_protein|mol2

> <Gold.PLP.Fitness>
43.9028

> <Gold.PLP.PLP>
-30.4869

> <Gold.PLP.part.hbond>
-4.8446

> <Gold.PLP.part.metal>
0.0000

> <Gold.PLP.part.buried>
0.8420

> <Gold.PLP.part.nonpolar>
-26.6957

> <Gold.PLP.part.repulsive>
0.4020

> <Gold.PLP.ligand.clash>
0.0000

> <Gold.PLP.ligand.torsion>
0.3827

> <Gold.PLP.Chemscore.Hbond>
4.7200

> <Gold.PLP.Chemscore.CHOScore>
0.0000

> <Gold.PLP.Chemscore.Metal>
0.0000

> <Gold.Chemscore.Hbonds>
donor molecule, donor type, donor heavy atom, donor atom, acceptor molecule, acceptor atom, score
      L1  H     5    43       P1  7948  1.79
      L1  H     8    33       P1  7957  0.77
      L1  H    11    34       P1  7957  0.78

> <Gold.PLP.Chemscore.Internal.Correction>
0.0213

> <Gold.Rescore>
     Score         DG    S(hbond)    S(metal)    S(lipo)     H(rot)  DE(clash)    DE(int)     intcor
     16.82     -19.87       2.76        0.00      77.18       1.50       1.67       1.38       ----

> <Gold.Chemscore.Fitness>
16.8184

> <Gold.Chemscore.DG>
-19.8728

> <Gold.Chemscore.ZeroCoef>
-5.4800

> <Gold.Chemscore.Hbond>
2.7562

> <Gold.Chemscore.Metal>
0.0000

> <Gold.Chemscore.Lipo>
77.1771

> <Gold.Chemscore.Internal_Hbond>
0.0000

> <Gold.Chemscore.DEClash>
1.6742

> <Gold.Chemscore.DEInternal>
1.3802

> <Gold.Chemscore.Rot>
1.5010

> <Gold.Chemscore.Internal.Correction>
   9.000000E+99

> <Gold.Chemscore.Hbonds>
donor molecule, donor type, donor heavy atom, donor atom, acceptor molecule, acceptor atom, score
      L1  H     5    43       P1  7948  0.85
      L1  H     8    33       P1  7957  0.67
      L1  H    11    34       P1  7957  0.72

> <Gold.Chemscore.Hbond.Weighted>
-9.2057

> <Gold.Chemscore.Metal.Weighted>
-0.0000

> <Gold.Chemscore.Lipo.Weighted>
-9.0297

> <Gold.Chemscore.Internal_Hbond.Weighted>
0.0000

> <Gold.Chemscore.DEClash.Weighted>
1.6742

> <Gold.Chemscore.DEInternal.Weighted>
1.3802

> <Gold.Chemscore.Rot.Weighted>
3.8426

> <Gold.Chemscore.Internal.Correction.Weighted>
   9.000000E+99

> <Gold.Protein.RotatedTorsions>
[ 6907 6896 6895 6894 ] final  -66.06 input  -60.11 | X-H torsion
[ 7974 7965 7964 7962 ] final  -91.35 input  175.53 | X-H torsion
[ 8008 7997 7996 7995 ] final -137.14 input   59.86 | X-H torsion
[ 10167 10162 10161 10158 ] final   21.32 input  -65.29 | X-H torsion
[ 10718 10713 10712 10709 ] final   52.16 input   66.30 | X-H torsion
[ 10763 10752 10751 10750 ] final  152.47 input  -60.55 | X-H torsion
[ 11005 11000 10999 10996 ] final  125.10 input  -57.11 | X-H torsion

> <Gold.Protein.ActiveResidues>
 VAL166  LYS551  ARG553  GLY616  TRP617  ASP618  TYR619  PRO620  LYS621  CYS622 
 ASP623  PHE694  ASN695  SER759  ASP760  ASP761  ALA762  ILE779  LEU786  VAL792 
 PHE793  MET794  SER795  GLU796  ALA797  LYS798  CYS799  TRP800  GLU811  SER814 

> <Gold.Protein.RotatedAtoms>
  150.7487  134.6074  159.6068 H   0  0  0  0  0  0  0  0  0  0  0  0  # atno 6907 bound_to 6896
  152.3418  134.7121  160.0270 H   0  0  0  0  0  0  0  0  0  0  0  0  # atno 6908 bound_to 6896
  151.7571  133.3295  159.3444 H   0  0  0  0  0  0  0  0  0  0  0  0  # atno 6909 bound_to 6896
  145.4143  140.9547  143.2216 H   0  0  0  0  0  0  0  0  0  0  0  0  # atno 7974 bound_to 7965
  155.4068  140.0509  157.3034 H   0  0  0  0  0  0  0  0  0  0  0  0  # atno 8008 bound_to 7997
  154.4965  140.2140  155.9397 H   0  0  0  0  0  0  0  0  0  0  0  0  # atno 8009 bound_to 7997
  156.1411  140.3154  155.8503 H   0  0  0  0  0  0  0  0  0  0  0  0  # atno 8010 bound_to 7997
  140.5436  143.9634  150.6534 H   0  0  0  0  0  0  0  0  0  0  0  0  # atno 10167 bound_to 10162
  157.5048  130.8462  149.8361 H   0  0  0  0  0  0  0  0  0  0  0  0  # atno 10718 bound_to 10713
  154.1206  135.2833  155.3209 H   0  0  0  0  0  0  0  0  0  0  0  0  # atno 10763 bound_to 10752
  154.6426  135.5397  153.7810 H   0  0  0  0  0  0  0  0  0  0  0  0  # atno 10764 bound_to 10752
  153.0314  135.6490  154.1360 H   0  0  0  0  0  0  0  0  0  0  0  0  # atno 10765 bound_to 10752
  139.9390  134.9637  156.8508 H   0  0  0  0  0  0  0  0  0  0  0  0  # atno 11005 bound_to 11000
  144.8288  139.5664  143.6953 LP  0  0  0  0  0  0  0  0  0  0  0  0  # atno 17320 bound_to 7965
  146.2689  139.6587  142.9310 LP  0  0  0  0  0  0  0  0  0  0  0  0  # atno 17321 bound_to 7965
  140.3041  143.3241  152.0943 LP  0  0  0  0  0  0  0  0  0  0  0  0  # atno 17342 bound_to 10162
  139.4998  144.6678  151.6315 LP  0  0  0  0  0  0  0  0  0  0  0  0  # atno 17343 bound_to 10162
  156.0252  130.3782  150.1845 LP  0  0  0  0  0  0  0  0  0  0  0  0  # atno 17370 bound_to 10713
  157.0035  130.9929  151.3385 LP  0  0  0  0  0  0  0  0  0  0  0  0  # atno 17371 bound_to 10713
  140.6000  134.0180  155.7533 LP  0  0  0  0  0  0  0  0  0  0  0  0  # atno 17394 bound_to 11000
  141.1017  133.9758  157.3068 LP  0  0  0  0  0  0  0  0  0  0  0  0  # atno 17395 bound_to 11000

$$$$
