AV-unprocessed.smi:308|AV-procd|sdf|2285|dock1
  -GOLD-   2262022183D 1   1.00000     0.00000
 Structure written by MMmdl.
 51 52  0  0  0  0  0  0  0  0  3 V2000
  146.1592  131.3802  151.8312 C   0  0  0  0  0  0  0  0  0  0  0  0
  146.7664  132.1799  152.9923 C   0  0  2  0  0  0  0  0  0  0  0  0
  146.2523  133.6289  153.0167 C   0  0  0  0  0  0  0  0  0  0  0  0
  146.8897  134.4285  154.1656 C   0  0  0  0  0  0  0  0  0  0  0  0
  148.3731  134.4092  154.0781 N   0  3  1  0  0  0  0  0  0  0  0  0
  149.0047  135.2823  155.0994 C   0  0  0  0  0  0  0  0  0  0  0  0
  150.4619  135.6408  154.7477 C   0  0  0  0  0  0  0  0  0  0  0  0
  150.6964  137.0785  154.8257 N   0  0  0  0  0  0  0  0  0  0  0  0
  150.9029  137.7606  155.9613 C   0  0  0  0  0  0  0  0  0  0  0  0
  150.9281  137.2303  157.0714 O   0  0  0  0  0  0  0  0  0  0  0  0
  151.0600  139.0740  155.7211 N   0  0  0  0  0  0  0  0  0  0  0  0
  151.3025  140.1236  156.6493 C   0  0  0  0  0  0  0  0  0  0  0  0
  152.1196  139.8398  157.7634 C   0  0  0  0  0  0  0  0  0  0  0  0
  152.3802  140.8439  158.7182 C   0  0  0  0  0  0  0  0  0  0  0  0
  151.8134  142.1323  158.5592 C   0  0  0  0  0  0  0  0  0  0  0  0
  152.0276  143.1895  159.4699 N   0  0  0  0  0  0  0  0  0  0  0  0
  152.9051  142.9925  160.6163 C   0  0  0  0  0  0  0  0  0  0  0  0
  151.3599  144.4701  159.2640 C   0  0  0  0  0  0  0  0  0  0  0  0
  151.0251  142.3536  157.4790 N   0  3  0  0  0  0  0  0  0  0  0  0
  150.7505  141.4224  156.5403 C   0  0  0  0  0  0  0  0  0  0  0  0
  148.8999  133.0181  154.0855 C   0  0  0  0  0  0  0  0  0  0  0  0
  148.3028  132.1909  152.9345 C   0  0  0  0  0  0  0  0  0  0  0  0
  146.4243  131.8149  150.8668 H   0  0  0  0  0  0  0  0  0  0  0  0
  145.0711  131.3566  151.8975 H   0  0  0  0  0  0  0  0  0  0  0  0
  146.5114  130.3483  151.8389 H   0  0  0  0  0  0  0  0  0  0  0  0
  146.4644  131.6957  153.9224 H   0  0  0  0  0  0  0  0  0  0  0  0
  146.4744  134.1174  152.0667 H   0  0  0  0  0  0  0  0  0  0  0  0
  145.1668  133.6387  153.1220 H   0  0  0  0  0  0  0  0  0  0  0  0
  146.5300  135.4575  154.1230 H   0  0  0  0  0  0  0  0  0  0  0  0
  146.5751  134.0220  155.1283 H   0  0  0  0  0  0  0  0  0  0  0  0
  148.4327  136.2084  155.1724 H   0  0  0  0  0  0  0  0  0  0  0  0
  148.9466  134.8080  156.0804 H   0  0  0  0  0  0  0  0  0  0  0  0
  151.1574  135.1641  155.4374 H   0  0  0  0  0  0  0  0  0  0  0  0
  150.7152  135.2766  153.7504 H   0  0  0  0  0  0  0  0  0  0  0  0
  150.6857  137.5906  153.9554 H   0  0  0  0  0  0  0  0  0  0  0  0
  150.9468  139.3646  154.7609 H   0  0  0  0  0  0  0  0  0  0  0  0
  152.5520  138.8576  157.8882 H   0  0  0  0  0  0  0  0  0  0  0  0
  153.0131  140.6063  159.5601 H   0  0  0  0  0  0  0  0  0  0  0  0
  152.5298  142.1909  161.2529 H   0  0  0  0  0  0  0  0  0  0  0  0
  152.9731  143.8953  161.2238 H   0  0  0  0  0  0  0  0  0  0  0  0
  153.9127  142.7357  160.2884 H   0  0  0  0  0  0  0  0  0  0  0  0
  150.2768  144.3456  159.2875 H   0  0  0  0  0  0  0  0  0  0  0  0
  151.6398  144.8984  158.3010 H   0  0  0  0  0  0  0  0  0  0  0  0
  151.6300  145.1879  160.0387 H   0  0  0  0  0  0  0  0  0  0  0  0
  150.0933  141.7582  155.7528 H   0  0  0  0  0  0  0  0  0  0  0  0
  149.9848  133.0208  153.9871 H   0  0  0  0  0  0  0  0  0  0  0  0
  148.6717  132.5462  155.0425 H   0  0  0  0  0  0  0  0  0  0  0  0
  148.6851  131.1705  152.9807 H   0  0  0  0  0  0  0  0  0  0  0  0
  148.6358  132.6017  151.9800 H   0  0  0  0  0  0  0  0  0  0  0  0
  148.6047  134.8085  153.1796 H   0  0  0  0  0  0  0  0  0  0  0  0
  150.6118  143.2796  157.3682 H   0  0  0  0  0  0  0  0  0  0  0  0
  1  2  1  0  0  0  0
  1 23  1  0  0  0  0
  1 24  1  0  0  0  0
  1 25  1  0  0  0  0
  2 22  1  0  0  0  0
  2  3  1  0  0  0  0
  2 26  1  0  0  0  0
  3  4  1  0  0  0  0
  3 27  1  0  0  0  0
  3 28  1  0  0  0  0
  4  5  1  0  0  0  0
  4 29  1  0  0  0  0
  4 30  1  0  0  0  0
  5  6  1  0  0  0  0
  5 21  1  0  0  0  0
  5 50  1  0  0  0  0
  6  7  1  0  0  0  0
  6 31  1  0  0  0  0
  6 32  1  0  0  0  0
  7  8  1  0  0  0  0
  7 33  1  0  0  0  0
  7 34  1  0  0  0  0
  8  9  1  0  0  0  0
  8 35  1  0  0  0  0
  9 10  2  0  0  0  0
  9 11  1  0  0  0  0
 11 12  1  0  0  0  0
 11 36  1  0  0  0  0
 12 20  1  0  0  0  0
 12 13  2  0  0  0  0
 13 14  1  0  0  0  0
 13 37  1  0  0  0  0
 14 15  2  0  0  0  0
 14 38  1  0  0  0  0
 15 16  1  0  0  0  0
 15 19  1  0  0  0  0
 16 17  1  0  0  0  0
 16 18  1  0  0  0  0
 17 39  1  0  0  0  0
 17 40  1  0  0  0  0
 17 41  1  0  0  0  0
 18 42  1  0  0  0  0
 18 43  1  0  0  0  0
 18 44  1  0  0  0  0
 19 20  2  0  0  0  0
 19 51  1  0  0  0  0
 20 45  1  0  0  0  0
 21 22  1  0  0  0  0
 21 46  1  0  0  0  0
 21 47  1  0  0  0  0
 22 48  1  0  0  0  0
 22 49  1  0  0  0  0
M  CHG  1   5   1
M  CHG  1  19   1
M  END
> <s_m_source_file>
AV-unprocessed.smi

> <i_m_source_file_index>
308

> <i_lp_mmshare_version>
43012

> <i_f3d_flags>
0

> <s_epik_input>
W0NIM11bQ0hdMVtDSDJdW0NIMl1OKFtDSDJdW0NIMl0xKVtDSDJdW0NIMl1bTkhdQyg9TylbTkhdYzJbY0hdW2NIXWMoTihbQ0gzXSlbQ0gzXSluW2NIXTI=

> <s_epik_cmdline>
J2VwaWtfcHl0aG9uJywgJy1waCcsICc3LjAnLCAnLXRuJywgJzgnLCAnLW1hJywgJzIwMCcsICctbWV0YWxfYmluZGluZycsICctaW1hZScsICc8aW5maWxlLm1hZT4nLCAnLW9tYWUnLCAnPG91dGZpbGUubWFlPic=

> <r_lp_tautomer_probability>
0.999994

> <r_epik_Ionization_Penalty>
0.309846

> <r_epik_Ionization_Penalty_Charging>
0.309826

> <r_epik_Ionization_Penalty_Neutral>
1.97883e-05

> <r_epik_State_Penalty>
0.302329

> <r_epik_Charging_Adjusted_Penalty>
0.612155

> <i_epik_Tot_Q>
2

> <i_epik_Tot_abs_Q>
2

> <r_epik_Metal_State_Penalty>
0.577265

> <b_epik_Metal_Only>
0

> <s_lp_Force_Field>
OPLS_2005

> <r_lp_Energy>
27.4115

> <b_lp_Chiralities_Consistent>
1

> <s_lp_Variant>
AV-unprocessed.smi:308-1

> <Gold.Version>
5.8.1

> <Gold.Id.Protein>
6NUR|6NUR_protein|mol2

> <Gold.PLP.Fitness>
48.4384

> <Gold.PLP.PLP>
-38.1290

> <Gold.PLP.part.hbond>
-2.0000

> <Gold.PLP.part.metal>
0.0000

> <Gold.PLP.part.buried>
-4.3495

> <Gold.PLP.part.nonpolar>
-31.1452

> <Gold.PLP.part.repulsive>
0.2114

> <Gold.PLP.ligand.clash>
0.0000

> <Gold.PLP.ligand.torsion>
0.8740

> <Gold.PLP.Chemscore.Hbond>
4.0000

> <Gold.PLP.Chemscore.CHOScore>
0.0000

> <Gold.PLP.Chemscore.Metal>
0.0000

> <Gold.Chemscore.Hbonds>
donor molecule, donor type, donor heavy atom, donor atom, acceptor molecule, acceptor atom, score
      L1  H     5    50       P1  7948  2.00

> <Gold.PLP.Chemscore.Internal.Correction>
0.0575

> <Gold.Rescore>
     Score         DG    S(hbond)    S(metal)    S(lipo)     H(rot)  DE(clash)    DE(int)     intcor
     16.62     -18.74       1.91        0.00      90.38       1.45       0.18       1.93       ----

> <Gold.Chemscore.Fitness>
16.6236

> <Gold.Chemscore.DG>
-18.7426

> <Gold.Chemscore.ZeroCoef>
-5.4800

> <Gold.Chemscore.Hbond>
1.9147

> <Gold.Chemscore.Metal>
0.0000

> <Gold.Chemscore.Lipo>
90.3772

> <Gold.Chemscore.Internal_Hbond>
0.0000

> <Gold.Chemscore.DEClash>
0.1843

> <Gold.Chemscore.DEInternal>
1.9347

> <Gold.Chemscore.Rot>
1.4479

> <Gold.Chemscore.Internal.Correction>
   9.000000E+99

> <Gold.Chemscore.Hbonds>
donor molecule, donor type, donor heavy atom, donor atom, acceptor molecule, acceptor atom, score
      L1  H     5    50       P1  7948  0.44

> <Gold.Chemscore.Hbond.Weighted>
-6.3950

> <Gold.Chemscore.Metal.Weighted>
-0.0000

> <Gold.Chemscore.Lipo.Weighted>
-10.5741

> <Gold.Chemscore.Internal_Hbond.Weighted>
0.0000

> <Gold.Chemscore.DEClash.Weighted>
0.1843

> <Gold.Chemscore.DEInternal.Weighted>
1.9347

> <Gold.Chemscore.Rot.Weighted>
3.7065

> <Gold.Chemscore.Internal.Correction.Weighted>
   9.000000E+99

> <Gold.Protein.RotatedTorsions>
[ 6907 6896 6895 6894 ] final    3.98 input  -60.11 | X-H torsion
[ 7974 7965 7964 7962 ] final  -62.83 input  175.53 | X-H torsion
[ 8008 7997 7996 7995 ] final -113.41 input   59.86 | X-H torsion
[ 10167 10162 10161 10158 ] final  -80.90 input  -65.29 | X-H torsion
[ 10718 10713 10712 10709 ] final  -52.11 input   66.30 | X-H torsion
[ 10763 10752 10751 10750 ] final  116.38 input  -60.55 | X-H torsion
[ 11005 11000 10999 10996 ] final  -28.26 input  -57.11 | X-H torsion

> <Gold.Protein.ActiveResidues>
 VAL166  LYS551  ARG553  GLY616  TRP617  ASP618  TYR619  PRO620  LYS621  CYS622 
 ASP623  PHE694  ASN695  SER759  ASP760  ASP761  ALA762  ILE779  LEU786  VAL792 
 PHE793  MET794  SER795  GLU796  ALA797  LYS798  CYS799  TRP800  GLU811  SER814 

> <Gold.Protein.RotatedAtoms>
  151.6339  135.1020  160.0127 H   0  0  0  0  0  0  0  0  0  0  0  0  # atno 6907 bound_to 6896
  152.4091  133.6931  159.6390 H   0  0  0  0  0  0  0  0  0  0  0  0  # atno 6908 bound_to 6896
  150.7983  133.8573  159.3263 H   0  0  0  0  0  0  0  0  0  0  0  0  # atno 6909 bound_to 6896
  145.7865  140.8733  143.0303 H   0  0  0  0  0  0  0  0  0  0  0  0  # atno 7974 bound_to 7965
  155.0203  140.0393  157.2434 H   0  0  0  0  0  0  0  0  0  0  0  0  # atno 8008 bound_to 7997
  154.7384  140.2744  155.6371 H   0  0  0  0  0  0  0  0  0  0  0  0  # atno 8009 bound_to 7997
  156.2858  140.2670  156.2104 H   0  0  0  0  0  0  0  0  0  0  0  0  # atno 8010 bound_to 7997
  140.4461  143.2498  151.8556 H   0  0  0  0  0  0  0  0  0  0  0  0  # atno 10167 bound_to 10162
  156.1650  130.4149  149.9734 H   0  0  0  0  0  0  0  0  0  0  0  0  # atno 10718 bound_to 10713
  153.5363  135.3568  155.2698 H   0  0  0  0  0  0  0  0  0  0  0  0  # atno 10763 bound_to 10752
  154.8722  135.4080  154.3094 H   0  0  0  0  0  0  0  0  0  0  0  0  # atno 10764 bound_to 10752
  153.3793  135.7067  153.6646 H   0  0  0  0  0  0  0  0  0  0  0  0  # atno 10765 bound_to 10752
  140.9192  133.7410  156.0778 H   0  0  0  0  0  0  0  0  0  0  0  0  # atno 11005 bound_to 11000
  144.6788  140.0062  143.7484 LP  0  0  0  0  0  0  0  0  0  0  0  0  # atno 17320 bound_to 7965
  146.0021  139.3100  143.0921 LP  0  0  0  0  0  0  0  0  0  0  0  0  # atno 17321 bound_to 7965
  139.4793  144.5174  151.8849 LP  0  0  0  0  0  0  0  0  0  0  0  0  # atno 17342 bound_to 10162
  140.4262  144.2177  150.5887 LP  0  0  0  0  0  0  0  0  0  0  0  0  # atno 17343 bound_to 10162
  156.7552  130.9130  151.3639 LP  0  0  0  0  0  0  0  0  0  0  0  0  # atno 17370 bound_to 10713
  157.6761  130.9096  150.0154 LP  0  0  0  0  0  0  0  0  0  0  0  0  # atno 17371 bound_to 10713
  140.8010  134.3509  157.5439 LP  0  0  0  0  0  0  0  0  0  0  0  0  # atno 17394 bound_to 11000
  139.8772  134.9197  156.3234 LP  0  0  0  0  0  0  0  0  0  0  0  0  # atno 17395 bound_to 11000

$$$$
