AV-unprocessed.smi:107|AV-procd|sdf|1026|dock3
  -GOLD-   2262018 23D 1   1.00000     0.00000
 Structure written by MMmdl.
 30 31  0  0  0  0  0  0  0  0  2 V2000
  152.5830  142.8070  160.9493 C   0  0  0  0  0  0  0  0  0  0  0  0
  152.4437  141.8433  159.7839 C   0  0  0  0  0  0  0  0  0  0  0  0
  151.3393  141.8069  159.0060 C   0  0  0  0  0  0  0  0  0  0  0  0
  151.2150  140.9255  157.9468 N   0  0  0  0  0  0  0  0  0  0  0  0
  149.9580  140.9140  157.1066 C   0  0  1  0  0  0  0  0  0  0  0  0
  150.1809  141.6534  155.7853 C   0  0  0  0  0  0  0  0  0  0  0  0
  149.4012  140.7877  154.8177 C   0  0  1  0  0  0  0  0  0  0  0  0
  149.9037  140.9232  153.5040 O   0  0  0  0  0  0  0  0  0  0  0  0
  149.6307  139.3867  155.3929 C   0  0  2  0  0  0  0  0  0  0  0  0
  148.5535  138.3543  155.0265 C   0  0  0  0  0  0  0  0  0  0  0  0
  148.3488  138.3216  153.6297 O   0  0  0  0  0  0  0  0  0  0  0  0
  149.6239  139.5898  156.8041 O   0  0  0  0  0  0  0  0  0  0  0  0
  152.2624  140.0075  157.6712 C   0  0  0  0  0  0  0  0  0  0  0  0
  152.1104  139.2084  156.7471 O   0  0  0  0  0  0  0  0  0  0  0  0
  153.3847  140.0433  158.4450 N   0  5  0  0  0  0  0  0  0  0  0  0
  153.5383  140.9122  159.4852 C   0  0  0  0  0  0  0  0  0  0  0  0
  154.5583  140.9350  160.1732 O   0  0  0  0  0  0  0  0  0  0  0  0
  151.6988  143.4368  161.0504 H   0  0  0  0  0  0  0  0  0  0  0  0
  153.4462  143.4573  160.8047 H   0  0  0  0  0  0  0  0  0  0  0  0
  152.7167  142.2594  161.8828 H   0  0  0  0  0  0  0  0  0  0  0  0
  150.5283  142.4845  159.2245 H   0  0  0  0  0  0  0  0  0  0  0  0
  149.1474  141.3275  157.7072 H   0  0  0  0  0  0  0  0  0  0  0  0
  149.8295  142.6840  155.8432 H   0  0  0  0  0  0  0  0  0  0  0  0
  151.2439  141.6527  155.5371 H   0  0  0  0  0  0  0  0  0  0  0  0
  148.3431  141.0512  154.8487 H   0  0  0  0  0  0  0  0  0  0  0  0
  149.4188  140.3408  152.9389 H   0  0  0  0  0  0  0  0  0  0  0  0
  150.6209  139.0207  155.1158 H   0  0  0  0  0  0  0  0  0  0  0  0
  148.8662  137.3606  155.3479 H   0  0  0  0  0  0  0  0  0  0  0  0
  147.6125  138.5743  155.5311 H   0  0  0  0  0  0  0  0  0  0  0  0
  148.8654  137.6180  153.2673 H   0  0  0  0  0  0  0  0  0  0  0  0
  1  2  1  0  0  0  0
  1 18  1  0  0  0  0
  1 19  1  0  0  0  0
  1 20  1  0  0  0  0
  2 16  1  0  0  0  0
  2  3  2  0  0  0  0
  3  4  1  0  0  0  0
  3 21  1  0  0  0  0
  4  5  1  0  0  0  0
  4 13  1  0  0  0  0
  5 12  1  0  0  0  0
  5  6  1  0  0  0  0
  5 22  1  0  0  0  0
  6  7  1  0  0  0  0
  6 23  1  0  0  0  0
  6 24  1  0  0  0  0
  7  8  1  0  0  0  0
  7  9  1  0  0  0  0
  7 25  1  0  0  0  0
  8 26  1  0  0  0  0
  9 10  1  0  0  0  0
  9 12  1  0  0  0  0
  9 27  1  0  0  0  0
 10 11  1  0  0  0  0
 10 28  1  0  0  0  0
 10 29  1  0  0  0  0
 11 30  1  0  0  0  0
 13 14  2  0  0  0  0
 13 15  1  0  0  0  0
 15 16  1  0  0  0  0
 16 17  2  0  0  0  0
M  CHG  1  15  -1
M  END
> <s_m_source_file>
AV-unprocessed.smi

> <i_m_source_file_index>
107

> <i_lp_mmshare_version>
43012

> <i_f3d_flags>
0

> <s_epik_input>
Tz1jMVtuSF1jKD1PKW4oW2NIXWMxW0NIM10pW0NAQEhdMltDSDJdW0NAQEhdKFtPSF0pW0NASF0oTzIpW0NIMl1bT0hd

> <s_epik_cmdline>
J2VwaWtfcHl0aG9uJywgJy1waCcsICc3LjAnLCAnLXRuJywgJzgnLCAnLW1hJywgJzIwMCcsICctbWV0YWxfYmluZGluZycsICctaW1hZScsICc8aW5maWxlLm1hZT4nLCAnLW9tYWUnLCAnPG91dGZpbGUubWFlPic=

> <r_lp_tautomer_probability>
0.999537

> <r_epik_Ionization_Penalty>
3.66603

> <r_epik_Ionization_Penalty_Charging>
1.09773e-07

> <r_epik_Ionization_Penalty_Neutral>
3.66603

> <r_epik_State_Penalty>
3.66562

> <r_epik_Charging_Adjusted_Penalty>
3.66562

> <i_epik_Tot_Q>
-1

> <i_epik_Tot_abs_Q>
1

> <r_epik_Metal_State_Penalty>
0.234536

> <b_epik_Metal_Only>
1

> <s_epik_Chemistry_Notes>
This compound contains an acetal/aminal-like group ( X-CH(R)-Y where X, Y are N, S, or O) that may be acid/base labile, releasing an aldehyde.

> <s_lp_Force_Field>
OPLS_2005

> <r_lp_Energy>
34.2111

> <b_lp_Chiralities_Consistent>
1

> <s_lp_Variant>
AV-unprocessed.smi:107-14

> <Gold.Version>
5.8.1

> <Gold.Id.Protein>
6NUR|6NUR_protein|mol2

> <Gold.PLP.Fitness>
41.3963

> <Gold.PLP.PLP>
-28.3515

> <Gold.PLP.part.hbond>
-4.2534

> <Gold.PLP.part.metal>
0.0000

> <Gold.PLP.part.buried>
-3.3840

> <Gold.PLP.part.nonpolar>
-19.8733

> <Gold.PLP.part.repulsive>
0.0000

> <Gold.PLP.ligand.clash>
0.0000

> <Gold.PLP.ligand.torsion>
0.6099

> <Gold.PLP.Chemscore.Hbond>
4.7520

> <Gold.PLP.Chemscore.CHOScore>
0.0000

> <Gold.PLP.Chemscore.Metal>
0.0000

> <Gold.Chemscore.Hbonds>
donor molecule, donor type, donor heavy atom, donor atom, acceptor molecule, acceptor atom, score
      L1  H     8    26       P1  7957  0.58
      L1  H    11    30       P1  7948  0.91
      P1  H  7989  7998       L1     8  0.30
      P1  H  7997  8010       L1    15  1.80
      P1  H  8011  8017       L1     8  0.75

> <Gold.PLP.Chemscore.Internal.Correction>
0.0086

> <Gold.Rescore>
     Score         DG    S(hbond)    S(metal)    S(lipo)     H(rot)  DE(clash)    DE(int)     intcor
     10.97     -14.39       2.97        0.00      50.14       2.69       0.24       3.18       ----

> <Gold.Chemscore.Fitness>
10.9713

> <Gold.Chemscore.DG>
-14.3917

> <Gold.Chemscore.ZeroCoef>
-5.4800

> <Gold.Chemscore.Hbond>
2.9713

> <Gold.Chemscore.Metal>
0.0000

> <Gold.Chemscore.Lipo>
50.1428

> <Gold.Chemscore.Internal_Hbond>
0.0000

> <Gold.Chemscore.DEClash>
0.2446

> <Gold.Chemscore.DEInternal>
3.1759

> <Gold.Chemscore.Rot>
2.6871

> <Gold.Chemscore.Internal.Correction>
   9.000000E+99

> <Gold.Chemscore.Hbonds>
donor molecule, donor type, donor heavy atom, donor atom, acceptor molecule, acceptor atom, score
      L1  H     8    26       P1  7957  0.58
      L1  H    11    30       P1  7948  0.88
      P1  H  7989  7998       L1     8  0.25
      P1  H  7997  8010       L1    15  0.17
      P1  H  8011  8017       L1     8  0.09

> <Gold.Chemscore.Hbond.Weighted>
-9.9241

> <Gold.Chemscore.Metal.Weighted>
-0.0000

> <Gold.Chemscore.Lipo.Weighted>
-5.8667

> <Gold.Chemscore.Internal_Hbond.Weighted>
0.0000

> <Gold.Chemscore.DEClash.Weighted>
0.2446

> <Gold.Chemscore.DEInternal.Weighted>
3.1759

> <Gold.Chemscore.Rot.Weighted>
6.8791

> <Gold.Chemscore.Internal.Correction.Weighted>
   9.000000E+99

> <Gold.Protein.RotatedTorsions>
[ 6907 6896 6895 6894 ] final -170.84 input  -60.11 | X-H torsion
[ 7974 7965 7964 7962 ] final  121.43 input  175.53 | X-H torsion
[ 8008 7997 7996 7995 ] final   31.78 input   59.86 | X-H torsion
[ 10167 10162 10161 10158 ] final  -33.61 input  -65.29 | X-H torsion
[ 10718 10713 10712 10709 ] final  120.37 input   66.30 | X-H torsion
[ 10763 10752 10751 10750 ] final  -52.90 input  -60.55 | X-H torsion
[ 11005 11000 10999 10996 ] final  176.73 input  -57.11 | X-H torsion

> <Gold.Protein.ActiveResidues>
 VAL166  LYS551  ARG553  GLY616  TRP617  ASP618  TYR619  PRO620  LYS621  CYS622 
 ASP623  PHE694  ASN695  SER759  ASP760  ASP761  ALA762  ILE779  LEU786  VAL792 
 PHE793  MET794  SER795  GLU796  ALA797  LYS798  CYS799  TRP800  GLU811  SER814 

> <Gold.Protein.RotatedAtoms>
  151.5141  133.3479  159.2889 H   0  0  0  0  0  0  0  0  0  0  0  0  # atno 6907 bound_to 6896
  150.8693  134.8066  159.7154 H   0  0  0  0  0  0  0  0  0  0  0  0  # atno 6908 bound_to 6896
  152.4687  134.5023  159.9780 H   0  0  0  0  0  0  0  0  0  0  0  0  # atno 6909 bound_to 6896
  145.1195  139.3399  143.4722 H   0  0  0  0  0  0  0  0  0  0  0  0  # atno 7974 bound_to 7965
  155.1119  140.3240  155.4519 H   0  0  0  0  0  0  0  0  0  0  0  0  # atno 8008 bound_to 7997
  156.2688  140.2042  156.6191 H   0  0  0  0  0  0  0  0  0  0  0  0  # atno 8009 bound_to 7997
  154.6749  140.0532  157.0192 H   0  0  0  0  0  0  0  0  0  0  0  0  # atno 8010 bound_to 7997
  140.7201  143.3607  151.1968 H   0  0  0  0  0  0  0  0  0  0  0  0  # atno 10167 bound_to 10162
  157.5895  131.1066  150.8026 H   0  0  0  0  0  0  0  0  0  0  0  0  # atno 10718 bound_to 10713
  154.1501  135.6491  153.4961 H   0  0  0  0  0  0  0  0  0  0  0  0  # atno 10763 bound_to 10752
  153.0140  135.5336  154.6817 H   0  0  0  0  0  0  0  0  0  0  0  0  # atno 10764 bound_to 10752
  154.6102  135.2953  155.0412 H   0  0  0  0  0  0  0  0  0  0  0  0  # atno 10765 bound_to 10752
  140.3763  134.6986  157.4423 H   0  0  0  0  0  0  0  0  0  0  0  0  # atno 11005 bound_to 11000
  146.3522  140.1148  142.8602 LP  0  0  0  0  0  0  0  0  0  0  0  0  # atno 17320 bound_to 7965
  145.0757  140.9186  143.4855 LP  0  0  0  0  0  0  0  0  0  0  0  0  # atno 17321 bound_to 7965
  139.7159  143.9301  152.2966 LP  0  0  0  0  0  0  0  0  0  0  0  0  # atno 17342 bound_to 10162
  139.9042  144.6894  150.8632 LP  0  0  0  0  0  0  0  0  0  0  0  0  # atno 17343 bound_to 10162
  156.8452  130.5061  149.5317 LP  0  0  0  0  0  0  0  0  0  0  0  0  # atno 17370 bound_to 10713
  156.0948  130.5924  150.9795 LP  0  0  0  0  0  0  0  0  0  0  0  0  # atno 17371 bound_to 10713
  140.0513  134.6127  155.8859 LP  0  0  0  0  0  0  0  0  0  0  0  0  # atno 17394 bound_to 11000
  141.1938  133.6580  156.5565 LP  0  0  0  0  0  0  0  0  0  0  0  0  # atno 17395 bound_to 11000

$$$$
