AV-unprocessed.smi:1695|AV-procd|sdf|6795|dock5
  -GOLD-   22720 7563D 1   1.00000     0.00000
 Structure written by MMmdl.
 52 54  0  0  0  0  0  0  0  0  3 V2000
  152.6724  142.8730  160.5266 C   0  0  0  0  0  0  0  0  0  0  0  0
  152.2154  142.1614  159.2644 C   0  0  0  0  0  0  0  0  0  0  0  0
  151.2953  142.8173  158.4162 C   0  0  0  0  0  0  0  0  0  0  0  0
  150.8931  142.1398  157.2715 C   0  0  0  0  0  0  0  0  0  0  0  0
  150.0098  142.5097  156.2555 N   0  3  0  0  0  0  0  0  0  0  0  0
  149.9293  141.5090  155.3362 C   0  0  0  0  0  0  0  0  0  0  0  0
  150.7540  140.5065  155.7459 N   0  0  0  0  0  0  0  0  0  0  0  0
  151.0193  139.2036  155.1195 C   0  0  0  0  0  0  0  0  0  0  0  0
  149.7366  138.3903  154.8577 C   0  0  2  0  0  0  0  0  0  0  0  0
  150.1260  137.1320  154.3461 O   0  0  0  0  0  0  0  0  0  0  0  0
  148.7658  139.0553  153.8574 C   0  0  0  0  0  0  0  0  0  0  0  0
  147.7069  138.1217  153.3942 N   0  3  1  0  0  0  0  0  0  0  0  0
  146.8677  137.5863  154.4988 C   0  0  0  0  0  0  0  0  0  0  0  0
  145.8976  136.5116  153.9819 C   0  0  0  0  0  0  0  0  0  0  0  0
  145.0044  137.0622  152.8534 C   0  0  2  0  0  0  0  0  0  0  0  0
  144.0843  135.9668  152.2975 C   0  0  0  0  0  0  0  0  0  0  0  0
  143.2275  135.3981  153.1488 N   0  0  0  0  0  0  0  0  0  0  0  0
  144.1451  135.6372  151.1147 O   0  0  0  0  0  0  0  0  0  0  0  0
  145.8985  137.6516  151.7452 C   0  0  0  0  0  0  0  0  0  0  0  0
  146.8715  138.6997  152.3108 C   0  0  0  0  0  0  0  0  0  0  0  0
  151.3737  140.8540  156.9535 C   0  0  0  0  0  0  0  0  0  0  0  0
  152.2838  140.1952  157.7783 C   0  0  0  0  0  0  0  0  0  0  0  0
  152.7029  140.8667  158.9493 C   0  0  0  0  0  0  0  0  0  0  0  0
  153.6900  140.1694  159.8700 C   0  0  0  0  0  0  0  0  0  0  0  0
  152.2210  143.8617  160.6132 H   0  0  0  0  0  0  0  0  0  0  0  0
  153.7551  143.0006  160.5252 H   0  0  0  0  0  0  0  0  0  0  0  0
  152.3916  142.3006  161.4111 H   0  0  0  0  0  0  0  0  0  0  0  0
  150.9186  143.8025  158.6504 H   0  0  0  0  0  0  0  0  0  0  0  0
  149.3178  141.5096  154.4449 H   0  0  0  0  0  0  0  0  0  0  0  0
  151.5921  139.3472  154.2035 H   0  0  0  0  0  0  0  0  0  0  0  0
  151.6719  138.6548  155.8002 H   0  0  0  0  0  0  0  0  0  0  0  0
  149.2393  138.2208  155.8123 H   0  0  0  0  0  0  0  0  0  0  0  0
  149.8474  137.0688  153.4449 H   0  0  0  0  0  0  0  0  0  0  0  0
  148.2914  139.9353  154.2934 H   0  0  0  0  0  0  0  0  0  0  0  0
  149.3444  139.4145  153.0049 H   0  0  0  0  0  0  0  0  0  0  0  0
  147.4934  137.1509  155.2769 H   0  0  0  0  0  0  0  0  0  0  0  0
  146.3105  138.4014  154.9633 H   0  0  0  0  0  0  0  0  0  0  0  0
  146.4706  135.6531  153.6275 H   0  0  0  0  0  0  0  0  0  0  0  0
  145.2807  136.1512  154.8063 H   0  0  0  0  0  0  0  0  0  0  0  0
  144.3863  137.8644  153.2612 H   0  0  0  0  0  0  0  0  0  0  0  0
  142.6004  134.6737  152.8306 H   0  0  0  0  0  0  0  0  0  0  0  0
  143.2092  135.6980  154.1132 H   0  0  0  0  0  0  0  0  0  0  0  0
  146.4705  136.8597  151.2583 H   0  0  0  0  0  0  0  0  0  0  0  0
  145.2821  138.1077  150.9692 H   0  0  0  0  0  0  0  0  0  0  0  0
  146.3212  139.5615  152.6919 H   0  0  0  0  0  0  0  0  0  0  0  0
  147.5106  139.0615  151.5043 H   0  0  0  0  0  0  0  0  0  0  0  0
  152.6588  139.2101  157.5447 H   0  0  0  0  0  0  0  0  0  0  0  0
  153.9421  139.1733  159.5049 H   0  0  0  0  0  0  0  0  0  0  0  0
  153.2703  140.0594  160.8701 H   0  0  0  0  0  0  0  0  0  0  0  0
  154.6151  140.7417  159.9435 H   0  0  0  0  0  0  0  0  0  0  0  0
  148.1898  137.3347  152.9833 H   0  0  0  0  0  0  0  0  0  0  0  0
  149.4933  143.3782  156.1954 H   0  0  0  0  0  0  0  0  0  0  0  0
  1  2  1  0  0  0  0
  1 25  1  0  0  0  0
  1 26  1  0  0  0  0
  1 27  1  0  0  0  0
  2 23  1  0  0  0  0
  2  3  2  0  0  0  0
  3  4  1  0  0  0  0
  3 28  1  0  0  0  0
  4 21  2  0  0  0  0
  4  5  1  0  0  0  0
  5  6  2  0  0  0  0
  5 52  1  0  0  0  0
  6  7  1  0  0  0  0
  6 29  1  0  0  0  0
  7  8  1  0  0  0  0
  7 21  1  0  0  0  0
  8  9  1  0  0  0  0
  8 30  1  0  0  0  0
  8 31  1  0  0  0  0
  9 10  1  0  0  0  0
  9 11  1  0  0  0  0
  9 32  1  0  0  0  0
 10 33  1  0  0  0  0
 11 12  1  0  0  0  0
 11 34  1  0  0  0  0
 11 35  1  0  0  0  0
 12 20  1  0  0  0  0
 12 13  1  0  0  0  0
 12 51  1  0  0  0  0
 13 14  1  0  0  0  0
 13 36  1  0  0  0  0
 13 37  1  0  0  0  0
 14 15  1  0  0  0  0
 14 38  1  0  0  0  0
 14 39  1  0  0  0  0
 15 16  1  0  0  0  0
 15 19  1  0  0  0  0
 15 40  1  0  0  0  0
 16 17  1  0  0  0  0
 16 18  2  0  0  0  0
 17 41  1  0  0  0  0
 17 42  1  0  0  0  0
 19 20  1  0  0  0  0
 19 43  1  0  0  0  0
 19 44  1  0  0  0  0
 20 45  1  0  0  0  0
 20 46  1  0  0  0  0
 21 22  1  0  0  0  0
 22 23  2  0  0  0  0
 22 47  1  0  0  0  0
 23 24  1  0  0  0  0
 24 48  1  0  0  0  0
 24 49  1  0  0  0  0
 24 50  1  0  0  0  0
M  CHG  1   5   1
M  CHG  1  12   1
M  END
> <s_m_source_file>
AV-unprocessed.smi

> <i_m_source_file_index>
1695

> <i_lp_mmshare_version>
43012

> <i_f3d_flags>
0

> <s_epik_input>
W0NIM11jKFtjSF0xKWMoW0NIM10pW2NIXWMoYzEyKW4oW2NIXW4yKVtDSDJdW0NASF0oW09IXSlbQ0gyXU4zW0NIMl1bQ0gyXVtDSF0oQyg9TylbTkgyXSlbQ0gyXVtDSDJdMw==

> <s_epik_cmdline>
J2VwaWtfcHl0aG9uJywgJy1waCcsICc3LjAnLCAnLXRuJywgJzgnLCAnLW1hJywgJzIwMCcsICctbWV0YWxfYmluZGluZycsICctaW1hZScsICc8aW5maWxlLm1hZT4nLCAnLW9tYWUnLCAnPG91dGZpbGUubWFlPic=

> <r_epik_Ionization_Penalty>
1.20173

> <r_epik_Ionization_Penalty_Charging>
1.20172

> <r_epik_Ionization_Penalty_Neutral>
1.7852e-06

> <r_epik_State_Penalty>
1.28089

> <r_epik_Charging_Adjusted_Penalty>
2.48261

> <i_epik_Tot_Q>
2

> <i_epik_Tot_abs_Q>
2

> <r_epik_Metal_State_Penalty>
1.35652

> <b_epik_Metal_Only>
0

> <s_lp_Force_Field>
OPLS_2005

> <r_lp_Energy>
30.6346

> <b_lp_Chiralities_Consistent>
1

> <s_lp_Variant>
AV-unprocessed.smi:1695-7

> <Gold.Version>
5.8.1

> <Gold.Id.Protein>
6NUR|6NUR_protein|mol2

> <Gold.PLP.Fitness>
57.2379

> <Gold.PLP.PLP>
-42.4678

> <Gold.PLP.part.hbond>
-3.3017

> <Gold.PLP.part.metal>
0.0000

> <Gold.PLP.part.buried>
-1.5400

> <Gold.PLP.part.nonpolar>
-39.1652

> <Gold.PLP.part.repulsive>
0.3534

> <Gold.PLP.ligand.clash>
0.0000

> <Gold.PLP.ligand.torsion>
0.1334

> <Gold.PLP.Chemscore.Hbond>
5.0000

> <Gold.PLP.Chemscore.CHOScore>
0.0000

> <Gold.PLP.Chemscore.Metal>
0.0000

> <Gold.Chemscore.Hbonds>
donor molecule, donor type, donor heavy atom, donor atom, acceptor molecule, acceptor atom, score
      L1  H     5    52       P1  8028  2.00
      L1  H    10    33       P1  7948  1.00
      L1  H    12    51       P1  7948  2.00

> <Gold.PLP.Chemscore.Internal.Correction>
0.0370

> <Gold.Rescore>
     Score         DG    S(hbond)    S(metal)    S(lipo)     H(rot)  DE(clash)    DE(int)     intcor
     19.04     -19.46       2.75        0.00     104.79       2.91       0.27       0.16       ----

> <Gold.Chemscore.Fitness>
19.0374

> <Gold.Chemscore.DG>
-19.4605

> <Gold.Chemscore.ZeroCoef>
-5.4800

> <Gold.Chemscore.Hbond>
2.7475

> <Gold.Chemscore.Metal>
0.0000

> <Gold.Chemscore.Lipo>
104.7886

> <Gold.Chemscore.Internal_Hbond>
0.0000

> <Gold.Chemscore.DEClash>
0.2674

> <Gold.Chemscore.DEInternal>
0.1557

> <Gold.Chemscore.Rot>
2.9127

> <Gold.Chemscore.Internal.Correction>
   9.000000E+99

> <Gold.Chemscore.Hbonds>
donor molecule, donor type, donor heavy atom, donor atom, acceptor molecule, acceptor atom, score
      L1  H     5    52       P1  8028  0.97
      L1  H    10    33       P1  7948  0.44
      L1  H    12    51       P1  7948  1.00

> <Gold.Chemscore.Hbond.Weighted>
-9.1768

> <Gold.Chemscore.Metal.Weighted>
-0.0000

> <Gold.Chemscore.Lipo.Weighted>
-12.2603

> <Gold.Chemscore.Internal_Hbond.Weighted>
0.0000

> <Gold.Chemscore.DEClash.Weighted>
0.2674

> <Gold.Chemscore.DEInternal.Weighted>
0.1557

> <Gold.Chemscore.Rot.Weighted>
7.4565

> <Gold.Chemscore.Internal.Correction.Weighted>
   9.000000E+99

> <Gold.Protein.RotatedTorsions>
[ 6907 6896 6895 6894 ] final   52.11 input  -60.11 | X-H torsion
[ 7974 7965 7964 7962 ] final  -42.54 input  175.53 | X-H torsion
[ 8008 7997 7996 7995 ] final  -99.97 input   59.86 | X-H torsion
[ 10167 10162 10161 10158 ] final  -86.92 input  -65.29 | X-H torsion
[ 10718 10713 10712 10709 ] final   -2.99 input   66.30 | X-H torsion
[ 10763 10752 10751 10750 ] final   56.59 input  -60.55 | X-H torsion
[ 11005 11000 10999 10996 ] final   40.01 input  -57.11 | X-H torsion

> <Gold.Protein.ActiveResidues>
 VAL166  LYS551  ARG553  GLY616  TRP617  ASP618  TYR619  PRO620  LYS621  CYS622 
 ASP623  PHE694  ASN695  SER759  ASP760  ASP761  ALA762  ILE779  LEU786  VAL792 
 PHE793  MET794  SER795  GLU796  ALA797  LYS798  CYS799  TRP800  GLU811  SER814 

> <Gold.Protein.RotatedAtoms>
  152.3199  134.7394  160.0316 H   0  0  0  0  0  0  0  0  0  0  0  0  # atno 6907 bound_to 6896
  151.7846  133.3348  159.3489 H   0  0  0  0  0  0  0  0  0  0  0  0  # atno 6908 bound_to 6896
  150.7364  134.5830  159.5993 H   0  0  0  0  0  0  0  0  0  0  0  0  # atno 6909 bound_to 6896
  146.0106  140.6969  142.9226 H   0  0  0  0  0  0  0  0  0  0  0  0  # atno 7974 bound_to 7965
  154.8221  140.0444  157.1418 H   0  0  0  0  0  0  0  0  0  0  0  0  # atno 8008 bound_to 7997
  154.9247  140.3031  155.5178 H   0  0  0  0  0  0  0  0  0  0  0  0  # atno 8009 bound_to 7997
  156.2981  140.2334  156.4301 H   0  0  0  0  0  0  0  0  0  0  0  0  # atno 8010 bound_to 7997
  140.3894  143.2711  151.9283 H   0  0  0  0  0  0  0  0  0  0  0  0  # atno 10167 bound_to 10162
  156.7826  130.5335  149.5748 H   0  0  0  0  0  0  0  0  0  0  0  0  # atno 10718 bound_to 10713
  152.9834  135.5671  154.5253 H   0  0  0  0  0  0  0  0  0  0  0  0  # atno 10763 bound_to 10752
  154.4734  135.2786  155.1627 H   0  0  0  0  0  0  0  0  0  0  0  0  # atno 10764 bound_to 10752
  154.3166  135.6277  153.5542 H   0  0  0  0  0  0  0  0  0  0  0  0  # atno 10765 bound_to 10752
  140.1972  134.3914  155.8115 H   0  0  0  0  0  0  0  0  0  0  0  0  # atno 11005 bound_to 11000
  144.6951  140.3392  143.7202 LP  0  0  0  0  0  0  0  0  0  0  0  0  # atno 17320 bound_to 7965
  145.7348  139.1746  143.2410 LP  0  0  0  0  0  0  0  0  0  0  0  0  # atno 17321 bound_to 7965
  139.4790  144.5742  151.8039 LP  0  0  0  0  0  0  0  0  0  0  0  0  # atno 17342 bound_to 10162
  140.4855  144.1387  150.5940 LP  0  0  0  0  0  0  0  0  0  0  0  0  # atno 17343 bound_to 10162
  156.1208  130.6109  151.0191 LP  0  0  0  0  0  0  0  0  0  0  0  0  # atno 17370 bound_to 10713
  157.6639  131.0875  150.7774 LP  0  0  0  0  0  0  0  0  0  0  0  0  # atno 17371 bound_to 10713
  141.2227  133.7076  156.8196 LP  0  0  0  0  0  0  0  0  0  0  0  0  # atno 17394 bound_to 11000
  140.2094  134.8839  157.3258 LP  0  0  0  0  0  0  0  0  0  0  0  0  # atno 17395 bound_to 11000

$$$$
