AV-unprocessed.smi:2078|AV-procd|sdf|8473|dock10
  -GOLD-   2272011173D 1   1.00000     0.00000
 Structure written by MMmdl.
 41 42  0  0  0  0  0  0  0  0  3 V2000
  152.8646  138.8013  155.0451 C   0  0  0  0  0  0  0  0  0  0  0  0
  151.4627  138.9747  154.5701 C   0  0  0  0  0  0  0  0  0  0  0  0
  150.5295  138.0990  154.0909 C   0  0  0  0  0  0  0  0  0  0  0  0
  149.4116  138.9340  153.8269 C   0  0  0  0  0  0  0  0  0  0  0  0
  148.2023  138.3886  153.3213 N   0  0  0  0  0  0  0  0  0  0  0  0
  147.0479  139.0219  153.0481 C   0  0  0  0  0  0  0  0  0  0  0  0
  146.9818  140.2552  153.1154 O   0  0  0  0  0  0  0  0  0  0  0  0
  146.0455  138.1592  152.7223 N   0  5  0  0  0  0  0  0  0  0  0  0
  146.2406  136.8078  152.1874 C   0  0  0  0  0  0  0  0  0  0  0  0
  144.8793  136.1338  151.9061 C   0  0  0  0  0  0  0  0  0  0  0  0
  145.0299  134.8182  151.2269 N   0  3  1  0  0  0  0  0  0  0  0  0
  146.2370  134.0561  151.6435 C   0  0  0  0  0  0  0  0  0  0  0  0
  146.4373  132.8226  150.7502 C   0  0  0  0  0  0  0  0  0  0  0  0
  145.1876  131.9297  150.7564 C   0  0  0  0  0  0  0  0  0  0  0  0
  143.9225  132.7303  150.3928 C   0  0  2  0  0  0  0  0  0  0  0  0
  143.8423  133.0691  148.8934 C   0  0  0  0  0  0  0  0  0  0  0  0
  143.8006  133.9851  151.2826 C   0  0  0  0  0  0  0  0  0  0  0  0
  149.6398  140.2043  154.1265 N   0  0  0  0  0  0  0  0  0  0  0  0
  150.9559  140.2370  154.6024 O   0  0  0  0  0  0  0  0  0  0  0  0
  152.8874  138.6237  156.1201 H   0  0  0  0  0  0  0  0  0  0  0  0
  153.4609  139.6897  154.8353 H   0  0  0  0  0  0  0  0  0  0  0  0
  153.3388  137.9529  154.5515 H   0  0  0  0  0  0  0  0  0  0  0  0
  150.6320  137.0333  153.9513 H   0  0  0  0  0  0  0  0  0  0  0  0
  148.1976  137.3881  153.1877 H   0  0  0  0  0  0  0  0  0  0  0  0
  146.8392  136.8019  151.2755 H   0  0  0  0  0  0  0  0  0  0  0  0
  146.7913  136.1881  152.8948 H   0  0  0  0  0  0  0  0  0  0  0  0
  144.3188  136.0110  152.8338 H   0  0  0  0  0  0  0  0  0  0  0  0
  144.2840  136.8117  151.2923 H   0  0  0  0  0  0  0  0  0  0  0  0
  147.1213  134.6910  151.5792 H   0  0  0  0  0  0  0  0  0  0  0  0
  146.1377  133.7553  152.6875 H   0  0  0  0  0  0  0  0  0  0  0  0
  146.6653  133.1409  149.7321 H   0  0  0  0  0  0  0  0  0  0  0  0
  147.3017  132.2530  151.0922 H   0  0  0  0  0  0  0  0  0  0  0  0
  145.3192  131.0888  150.0747 H   0  0  0  0  0  0  0  0  0  0  0  0
  145.0648  131.4993  151.7511 H   0  0  0  0  0  0  0  0  0  0  0  0
  143.0626  132.0947  150.6078 H   0  0  0  0  0  0  0  0  0  0  0  0
  144.6676  133.7037  148.5732 H   0  0  0  0  0  0  0  0  0  0  0  0
  142.9163  133.5946  148.6589 H   0  0  0  0  0  0  0  0  0  0  0  0
  143.8682  132.1643  148.2858 H   0  0  0  0  0  0  0  0  0  0  0  0
  143.6150  133.6945  152.3177 H   0  0  0  0  0  0  0  0  0  0  0  0
  142.9392  134.5731  150.9623 H   0  0  0  0  0  0  0  0  0  0  0  0
  145.1574  135.0482  150.2505 H   0  0  0  0  0  0  0  0  0  0  0  0
  1  2  1  0  0  0  0
  1 20  1  0  0  0  0
  1 21  1  0  0  0  0
  1 22  1  0  0  0  0
  2 19  1  0  0  0  0
  2  3  2  0  0  0  0
  3  4  1  0  0  0  0
  3 23  1  0  0  0  0
  4  5  1  0  0  0  0
  4 18  2  0  0  0  0
  5  6  1  0  0  0  0
  5 24  1  0  0  0  0
  6  7  2  0  0  0  0
  6  8  1  0  0  0  0
  8  9  1  0  0  0  0
  9 10  1  0  0  0  0
  9 25  1  0  0  0  0
  9 26  1  0  0  0  0
 10 11  1  0  0  0  0
 10 27  1  0  0  0  0
 10 28  1  0  0  0  0
 11 17  1  0  0  0  0
 11 12  1  0  0  0  0
 11 41  1  0  0  0  0
 12 13  1  0  0  0  0
 12 29  1  0  0  0  0
 12 30  1  0  0  0  0
 13 14  1  0  0  0  0
 13 31  1  0  0  0  0
 13 32  1  0  0  0  0
 14 15  1  0  0  0  0
 14 33  1  0  0  0  0
 14 34  1  0  0  0  0
 15 16  1  0  0  0  0
 15 17  1  0  0  0  0
 15 35  1  0  0  0  0
 16 36  1  0  0  0  0
 16 37  1  0  0  0  0
 16 38  1  0  0  0  0
 17 39  1  0  0  0  0
 17 40  1  0  0  0  0
 18 19  1  0  0  0  0
M  CHG  1   8  -1
M  CHG  1  11   1
M  END
> <s_m_source_file>
AV-unprocessed.smi

> <i_m_source_file_index>
2078

> <i_lp_mmshare_version>
43012

> <i_f3d_flags>
0

> <s_epik_input>
W0NIM11jMVtjSF1jKG5vMSlbTkhdQyg9TylbTkhdW0NIMl1bQ0gyXU4yW0NIMl1bQ0gyXVtDSDJdW0NAQEhdKFtDSDNdKVtDSDJdMg==

> <s_epik_cmdline>
J2VwaWtfcHl0aG9uJywgJy1waCcsICc3LjAnLCAnLXRuJywgJzgnLCAnLW1hJywgJzIwMCcsICctbWV0YWxfYmluZGluZycsICctaW1hZScsICc8aW5maWxlLm1hZT4nLCAnLW9tYWUnLCAnPG91dGZpbGUubWFlPic=

> <r_epik_Ionization_Penalty>
6.76934

> <r_epik_Ionization_Penalty_Charging>
6.76934

> <r_epik_Ionization_Penalty_Neutral>
5.77849e-06

> <r_epik_State_Penalty>
6.79457

> <r_epik_Charging_Adjusted_Penalty>
13.5639

> <i_epik_Tot_Q>
0

> <i_epik_Tot_abs_Q>
2

> <r_epik_Metal_State_Penalty>
2.72837

> <b_epik_Metal_Only>
1

> <s_lp_Force_Field>
OPLS_2005

> <r_lp_Energy>
11.5184

> <b_lp_Chiralities_Consistent>
1

> <s_lp_Variant>
AV-unprocessed.smi:2078-11

> <Gold.Version>
5.8.1

> <Gold.Id.Protein>
6NUR|6NUR_protein|mol2

> <Gold.PLP.Fitness>
38.6920

> <Gold.PLP.PLP>
-34.4869

> <Gold.PLP.part.hbond>
-3.4802

> <Gold.PLP.part.metal>
0.0000

> <Gold.PLP.part.buried>
-0.5738

> <Gold.PLP.part.nonpolar>
-31.7008

> <Gold.PLP.part.repulsive>
1.2861

> <Gold.PLP.ligand.clash>
0.0000

> <Gold.PLP.ligand.torsion>
0.3383

> <Gold.PLP.Chemscore.Hbond>
1.5920

> <Gold.PLP.Chemscore.CHOScore>
0.0000

> <Gold.PLP.Chemscore.Metal>
0.0000

> <Gold.Chemscore.Hbonds>
donor molecule, donor type, donor heavy atom, donor atom, acceptor molecule, acceptor atom, score
      L1  H     5    24       P1  7948  0.66
      P1  H  7989  7998       L1    19  0.78

> <Gold.PLP.Chemscore.Internal.Correction>
0.1056

> <Gold.Rescore>
     Score         DG    S(hbond)    S(metal)    S(lipo)     H(rot)  DE(clash)    DE(int)     intcor
     11.07     -14.04       0.72        0.00      86.45       1.54       1.37       1.60       ----

> <Gold.Chemscore.Fitness>
11.0716

> <Gold.Chemscore.DG>
-14.0435

> <Gold.Chemscore.ZeroCoef>
-5.4800

> <Gold.Chemscore.Hbond>
0.7167

> <Gold.Chemscore.Metal>
0.0000

> <Gold.Chemscore.Lipo>
86.4459

> <Gold.Chemscore.Internal_Hbond>
0.0000

> <Gold.Chemscore.DEClash>
1.3702

> <Gold.Chemscore.DEInternal>
1.6017

> <Gold.Chemscore.Rot>
1.5409

> <Gold.Chemscore.Internal.Correction>
   9.000000E+99

> <Gold.Chemscore.Hbonds>
donor molecule, donor type, donor heavy atom, donor atom, acceptor molecule, acceptor atom, score
      L1  H     5    24       P1  7948  0.66
      P1  H  7989  7998       L1    19  0.09

> <Gold.Chemscore.Hbond.Weighted>
-2.3939

> <Gold.Chemscore.Metal.Weighted>
-0.0000

> <Gold.Chemscore.Lipo.Weighted>
-10.1142

> <Gold.Chemscore.Internal_Hbond.Weighted>
0.0000

> <Gold.Chemscore.DEClash.Weighted>
1.3702

> <Gold.Chemscore.DEInternal.Weighted>
1.6017

> <Gold.Chemscore.Rot.Weighted>
3.9446

> <Gold.Chemscore.Internal.Correction.Weighted>
   9.000000E+99

> <Gold.Protein.RotatedTorsions>
[ 6907 6896 6895 6894 ] final   76.03 input  -60.11 | X-H torsion
[ 7974 7965 7964 7962 ] final   68.53 input  175.53 | X-H torsion
[ 8008 7997 7996 7995 ] final   -5.01 input   59.86 | X-H torsion
[ 10167 10162 10161 10158 ] final  -59.49 input  -65.29 | X-H torsion
[ 10718 10713 10712 10709 ] final -136.23 input   66.30 | X-H torsion
[ 10763 10752 10751 10750 ] final -121.81 input  -60.55 | X-H torsion
[ 11005 11000 10999 10996 ] final   87.57 input  -57.11 | X-H torsion

> <Gold.Protein.ActiveResidues>
 VAL166  LYS551  ARG553  GLY616  TRP617  ASP618  TYR619  PRO620  LYS621  CYS622 
 ASP623  PHE694  ASN695  SER759  ASP760  ASP761  ALA762  ILE779  LEU786  VAL792 
 PHE793  MET794  SER795  GLU796  ALA797  LYS798  CYS799  TRP800  GLU811  SER814 

> <Gold.Protein.RotatedAtoms>
  152.5054  134.4030  159.9422 H   0  0  0  0  0  0  0  0  0  0  0  0  # atno 6907 bound_to 6896
  151.3995  133.3756  159.2738 H   0  0  0  0  0  0  0  0  0  0  0  0  # atno 6908 bound_to 6896
  150.9372  134.8805  159.7648 H   0  0  0  0  0  0  0  0  0  0  0  0  # atno 6909 bound_to 6896
  145.8015  139.2985  143.1152 H   0  0  0  0  0  0  0  0  0  0  0  0  # atno 7974 bound_to 7965
  154.6083  140.2469  155.7702 H   0  0  0  0  0  0  0  0  0  0  0  0  # atno 8008 bound_to 7997
  156.2355  140.2952  156.0251 H   0  0  0  0  0  0  0  0  0  0  0  0  # atno 8009 bound_to 7997
  155.2094  140.0397  157.2921 H   0  0  0  0  0  0  0  0  0  0  0  0  # atno 8010 bound_to 7997
  140.6131  143.2393  151.5661 H   0  0  0  0  0  0  0  0  0  0  0  0  # atno 10167 bound_to 10162
  156.2748  130.7286  151.1265 H   0  0  0  0  0  0  0  0  0  0  0  0  # atno 10718 bound_to 10713
  154.8676  135.4155  154.2679 H   0  0  0  0  0  0  0  0  0  0  0  0  # atno 10763 bound_to 10752
  153.3595  135.7002  153.6729 H   0  0  0  0  0  0  0  0  0  0  0  0  # atno 10764 bound_to 10752
  153.5636  135.3605  155.2781 H   0  0  0  0  0  0  0  0  0  0  0  0  # atno 10765 bound_to 10752
  139.8916  134.8431  156.2879 H   0  0  0  0  0  0  0  0  0  0  0  0  # atno 11005 bound_to 11000
  145.9873  140.8633  143.0084 LP  0  0  0  0  0  0  0  0  0  0  0  0  # atno 17320 bound_to 7965
  144.6768  140.2165  143.7371 LP  0  0  0  0  0  0  0  0  0  0  0  0  # atno 17321 bound_to 7965
  139.5377  144.2734  152.1286 LP  0  0  0  0  0  0  0  0  0  0  0  0  # atno 17342 bound_to 10162
  140.1938  144.4726  150.6465 LP  0  0  0  0  0  0  0  0  0  0  0  0  # atno 17343 bound_to 10162
  157.7295  131.0623  150.5768 LP  0  0  0  0  0  0  0  0  0  0  0  0  # atno 17370 bound_to 10713
  156.5868  130.4319  149.5953 LP  0  0  0  0  0  0  0  0  0  0  0  0  # atno 17371 bound_to 10713
  140.9996  133.7159  156.0939 LP  0  0  0  0  0  0  0  0  0  0  0  0  # atno 17394 bound_to 11000
  140.7516  134.4038  157.5540 LP  0  0  0  0  0  0  0  0  0  0  0  0  # atno 17395 bound_to 11000

$$$$
