#       Name:                AV-unprocessed.smi:1643
#       Creating user name   scv26
#       Creation time:       Fri Mar 27 07:25:57 2020


#       File generated by GOLD software.
#

@<TRIPOS>MOLECULE
AV-unprocessed.smi:1643
    59    61     1
SMALL
NO_CHARGES


@<TRIPOS>ATOM
      1 ****        -5.7665   1.8473  -2.2045 C.3            1 S1                 0.0000
      2 ****        -4.5516   1.6608  -3.1184 C.2            1 S1                 0.0000
      3 ****        -4.7483   1.2646  -4.2673 O.2            1 S1                 0.0000
      4 ****        -3.3144   1.9400  -2.6385 N.am           1 S1                 0.0000
      5 ****        -2.1261   1.8229  -3.4980 C.3            1 S1                 0.0000
      6 ****        -1.3866   0.4954  -3.2529 C.3            1 S1                 0.0000
      7 ****        -1.4211   0.0047  -1.7898 C.3            1 S1                 0.0000
      8 ****        -0.8983   0.9902  -0.8033 N.4            1 S1                 1.0000
      9 ****         0.5839   1.1256  -0.8588 C.3            1 S1                 0.0000
     10 ****         1.2047   1.5742   0.4861 C.3            1 S1                 0.0000
     11 ****         1.0463   2.9687   0.6501 O.3            1 S1                 0.0000
     12 ****         2.7164   1.2857   0.6029 C.3            1 S1                 0.0000
     13 ****         3.0346  -0.1265   0.4906 N.pl3          1 S1                 0.0000
     14 ****         3.6470  -0.7434  -0.5389 C.2            1 S1                 0.0000
     15 ****         3.8347  -2.0556  -0.4376 N.2            1 S1                 0.0000
     16 ****         3.2964  -2.3193   0.8099 C.ar           1 S1                 0.0000
     17 ****         3.1844  -3.5332   1.5219 C.ar           1 S1                 0.0000
     18 ****         2.5920  -3.5692   2.8042 C.ar           1 S1                 0.0000
     19 ****         2.4981  -4.8959   3.5372 C.3            1 S1                 0.0000
     20 ****         2.0982  -2.3771   3.3926 C.ar           1 S1                 0.0000
     21 ****         1.4617  -2.3913   4.7710 C.3            1 S1                 0.0000
     22 ****         2.1993  -1.1560   2.6936 C.ar           1 S1                 0.0000
     23 ****         2.7912  -1.1332   1.4185 C.ar           1 S1                 0.0000
     24 ****        -1.6119   2.3042  -0.7391 C.3            1 S1                 0.0000
     25 ****        -3.0858   2.3210  -1.2280 C.3            1 S1                 0.0000
     26 ****        -5.7795   2.8445  -1.7641 H              1 S1                 0.0000
     27 ****        -5.7673   1.1062  -1.4052 H              1 S1                 0.0000
     28 ****        -6.6910   1.7252  -2.7701 H              1 S1                 0.0000
     29 ****        -2.3758   1.9037  -4.5572 H              1 S1                 0.0000
     30 ****        -1.4609   2.6693  -3.3347 H              1 S1                 0.0000
     31 ****        -1.8426  -0.2758  -3.8746 H              1 S1                 0.0000
     32 ****        -0.3568   0.5846  -3.5995 H              1 S1                 0.0000
     33 ****        -2.4359  -0.2767  -1.5071 H              1 S1                 0.0000
     34 ****        -0.8560  -0.9247  -1.7089 H              1 S1                 0.0000
     35 ****         0.9886   0.1458  -1.1095 H              1 S1                 0.0000
     36 ****         0.8851   1.7833  -1.6756 H              1 S1                 0.0000
     37 ****         0.6872   1.0758   1.3068 H              1 S1                 0.0000
     38 ****         1.5616   3.4122  -0.0069 H              1 S1                 0.0000
     39 ****         3.2676   1.8283  -0.1669 H              1 S1                 0.0000
     40 ****         3.0947   1.6381   1.5638 H              1 S1                 0.0000
     41 ****         3.9636  -0.2005  -1.4177 H              1 S1                 0.0000
     42 ****         3.5620  -4.4411   1.0743 H              1 S1                 0.0000
     43 ****         1.4596  -5.1338   3.7687 H              1 S1                 0.0000
     44 ****         3.0612  -4.8561   4.4701 H              1 S1                 0.0000
     45 ****         2.9024  -5.7120   2.9371 H              1 S1                 0.0000
     46 ****         1.1405  -1.3936   5.0714 H              1 S1                 0.0000
     47 ****         2.1714  -2.7527   5.5156 H              1 S1                 0.0000
     48 ****         0.5865  -3.0413   4.7817 H              1 S1                 0.0000
     49 ****         1.8293  -0.2409   3.1317 H              1 S1                 0.0000
     50 ****        -1.6020   2.6205   0.3041 H              1 S1                 0.0000
     51 ****        -1.0425   3.0701  -1.2652 H              1 S1                 0.0000
     52 ****        -3.4872   3.3244  -1.0788 H              1 S1                 0.0000
     53 ****        -3.6562   1.6621  -0.5720 H              1 S1                 0.0000
     54 ****        -1.0854   0.5501   0.0866 H              1 S1                 0.0000
     55 ****        -5.6796   1.0750  -4.5783 LP             1 S1                 0.0000
     56 ****        -3.9768   1.1324  -4.8896 LP             1 S1                 0.0000
     57 ****         1.3589   3.2379   1.5610 LP             1 S1                 0.0000
     58 ****         0.0825   3.2127   0.5428 LP             1 S1                 0.0000
     59 ****         4.2543  -2.6860  -1.0907 LP             1 S1                 0.0000
@<TRIPOS>BOND
    1    1    2 1     
    2    1   26 1     
    3    1   27 1     
    4    1   28 1     
    5    2    3 2     
    6    2    4 am    
    7    4   25 1     
    8    4    5 1     
    9    5    6 1     
   10    5   29 1     
   11    5   30 1     
   12    6    7 1     
   13    6   31 1     
   14    6   32 1     
   15    7    8 1     
   16    7   33 1     
   17    7   34 1     
   18    8    9 1     
   19    8   24 1     
   20    8   54 1     
   21    9   10 1     
   22    9   35 1     
   23    9   36 1     
   24   10   11 1     
   25   10   12 1     
   26   10   37 1     
   27   11   38 1     
   28   12   13 1     
   29   12   39 1     
   30   12   40 1     
   31   13   23 1     
   32   13   14 1     
   33   14   15 2     
   34   14   41 1     
   35   15   16 1     
   36   16   23 ar    
   37   16   17 ar    
   38   17   18 ar    
   39   17   42 1     
   40   18   19 1     
   41   18   20 ar    
   42   19   43 1     
   43   19   44 1     
   44   19   45 1     
   45   20   21 1     
   46   20   22 ar    
   47   21   46 1     
   48   21   47 1     
   49   21   48 1     
   50   22   23 ar    
   51   22   49 1     
   52   24   25 1     
   53   24   50 1     
   54   24   51 1     
   55   25   52 1     
   56   25   53 1     
   57    3   55 1     
   58    3   56 1     
   59   11   57 1     
   60   11   58 1     
   61   15   59 1     
@<TRIPOS>SUBSTRUCTURE
      1 S1             1
@<TRIPOS>SET
LONE_PAIRS      STATIC     ATOMS    <user>   **** ""
5 55 56 57 58 59
DONOR_HYDROGENS      STATIC     ATOMS    <user>   **** ""
2 54 38
ATOM$BLUE        STATIC     ATOMS    COLORGROUP SYSTEM
5 55 56 57 58 59
ATOM$RED        STATIC     ATOMS    COLORGROUP SYSTEM
2 54 38
