#       Name:                AV-unprocessed.smi:2021
#       Creating user name   scv26
#       Creation time:       Fri Mar 27 10:43:50 2020


#       File generated by GOLD software.
#

@<TRIPOS>MOLECULE
AV-unprocessed.smi:2021
    48    49     1
SMALL
NO_CHARGES


@<TRIPOS>ATOM
      1 ****        -3.1326   2.7660   2.0400 C.3            1 S1                 0.0000
      2 ****        -3.5853   2.6043   0.5790 C.3            1 S1                 0.0000
      3 ****        -5.1166   2.6751   0.4822 C.3            1 S1                 0.0000
      4 ****        -3.0641   1.2911  -0.0438 C.3            1 S1                 0.0000
      5 ****        -1.5816   1.2155  -0.0960 N.4            1 S1                 1.0000
      6 ****        -0.9774   2.0544  -1.1604 C.3            1 S1                 0.0000
      7 ****         0.5557   1.9439  -1.1244 C.3            1 S1                 0.0000
      8 ****         0.9380   0.5805  -1.2488 O.3            1 S1                 0.0000
      9 ****         0.4484  -0.2182  -0.1759 C.3            1 S1                 0.0000
     10 ****         0.9839  -1.6460  -0.3452 C.3            1 S1                 0.0000
     11 ****         2.4314  -1.6757  -0.1885 N.am           1 S1                 0.0000
     12 ****         3.1836  -2.7826  -0.2184 C.2            1 S1                 0.0000
     13 ****         2.6514  -3.8807  -0.3965 O.2            1 S1                 0.0000
     14 ****         4.5031  -2.5485  -0.0402 N.pl3          1 S1                -1.0000
     15 ****         5.3714  -3.5737  -0.0411 C.2            1 S1                 0.0000
     16 ****         5.8235  -4.1333   1.0928 N.2            1 S1                 0.0000
     17 ****         6.7116  -5.1770   0.8703 N.2            1 S1                 0.0000
     18 ****         6.9146  -5.3727  -0.4325 C.2            1 S1                 0.0000
     19 ****         6.0431  -4.2977  -1.5054 S.3            1 S1                 0.0000
     20 ****        -1.0917  -0.1795  -0.1993 C.3            1 S1                 0.0000
     21 ****        -3.4903   1.9431   2.6597 H              1 S1                 0.0000
     22 ****        -3.5153   3.6931   2.4681 H              1 S1                 0.0000
     23 ****        -2.0458   2.7969   2.1212 H              1 S1                 0.0000
     24 ****        -3.1970   3.4494   0.0112 H              1 S1                 0.0000
     25 ****        -5.5882   1.8651   1.0400 H              1 S1                 0.0000
     26 ****        -5.4496   2.6035  -0.5537 H              1 S1                 0.0000
     27 ****        -5.4938   3.6171   0.8819 H              1 S1                 0.0000
     28 ****        -3.4471   0.4581   0.5482 H              1 S1                 0.0000
     29 ****        -3.4646   1.1562  -1.0499 H              1 S1                 0.0000
     30 ****        -1.3491   1.7344  -2.1351 H              1 S1                 0.0000
     31 ****        -1.2633   3.0981  -1.0361 H              1 S1                 0.0000
     32 ****         0.9923   2.5092  -1.9479 H              1 S1                 0.0000
     33 ****         0.9566   2.3652  -0.2010 H              1 S1                 0.0000
     34 ****         0.8074   0.1851   0.7734 H              1 S1                 0.0000
     35 ****         0.5347  -2.3002   0.4039 H              1 S1                 0.0000
     36 ****         0.7120  -2.0420  -1.3249 H              1 S1                 0.0000
     37 ****         2.9014  -0.7936  -0.0464 H              1 S1                 0.0000
     38 ****         7.5837  -6.1526  -0.7636 H              1 S1                 0.0000
     39 ****        -1.4837  -0.7676   0.6317 H              1 S1                 0.0000
     40 ****        -1.4683  -0.6316  -1.1185 H              1 S1                 0.0000
     41 ****        -1.2436   1.5677   0.7883 H              1 S1                 0.0000
     42 ****         1.9365   0.5263  -1.2605 LP             1 S1                 0.0000
     43 ****         0.5746   0.2218  -2.1086 LP             1 S1                 0.0000
     44 ****         1.6608  -3.9424  -0.5180 LP             1 S1                 0.0000
     45 ****         3.2105  -4.7095  -0.4193 LP             1 S1                 0.0000
     46 ****         4.8324  -1.6136   0.0921 LP             1 S1                 0.0000
     47 ****         5.5485  -3.8291   2.0049 LP             1 S1                 0.0000
     48 ****         7.1439  -5.7135   1.5951 LP             1 S1                 0.0000
@<TRIPOS>BOND
    1    1    2 1     
    2    1   21 1     
    3    1   22 1     
    4    1   23 1     
    5    2    3 1     
    6    2    4 1     
    7    2   24 1     
    8    3   25 1     
    9    3   26 1     
   10    3   27 1     
   11    4    5 1     
   12    4   28 1     
   13    4   29 1     
   14    5   20 1     
   15    5    6 1     
   16    5   41 1     
   17    6    7 1     
   18    6   30 1     
   19    6   31 1     
   20    7    8 1     
   21    7   32 1     
   22    7   33 1     
   23    8    9 1     
   24    9   10 1     
   25    9   20 1     
   26    9   34 1     
   27   10   11 1     
   28   10   35 1     
   29   10   36 1     
   30   11   12 am    
   31   11   37 1     
   32   12   13 2     
   33   12   14 1     
   34   14   15 1     
   35   15   19 1     
   36   15   16 2     
   37   16   17 1     
   38   17   18 2     
   39   18   19 1     
   40   18   38 1     
   41   20   39 1     
   42   20   40 1     
   43    8   42 1     
   44    8   43 1     
   45   13   44 1     
   46   13   45 1     
   47   14   46 1     
   48   16   47 1     
   49   17   48 1     
@<TRIPOS>SUBSTRUCTURE
      1 S1             1
@<TRIPOS>SET
LONE_PAIRS      STATIC     ATOMS    <user>   **** ""
7 42 43 44 45 46 47 48
DONOR_HYDROGENS      STATIC     ATOMS    <user>   **** ""
2 41 37
ATOM$BLUE        STATIC     ATOMS    COLORGROUP SYSTEM
7 42 43 44 45 46 47 48
ATOM$RED        STATIC     ATOMS    COLORGROUP SYSTEM
2 41 37
