AV-unprocessed.smi:2676|AV-procd|sdf|10364|dock9
  -GOLD-   2272014393D 1   1.00000     0.00000
 Structure written by MMmdl.
 40 41  0  0  0  0  0  0  0  0  1 V2000
  148.4084  140.6273  154.1075 C   0  0  0  0  0  0  0  0  0  0  0  0
  149.4293  140.6006  154.9769 C   0  0  0  0  0  0  0  0  0  0  0  0
  150.4860  139.5117  155.0280 C   0  0  0  0  0  0  0  0  0  0  0  0
  150.5094  138.8394  156.3466 N   0  0  0  0  0  0  0  0  0  0  0  0
  151.5510  139.0984  157.1930 C   0  0  0  0  0  0  0  0  0  0  0  0
  152.4659  139.8652  156.8777 O   0  0  0  0  0  0  0  0  0  0  0  0
  151.5378  138.4567  158.3998 N   0  0  0  0  0  0  0  0  0  0  0  0
  152.6522  138.7007  159.3429 C   0  0  0  0  0  0  0  0  0  0  0  0
  152.8065  140.1797  159.6491 C   0  0  0  0  0  0  0  0  0  0  0  0
  153.8430  140.7129  160.3126 C   0  0  0  0  0  0  0  0  0  0  0  0
  150.5689  137.5638  158.7623 C   0  0  0  0  0  0  0  0  0  0  0  0
  150.6069  136.9705  159.8445 O   0  0  0  0  0  0  0  0  0  0  0  0
  149.5624  137.3475  157.8625 N   0  0  0  0  0  0  0  0  0  0  0  0
  148.5057  136.3635  158.2076 C   0  0  0  0  0  0  0  0  0  0  0  0
  147.6868  136.7499  159.4504 C   0  0  0  0  0  0  0  0  0  0  0  0
  147.0075  137.7778  159.4684 O   0  0  0  0  0  0  0  0  0  0  0  0
  147.7650  135.9011  160.4851 N   0  0  0  0  0  0  0  0  0  0  0  0
  147.0867  136.0489  161.7319 C   0  0  0  0  0  0  0  0  0  0  0  0
  147.3494  135.0130  162.8032 C   0  0  0  0  0  0  0  0  0  0  0  0
  146.0303  135.0228  162.0810 C   0  0  0  0  0  0  0  0  0  0  0  0
  149.5085  137.9563  156.6397 C   0  0  0  0  0  0  0  0  0  0  0  0
  148.6047  137.7111  155.8350 O   0  0  0  0  0  0  0  0  0  0  0  0
  148.2802  139.8502  153.3685 H   0  0  0  0  0  0  0  0  0  0  0  0
  147.6864  141.4303  154.1245 H   0  0  0  0  0  0  0  0  0  0  0  0
  149.5232  141.3951  155.7031 H   0  0  0  0  0  0  0  0  0  0  0  0
  150.2875  138.8069  154.2190 H   0  0  0  0  0  0  0  0  0  0  0  0
  151.4604  139.9315  154.7713 H   0  0  0  0  0  0  0  0  0  0  0  0
  152.5077  138.1711  160.2859 H   0  0  0  0  0  0  0  0  0  0  0  0
  153.5958  138.3023  158.9651 H   0  0  0  0  0  0  0  0  0  0  0  0
  152.0131  140.8268  159.3037 H   0  0  0  0  0  0  0  0  0  0  0  0
  154.6540  140.0978  160.6741 H   0  0  0  0  0  0  0  0  0  0  0  0
  153.8933  141.7750  160.5018 H   0  0  0  0  0  0  0  0  0  0  0  0
  147.8147  136.2143  157.3761 H   0  0  0  0  0  0  0  0  0  0  0  0
  148.9281  135.3697  158.3666 H   0  0  0  0  0  0  0  0  0  0  0  0
  148.3482  135.0832  160.3809 H   0  0  0  0  0  0  0  0  0  0  0  0
  146.8982  137.0630  162.0819 H   0  0  0  0  0  0  0  0  0  0  0  0
  148.0429  134.2061  162.5728 H   0  0  0  0  0  0  0  0  0  0  0  0
  147.3590  135.3532  163.8368 H   0  0  0  0  0  0  0  0  0  0  0  0
  145.1585  135.3684  162.6331 H   0  0  0  0  0  0  0  0  0  0  0  0
  145.8423  134.2214  161.3689 H   0  0  0  0  0  0  0  0  0  0  0  0
  1  2  2  0  0  0  0
  1 23  1  0  0  0  0
  1 24  1  0  0  0  0
  2  3  1  0  0  0  0
  2 25  1  0  0  0  0
  3  4  1  0  0  0  0
  3 26  1  0  0  0  0
  3 27  1  0  0  0  0
  4 21  1  0  0  0  0
  4  5  1  0  0  0  0
  5  6  2  0  0  0  0
  5  7  1  0  0  0  0
  7  8  1  0  0  0  0
  7 11  1  0  0  0  0
  8  9  1  0  0  0  0
  8 28  1  0  0  0  0
  8 29  1  0  0  0  0
  9 10  2  0  0  0  0
  9 30  1  0  0  0  0
 10 31  1  0  0  0  0
 10 32  1  0  0  0  0
 11 12  2  0  0  0  0
 11 13  1  0  0  0  0
 13 14  1  0  0  0  0
 13 21  1  0  0  0  0
 14 15  1  0  0  0  0
 14 33  1  0  0  0  0
 14 34  1  0  0  0  0
 15 16  2  0  0  0  0
 15 17  1  0  0  0  0
 17 18  1  0  0  0  0
 17 35  1  0  0  0  0
 18 20  1  0  0  0  0
 18 19  1  0  0  0  0
 18 36  1  0  0  0  0
 19 20  1  0  0  0  0
 19 37  1  0  0  0  0
 19 38  1  0  0  0  0
 20 39  1  0  0  0  0
 20 40  1  0  0  0  0
 21 22  2  0  0  0  0
M  END
> <s_m_source_file>
AV-unprocessed.smi

> <i_m_source_file_index>
2676

> <i_lp_mmshare_version>
43012

> <i_f3d_flags>
0

> <s_epik_input>
W0NIMl09W0NIXVtDSDJdbjFjKD1PKW4oW0NIMl1bQ0hdPVtDSDJdKWMoPU8pbihjMT1PKVtDSDJdQyg9TylbTkhdW0NIXTJbQ0gyXVtDSDJdMg==

> <s_epik_cmdline>
J2VwaWtfcHl0aG9uJywgJy1waCcsICc3LjAnLCAnLXRuJywgJzgnLCAnLW1hJywgJzIwMCcsICctbWV0YWxfYmluZGluZycsICctaW1hZScsICc8aW5maWxlLm1hZT4nLCAnLW9tYWUnLCAnPG91dGZpbGUubWFlPic=

> <r_lp_tautomer_probability>
1

> <r_epik_Ionization_Penalty>
2.07961e-08

> <r_epik_Ionization_Penalty_Charging>
1.25795e-10

> <r_epik_Ionization_Penalty_Neutral>
2.06703e-08

> <r_epik_State_Penalty>
-0

> <r_epik_Charging_Adjusted_Penalty>
1.25795e-10

> <i_epik_Tot_Q>
0

> <i_epik_Tot_abs_Q>
0

> <r_epik_Metal_State_Penalty>
-0

> <b_epik_Metal_Only>
0

> <s_lp_Force_Field>
OPLS_2005

> <r_lp_Energy>
27.3169

> <b_lp_Chiralities_Consistent>
1

> <s_lp_Variant>
AV-unprocessed.smi:2676-1

> <Gold.Version>
5.8.1

> <Gold.Id.Protein>
6NUR|6NUR_protein|mol2

> <Gold.PLP.Fitness>
42.9471

> <Gold.PLP.PLP>
-35.2498

> <Gold.PLP.part.hbond>
-3.4758

> <Gold.PLP.part.metal>
0.0000

> <Gold.PLP.part.buried>
-3.6848

> <Gold.PLP.part.nonpolar>
-28.7701

> <Gold.PLP.part.repulsive>
0.1927

> <Gold.PLP.ligand.clash>
0.0000

> <Gold.PLP.ligand.torsion>
0.2675

> <Gold.PLP.Chemscore.Hbond>
2.7113

> <Gold.PLP.Chemscore.CHOScore>
0.0000

> <Gold.PLP.Chemscore.Metal>
0.0000

> <Gold.Chemscore.Hbonds>
donor molecule, donor type, donor heavy atom, donor atom, acceptor molecule, acceptor atom, score
      P1  H  6896  6909       L1    12  1.00
      P1  H  6934  6947       L1    16  0.77
      P1  H  7997  8010       L1     6  1.00

> <Gold.PLP.Chemscore.Internal.Correction>
0.0987

> <Gold.Rescore>
     Score         DG    S(hbond)    S(metal)    S(lipo)     H(rot)  DE(clash)    DE(int)     intcor
     14.67     -16.82       2.76        0.00      70.47       2.39       0.02       2.13       ----

> <Gold.Chemscore.Fitness>
14.6661

> <Gold.Chemscore.DG>
-16.8188

> <Gold.Chemscore.ZeroCoef>
-5.4800

> <Gold.Chemscore.Hbond>
2.7579

> <Gold.Chemscore.Metal>
0.0000

> <Gold.Chemscore.Lipo>
70.4748

> <Gold.Chemscore.Internal_Hbond>
0.0000

> <Gold.Chemscore.DEClash>
0.0202

> <Gold.Chemscore.DEInternal>
2.1325

> <Gold.Chemscore.Rot>
2.3899

> <Gold.Chemscore.Internal.Correction>
   9.000000E+99

> <Gold.Chemscore.Hbonds>
donor molecule, donor type, donor heavy atom, donor atom, acceptor molecule, acceptor atom, score
      P1  H  6896  6909       L1    12  0.97
      P1  H  6934  6947       L1    16  0.76
      P1  H  7997  8010       L1     6  0.99

> <Gold.Chemscore.Hbond.Weighted>
-9.2113

> <Gold.Chemscore.Metal.Weighted>
-0.0000

> <Gold.Chemscore.Lipo.Weighted>
-8.2456

> <Gold.Chemscore.Internal_Hbond.Weighted>
0.0000

> <Gold.Chemscore.DEClash.Weighted>
0.0202

> <Gold.Chemscore.DEInternal.Weighted>
2.1325

> <Gold.Chemscore.Rot.Weighted>
6.1181

> <Gold.Chemscore.Internal.Correction.Weighted>
   9.000000E+99

> <Gold.Protein.RotatedTorsions>
[ 6907 6896 6895 6894 ] final   99.77 input  -60.11 | X-H torsion
[ 7974 7965 7964 7962 ] final   63.74 input  175.53 | X-H torsion
[ 8008 7997 7996 7995 ] final   73.50 input   59.86 | X-H torsion
[ 10167 10162 10161 10158 ] final -124.66 input  -65.29 | X-H torsion
[ 10718 10713 10712 10709 ] final  146.21 input   66.30 | X-H torsion
[ 10763 10752 10751 10750 ] final  136.81 input  -60.55 | X-H torsion
[ 11005 11000 10999 10996 ] final    0.32 input  -57.11 | X-H torsion

> <Gold.Protein.ActiveResidues>
 VAL166  LYS551  ARG553  GLY616  TRP617  ASP618  TYR619  PRO620  LYS621  CYS622 
 ASP623  PHE694  ASN695  SER759  ASP760  ASP761  ALA762  ILE779  LEU786  VAL792 
 PHE793  MET794  SER795  GLU796  ALA797  LYS798  CYS799  TRP800  GLU811  SER814 

> <Gold.Protein.RotatedAtoms>
  152.5385  134.0379  159.8053 H   0  0  0  0  0  0  0  0  0  0  0  0  # atno 6907 bound_to 6896
  151.0539  133.5593  159.2647 H   0  0  0  0  0  0  0  0  0  0  0  0  # atno 6908 bound_to 6896
  151.2517  135.0632  159.9118 H   0  0  0  0  0  0  0  0  0  0  0  0  # atno 6909 bound_to 6896
  145.8583  139.3298  143.0834 H   0  0  0  0  0  0  0  0  0  0  0  0  # atno 7974 bound_to 7965
  155.7846  140.3481  155.5316 H   0  0  0  0  0  0  0  0  0  0  0  0  # atno 8008 bound_to 7997
  155.8695  140.0984  157.1580 H   0  0  0  0  0  0  0  0  0  0  0  0  # atno 8009 bound_to 7997
  154.4016  140.1343  156.4048 H   0  0  0  0  0  0  0  0  0  0  0  0  # atno 8010 bound_to 7997
  139.9904  143.5647  152.2344 H   0  0  0  0  0  0  0  0  0  0  0  0  # atno 10167 bound_to 10162
  157.3359  131.0928  151.1123 H   0  0  0  0  0  0  0  0  0  0  0  0  # atno 10718 bound_to 10713
  153.8627  135.3065  155.3438 H   0  0  0  0  0  0  0  0  0  0  0  0  # atno 10763 bound_to 10752
  154.7841  135.4819  153.9911 H   0  0  0  0  0  0  0  0  0  0  0  0  # atno 10764 bound_to 10752
  153.1452  135.6832  153.9060 H   0  0  0  0  0  0  0  0  0  0  0  0  # atno 10765 bound_to 10752
  140.6279  133.9602  155.8259 H   0  0  0  0  0  0  0  0  0  0  0  0  # atno 11005 bound_to 11000
  145.9277  140.9070  143.0372 LP  0  0  0  0  0  0  0  0  0  0  0  0  # atno 17320 bound_to 7965
  144.6727  140.1376  143.7439 LP  0  0  0  0  0  0  0  0  0  0  0  0  # atno 17321 bound_to 7965
  139.6344  144.7648  151.2468 LP  0  0  0  0  0  0  0  0  0  0  0  0  # atno 17342 bound_to 10162
  140.7457  143.6423  150.8323 LP  0  0  0  0  0  0  0  0  0  0  0  0  # atno 17343 bound_to 10162
  157.2354  130.6544  149.5867 LP  0  0  0  0  0  0  0  0  0  0  0  0  # atno 17370 bound_to 10713
  155.9701  130.4585  150.6003 LP  0  0  0  0  0  0  0  0  0  0  0  0  # atno 17371 bound_to 10713
  141.0696  134.0225  157.3545 LP  0  0  0  0  0  0  0  0  0  0  0  0  # atno 17394 bound_to 11000
  139.9127  135.0192  156.7759 LP  0  0  0  0  0  0  0  0  0  0  0  0  # atno 17395 bound_to 11000

$$$$
