AV-unprocessed.smi:44|AV-procd|sdf|401|dock2
  -GOLD-   2262016253D 1   1.00000     0.00000
 Structure written by MMmdl.
 29 31  0  0  0  0  0  0  0  0  3 V2000
  149.8769  141.7633  154.9414 O   0  0  0  0  0  0  0  0  0  0  0  0
  150.6804  141.3495  155.7746 C   0  0  0  0  0  0  0  0  0  0  0  0
  151.2360  140.0983  155.8620 N   0  5  0  0  0  0  0  0  0  0  0  0
  152.1394  139.7682  156.8659 C   0  0  0  0  0  0  0  0  0  0  0  0
  152.5699  140.5271  157.8101 N   0  0  0  0  0  0  0  0  0  0  0  0
  152.0569  141.8332  157.8075 C   0  0  0  0  0  0  0  0  0  0  0  0
  151.1587  142.2681  156.8606 C   0  0  0  0  0  0  0  0  0  0  0  0
  150.8401  143.5783  157.0965 N   0  3  0  0  0  0  0  0  0  0  0  0
  151.5608  143.8800  158.1766 C   0  0  0  0  0  0  0  0  0  0  0  0
  152.3257  142.8644  158.6747 N   0  0  0  0  0  0  0  0  0  0  0  0
  153.2341  142.9440  159.8558 C   0  0  1  0  0  0  0  0  0  0  0  0
  152.4363  143.1412  161.1504 C   0  0  0  0  0  0  0  0  0  0  0  0
  153.2631  142.3399  162.1311 C   0  0  0  0  0  0  0  0  0  0  0  0
  153.6894  141.1666  161.2468 C   0  0  2  0  0  0  0  0  0  0  0  0
  154.8955  140.3376  161.7201 C   0  0  0  0  0  0  0  0  0  0  0  0
  156.1088  140.8168  161.1785 O   0  0  0  0  0  0  0  0  0  0  0  0
  153.9233  141.7329  159.9612 O   0  0  0  0  0  0  0  0  0  0  0  0
  150.2132  144.1761  156.5732 H   0  0  0  0  0  0  0  0  0  0  0  0
  153.9300  143.7568  159.6439 H   0  0  0  0  0  0  0  0  0  0  0  0
  152.8386  140.4928  161.1363 H   0  0  0  0  0  0  0  0  0  0  0  0
  152.4811  138.7334  156.7830 H   0  0  0  0  0  0  0  0  0  0  0  0
  151.5452  144.8560  158.6273 H   0  0  0  0  0  0  0  0  0  0  0  0
  152.3482  144.1976  161.4046 H   0  0  0  0  0  0  0  0  0  0  0  0
  151.4381  142.7112  161.0550 H   0  0  0  0  0  0  0  0  0  0  0  0
  154.1185  142.9307  162.4596 H   0  0  0  0  0  0  0  0  0  0  0  0
  152.7004  142.0279  163.0114 H   0  0  0  0  0  0  0  0  0  0  0  0
  154.9721  140.3874  162.8066 H   0  0  0  0  0  0  0  0  0  0  0  0
  154.7657  139.2875  161.4569 H   0  0  0  0  0  0  0  0  0  0  0  0
  156.4100  140.2011  160.5278 H   0  0  0  0  0  0  0  0  0  0  0  0
  1  2  2  0  0  0  0
  2  7  1  0  0  0  0
  2  3  1  0  0  0  0
  3  4  1  0  0  0  0
  4 21  1  0  0  0  0
  4  5  2  0  0  0  0
  5  6  1  0  0  0  0
  6 10  1  0  0  0  0
  6  7  2  0  0  0  0
  7  8  1  0  0  0  0
  8  9  2  0  0  0  0
  8 18  1  0  0  0  0
  9 10  1  0  0  0  0
  9 22  1  0  0  0  0
 10 11  1  0  0  0  0
 11 19  1  0  0  0  0
 11 17  1  0  0  0  0
 11 12  1  0  0  0  0
 12 13  1  0  0  0  0
 12 23  1  0  0  0  0
 12 24  1  0  0  0  0
 13 14  1  0  0  0  0
 13 25  1  0  0  0  0
 13 26  1  0  0  0  0
 14 20  1  0  0  0  0
 14 15  1  0  0  0  0
 14 17  1  0  0  0  0
 15 16  1  0  0  0  0
 15 27  1  0  0  0  0
 15 28  1  0  0  0  0
 16 29  1  0  0  0  0
M  CHG  1   3  -1
M  CHG  1   8   1
M  END
> <s_m_source_file>
AV-unprocessed.smi

> <i_m_source_file_index>
44

> <i_lp_mmshare_version>
43012

> <i_f3d_flags>
0

> <s_epik_input>
bjFbY0hdW25IXWMoPU8pYyhjMTIpbltjSF1uMltDQEhdM1tDSDJdW0NIMl1bQ0BIXShPMylbQ0gyXVtPSF0=

> <s_epik_cmdline>
J2VwaWtfcHl0aG9uJywgJy1waCcsICc3LjAnLCAnLXRuJywgJzgnLCAnLW1hJywgJzIwMCcsICctbWV0YWxfYmluZGluZycsICctaW1hZScsICc8aW5maWxlLm1hZT4nLCAnLW9tYWUnLCAnPG91dGZpbGUubWFlPic=

> <r_lp_tautomer_probability>
0.144281

> <r_epik_Ionization_Penalty>
5.63685

> <r_epik_Ionization_Penalty_Charging>
5.58669

> <r_epik_Ionization_Penalty_Neutral>
0.0501585

> <r_epik_State_Penalty>
1.20809

> <r_epik_Charging_Adjusted_Penalty>
6.79478

> <i_epik_Tot_Q>
0

> <i_epik_Tot_abs_Q>
2

> <r_epik_Metal_State_Penalty>
1.52487

> <b_epik_Metal_Only>
0

> <s_epik_Chemistry_Notes>
This compound contains an acetal/aminal-like group ( X-CH(R)-Y where X, Y are N, S, or O) that may be acid/base labile, releasing an aldehyde.

> <s_lp_Force_Field>
OPLS_2005

> <r_lp_Energy>
46.8975

> <b_lp_Chiralities_Consistent>
1

> <s_lp_Variant>
AV-unprocessed.smi:44-7

> <Gold.Version>
5.8.1

> <Gold.Id.Protein>
6NUR|6NUR_protein|mol2

> <Gold.PLP.Fitness>
42.5886

> <Gold.PLP.PLP>
-37.5256

> <Gold.PLP.part.hbond>
-2.7981

> <Gold.PLP.part.metal>
0.0000

> <Gold.PLP.part.buried>
-5.9127

> <Gold.PLP.part.nonpolar>
-28.8434

> <Gold.PLP.part.repulsive>
0.1477

> <Gold.PLP.ligand.clash>
0.0000

> <Gold.PLP.ligand.torsion>
0.4723

> <Gold.PLP.Chemscore.Hbond>
2.0000

> <Gold.PLP.Chemscore.CHOScore>
0.0000

> <Gold.PLP.Chemscore.Metal>
0.0000

> <Gold.Chemscore.Hbonds>
donor molecule, donor type, donor heavy atom, donor atom, acceptor molecule, acceptor atom, score
      L1  H     8    18       P1  8028  2.00

> <Gold.PLP.Chemscore.Internal.Correction>
0.0077

> <Gold.Rescore>
     Score         DG    S(hbond)    S(metal)    S(lipo)     H(rot)  DE(clash)    DE(int)     intcor
      6.66      -8.43       1.00        0.00      46.38       2.27       0.02       1.74       ----

> <Gold.Chemscore.Fitness>
6.6624

> <Gold.Chemscore.DG>
-8.4285

> <Gold.Chemscore.ZeroCoef>
-5.4800

> <Gold.Chemscore.Hbond>
0.9994

> <Gold.Chemscore.Metal>
0.0000

> <Gold.Chemscore.Lipo>
46.3850

> <Gold.Chemscore.Internal_Hbond>
0.0000

> <Gold.Chemscore.DEClash>
0.0211

> <Gold.Chemscore.DEInternal>
1.7450

> <Gold.Chemscore.Rot>
2.2720

> <Gold.Chemscore.Internal.Correction>
   9.000000E+99

> <Gold.Chemscore.Hbonds>
donor molecule, donor type, donor heavy atom, donor atom, acceptor molecule, acceptor atom, score
      L1  H     8    18       P1  8028  1.00

> <Gold.Chemscore.Hbond.Weighted>
-3.3379

> <Gold.Chemscore.Metal.Weighted>
-0.0000

> <Gold.Chemscore.Lipo.Weighted>
-5.4270

> <Gold.Chemscore.Internal_Hbond.Weighted>
0.0000

> <Gold.Chemscore.DEClash.Weighted>
0.0211

> <Gold.Chemscore.DEInternal.Weighted>
1.7450

> <Gold.Chemscore.Rot.Weighted>
5.8164

> <Gold.Chemscore.Internal.Correction.Weighted>
   9.000000E+99

> <Gold.Protein.RotatedTorsions>
[ 6907 6896 6895 6894 ] final -169.86 input  -60.11 | X-H torsion
[ 7974 7965 7964 7962 ] final   14.73 input  175.53 | X-H torsion
[ 8008 7997 7996 7995 ] final -113.44 input   59.86 | X-H torsion
[ 10167 10162 10161 10158 ] final  -89.57 input  -65.29 | X-H torsion
[ 10718 10713 10712 10709 ] final   43.86 input   66.30 | X-H torsion
[ 10763 10752 10751 10750 ] final -130.09 input  -60.55 | X-H torsion
[ 11005 11000 10999 10996 ] final -119.09 input  -57.11 | X-H torsion

> <Gold.Protein.ActiveResidues>
 VAL166  LYS551  ARG553  GLY616  TRP617  ASP618  TYR619  PRO620  LYS621  CYS622 
 ASP623  PHE694  ASN695  SER759  ASP760  ASP761  ALA762  ILE779  LEU786  VAL792 
 PHE793  MET794  SER795  GLU796  ALA797  LYS798  CYS799  TRP800  GLU811  SER814 

> <Gold.Protein.RotatedAtoms>
  151.4984  133.3509  159.2864 H   0  0  0  0  0  0  0  0  0  0  0  0  # atno 6907 bound_to 6896
  150.8789  134.8178  159.7221 H   0  0  0  0  0  0  0  0  0  0  0  0  # atno 6908 bound_to 6896
  152.4749  134.4879  159.9738 H   0  0  0  0  0  0  0  0  0  0  0  0  # atno 6909 bound_to 6896
  146.2297  139.8999  142.8541 H   0  0  0  0  0  0  0  0  0  0  0  0  # atno 7974 bound_to 7965
  155.0208  140.0393  157.2436 H   0  0  0  0  0  0  0  0  0  0  0  0  # atno 8008 bound_to 7997
  154.7380  140.2743  155.6375 H   0  0  0  0  0  0  0  0  0  0  0  0  # atno 8009 bound_to 7997
  156.2857  140.2671  156.2099 H   0  0  0  0  0  0  0  0  0  0  0  0  # atno 8010 bound_to 7997
  140.3635  143.2830  151.9585 H   0  0  0  0  0  0  0  0  0  0  0  0  # atno 10167 bound_to 10162
  157.4205  130.7966  149.7511 H   0  0  0  0  0  0  0  0  0  0  0  0  # atno 10718 bound_to 10713
  154.8756  135.3874  154.4027 H   0  0  0  0  0  0  0  0  0  0  0  0  # atno 10763 bound_to 10752
  153.4749  135.7030  153.5977 H   0  0  0  0  0  0  0  0  0  0  0  0  # atno 10764 bound_to 10752
  153.4417  135.3854  155.2200 H   0  0  0  0  0  0  0  0  0  0  0  0  # atno 10765 bound_to 10752
  141.0240  134.0082  157.3242 H   0  0  0  0  0  0  0  0  0  0  0  0  # atno 11005 bound_to 11000
  145.2334  140.9982  143.3977 LP  0  0  0  0  0  0  0  0  0  0  0  0  # atno 17320 bound_to 7965
  144.9511  139.4081  143.6402 LP  0  0  0  0  0  0  0  0  0  0  0  0  # atno 17321 bound_to 7965
  139.4811  144.5971  151.7671 LP  0  0  0  0  0  0  0  0  0  0  0  0  # atno 17342 bound_to 10162
  140.5103  144.1035  150.5993 LP  0  0  0  0  0  0  0  0  0  0  0  0  # atno 17343 bound_to 10162
  155.9879  130.3963  150.3143 LP  0  0  0  0  0  0  0  0  0  0  0  0  # atno 17370 bound_to 10713
  157.1290  131.0267  151.2977 LP  0  0  0  0  0  0  0  0  0  0  0  0  # atno 17371 bound_to 10713
  139.9164  135.0197  156.7896 LP  0  0  0  0  0  0  0  0  0  0  0  0  # atno 17394 bound_to 11000
  140.6524  133.9719  155.7762 LP  0  0  0  0  0  0  0  0  0  0  0  0  # atno 17395 bound_to 11000

$$$$
