#       Name:                AV-unprocessed.smi:2651
#       Creating user name   scv26
#       Creation time:       Fri Mar 27 14:30:42 2020


#       File generated by GOLD software.
#

@<TRIPOS>MOLECULE
AV-unprocessed.smi:2651
    50    51     1
SMALL
NO_CHARGES


@<TRIPOS>ATOM
      1 ****        -6.9558   1.8791   0.8663 C.3            1 S1                 0.0000
      2 ****        -5.4875   1.6257   0.8430 C.2            1 S1                 0.0000
      3 ****        -4.7396   0.4826   0.8846 C.2            1 S1                 0.0000
      4 ****        -3.4067   0.9701   0.8289 C.2            1 S1                 0.0000
      5 ****        -2.3046   0.0778   0.8557 N.am           1 S1                 0.0000
      6 ****        -0.9973   0.3866   0.8169 C.2            1 S1                 0.0000
      7 ****        -0.5471   1.5273   0.7175 O.2            1 S1                 0.0000
      8 ****        -0.2419  -0.7226   0.8947 N.am           1 S1                 0.0000
      9 ****         1.2241  -0.8458   0.9028 C.3            1 S1                 0.0000
     10 ****         1.4751  -2.3683   1.0101 C.3            1 S1                 0.0000
     11 ****         1.7843  -0.2083   2.2111 C.3            1 S1                 0.0000
     12 ****         2.0606   1.1743   2.1123 O.3            1 S1                 0.0000
     13 ****         1.8673  -0.2659  -0.4099 C.3            1 S1                 0.0000
     14 ****         1.2413  -0.8077  -1.7216 C.3            1 S1                 0.0000
     15 ****         1.8274  -0.1104  -2.9604 C.3            1 S1                 0.0000
     16 ****         3.3559  -0.2473  -3.0074 C.3            1 S1                 0.0000
     17 ****         3.9950   0.2781  -1.7139 C.3            1 S1                 0.0000
     18 ****         3.4076  -0.4224  -0.4781 C.3            1 S1                 0.0000
     19 ****        -3.3465   2.2909   0.7584 N.2            1 S1                 0.0000
     20 ****        -4.6797   2.7179   0.7671 O.3            1 S1                 0.0000
     21 ****        -7.5132   0.9423   0.8740 H              1 S1                 0.0000
     22 ****        -7.2643   2.4482  -0.0108 H              1 S1                 0.0000
     23 ****        -7.2355   2.4465   1.7541 H              1 S1                 0.0000
     24 ****        -5.0923  -0.5361   0.9467 H              1 S1                 0.0000
     25 ****        -2.5367  -0.9019   0.9235 H              1 S1                 0.0000
     26 ****        -0.7412  -1.5967   0.9654 H              1 S1                 0.0000
     27 ****         2.5362  -2.6097   1.0615 H              1 S1                 0.0000
     28 ****         1.0529  -2.9175   0.1690 H              1 S1                 0.0000
     29 ****         1.0192  -2.7772   1.9130 H              1 S1                 0.0000
     30 ****         1.1088  -0.3786   3.0507 H              1 S1                 0.0000
     31 ****         2.7272  -0.6830   2.4850 H              1 S1                 0.0000
     32 ****         2.3699   1.4806   2.9508 H              1 S1                 0.0000
     33 ****         1.6751   0.8072  -0.4161 H              1 S1                 0.0000
     34 ****         1.4124  -1.8804  -1.8092 H              1 S1                 0.0000
     35 ****         0.1608  -0.6669  -1.7251 H              1 S1                 0.0000
     36 ****         1.3898  -0.5319  -3.8657 H              1 S1                 0.0000
     37 ****         1.5542   0.9456  -2.9484 H              1 S1                 0.0000
     38 ****         3.6255  -1.2946  -3.1494 H              1 S1                 0.0000
     39 ****         3.7527   0.2946  -3.8662 H              1 S1                 0.0000
     40 ****         5.0746   0.1297  -1.7472 H              1 S1                 0.0000
     41 ****         3.8333   1.3540  -1.6353 H              1 S1                 0.0000
     42 ****         3.8784  -0.0110   0.4141 H              1 S1                 0.0000
     43 ****         3.6819  -1.4765  -0.5128 H              1 S1                 0.0000
     44 ****        -1.1701   2.3074   0.6589 LP             1 S1                 0.0000
     45 ****         0.4417   1.6744   0.6954 LP             1 S1                 0.0000
     46 ****         1.2278   1.6671   1.8599 LP             1 S1                 0.0000
     47 ****         2.7628   1.3287   1.4173 LP             1 S1                 0.0000
     48 ****        -2.5260   2.8604   0.7095 LP             1 S1                 0.0000
     49 ****        -4.8384   3.3094   1.5577 LP             1 S1                 0.0000
     50 ****        -4.8764   3.2241  -0.0726 LP             1 S1                 0.0000
@<TRIPOS>BOND
    1    1    2 1     
    2    1   21 1     
    3    1   22 1     
    4    1   23 1     
    5    2   20 1     
    6    2    3 2     
    7    3    4 1     
    8    3   24 1     
    9    4    5 1     
   10    4   19 2     
   11    5    6 am    
   12    5   25 1     
   13    6    7 2     
   14    6    8 am    
   15    8    9 1     
   16    8   26 1     
   17    9   10 1     
   18    9   11 1     
   19    9   13 1     
   20   10   27 1     
   21   10   28 1     
   22   10   29 1     
   23   11   12 1     
   24   11   30 1     
   25   11   31 1     
   26   12   32 1     
   27   13   18 1     
   28   13   14 1     
   29   13   33 1     
   30   14   15 1     
   31   14   34 1     
   32   14   35 1     
   33   15   16 1     
   34   15   36 1     
   35   15   37 1     
   36   16   17 1     
   37   16   38 1     
   38   16   39 1     
   39   17   18 1     
   40   17   40 1     
   41   17   41 1     
   42   18   42 1     
   43   18   43 1     
   44   19   20 1     
   45    7   44 1     
   46    7   45 1     
   47   12   46 1     
   48   12   47 1     
   49   19   48 1     
   50   20   49 1     
   51   20   50 1     
@<TRIPOS>SUBSTRUCTURE
      1 S1             1
@<TRIPOS>SET
LONE_PAIRS      STATIC     ATOMS    <user>   **** ""
7 44 45 46 47 48 49 50
DONOR_HYDROGENS      STATIC     ATOMS    <user>   **** ""
3 25 26 32
ATOM$BLUE        STATIC     ATOMS    COLORGROUP SYSTEM
7 44 45 46 47 48 49 50
ATOM$RED        STATIC     ATOMS    COLORGROUP SYSTEM
3 25 26 32
