AV-unprocessed.smi:2502|AV-procd|sdf|9845|dock5
  -GOLD-   2272013473D 1   1.00000     0.00000
 Structure written by MMmdl.
 39 41  0  0  0  0  0  0  0  0  1 V2000
  151.4353  136.4585  154.0171 O   0  0  0  0  0  0  0  0  0  0  0  0
  150.5609  137.3856  154.6308 C   0  0  2  0  0  0  0  0  0  0  0  0
  151.3881  138.4689  155.3416 C   0  0  0  0  0  0  0  0  0  0  0  0
  150.9826  139.7589  154.9040 O   0  0  0  0  0  0  0  0  0  0  0  0
  149.6042  140.0460  155.1020 C   0  0  0  0  0  0  0  0  0  0  0  0
  149.1953  141.3657  154.4242 C   0  0  0  0  0  0  0  0  0  0  0  0
  147.7613  141.7529  154.8213 C   0  0  0  0  0  0  0  0  0  0  0  0
  147.6530  141.8440  156.2382 O   0  0  0  0  0  0  0  0  0  0  0  0
  147.9182  140.6099  156.8968 C   0  0  0  0  0  0  0  0  0  0  0  0
  149.3618  140.1640  156.6123 C   0  0  0  0  0  0  0  0  0  0  0  0
  149.5434  136.6791  155.5489 C   0  0  0  0  0  0  0  0  0  0  0  0
  148.9577  135.5064  154.9241 N   0  0  0  0  0  0  0  0  0  0  0  0
  147.7673  135.6223  154.2702 N   0  0  0  0  0  0  0  0  0  0  0  0
  147.4443  134.4609  153.7849 N   0  0  0  0  0  0  0  0  0  0  0  0
  148.4399  133.5613  154.1277 C   0  0  0  0  0  0  0  0  0  0  0  0
  148.5970  132.1831  153.8605 C   0  0  0  0  0  0  0  0  0  0  0  0
  149.7306  131.4882  154.3360 C   0  0  0  0  0  0  0  0  0  0  0  0
  149.8870  129.8031  153.9876 Cl  0  0  0  0  0  0  0  0  0  0  0  0
  150.7221  132.1664  155.0855 C   0  0  0  0  0  0  0  0  0  0  0  0
  152.1141  131.3306  155.6761 Cl  0  0  0  0  0  0  0  0  0  0  0  0
  150.5797  133.5419  155.3574 C   0  0  0  0  0  0  0  0  0  0  0  0
  149.4436  134.2143  154.8756 C   0  0  0  0  0  0  0  0  0  0  0  0
  151.1031  136.2564  153.1559 H   0  0  0  0  0  0  0  0  0  0  0  0
  150.0183  137.8703  153.8182 H   0  0  0  0  0  0  0  0  0  0  0  0
  151.2964  138.3641  156.4228 H   0  0  0  0  0  0  0  0  0  0  0  0
  152.4418  138.3289  155.0950 H   0  0  0  0  0  0  0  0  0  0  0  0
  148.9941  139.2262  154.7178 H   0  0  0  0  0  0  0  0  0  0  0  0
  149.8806  142.1605  154.7211 H   0  0  0  0  0  0  0  0  0  0  0  0
  149.2608  141.2845  153.3397 H   0  0  0  0  0  0  0  0  0  0  0  0
  147.5004  142.7177  154.3863 H   0  0  0  0  0  0  0  0  0  0  0  0
  147.0426  141.0271  154.4378 H   0  0  0  0  0  0  0  0  0  0  0  0
  147.7722  140.7452  157.9686 H   0  0  0  0  0  0  0  0  0  0  0  0
  147.2043  139.8514  156.5716 H   0  0  0  0  0  0  0  0  0  0  0  0
  149.5650  139.2110  157.1016 H   0  0  0  0  0  0  0  0  0  0  0  0
  150.0540  140.8897  157.0412 H   0  0  0  0  0  0  0  0  0  0  0  0
  150.0151  136.3720  156.4832 H   0  0  0  0  0  0  0  0  0  0  0  0
  148.7393  137.3653  155.8185 H   0  0  0  0  0  0  0  0  0  0  0  0
  147.8448  131.6600  153.2886 H   0  0  0  0  0  0  0  0  0  0  0  0
  151.3300  134.0713  155.9260 H   0  0  0  0  0  0  0  0  0  0  0  0
  1  2  1  0  0  0  0
  1 23  1  0  0  0  0
  2  3  1  0  0  0  0
  2 11  1  0  0  0  0
  2 24  1  0  0  0  0
  3  4  1  0  0  0  0
  3 25  1  0  0  0  0
  3 26  1  0  0  0  0
  4  5  1  0  0  0  0
  5 10  1  0  0  0  0
  5  6  1  0  0  0  0
  5 27  1  0  0  0  0
  6  7  1  0  0  0  0
  6 28  1  0  0  0  0
  6 29  1  0  0  0  0
  7  8  1  0  0  0  0
  7 30  1  0  0  0  0
  7 31  1  0  0  0  0
  8  9  1  0  0  0  0
  9 10  1  0  0  0  0
  9 32  1  0  0  0  0
  9 33  1  0  0  0  0
 10 34  1  0  0  0  0
 10 35  1  0  0  0  0
 11 12  1  0  0  0  0
 11 36  1  0  0  0  0
 11 37  1  0  0  0  0
 12 22  1  0  0  0  0
 12 13  1  0  0  0  0
 13 14  2  0  0  0  0
 14 15  1  0  0  0  0
 15 22  2  0  0  0  0
 15 16  1  0  0  0  0
 16 17  2  0  0  0  0
 16 38  1  0  0  0  0
 17 18  1  0  0  0  0
 17 19  1  0  0  0  0
 19 20  1  0  0  0  0
 19 21  2  0  0  0  0
 21 22  1  0  0  0  0
 21 39  1  0  0  0  0
M  END
> <s_m_source_file>
AV-unprocessed.smi

> <i_m_source_file_index>
2502

> <i_lp_mmshare_version>
43012

> <i_f3d_flags>
0

> <s_epik_input>
W2NIXTFjKENsKWMoQ2wpW2NIXWMoYzEyKW4obm4yKVtDSDJdW0NASF0oW09IXSlbQ0gyXU9bQ0hdM1tDSDJdW0NIMl1PW0NIMl1bQ0gyXTM=

> <s_epik_cmdline>
J2VwaWtfcHl0aG9uJywgJy1waCcsICc3LjAnLCAnLXRuJywgJzgnLCAnLW1hJywgJzIwMCcsICctbWV0YWxfYmluZGluZycsICctaW1hZScsICc8aW5maWxlLm1hZT4nLCAnLW9tYWUnLCAnPG91dGZpbGUubWFlPic=

> <r_lp_tautomer_probability>
1

> <r_epik_Ionization_Penalty>
2.65748e-06

> <r_epik_Ionization_Penalty_Charging>
0

> <r_epik_Ionization_Penalty_Neutral>
2.65748e-06

> <r_epik_State_Penalty>
-0

> <r_epik_Charging_Adjusted_Penalty>
0

> <i_epik_Tot_Q>
0

> <i_epik_Tot_abs_Q>
0

> <r_epik_Metal_State_Penalty>
-0

> <b_epik_Metal_Only>
0

> <s_lp_Force_Field>
OPLS_2005

> <r_lp_Energy>
14.9544

> <b_lp_Chiralities_Consistent>
1

> <s_lp_Variant>
AV-unprocessed.smi:2502-1

> <Gold.Version>
5.8.1

> <Gold.Id.Protein>
6NUR|6NUR_protein|mol2

> <Gold.PLP.Fitness>
40.2797

> <Gold.PLP.PLP>
-33.5603

> <Gold.PLP.part.hbond>
-3.2168

> <Gold.PLP.part.metal>
0.0000

> <Gold.PLP.part.buried>
-4.3613

> <Gold.PLP.part.nonpolar>
-27.1871

> <Gold.PLP.part.repulsive>
1.9425

> <Gold.PLP.ligand.clash>
0.0000

> <Gold.PLP.ligand.torsion>
1.1759

> <Gold.PLP.Chemscore.Hbond>
3.0000

> <Gold.PLP.Chemscore.CHOScore>
0.0000

> <Gold.PLP.Chemscore.Metal>
0.0000

> <Gold.Chemscore.Hbonds>
donor molecule, donor type, donor heavy atom, donor atom, acceptor molecule, acceptor atom, score
      L1  H     1    23       P1  7949  1.00
      P1  H  7989  7998       L1     4  1.00
      P1  H 10752 10765       L1     1  1.00

> <Gold.PLP.Chemscore.Internal.Correction>
0.0711

> <Gold.Rescore>
     Score         DG    S(hbond)    S(metal)    S(lipo)     H(rot)  DE(clash)    DE(int)     intcor
     14.66     -16.01       1.98        0.00      81.67       2.21       0.13       1.22       ----

> <Gold.Chemscore.Fitness>
14.6602

> <Gold.Chemscore.DG>
-16.0073

> <Gold.Chemscore.ZeroCoef>
-5.4800

> <Gold.Chemscore.Hbond>
1.9821

> <Gold.Chemscore.Metal>
0.0000

> <Gold.Chemscore.Lipo>
81.6700

> <Gold.Chemscore.Internal_Hbond>
0.0000

> <Gold.Chemscore.DEClash>
0.1279

> <Gold.Chemscore.DEInternal>
1.2192

> <Gold.Chemscore.Rot>
2.2065

> <Gold.Chemscore.Internal.Correction>
   9.000000E+99

> <Gold.Chemscore.Hbonds>
donor molecule, donor type, donor heavy atom, donor atom, acceptor molecule, acceptor atom, score
      L1  H     1    23       P1  7949  0.34
      P1  H  7989  7998       L1     4  0.70
      P1  H 10752 10765       L1     1  0.60

> <Gold.Chemscore.Hbond.Weighted>
-6.6204

> <Gold.Chemscore.Metal.Weighted>
-0.0000

> <Gold.Chemscore.Lipo.Weighted>
-9.5554

> <Gold.Chemscore.Internal_Hbond.Weighted>
0.0000

> <Gold.Chemscore.DEClash.Weighted>
0.1279

> <Gold.Chemscore.DEInternal.Weighted>
1.2192

> <Gold.Chemscore.Rot.Weighted>
5.6485

> <Gold.Chemscore.Internal.Correction.Weighted>
   9.000000E+99

> <Gold.Protein.RotatedTorsions>
[ 6907 6896 6895 6894 ] final   35.06 input  -60.11 | X-H torsion
[ 7974 7965 7964 7962 ] final   12.24 input  175.53 | X-H torsion
[ 8008 7997 7996 7995 ] final  -66.24 input   59.86 | X-H torsion
[ 10167 10162 10161 10158 ] final   21.01 input  -65.29 | X-H torsion
[ 10718 10713 10712 10709 ] final  -38.58 input   66.30 | X-H torsion
[ 10763 10752 10751 10750 ] final  155.18 input  -60.55 | X-H torsion
[ 11005 11000 10999 10996 ] final  161.23 input  -57.11 | X-H torsion

> <Gold.Protein.ActiveResidues>
 VAL166  LYS551  ARG553  GLY616  TRP617  ASP618  TYR619  PRO620  LYS621  CYS622 
 ASP623  PHE694  ASN695  SER759  ASP760  ASP761  ALA762  ILE779  LEU786  VAL792 
 PHE793  MET794  SER795  GLU796  ALA797  LYS798  CYS799  TRP800  GLU811  SER814 

> <Gold.Protein.RotatedAtoms>
  152.1110  134.9274  160.0566 H   0  0  0  0  0  0  0  0  0  0  0  0  # atno 6907 bound_to 6896
  152.0452  133.3990  159.4362 H   0  0  0  0  0  0  0  0  0  0  0  0  # atno 6908 bound_to 6896
  150.6843  134.3291  159.4863 H   0  0  0  0  0  0  0  0  0  0  0  0  # atno 6909 bound_to 6896
  146.2355  139.9366  142.8489 H   0  0  0  0  0  0  0  0  0  0  0  0  # atno 7974 bound_to 7965
  154.4722  140.0916  156.7173 H   0  0  0  0  0  0  0  0  0  0  0  0  # atno 8008 bound_to 7997
  155.4693  140.3464  155.4305 H   0  0  0  0  0  0  0  0  0  0  0  0  # atno 8009 bound_to 7997
  156.1058  140.1434  156.9394 H   0  0  0  0  0  0  0  0  0  0  0  0  # atno 8010 bound_to 7997
  140.5460  143.9594  150.6548 H   0  0  0  0  0  0  0  0  0  0  0  0  # atno 10167 bound_to 10162
  156.3022  130.4241  149.8132 H   0  0  0  0  0  0  0  0  0  0  0  0  # atno 10718 bound_to 10713
  154.1642  135.2808  155.3100 H   0  0  0  0  0  0  0  0  0  0  0  0  # atno 10763 bound_to 10752
  154.6124  135.5494  153.7491 H   0  0  0  0  0  0  0  0  0  0  0  0  # atno 10764 bound_to 10752
  153.0183  135.6418  154.1783 H   0  0  0  0  0  0  0  0  0  0  0  0  # atno 10765 bound_to 10752
  140.2137  134.8248  157.3148 H   0  0  0  0  0  0  0  0  0  0  0  0  # atno 11005 bound_to 11000
  145.1993  140.9847  143.4165 LP  0  0  0  0  0  0  0  0  0  0  0  0  # atno 17320 bound_to 7965
  144.9788  139.3805  143.6272 LP  0  0  0  0  0  0  0  0  0  0  0  0  # atno 17321 bound_to 7965
  140.3007  143.3262  152.0974 LP  0  0  0  0  0  0  0  0  0  0  0  0  # atno 17342 bound_to 10162
  139.5007  144.6698  151.6269 LP  0  0  0  0  0  0  0  0  0  0  0  0  # atno 17343 bound_to 10162
  156.5506  130.8340  151.3298 LP  0  0  0  0  0  0  0  0  0  0  0  0  # atno 17370 bound_to 10713
  157.7370  130.9789  150.2171 LP  0  0  0  0  0  0  0  0  0  0  0  0  # atno 17371 bound_to 10713
  140.1923  134.4356  155.7708 LP  0  0  0  0  0  0  0  0  0  0  0  0  # atno 17394 bound_to 11000
  141.2225  133.7033  156.8048 LP  0  0  0  0  0  0  0  0  0  0  0  0  # atno 17395 bound_to 11000

$$$$
