AV-unprocessed.smi:2061|AV-procd|sdf|8371|dock6
  -GOLD-   2272011 43D 1   1.00000     0.00000
 Structure written by MMmdl.
 46 47  0  0  0  0  0  0  0  0  2 V2000
  143.1833  132.1939  150.0898 C   0  0  0  0  0  0  0  0  0  0  0  0
  144.3337  133.0455  150.5048 C   0  0  0  0  0  0  0  0  0  0  0  0
  144.4153  134.2749  151.0953 C   0  0  0  0  0  0  0  0  0  0  0  0
  145.8212  134.4831  151.2058 C   0  0  0  0  0  0  0  0  0  0  0  0
  146.4619  135.6234  151.7557 N   0  0  0  0  0  0  0  0  0  0  0  0
  145.9268  136.6008  152.5067 C   0  0  0  0  0  0  0  0  0  0  0  0
  144.7453  136.6768  152.8435 O   0  0  0  0  0  0  0  0  0  0  0  0
  146.8526  137.5081  152.8527 N   0  0  0  0  0  0  0  0  0  0  0  0
  146.6231  138.6713  153.7075 C   0  0  0  0  0  0  0  0  0  0  0  0
  147.5987  139.8503  153.4283 C   0  0  1  0  0  0  0  0  0  0  0  0
  146.8255  141.1901  153.3443 C   0  0  0  0  0  0  0  0  0  0  0  0
  148.7112  139.9165  154.4376 N   0  3  1  0  0  0  0  0  0  0  0  0
  149.8408  138.9867  154.1577 C   0  0  0  0  0  0  0  0  0  0  0  0
  150.9234  139.0578  155.2498 C   0  0  1  0  0  0  0  0  0  0  0  0
  152.1345  138.1812  154.9123 C   0  0  0  0  0  0  0  0  0  0  0  0
  151.3831  140.3956  155.3855 O   0  0  0  0  0  0  0  0  0  0  0  0
  150.3617  141.3323  155.7097 C   0  0  2  0  0  0  0  0  0  0  0  0
  149.8488  141.1714  157.1528 C   0  0  0  0  0  0  0  0  0  0  0  0
  149.2452  141.2923  154.6481 C   0  0  0  0  0  0  0  0  0  0  0  0
  146.5242  133.4753  150.7227 N   0  0  0  0  0  0  0  0  0  0  0  0
  145.5779  132.5472  150.2729 O   0  0  0  0  0  0  0  0  0  0  0  0
  142.2422  132.7357  150.1868 H   0  0  0  0  0  0  0  0  0  0  0  0
  143.1233  131.2981  150.7080 H   0  0  0  0  0  0  0  0  0  0  0  0
  143.2878  131.8824  149.0503 H   0  0  0  0  0  0  0  0  0  0  0  0
  143.5925  134.9073  151.3924 H   0  0  0  0  0  0  0  0  0  0  0  0
  147.4512  135.6917  151.5678 H   0  0  0  0  0  0  0  0  0  0  0  0
  147.7972  137.3665  152.5250 H   0  0  0  0  0  0  0  0  0  0  0  0
  145.5884  139.0121  153.6411 H   0  0  0  0  0  0  0  0  0  0  0  0
  146.7569  138.2865  154.7167 H   0  0  0  0  0  0  0  0  0  0  0  0
  148.0545  139.6732  152.4528 H   0  0  0  0  0  0  0  0  0  0  0  0
  145.9890  141.1386  152.6494 H   0  0  0  0  0  0  0  0  0  0  0  0
  147.4408  142.0066  152.9709 H   0  0  0  0  0  0  0  0  0  0  0  0
  146.4267  141.4796  154.3172 H   0  0  0  0  0  0  0  0  0  0  0  0
  149.4996  137.9541  154.1276 H   0  0  0  0  0  0  0  0  0  0  0  0
  150.2683  139.2181  153.1805 H   0  0  0  0  0  0  0  0  0  0  0  0
  150.5112  138.7089  156.1967 H   0  0  0  0  0  0  0  0  0  0  0  0
  151.8458  137.1354  154.8031 H   0  0  0  0  0  0  0  0  0  0  0  0
  152.8865  138.2370  155.6997 H   0  0  0  0  0  0  0  0  0  0  0  0
  152.6041  138.4981  153.9804 H   0  0  0  0  0  0  0  0  0  0  0  0
  150.8321  142.3145  155.6550 H   0  0  0  0  0  0  0  0  0  0  0  0
  149.1821  141.9921  157.4189 H   0  0  0  0  0  0  0  0  0  0  0  0
  150.6767  141.1785  157.8623 H   0  0  0  0  0  0  0  0  0  0  0  0
  149.2920  140.2457  157.2959 H   0  0  0  0  0  0  0  0  0  0  0  0
  149.6298  141.6699  153.6993 H   0  0  0  0  0  0  0  0  0  0  0  0
  148.4673  141.9807  154.9717 H   0  0  0  0  0  0  0  0  0  0  0  0
  148.3147  139.6247  155.3196 H   0  0  0  0  0  0  0  0  0  0  0  0
  1  2  1  0  0  0  0
  1 22  1  0  0  0  0
  1 23  1  0  0  0  0
  1 24  1  0  0  0  0
  2 21  1  0  0  0  0
  2  3  2  0  0  0  0
  3  4  1  0  0  0  0
  3 25  1  0  0  0  0
  4  5  1  0  0  0  0
  4 20  2  0  0  0  0
  5  6  1  0  0  0  0
  5 26  1  0  0  0  0
  6  7  2  0  0  0  0
  6  8  1  0  0  0  0
  8  9  1  0  0  0  0
  8 27  1  0  0  0  0
  9 10  1  0  0  0  0
  9 28  1  0  0  0  0
  9 29  1  0  0  0  0
 10 11  1  0  0  0  0
 10 12  1  0  0  0  0
 10 30  1  0  0  0  0
 11 31  1  0  0  0  0
 11 32  1  0  0  0  0
 11 33  1  0  0  0  0
 12 19  1  0  0  0  0
 12 13  1  0  0  0  0
 12 46  1  0  0  0  0
 13 14  1  0  0  0  0
 13 34  1  0  0  0  0
 13 35  1  0  0  0  0
 14 15  1  0  0  0  0
 14 16  1  0  0  0  0
 14 36  1  0  0  0  0
 15 37  1  0  0  0  0
 15 38  1  0  0  0  0
 15 39  1  0  0  0  0
 16 17  1  0  0  0  0
 17 18  1  0  0  0  0
 17 19  1  0  0  0  0
 17 40  1  0  0  0  0
 18 41  1  0  0  0  0
 18 42  1  0  0  0  0
 18 43  1  0  0  0  0
 19 44  1  0  0  0  0
 19 45  1  0  0  0  0
 20 21  1  0  0  0  0
M  CHG  1  12   1
M  END
> <s_m_source_file>
AV-unprocessed.smi

> <i_m_source_file_index>
2061

> <i_lp_mmshare_version>
43012

> <i_f3d_flags>
0

> <s_epik_input>
W0NIM11jMVtjSF1jKG5vMSlbTkhdQyg9TylbTkhdW0NIMl1bQ0BIXShbQ0gzXSlOMltDSDJdW0NAQEhdKFtDSDNdKU9bQ0BASF0oW0NIM10pW0NIMl0y

> <s_epik_cmdline>
J2VwaWtfcHl0aG9uJywgJy1waCcsICc3LjAnLCAnLXRuJywgJzgnLCAnLW1hJywgJzIwMCcsICctbWV0YWxfYmluZGluZycsICctaW1hZScsICc8aW5maWxlLm1hZT4nLCAnLW9tYWUnLCAnPG91dGZpbGUubWFlPic=

> <r_epik_Ionization_Penalty>
0.707076

> <r_epik_Ionization_Penalty_Charging>
0.707039

> <r_epik_Ionization_Penalty_Neutral>
3.6548e-05

> <r_epik_State_Penalty>
0.730276

> <r_epik_Charging_Adjusted_Penalty>
1.43732

> <i_epik_Tot_Q>
1

> <i_epik_Tot_abs_Q>
1

> <r_epik_Metal_State_Penalty>
0.743132

> <b_epik_Metal_Only>
0

> <s_lp_Force_Field>
OPLS_2005

> <r_lp_Energy>
23.7206

> <b_lp_Chiralities_Consistent>
1

> <s_lp_Variant>
AV-unprocessed.smi:2061-12

> <Gold.Version>
5.8.1

> <Gold.Id.Protein>
6NUR|6NUR_protein|mol2

> <Gold.PLP.Fitness>
40.1523

> <Gold.PLP.PLP>
-34.6266

> <Gold.PLP.part.hbond>
-2.9410

> <Gold.PLP.part.metal>
0.0000

> <Gold.PLP.part.buried>
-1.2965

> <Gold.PLP.part.nonpolar>
-30.4387

> <Gold.PLP.part.repulsive>
0.7310

> <Gold.PLP.ligand.clash>
0.0000

> <Gold.PLP.ligand.torsion>
1.4944

> <Gold.PLP.Chemscore.Hbond>
2.8240

> <Gold.PLP.Chemscore.CHOScore>
0.0000

> <Gold.PLP.Chemscore.Metal>
0.0000

> <Gold.Chemscore.Hbonds>
donor molecule, donor type, donor heavy atom, donor atom, acceptor molecule, acceptor atom, score
      L1  H     5    26       P1  7948  1.00
      L1  H     8    27       P1  7948  0.94
      P1  H  7989  7998       L1    16  0.87

> <Gold.PLP.Chemscore.Internal.Correction>
0.0425

> <Gold.Rescore>
     Score         DG    S(hbond)    S(metal)    S(lipo)     H(rot)  DE(clash)    DE(int)     intcor
     15.06     -17.94       2.00        0.00      84.09       1.58       0.22       2.66       ----

> <Gold.Chemscore.Fitness>
15.0592

> <Gold.Chemscore.DG>
-17.9378

> <Gold.Chemscore.ZeroCoef>
-5.4800

> <Gold.Chemscore.Hbond>
1.9977

> <Gold.Chemscore.Metal>
0.0000

> <Gold.Chemscore.Lipo>
84.0933

> <Gold.Chemscore.Internal_Hbond>
0.0000

> <Gold.Chemscore.DEClash>
0.2199

> <Gold.Chemscore.DEInternal>
2.6586

> <Gold.Chemscore.Rot>
1.5834

> <Gold.Chemscore.Internal.Correction>
   9.000000E+99

> <Gold.Chemscore.Hbonds>
donor molecule, donor type, donor heavy atom, donor atom, acceptor molecule, acceptor atom, score
      L1  H     5    26       P1  7948  0.95
      L1  H     8    27       P1  7948  0.91
      P1  H  7989  7998       L1    16  0.06

> <Gold.Chemscore.Hbond.Weighted>
-6.6723

> <Gold.Chemscore.Metal.Weighted>
-0.0000

> <Gold.Chemscore.Lipo.Weighted>
-9.8389

> <Gold.Chemscore.Internal_Hbond.Weighted>
0.0000

> <Gold.Chemscore.DEClash.Weighted>
0.2199

> <Gold.Chemscore.DEInternal.Weighted>
2.6586

> <Gold.Chemscore.Rot.Weighted>
4.0535

> <Gold.Chemscore.Internal.Correction.Weighted>
   9.000000E+99

> <Gold.Protein.RotatedTorsions>
[ 6907 6896 6895 6894 ] final  -95.67 input  -60.11 | X-H torsion
[ 7974 7965 7964 7962 ] final  -38.77 input  175.53 | X-H torsion
[ 8008 7997 7996 7995 ] final   47.42 input   59.86 | X-H torsion
[ 10167 10162 10161 10158 ] final  139.83 input  -65.29 | X-H torsion
[ 10718 10713 10712 10709 ] final  157.66 input   66.30 | X-H torsion
[ 10763 10752 10751 10750 ] final  -75.10 input  -60.55 | X-H torsion
[ 11005 11000 10999 10996 ] final   67.87 input  -57.11 | X-H torsion

> <Gold.Protein.ActiveResidues>
 VAL166  LYS551  ARG553  GLY616  TRP617  ASP618  TYR619  PRO620  LYS621  CYS622 
 ASP623  PHE694  ASN695  SER759  ASP760  ASP761  ALA762  ILE779  LEU786  VAL792 
 PHE793  MET794  SER795  GLU796  ALA797  LYS798  CYS799  TRP800  GLU811  SER814 

> <Gold.Protein.RotatedAtoms>
  150.6969  134.1622  159.4180 H   0  0  0  0  0  0  0  0  0  0  0  0  # atno 6907 bound_to 6896
  151.9602  135.0125  160.0556 H   0  0  0  0  0  0  0  0  0  0  0  0  # atno 6908 bound_to 6896
  152.1933  133.4753  159.5056 H   0  0  0  0  0  0  0  0  0  0  0  0  # atno 6909 bound_to 6896
  146.0457  140.6549  142.9066 H   0  0  0  0  0  0  0  0  0  0  0  0  # atno 7974 bound_to 7965
  155.3688  140.3422  155.4242 H   0  0  0  0  0  0  0  0  0  0  0  0  # atno 8008 bound_to 7997
  156.1674  140.1620  156.8542 H   0  0  0  0  0  0  0  0  0  0  0  0  # atno 8009 bound_to 7997
  154.5199  140.0769  156.8133 H   0  0  0  0  0  0  0  0  0  0  0  0  # atno 8010 bound_to 7997
  139.5067  144.6271  151.5910 H   0  0  0  0  0  0  0  0  0  0  0  0  # atno 10167 bound_to 10162
  157.1885  131.0649  151.2093 H   0  0  0  0  0  0  0  0  0  0  0  0  # atno 10718 bound_to 10713
  154.4820  135.5842  153.6396 H   0  0  0  0  0  0  0  0  0  0  0  0  # atno 10763 bound_to 10752
  152.9849  135.6092  154.3234 H   0  0  0  0  0  0  0  0  0  0  0  0  # atno 10764 bound_to 10752
  154.3126  135.2845  155.2538 H   0  0  0  0  0  0  0  0  0  0  0  0  # atno 10765 bound_to 10752
  139.9745  134.6846  156.0382 H   0  0  0  0  0  0  0  0  0  0  0  0  # atno 11005 bound_to 11000
  144.7096  140.3989  143.7090 LP  0  0  0  0  0  0  0  0  0  0  0  0  # atno 17320 bound_to 7965
  145.6810  139.1618  143.2701 LP  0  0  0  0  0  0  0  0  0  0  0  0  # atno 17321 bound_to 7965
  140.5991  143.9642  150.6374 LP  0  0  0  0  0  0  0  0  0  0  0  0  # atno 17342 bound_to 10162
  140.2847  143.3365  152.1118 LP  0  0  0  0  0  0  0  0  0  0  0  0  # atno 17343 bound_to 10162
  157.3884  130.7269  149.6680 LP  0  0  0  0  0  0  0  0  0  0  0  0  # atno 17370 bound_to 10713
  155.9715  130.4153  150.4176 LP  0  0  0  0  0  0  0  0  0  0  0  0  # atno 17371 bound_to 10713
  141.1422  133.6562  156.3764 LP  0  0  0  0  0  0  0  0  0  0  0  0  # atno 17394 bound_to 11000
  140.5224  134.6291  157.5323 LP  0  0  0  0  0  0  0  0  0  0  0  0  # atno 17395 bound_to 11000

$$$$
