AV-unprocessed.smi:1231|AV-procd|sdf|5165|dock10
  -GOLD-   22720 4243D 1   1.00000     0.00000
 Structure written by MMmdl.
 43 44  0  0  0  0  0  0  0  0  2 V2000
  146.7210  136.7484  151.4746 C   0  0  0  0  0  0  0  0  0  0  0  0
  146.1281  137.7730  152.4479 C   0  0  2  0  0  0  0  0  0  0  0  0
  147.0319  139.0089  152.6141 C   0  0  0  0  0  0  0  0  0  0  0  0
  146.4598  139.9420  153.6133 N   0  3  2  0  0  0  0  0  0  0  0  0
  147.2698  141.1768  153.7601 C   0  0  0  0  0  0  0  0  0  0  0  0
  148.7331  140.8793  154.1416 C   0  0  0  0  0  0  0  0  0  0  0  0
  149.3237  141.9770  154.8981 N   0  0  0  0  0  0  0  0  0  0  0  0
  149.9889  141.8383  156.0543 C   0  0  0  0  0  0  0  0  0  0  0  0
  150.1749  140.7496  156.5992 O   0  0  0  0  0  0  0  0  0  0  0  0
  150.4124  143.0263  156.5202 N   0  0  0  0  0  0  0  0  0  0  0  0
  151.1607  143.2897  157.6985 C   0  0  0  0  0  0  0  0  0  0  0  0
  151.4594  144.6522  157.9256 C   0  0  0  0  0  0  0  0  0  0  0  0
  152.1973  145.0183  159.0678 C   0  0  0  0  0  0  0  0  0  0  0  0
  152.6197  144.0110  159.9534 C   0  0  0  0  0  0  0  0  0  0  0  0
  152.2821  142.6787  159.6522 C   0  0  0  0  0  0  0  0  0  0  0  0
  151.5740  142.3256  158.5587 N   0  0  0  0  0  0  0  0  0  0  0  0
  146.2167  139.2364  154.8960 C   0  0  0  0  0  0  0  0  0  0  0  0
  145.3389  137.9905  154.6700 C   0  0  2  0  0  0  0  0  0  0  0  0
  145.1331  137.1866  155.9585 C   0  0  0  0  0  0  0  0  0  0  0  0
  145.9678  137.1437  153.7142 O   0  0  0  0  0  0  0  0  0  0  0  0
  146.8510  137.1799  150.4819 H   0  0  0  0  0  0  0  0  0  0  0  0
  146.0673  135.8815  151.3758 H   0  0  0  0  0  0  0  0  0  0  0  0
  147.6941  136.3944  151.8163 H   0  0  0  0  0  0  0  0  0  0  0  0
  145.1500  138.0800  152.0729 H   0  0  0  0  0  0  0  0  0  0  0  0
  148.0321  138.7067  152.9301 H   0  0  0  0  0  0  0  0  0  0  0  0
  147.1381  139.5170  151.6547 H   0  0  0  0  0  0  0  0  0  0  0  0
  147.2115  141.7608  152.8403 H   0  0  0  0  0  0  0  0  0  0  0  0
  146.8357  141.7975  154.5455 H   0  0  0  0  0  0  0  0  0  0  0  0
  148.7815  139.9797  154.7556 H   0  0  0  0  0  0  0  0  0  0  0  0
  149.3460  140.6875  153.2604 H   0  0  0  0  0  0  0  0  0  0  0  0
  149.2114  142.9064  154.5198 H   0  0  0  0  0  0  0  0  0  0  0  0
  150.1734  143.8372  155.9690 H   0  0  0  0  0  0  0  0  0  0  0  0
  151.1272  145.4138  157.2350 H   0  0  0  0  0  0  0  0  0  0  0  0
  152.4343  146.0543  159.2605 H   0  0  0  0  0  0  0  0  0  0  0  0
  153.1873  144.2525  160.8399 H   0  0  0  0  0  0  0  0  0  0  0  0
  152.5877  141.8751  160.3058 H   0  0  0  0  0  0  0  0  0  0  0  0
  147.1715  138.9483  155.3394 H   0  0  0  0  0  0  0  0  0  0  0  0
  145.7232  139.8984  155.6063 H   0  0  0  0  0  0  0  0  0  0  0  0
  144.3609  138.2939  154.2920 H   0  0  0  0  0  0  0  0  0  0  0  0
  144.6401  137.7882  156.7226 H   0  0  0  0  0  0  0  0  0  0  0  0
  146.0842  136.8426  156.3661 H   0  0  0  0  0  0  0  0  0  0  0  0
  144.5124  136.3089  155.7753 H   0  0  0  0  0  0  0  0  0  0  0  0
  145.5595  140.2255  153.2538 H   0  0  0  0  0  0  0  0  0  0  0  0
  1  2  1  0  0  0  0
  1 21  1  0  0  0  0
  1 22  1  0  0  0  0
  1 23  1  0  0  0  0
  2 20  1  0  0  0  0
  2  3  1  0  0  0  0
  2 24  1  0  0  0  0
  3  4  1  0  0  0  0
  3 25  1  0  0  0  0
  3 26  1  0  0  0  0
  4  5  1  0  0  0  0
  4 17  1  0  0  0  0
  4 43  1  0  0  0  0
  5  6  1  0  0  0  0
  5 27  1  0  0  0  0
  5 28  1  0  0  0  0
  6  7  1  0  0  0  0
  6 29  1  0  0  0  0
  6 30  1  0  0  0  0
  7  8  1  0  0  0  0
  7 31  1  0  0  0  0
  8  9  2  0  0  0  0
  8 10  1  0  0  0  0
 10 11  1  0  0  0  0
 10 32  1  0  0  0  0
 11 16  1  0  0  0  0
 11 12  2  0  0  0  0
 12 13  1  0  0  0  0
 12 33  1  0  0  0  0
 13 14  2  0  0  0  0
 13 34  1  0  0  0  0
 14 15  1  0  0  0  0
 14 35  1  0  0  0  0
 15 16  2  0  0  0  0
 15 36  1  0  0  0  0
 17 18  1  0  0  0  0
 17 37  1  0  0  0  0
 17 38  1  0  0  0  0
 18 19  1  0  0  0  0
 18 20  1  0  0  0  0
 18 39  1  0  0  0  0
 19 40  1  0  0  0  0
 19 41  1  0  0  0  0
 19 42  1  0  0  0  0
M  CHG  1   4   1
M  END
> <s_m_source_file>
AV-unprocessed.smi

> <i_m_source_file_index>
1231

> <i_lp_mmshare_version>
43012

> <i_f3d_flags>
0

> <s_epik_input>
W0NIM11bQ0BASF0xW0NIMl1OKFtDSDJdW0NASF0oTzEpW0NIM10pW0NIMl1bQ0gyXVtOSF1DKD1PKVtOSF1jMltjSF1bY0hdW2NIXVtjSF1uMg==

> <s_epik_cmdline>
J2VwaWtfcHl0aG9uJywgJy1waCcsICc3LjAnLCAnLXRuJywgJzgnLCAnLW1hJywgJzIwMCcsICctbWV0YWxfYmluZGluZycsICctaW1hZScsICc8aW5maWxlLm1hZT4nLCAnLW9tYWUnLCAnPG91dGZpbGUubWFlPic=

> <r_epik_Ionization_Penalty>
0.602565

> <r_epik_Ionization_Penalty_Charging>
0.602531

> <r_epik_Ionization_Penalty_Neutral>
3.43186e-05

> <r_epik_State_Penalty>
0.617039

> <r_epik_Charging_Adjusted_Penalty>
1.21957

> <i_epik_Tot_Q>
1

> <i_epik_Tot_abs_Q>
1

> <r_epik_Metal_State_Penalty>
0.617041

> <b_epik_Metal_Only>
0

> <s_lp_Force_Field>
OPLS_2005

> <r_lp_Energy>
15.064

> <b_lp_Chiralities_Consistent>
1

> <s_lp_Variant>
AV-unprocessed.smi:1231-6

> <Gold.Version>
5.8.1

> <Gold.Id.Protein>
6NUR|6NUR_protein|mol2

> <Gold.PLP.Fitness>
48.1071

> <Gold.PLP.PLP>
-37.0716

> <Gold.PLP.part.hbond>
-3.0000

> <Gold.PLP.part.metal>
0.0000

> <Gold.PLP.part.buried>
0.2868

> <Gold.PLP.part.nonpolar>
-35.0410

> <Gold.PLP.part.repulsive>
0.4649

> <Gold.PLP.ligand.clash>
0.0000

> <Gold.PLP.ligand.torsion>
0.2405

> <Gold.PLP.Chemscore.Hbond>
3.8320

> <Gold.PLP.Chemscore.CHOScore>
0.0000

> <Gold.PLP.Chemscore.Metal>
0.0000

> <Gold.Chemscore.Hbonds>
donor molecule, donor type, donor heavy atom, donor atom, acceptor molecule, acceptor atom, score
      L1  H     4    43       P1 10175  1.92
      L1  H     7    31       P1  8028  0.39
      L1  H    10    32       P1  8028  0.78

> <Gold.PLP.Chemscore.Internal.Correction>
0.0206

> <Gold.Rescore>
     Score         DG    S(hbond)    S(metal)    S(lipo)     H(rot)  DE(clash)    DE(int)     intcor
     18.45     -21.41       2.87        0.00      88.31       1.55       1.36       1.60       ----

> <Gold.Chemscore.Fitness>
18.4461

> <Gold.Chemscore.DG>
-21.4065

> <Gold.Chemscore.ZeroCoef>
-5.4800

> <Gold.Chemscore.Hbond>
2.8665

> <Gold.Chemscore.Metal>
0.0000

> <Gold.Chemscore.Lipo>
88.3088

> <Gold.Chemscore.Internal_Hbond>
0.0000

> <Gold.Chemscore.DEClash>
1.3576

> <Gold.Chemscore.DEInternal>
1.6028

> <Gold.Chemscore.Rot>
1.5546

> <Gold.Chemscore.Internal.Correction>
   9.000000E+99

> <Gold.Chemscore.Hbonds>
donor molecule, donor type, donor heavy atom, donor atom, acceptor molecule, acceptor atom, score
      L1  H     4    43       P1 10175  0.91
      L1  H     7    31       P1  8028  0.38
      L1  H    10    32       P1  8028  0.76

> <Gold.Chemscore.Hbond.Weighted>
-9.5740

> <Gold.Chemscore.Metal.Weighted>
-0.0000

> <Gold.Chemscore.Lipo.Weighted>
-10.3321

> <Gold.Chemscore.Internal_Hbond.Weighted>
0.0000

> <Gold.Chemscore.DEClash.Weighted>
1.3576

> <Gold.Chemscore.DEInternal.Weighted>
1.6028

> <Gold.Chemscore.Rot.Weighted>
3.9797

> <Gold.Chemscore.Internal.Correction.Weighted>
   9.000000E+99

> <Gold.Protein.RotatedTorsions>
[ 6907 6896 6895 6894 ] final   21.37 input  -60.11 | X-H torsion
[ 7974 7965 7964 7962 ] final  -70.96 input  175.53 | X-H torsion
[ 8008 7997 7996 7995 ] final   -9.51 input   59.86 | X-H torsion
[ 10167 10162 10161 10158 ] final  127.76 input  -65.29 | X-H torsion
[ 10718 10713 10712 10709 ] final  173.62 input   66.30 | X-H torsion
[ 10763 10752 10751 10750 ] final  172.68 input  -60.55 | X-H torsion
[ 11005 11000 10999 10996 ] final  124.98 input  -57.11 | X-H torsion

> <Gold.Protein.ActiveResidues>
 VAL166  LYS551  ARG553  GLY616  TRP617  ASP618  TYR619  PRO620  LYS621  CYS622 
 ASP623  PHE694  ASN695  SER759  ASP760  ASP761  ALA762  ILE779  LEU786  VAL792 
 PHE793  MET794  SER795  GLU796  ALA797  LYS798  CYS799  TRP800  GLU811  SER814 

> <Gold.Protein.RotatedAtoms>
  151.9107  135.0340  160.0513 H   0  0  0  0  0  0  0  0  0  0  0  0  # atno 6907 bound_to 6896
  152.2282  133.5032  159.5209 H   0  0  0  0  0  0  0  0  0  0  0  0  # atno 6908 bound_to 6896
  150.7018  134.1169  159.4063 H   0  0  0  0  0  0  0  0  0  0  0  0  # atno 6909 bound_to 6896
  145.6842  140.9177  143.0816 H   0  0  0  0  0  0  0  0  0  0  0  0  # atno 7974 bound_to 7965
  154.5640  140.2353  155.8291 H   0  0  0  0  0  0  0  0  0  0  0  0  # atno 8008 bound_to 7997
  156.2053  140.3041  155.9573 H   0  0  0  0  0  0  0  0  0  0  0  0  # atno 8009 bound_to 7997
  155.2835  140.0423  157.3008 H   0  0  0  0  0  0  0  0  0  0  0  0  # atno 8010 bound_to 7997
  139.5562  144.6850  151.4176 H   0  0  0  0  0  0  0  0  0  0  0  0  # atno 10167 bound_to 10162
  156.9616  131.0062  151.2926 H   0  0  0  0  0  0  0  0  0  0  0  0  # atno 10718 bound_to 10713
  154.4295  135.2759  155.1922 H   0  0  0  0  0  0  0  0  0  0  0  0  # atno 10763 bound_to 10752
  154.3834  135.6082  153.5806 H   0  0  0  0  0  0  0  0  0  0  0  0  # atno 10764 bound_to 10752
  152.9835  135.5886  154.4604 H   0  0  0  0  0  0  0  0  0  0  0  0  # atno 10765 bound_to 10752
  139.9384  134.9638  156.8490 H   0  0  0  0  0  0  0  0  0  0  0  0  # atno 11005 bound_to 11000
  144.7016  139.8736  143.7442 LP  0  0  0  0  0  0  0  0  0  0  0  0  # atno 17320 bound_to 7965
  146.0938  139.3929  143.0389 LP  0  0  0  0  0  0  0  0  0  0  0  0  # atno 17321 bound_to 7965
  140.6835  143.8028  150.7153 LP  0  0  0  0  0  0  0  0  0  0  0  0  # atno 17342 bound_to 10162
  140.1488  143.4376  152.2145 LP  0  0  0  0  0  0  0  0  0  0  0  0  # atno 17343 bound_to 10162
  157.5654  130.8274  149.8320 LP  0  0  0  0  0  0  0  0  0  0  0  0  # atno 17370 bound_to 10713
  156.0320  130.3762  150.1663 LP  0  0  0  0  0  0  0  0  0  0  0  0  # atno 17371 bound_to 10713
  140.6015  134.0167  155.7539 LP  0  0  0  0  0  0  0  0  0  0  0  0  # atno 17394 bound_to 11000
  141.1008  133.9771  157.3081 LP  0  0  0  0  0  0  0  0  0  0  0  0  # atno 17395 bound_to 11000

$$$$
