AV-unprocessed.smi:110|AV-procd|sdf|1065|dock10
  -GOLD-   2262018143D 1   1.00000     0.00000
 Structure written by MMmdl.
 46 50  0  0  0  0  0  0  0  0  1 V2000
  143.5945  138.7317  154.5068 O   0  0  0  0  0  0  0  0  0  0  0  0
  144.7215  137.9159  154.7452 C   0  0  0  0  0  0  0  0  0  0  0  0
  146.0056  138.7572  154.6845 C   0  0  1  0  0  0  0  0  0  0  0  0
  146.9394  138.2844  155.6558 O   0  0  0  0  0  0  0  0  0  0  0  0
  148.2507  138.4626  155.2056 C   0  0  2  0  0  0  0  0  0  0  0  0
  148.9950  139.3506  156.1585 N   0  0  0  0  0  0  0  0  0  0  0  0
  148.4523  140.2632  157.0342 C   0  0  0  0  0  0  0  0  0  0  0  0
  149.3124  140.9231  157.7600 N   0  0  0  0  0  0  0  0  0  0  0  0
  150.5484  140.4250  157.3657 C   0  0  0  0  0  0  0  0  0  0  0  0
  151.8978  140.6935  157.7362 C   0  0  0  0  0  0  0  0  0  0  0  0
  152.2764  141.6021  158.6660 N   0  0  0  0  0  0  0  0  0  0  0  0
  151.6045  142.9091  158.7014 C   0  0  0  0  0  0  0  0  0  0  0  0
  151.8461  143.5197  160.0950 C   0  0  0  0  0  0  0  0  0  0  0  0
  152.7641  142.5047  160.6956 C   0  0  0  0  0  0  0  0  0  0  0  0
  153.3873  142.5591  161.9542 C   0  0  0  0  0  0  0  0  0  0  0  0
  154.2418  141.4971  162.3196 C   0  0  0  0  0  0  0  0  0  0  0  0
  154.4636  140.4199  161.4302 C   0  0  0  0  0  0  0  0  0  0  0  0
  153.8278  140.3876  160.1696 C   0  0  0  0  0  0  0  0  0  0  0  0
  152.9580  141.4410  159.8199 C   0  0  0  0  0  0  0  0  0  0  0  0
  152.8766  140.0274  157.0729 N   0  0  0  0  0  0  0  0  0  0  0  0
  152.5610  139.1279  156.1378 C   0  0  0  0  0  0  0  0  0  0  0  0
  151.3528  138.7614  155.7090 N   0  0  0  0  0  0  0  0  0  0  0  0
  150.3608  139.4465  156.3473 C   0  0  0  0  0  0  0  0  0  0  0  0
  148.1839  139.0223  153.7717 C   0  0  2  0  0  0  0  0  0  0  0  0
  148.3834  140.4257  153.6968 O   0  0  0  0  0  0  0  0  0  0  0  0
  146.7760  138.6049  153.3714 C   0  0  2  0  0  0  0  0  0  0  0  0
  146.2422  139.3792  152.3133 O   0  0  0  0  0  0  0  0  0  0  0  0
  145.7920  139.8130  154.8591 H   0  0  0  0  0  0  0  0  0  0  0  0
  148.7703  137.5051  155.2596 H   0  0  0  0  0  0  0  0  0  0  0  0
  148.9412  138.5366  153.1556 H   0  0  0  0  0  0  0  0  0  0  0  0
  146.7858  137.5557  153.0720 H   0  0  0  0  0  0  0  0  0  0  0  0
  143.8437  139.4229  153.9126 H   0  0  0  0  0  0  0  0  0  0  0  0
  144.6258  137.4051  155.7036 H   0  0  0  0  0  0  0  0  0  0  0  0
  144.7385  137.1496  153.9697 H   0  0  0  0  0  0  0  0  0  0  0  0
  147.3878  140.4271  157.1178 H   0  0  0  0  0  0  0  0  0  0  0  0
  152.0270  143.5496  157.9262 H   0  0  0  0  0  0  0  0  0  0  0  0
  150.5373  142.8038  158.5015 H   0  0  0  0  0  0  0  0  0  0  0  0
  152.3187  144.5009  160.0419 H   0  0  0  0  0  0  0  0  0  0  0  0
  150.9260  143.5902  160.6755 H   0  0  0  0  0  0  0  0  0  0  0  0
  153.2206  143.3921  162.6210 H   0  0  0  0  0  0  0  0  0  0  0  0
  154.7354  141.5111  163.2801 H   0  0  0  0  0  0  0  0  0  0  0  0
  155.1280  139.6176  161.7151 H   0  0  0  0  0  0  0  0  0  0  0  0
  154.0137  139.5695  159.4898 H   0  0  0  0  0  0  0  0  0  0  0  0
  153.3951  138.6316  155.6643 H   0  0  0  0  0  0  0  0  0  0  0  0
  148.8976  140.6147  152.9268 H   0  0  0  0  0  0  0  0  0  0  0  0
  145.4889  139.8500  152.6353 H   0  0  0  0  0  0  0  0  0  0  0  0
  1  2  1  0  0  0  0
  1 32  1  0  0  0  0
  2  3  1  0  0  0  0
  2 33  1  0  0  0  0
  2 34  1  0  0  0  0
  3 28  1  0  0  0  0
  3 26  1  0  0  0  0
  3  4  1  0  0  0  0
  4  5  1  0  0  0  0
  5 29  1  0  0  0  0
  5  6  1  0  0  0  0
  5 24  1  0  0  0  0
  6 23  1  0  0  0  0
  6  7  1  0  0  0  0
  7  8  2  0  0  0  0
  7 35  1  0  0  0  0
  8  9  1  0  0  0  0
  9 23  2  0  0  0  0
  9 10  1  0  0  0  0
 10 11  1  0  0  0  0
 10 20  2  0  0  0  0
 11 19  1  0  0  0  0
 11 12  1  0  0  0  0
 12 13  1  0  0  0  0
 12 36  1  0  0  0  0
 12 37  1  0  0  0  0
 13 14  1  0  0  0  0
 13 38  1  0  0  0  0
 13 39  1  0  0  0  0
 14 19  2  0  0  0  0
 14 15  1  0  0  0  0
 15 16  2  0  0  0  0
 15 40  1  0  0  0  0
 16 17  1  0  0  0  0
 16 41  1  0  0  0  0
 17 18  2  0  0  0  0
 17 42  1  0  0  0  0
 18 19  1  0  0  0  0
 18 43  1  0  0  0  0
 20 21  1  0  0  0  0
 21 22  2  0  0  0  0
 21 44  1  0  0  0  0
 22 23  1  0  0  0  0
 24 30  1  0  0  0  0
 24 25  1  0  0  0  0
 24 26  1  0  0  0  0
 25 45  1  0  0  0  0
 26 31  1  0  0  0  0
 26 27  1  0  0  0  0
 27 46  1  0  0  0  0
M  END
> <s_m_source_file>
AV-unprocessed.smi

> <i_m_source_file_index>
110

> <i_lp_mmshare_version>
43012

> <i_f3d_flags>
0

> <s_epik_input>
W09IXVtDSDJdW0NASF0xT1tDQEhdKFtDQEhdKFtPSF0pW0NAQEhdMVtPSF0pbihbY0hdbjIpYyhjMjMpbltjSF1uYzNOKFtDSDJdW0NIMl00KWMoYzQ1KVtjSF1bY0hdW2NIXVtjSF01

> <s_epik_cmdline>
J2VwaWtfcHl0aG9uJywgJy1waCcsICc3LjAnLCAnLXRuJywgJzgnLCAnLW1hJywgJzIwMCcsICctbWV0YWxfYmluZGluZycsICctaW1hZScsICc8aW5maWxlLm1hZT4nLCAnLW9tYWUnLCAnPG91dGZpbGUubWFlPic=

> <r_lp_tautomer_probability>
1

> <r_epik_Ionization_Penalty>
0.00068475

> <r_epik_Ionization_Penalty_Charging>
0

> <r_epik_Ionization_Penalty_Neutral>
0.00068475

> <r_epik_State_Penalty>
0.000417442

> <r_epik_Charging_Adjusted_Penalty>
0.000417442

> <i_epik_Tot_Q>
0

> <i_epik_Tot_abs_Q>
0

> <r_epik_Metal_State_Penalty>
-0

> <b_epik_Metal_Only>
0

> <s_epik_Chemistry_Notes>
This compound contains an acetal/aminal-like group ( X-CH(R)-Y where X, Y are N, S, or O) that may be acid/base labile, releasing an aldehyde.

> <s_lp_Force_Field>
OPLS_2005

> <r_lp_Energy>
69.6213

> <b_lp_Chiralities_Consistent>
1

> <s_lp_Variant>
AV-unprocessed.smi:110-3

> <Gold.Version>
5.8.1

> <Gold.Id.Protein>
6NUR|6NUR_protein|mol2

> <Gold.PLP.Fitness>
49.0798

> <Gold.PLP.PLP>
-41.2175

> <Gold.PLP.part.hbond>
-3.5624

> <Gold.PLP.part.metal>
0.0000

> <Gold.PLP.part.buried>
-3.9247

> <Gold.PLP.part.nonpolar>
-32.4768

> <Gold.PLP.part.repulsive>
0.0411

> <Gold.PLP.ligand.clash>
0.0000

> <Gold.PLP.ligand.torsion>
2.1162

> <Gold.PLP.Chemscore.Hbond>
4.0000

> <Gold.PLP.Chemscore.CHOScore>
0.0000

> <Gold.PLP.Chemscore.Metal>
0.0000

> <Gold.Chemscore.Hbonds>
donor molecule, donor type, donor heavy atom, donor atom, acceptor molecule, acceptor atom, score
      L1  H     1    32       P1 10175  1.00
      L1  H    25    45       P1  7957  0.99
      L1  H    27    46       P1 10175  1.00
      P1  H  7997  8009       L1    20  0.91

> <Gold.PLP.Chemscore.Internal.Correction>
0.0946

> <Gold.Rescore>
     Score         DG    S(hbond)    S(metal)    S(lipo)     H(rot)  DE(clash)    DE(int)     intcor
     18.83     -21.14       3.84        0.00      98.41       3.38       0.06       2.26       ----

> <Gold.Chemscore.Fitness>
18.8286

> <Gold.Chemscore.DG>
-21.1429

> <Gold.Chemscore.ZeroCoef>
-5.4800

> <Gold.Chemscore.Hbond>
3.8358

> <Gold.Chemscore.Metal>
0.0000

> <Gold.Chemscore.Lipo>
98.4060

> <Gold.Chemscore.Internal_Hbond>
0.0000

> <Gold.Chemscore.DEClash>
0.0592

> <Gold.Chemscore.DEInternal>
2.2551

> <Gold.Chemscore.Rot>
3.3837

> <Gold.Chemscore.Internal.Correction>
   9.000000E+99

> <Gold.Chemscore.Hbonds>
donor molecule, donor type, donor heavy atom, donor atom, acceptor molecule, acceptor atom, score
      L1  H     1    32       P1 10175  0.98
      L1  H    25    45       P1  7957  0.92
      L1  H    27    46       P1 10175  0.95
      P1  H  7997  8009       L1    20  0.22

> <Gold.Chemscore.Hbond.Weighted>
-12.8116

> <Gold.Chemscore.Metal.Weighted>
-0.0000

> <Gold.Chemscore.Lipo.Weighted>
-11.5135

> <Gold.Chemscore.Internal_Hbond.Weighted>
0.0000

> <Gold.Chemscore.DEClash.Weighted>
0.0592

> <Gold.Chemscore.DEInternal.Weighted>
2.2551

> <Gold.Chemscore.Rot.Weighted>
8.6622

> <Gold.Chemscore.Internal.Correction.Weighted>
   9.000000E+99

> <Gold.Protein.RotatedTorsions>
[ 6907 6896 6895 6894 ] final  173.99 input  -60.11 | X-H torsion
[ 7974 7965 7964 7962 ] final  -31.58 input  175.53 | X-H torsion
[ 8008 7997 7996 7995 ] final  162.73 input   59.86 | X-H torsion
[ 10167 10162 10161 10158 ] final -123.30 input  -65.29 | X-H torsion
[ 10718 10713 10712 10709 ] final  123.53 input   66.30 | X-H torsion
[ 10763 10752 10751 10750 ] final  175.32 input  -60.55 | X-H torsion
[ 11005 11000 10999 10996 ] final  108.89 input  -57.11 | X-H torsion

> <Gold.Protein.ActiveResidues>
 VAL166  LYS551  ARG553  GLY616  TRP617  ASP618  TYR619  PRO620  LYS621  CYS622 
 ASP623  PHE694  ASN695  SER759  ASP760  ASP761  ALA762  ILE779  LEU786  VAL792 
 PHE793  MET794  SER795  GLU796  ALA797  LYS798  CYS799  TRP800  GLU811  SER814 

> <Gold.Protein.RotatedAtoms>
  151.7595  133.3333  159.3413 H   0  0  0  0  0  0  0  0  0  0  0  0  # atno 6907 bound_to 6896
  150.7503  134.6118  159.6099 H   0  0  0  0  0  0  0  0  0  0  0  0  # atno 6908 bound_to 6896
  152.3414  134.7130  160.0314 H   0  0  0  0  0  0  0  0  0  0  0  0  # atno 6909 bound_to 6896
  146.1056  140.5685  142.8801 H   0  0  0  0  0  0  0  0  0  0  0  0  # atno 7974 bound_to 7965
  156.2009  140.1742  156.7900 H   0  0  0  0  0  0  0  0  0  0  0  0  # atno 8008 bound_to 7997
  154.5591  140.0703  156.8821 H   0  0  0  0  0  0  0  0  0  0  0  0  # atno 8009 bound_to 7997
  155.2882  140.3353  155.4256 H   0  0  0  0  0  0  0  0  0  0  0  0  # atno 8010 bound_to 7997
  140.0049  143.5501  152.2288 H   0  0  0  0  0  0  0  0  0  0  0  0  # atno 10167 bound_to 10162
  157.5657  131.1087  150.8458 H   0  0  0  0  0  0  0  0  0  0  0  0  # atno 10718 bound_to 10713
  154.4660  135.2769  155.1678 H   0  0  0  0  0  0  0  0  0  0  0  0  # atno 10763 bound_to 10752
  154.3446  135.6163  153.5616 H   0  0  0  0  0  0  0  0  0  0  0  0  # atno 10764 bound_to 10752
  152.9859  135.5796  154.5032 H   0  0  0  0  0  0  0  0  0  0  0  0  # atno 10765 bound_to 10752
  139.8852  134.9443  156.6042 H   0  0  0  0  0  0  0  0  0  0  0  0  # atno 11005 bound_to 11000
  144.7468  140.5089  143.6830 LP  0  0  0  0  0  0  0  0  0  0  0  0  # atno 17320 bound_to 7965
  145.5767  139.1486  143.3258 LP  0  0  0  0  0  0  0  0  0  0  0  0  # atno 17321 bound_to 7965
  139.6245  144.7635  151.2668 LP  0  0  0  0  0  0  0  0  0  0  0  0  # atno 17342 bound_to 10162
  140.7404  143.6588  150.8182 LP  0  0  0  0  0  0  0  0  0  0  0  0  # atno 17343 bound_to 10162
  156.8943  130.5224  149.5285 LP  0  0  0  0  0  0  0  0  0  0  0  0  # atno 17370 bound_to 10713
  156.0706  130.5739  150.9375 LP  0  0  0  0  0  0  0  0  0  0  0  0  # atno 17371 bound_to 10713
  140.7860  133.8621  155.8607 LP  0  0  0  0  0  0  0  0  0  0  0  0  # atno 17394 bound_to 11000
  140.9719  134.1520  157.4569 LP  0  0  0  0  0  0  0  0  0  0  0  0  # atno 17395 bound_to 11000

$$$$
