AV-unprocessed.smi:2882|AV-procd|sdf|11072|dock5
  -GOLD-   2272015543D 1   1.00000     0.00000
 Structure written by MMmdl.
 28 30  0  0  0  0  0  0  0  0  1 V2000
  153.3718  139.0171  155.7226 N   0  0  0  0  0  0  0  0  0  0  0  0
  152.3588  139.5756  155.6872 C   0  0  0  0  0  0  0  0  0  0  0  0
  151.0838  140.2801  155.6419 C   0  0  0  0  0  0  0  0  0  0  0  0
  150.3622  140.1595  154.5034 N   0  0  0  0  0  0  0  0  0  0  0  0
  149.1819  140.8124  154.4477 C   0  0  0  0  0  0  0  0  0  0  0  0
  148.7160  141.5873  155.5273 C   0  0  0  0  0  0  0  0  0  0  0  0
  149.4287  141.7126  156.6666 N   0  0  0  0  0  0  0  0  0  0  0  0
  150.6182  141.0641  156.7349 C   0  0  0  0  0  0  0  0  0  0  0  0
  151.3723  141.1845  157.9165 N   0  0  0  0  0  0  0  0  0  0  0  0
  151.0552  142.2040  158.9120 C   0  0  1  0  0  0  0  0  0  0  0  0
  152.2591  142.5925  159.7734 C   0  0  0  0  0  0  0  0  0  0  0  0
  152.2900  144.1182  159.6040 C   0  0  1  0  0  0  0  0  0  0  0  0
  152.8250  144.5216  158.2240 C   0  0  0  0  0  0  0  0  0  0  0  0
  151.6572  144.1417  157.3158 C   0  0  0  0  0  0  0  0  0  0  0  0
  150.6443  143.5684  158.3219 C   0  0  2  0  0  0  0  0  0  0  0  0
  150.9102  144.4002  159.4388 O   0  0  0  0  0  0  0  0  0  0  0  0
  148.6066  140.7160  153.5388 H   0  0  0  0  0  0  0  0  0  0  0  0
  147.7705  142.1068  155.4770 H   0  0  0  0  0  0  0  0  0  0  0  0
  152.2947  140.7744  157.9437 H   0  0  0  0  0  0  0  0  0  0  0  0
  150.2653  141.8370  159.5689 H   0  0  0  0  0  0  0  0  0  0  0  0
  152.0802  142.3205  160.8142 H   0  0  0  0  0  0  0  0  0  0  0  0
  153.1949  142.1273  159.4595 H   0  0  0  0  0  0  0  0  0  0  0  0
  152.7623  144.6465  160.4325 H   0  0  0  0  0  0  0  0  0  0  0  0
  153.0122  145.5950  158.1772 H   0  0  0  0  0  0  0  0  0  0  0  0
  153.7487  144.0018  157.9678 H   0  0  0  0  0  0  0  0  0  0  0  0
  151.2517  145.0308  156.8313 H   0  0  0  0  0  0  0  0  0  0  0  0
  151.9362  143.4331  156.5357 H   0  0  0  0  0  0  0  0  0  0  0  0
  149.6112  143.6087  157.9761 H   0  0  0  0  0  0  0  0  0  0  0  0
  1  2  3  0  0  0  0
  2  3  1  0  0  0  0
  3  8  1  0  0  0  0
  3  4  2  0  0  0  0
  4  5  1  0  0  0  0
  5  6  2  0  0  0  0
  5 17  1  0  0  0  0
  6  7  1  0  0  0  0
  6 18  1  0  0  0  0
  7  8  2  0  0  0  0
  8  9  1  0  0  0  0
  9 10  1  0  0  0  0
  9 19  1  0  0  0  0
 10 15  1  0  0  0  0
 10 11  1  0  0  0  0
 10 20  1  0  0  0  0
 11 12  1  0  0  0  0
 11 21  1  0  0  0  0
 11 22  1  0  0  0  0
 12 16  1  0  0  0  0
 12 13  1  0  0  0  0
 12 23  1  0  0  0  0
 13 14  1  0  0  0  0
 13 24  1  0  0  0  0
 13 25  1  0  0  0  0
 14 15  1  0  0  0  0
 14 26  1  0  0  0  0
 14 27  1  0  0  0  0
 15 16  1  0  0  0  0
 15 28  1  0  0  0  0
M  END
> <s_m_source_file>
AV-unprocessed.smi

> <i_m_source_file_index>
2882

> <i_lp_mmshare_version>
43012

> <i_f3d_flags>
0

> <s_epik_input>
TiNDYzFuW2NIXVtjSF1uYzFbTkhdW0NASF0oW0NIMl1bQ0BASF0yMylbQ0BASF0oTzMpW0NIMl1bQ0gyXTI=

> <s_epik_cmdline>
J2VwaWtfcHl0aG9uJywgJy1waCcsICc3LjAnLCAnLXRuJywgJzgnLCAnLW1hJywgJzIwMCcsICctbWV0YWxfYmluZGluZycsICctaW1hZScsICc8aW5maWxlLm1hZT4nLCAnLW9tYWUnLCAnPG91dGZpbGUubWFlPic=

> <r_lp_tautomer_probability>
1

> <r_epik_Ionization_Penalty>
4.95445e-05

> <r_epik_Ionization_Penalty_Charging>
0

> <r_epik_Ionization_Penalty_Neutral>
4.95445e-05

> <r_epik_State_Penalty>
-0

> <r_epik_Charging_Adjusted_Penalty>
0

> <i_epik_Tot_Q>
0

> <i_epik_Tot_abs_Q>
0

> <r_epik_Metal_State_Penalty>
-0

> <b_epik_Metal_Only>
0

> <s_lp_Force_Field>
OPLS_2005

> <r_lp_Energy>
50.4858

> <b_lp_Chiralities_Consistent>
1

> <s_lp_Variant>
AV-unprocessed.smi:2882-2

> <Gold.Version>
5.8.1

> <Gold.Id.Protein>
6NUR|6NUR_protein|mol2

> <Gold.PLP.Fitness>
42.8225

> <Gold.PLP.PLP>
-34.0097

> <Gold.PLP.part.hbond>
-2.0000

> <Gold.PLP.part.metal>
0.0000

> <Gold.PLP.part.buried>
-1.9596

> <Gold.PLP.part.nonpolar>
-31.0059

> <Gold.PLP.part.repulsive>
0.5411

> <Gold.PLP.ligand.clash>
0.0000

> <Gold.PLP.ligand.torsion>
0.3642

> <Gold.PLP.Chemscore.Hbond>
1.9000

> <Gold.PLP.Chemscore.CHOScore>
1.2770

> <Gold.PLP.Chemscore.Metal>
0.0000

> <Gold.Chemscore.Hbonds>
donor molecule, donor type, donor heavy atom, donor atom, acceptor molecule, acceptor atom, score
      P1  H  7989  7998       L1     4  0.70
      P1  H  7997  8008       L1     1  1.00
      L1  C     5    17       P1  7957  0.60
      L1  C     6    18       P1  8028  0.09

> <Gold.PLP.Chemscore.Internal.Correction>
0.0100

> <Gold.Rescore>
     Score         DG    S(hbond)    S(metal)    S(lipo)     H(rot)  DE(clash)    DE(int)     intcor
     15.87     -15.97       0.97        0.00      83.75       1.00       0.00       0.09       ----

> <Gold.Chemscore.Fitness>
15.8747

> <Gold.Chemscore.DG>
-15.9678

> <Gold.Chemscore.ZeroCoef>
-5.4800

> <Gold.Chemscore.Hbond>
0.9727

> <Gold.Chemscore.Metal>
0.0000

> <Gold.Chemscore.Lipo>
83.7520

> <Gold.Chemscore.Internal_Hbond>
0.0000

> <Gold.Chemscore.DEClash>
0.0029

> <Gold.Chemscore.DEInternal>
0.0902

> <Gold.Chemscore.Rot>
1.0000

> <Gold.Chemscore.Internal.Correction>
   9.000000E+99

> <Gold.Chemscore.Hbonds>
donor molecule, donor type, donor heavy atom, donor atom, acceptor molecule, acceptor atom, score
      P1  H  7989  7998       L1     4  0.06
      P1  H  7997  8008       L1     1  0.37

> <Gold.Chemscore.Hbond.Weighted>
-3.2489

> <Gold.Chemscore.Metal.Weighted>
-0.0000

> <Gold.Chemscore.Lipo.Weighted>
-9.7990

> <Gold.Chemscore.Internal_Hbond.Weighted>
0.0000

> <Gold.Chemscore.DEClash.Weighted>
0.0029

> <Gold.Chemscore.DEInternal.Weighted>
0.0902

> <Gold.Chemscore.Rot.Weighted>
2.5600

> <Gold.Chemscore.Internal.Correction.Weighted>
   9.000000E+99

> <Gold.Protein.RotatedTorsions>
[ 6907 6896 6895 6894 ] final -103.87 input  -60.11 | X-H torsion
[ 7974 7965 7964 7962 ] final  -21.48 input  175.53 | X-H torsion
[ 8008 7997 7996 7995 ] final  -31.20 input   59.86 | X-H torsion
[ 10167 10162 10161 10158 ] final -136.74 input  -65.29 | X-H torsion
[ 10718 10713 10712 10709 ] final   12.26 input   66.30 | X-H torsion
[ 10763 10752 10751 10750 ] final  126.24 input  -60.55 | X-H torsion
[ 11005 11000 10999 10996 ] final  -63.66 input  -57.11 | X-H torsion

> <Gold.Protein.ActiveResidues>
 VAL166  LYS551  ARG553  GLY616  TRP617  ASP618  TYR619  PRO620  LYS621  CYS622 
 ASP623  PHE694  ASN695  SER759  ASP760  ASP761  ALA762  ILE779  LEU786  VAL792 
 PHE793  MET794  SER795  GLU796  ALA797  LYS798  CYS799  TRP800  GLU811  SER814 

> <Gold.Protein.RotatedAtoms>
  150.7260  134.0363  159.3750 H   0  0  0  0  0  0  0  0  0  0  0  0  # atno 6907 bound_to 6896
  151.8335  135.0611  160.0449 H   0  0  0  0  0  0  0  0  0  0  0  0  # atno 6908 bound_to 6896
  152.2916  133.5531  159.5597 H   0  0  0  0  0  0  0  0  0  0  0  0  # atno 6909 bound_to 6896
  146.1730  140.4347  142.8525 H   0  0  0  0  0  0  0  0  0  0  0  0  # atno 7974 bound_to 7965
  154.4222  140.1771  156.1528 H   0  0  0  0  0  0  0  0  0  0  0  0  # atno 8008 bound_to 7997
  155.9901  140.3369  155.6720 H   0  0  0  0  0  0  0  0  0  0  0  0  # atno 8009 bound_to 7997
  155.6384  140.0677  157.2617 H   0  0  0  0  0  0  0  0  0  0  0  0  # atno 8010 bound_to 7997
  139.8647  143.7032  152.2646 H   0  0  0  0  0  0  0  0  0  0  0  0  # atno 10167 bound_to 10162
  157.0076  130.6104  149.5704 H   0  0  0  0  0  0  0  0  0  0  0  0  # atno 10718 bound_to 10713
  153.6902  135.3300  155.3200 H   0  0  0  0  0  0  0  0  0  0  0  0  # atno 10763 bound_to 10752
  154.8442  135.4430  154.1516 H   0  0  0  0  0  0  0  0  0  0  0  0  # atno 10764 bound_to 10752
  153.2556  135.6986  153.7710 H   0  0  0  0  0  0  0  0  0  0  0  0  # atno 10765 bound_to 10752
  141.1400  133.6655  156.5714 H   0  0  0  0  0  0  0  0  0  0  0  0  # atno 11005 bound_to 11000
  144.8192  140.6521  143.6364 LP  0  0  0  0  0  0  0  0  0  0  0  0  # atno 17320 bound_to 7965
  145.4288  139.1552  143.4033 LP  0  0  0  0  0  0  0  0  0  0  0  0  # atno 17321 bound_to 7965
  139.7340  144.7576  151.0757 LP  0  0  0  0  0  0  0  0  0  0  0  0  # atno 17342 bound_to 10162
  140.7770  143.5053  150.9719 LP  0  0  0  0  0  0  0  0  0  0  0  0  # atno 17343 bound_to 10162
  156.0148  130.5241  150.8100 LP  0  0  0  0  0  0  0  0  0  0  0  0  # atno 17370 bound_to 10713
  157.5344  131.0938  150.9912 LP  0  0  0  0  0  0  0  0  0  0  0  0  # atno 17371 bound_to 10713
  140.3910  134.7440  157.4721 LP  0  0  0  0  0  0  0  0  0  0  0  0  # atno 17394 bound_to 11000
  140.0566  134.6054  155.8797 LP  0  0  0  0  0  0  0  0  0  0  0  0  # atno 17395 bound_to 11000

$$$$
