#       Name:                AV-unprocessed.smi:72
#       Creating user name   scv26
#       Creation time:       Thu Mar 26 17:05:43 2020


#       File generated by GOLD software.
#

@<TRIPOS>MOLECULE
AV-unprocessed.smi:72
    41    42     1
SMALL
NO_CHARGES


@<TRIPOS>ATOM
      1 ****        -4.0795   2.5814  -2.0629 N.2            1 S1                 0.0000
      2 ****        -3.1124   2.1286  -1.3926 C.2            1 S1                 0.0000
      3 ****        -1.8218   1.9437  -2.0186 N.2            1 S1                 0.0000
      4 ****        -0.8649   1.4444  -1.2983 C.2            1 S1                 0.0000
      5 ****        -1.0684   1.0567   0.0940 N.am           1 S1                 0.0000
      6 ****         0.0417   0.4684   0.9534 C.3            1 S1                 0.0000
      7 ****         1.2473   0.4635   0.2422 O.3            1 S1                 0.0000
      8 ****         1.4692  -0.8245  -0.3251 C.3            1 S1                 0.0000
      9 ****         2.9394  -1.0076  -0.7406 C.3            1 S1                 0.0000
     10 ****         3.1553  -0.4501  -2.0197 O.3            1 S1                 0.0000
     11 ****         0.9726  -1.7484   0.7908 C.3            1 S1                 0.0000
     12 ****         1.9717  -1.9088   1.7855 O.3            1 S1                 0.0000
     13 ****        -0.2590  -1.0052   1.3078 C.3            1 S1                 0.0000
     14 ****        -0.4805  -1.2185   2.6896 O.3            1 S1                 0.0000
     15 ****        -2.3348   1.2974   0.6932 C.2            1 S1                 0.0000
     16 ****        -2.4760   1.0161   1.8836 O.2            1 S1                 0.0000
     17 ****        -3.3330   1.8266  -0.0676 N.pl3          1 S1                -1.0000
     18 ****         0.1260   1.1369   1.8121 H              1 S1                 0.0000
     19 ****         0.8181  -0.9596  -1.1910 H              1 S1                 0.0000
     20 ****         0.7118  -2.7368   0.4111 H              1 S1                 0.0000
     21 ****        -1.1358  -1.3396   0.7509 H              1 S1                 0.0000
     22 ****        -4.9251   2.6673  -1.5184 H              1 S1                 0.0000
     23 ****         0.1384   1.2898  -1.6947 H              1 S1                 0.0000
     24 ****         3.6177  -0.5590  -0.0142 H              1 S1                 0.0000
     25 ****         3.1823  -2.0688  -0.8024 H              1 S1                 0.0000
     26 ****         4.0634  -0.5718  -2.2504 H              1 S1                 0.0000
     27 ****         1.5748  -2.3253   2.5356 H              1 S1                 0.0000
     28 ****        -1.2324  -0.7065   2.9490 H              1 S1                 0.0000
     29 ****        -4.0156   2.8288  -3.0297 LP             1 S1                 0.0000
     30 ****        -1.6717   2.1926  -2.9754 LP             1 S1                 0.0000
     31 ****         1.9993   0.6869   0.8624 LP             1 S1                 0.0000
     32 ****         1.2043   1.1449  -0.4884 LP             1 S1                 0.0000
     33 ****         2.9395   0.5262  -2.0029 LP             1 S1                 0.0000
     34 ****         2.5725  -0.9089  -2.6903 LP             1 S1                 0.0000
     35 ****         2.3361  -1.0150   2.0473 LP             1 S1                 0.0000
     36 ****         2.7126  -2.4804   1.4329 LP             1 S1                 0.0000
     37 ****         0.3227  -0.9291   3.2104 LP             1 S1                 0.0000
     38 ****        -0.6559  -2.1883   2.8591 LP             1 S1                 0.0000
     39 ****        -1.7117   0.6300   2.4002 LP             1 S1                 0.0000
     40 ****        -3.3549   1.1738   2.3338 LP             1 S1                 0.0000
     41 ****        -4.2309   1.9967   0.3385 LP             1 S1                 0.0000
@<TRIPOS>BOND
    1    1    2 2     
    2    1   22 1     
    3    2   17 1     
    4    2    3 1     
    5    3    4 2     
    6    4    5 1     
    7    4   23 1     
    8    5    6 1     
    9    5   15 am    
   10    6   18 1     
   11    6   13 1     
   12    6    7 1     
   13    7    8 1     
   14    8   19 1     
   15    8    9 1     
   16    8   11 1     
   17    9   10 1     
   18    9   24 1     
   19    9   25 1     
   20   10   26 1     
   21   11   20 1     
   22   11   12 1     
   23   11   13 1     
   24   12   27 1     
   25   13   21 1     
   26   13   14 1     
   27   14   28 1     
   28   15   16 2     
   29   15   17 1     
   30    1   29 1     
   31    3   30 1     
   32    7   31 1     
   33    7   32 1     
   34   10   33 1     
   35   10   34 1     
   36   12   35 1     
   37   12   36 1     
   38   14   37 1     
   39   14   38 1     
   40   16   39 1     
   41   16   40 1     
   42   17   41 1     
@<TRIPOS>SUBSTRUCTURE
      1 S1             1
@<TRIPOS>SET
LONE_PAIRS      STATIC     ATOMS    <user>   **** ""
13 29 30 31 32 33 34 35 36 37 38 39 40 41
DONOR_HYDROGENS      STATIC     ATOMS    <user>   **** ""
4 22 26 27 28
ATOM$BLUE        STATIC     ATOMS    COLORGROUP SYSTEM
13 29 30 31 32 33 34 35 36 37 38 39 40 41
ATOM$RED        STATIC     ATOMS    COLORGROUP SYSTEM
4 22 26 27 28
