AV-unprocessed.smi:888|AV-procd|sdf|4054|dock9
  -GOLD-   22720 1543D 1   1.00000     0.00000
 Structure written by MMmdl.
 45 46  0  0  0  0  0  0  0  0  1 V2000
  150.0136  141.9013  156.6664 C   0  0  0  0  0  0  0  0  0  0  0  0
  149.5070  141.6904  155.2343 C   0  0  0  0  0  0  0  0  0  0  0  0
  149.7511  140.2978  154.7327 C   0  0  0  0  0  0  0  0  0  0  0  0
  150.9773  139.7626  154.6717 N   0  0  0  0  0  0  0  0  0  0  0  0
  150.8088  138.4889  154.1711 N   0  0  0  0  0  0  0  0  0  0  0  0
  149.4950  138.3740  153.9904 C   0  0  0  0  0  0  0  0  0  0  0  0
  148.7739  139.4555  154.3240 N   0  0  0  0  0  0  0  0  0  0  0  0
  147.3280  139.6031  154.2537 C   0  0  0  0  0  0  0  0  0  0  0  0
  146.7543  139.2046  152.8801 C   0  0  0  0  0  0  0  0  0  0  0  0
  146.8949  137.7762  152.5967 N   0  0  0  0  0  0  0  0  0  0  0  0
  145.9608  136.8147  152.7059 C   0  0  0  0  0  0  0  0  0  0  0  0
  144.8204  137.0594  153.0941 O   0  0  0  0  0  0  0  0  0  0  0  0
  146.3839  135.5838  152.3737 N   0  0  0  0  0  0  0  0  0  0  0  0
  145.5811  134.3636  152.4382 C   0  0  2  0  0  0  0  0  0  0  0  0
  146.4352  133.1469  152.0306 C   0  0  0  0  0  0  0  0  0  0  0  0
  145.7951  132.5750  150.7687 C   0  0  0  0  0  0  0  0  0  0  0  0
  144.3253  132.9616  150.8923 C   0  0  0  0  0  0  0  0  0  0  0  0
  144.3285  134.3740  151.5061 C   0  0  0  0  0  0  0  0  0  0  0  0
  143.0383  134.6223  152.3101 C   0  0  0  0  0  0  0  0  0  0  0  0
  144.4102  135.4189  150.3664 C   0  0  0  0  0  0  0  0  0  0  0  0
  149.8473  142.9292  156.9892 H   0  0  0  0  0  0  0  0  0  0  0  0
  151.0806  141.6953  156.7456 H   0  0  0  0  0  0  0  0  0  0  0  0
  149.4972  141.2457  157.3679 H   0  0  0  0  0  0  0  0  0  0  0  0
  148.4351  141.8860  155.1942 H   0  0  0  0  0  0  0  0  0  0  0  0
  149.9715  142.4232  154.5778 H   0  0  0  0  0  0  0  0  0  0  0  0
  149.0433  137.4700  153.6086 H   0  0  0  0  0  0  0  0  0  0  0  0
  146.8958  138.9548  155.0168 H   0  0  0  0  0  0  0  0  0  0  0  0
  147.0404  140.6147  154.5357 H   0  0  0  0  0  0  0  0  0  0  0  0
  145.6944  139.4564  152.8346 H   0  0  0  0  0  0  0  0  0  0  0  0
  147.2324  139.7872  152.0909 H   0  0  0  0  0  0  0  0  0  0  0  0
  147.8151  137.4764  152.3072 H   0  0  0  0  0  0  0  0  0  0  0  0
  147.3384  135.4820  152.0611 H   0  0  0  0  0  0  0  0  0  0  0  0
  145.2734  134.2012  153.4733 H   0  0  0  0  0  0  0  0  0  0  0  0
  147.4871  133.3890  151.8715 H   0  0  0  0  0  0  0  0  0  0  0  0
  146.3984  132.3995  152.8244 H   0  0  0  0  0  0  0  0  0  0  0  0
  146.2306  133.0440  149.8856 H   0  0  0  0  0  0  0  0  0  0  0  0
  145.9390  131.4981  150.6776 H   0  0  0  0  0  0  0  0  0  0  0  0
  143.7999  132.9077  149.9381 H   0  0  0  0  0  0  0  0  0  0  0  0
  143.8348  132.2583  151.5671 H   0  0  0  0  0  0  0  0  0  0  0  0
  142.1566  134.5589  151.6718 H   0  0  0  0  0  0  0  0  0  0  0  0
  143.0436  135.6114  152.7689 H   0  0  0  0  0  0  0  0  0  0  0  0
  142.9170  133.8913  153.1103 H   0  0  0  0  0  0  0  0  0  0  0  0
  143.5683  135.3186  149.6804 H   0  0  0  0  0  0  0  0  0  0  0  0
  145.3223  135.3102  149.7790 H   0  0  0  0  0  0  0  0  0  0  0  0
  144.3837  136.4390  150.7513 H   0  0  0  0  0  0  0  0  0  0  0  0
  1  2  1  0  0  0  0
  1 21  1  0  0  0  0
  1 22  1  0  0  0  0
  1 23  1  0  0  0  0
  2  3  1  0  0  0  0
  2 24  1  0  0  0  0
  2 25  1  0  0  0  0
  3  7  1  0  0  0  0
  3  4  2  0  0  0  0
  4  5  1  0  0  0  0
  5  6  2  0  0  0  0
  6  7  1  0  0  0  0
  6 26  1  0  0  0  0
  7  8  1  0  0  0  0
  8  9  1  0  0  0  0
  8 27  1  0  0  0  0
  8 28  1  0  0  0  0
  9 10  1  0  0  0  0
  9 29  1  0  0  0  0
  9 30  1  0  0  0  0
 10 11  1  0  0  0  0
 10 31  1  0  0  0  0
 11 12  2  0  0  0  0
 11 13  1  0  0  0  0
 13 14  1  0  0  0  0
 13 32  1  0  0  0  0
 14 18  1  0  0  0  0
 14 15  1  0  0  0  0
 14 33  1  0  0  0  0
 15 16  1  0  0  0  0
 15 34  1  0  0  0  0
 15 35  1  0  0  0  0
 16 17  1  0  0  0  0
 16 36  1  0  0  0  0
 16 37  1  0  0  0  0
 17 18  1  0  0  0  0
 17 38  1  0  0  0  0
 17 39  1  0  0  0  0
 18 19  1  0  0  0  0
 18 20  1  0  0  0  0
 19 40  1  0  0  0  0
 19 41  1  0  0  0  0
 19 42  1  0  0  0  0
 20 43  1  0  0  0  0
 20 44  1  0  0  0  0
 20 45  1  0  0  0  0
M  END
> <s_m_source_file>
AV-unprocessed.smi

> <i_m_source_file_index>
888

> <i_lp_mmshare_version>
43012

> <i_f3d_flags>
0

> <s_epik_input>
W0NIM11bQ0gyXWMxbm5bY0hdbjFbQ0gyXVtDSDJdW05IXUMoPU8pW05IXVtDQEBIXShDMihbQ0gzXSlbQ0gzXSlbQ0gyXVtDSDJdW0NIMl0y

> <s_epik_cmdline>
J2VwaWtfcHl0aG9uJywgJy1waCcsICc3LjAnLCAnLXRuJywgJzgnLCAnLW1hJywgJzIwMCcsICctbWV0YWxfYmluZGluZycsICctaW1hZScsICc8aW5maWxlLm1hZT4nLCAnLW9tYWUnLCAnPG91dGZpbGUubWFlPic=

> <r_lp_tautomer_probability>
1

> <r_epik_Ionization_Penalty>
0.000379534

> <r_epik_Ionization_Penalty_Charging>
0

> <r_epik_Ionization_Penalty_Neutral>
0.000379534

> <r_epik_State_Penalty>
-0

> <r_epik_Charging_Adjusted_Penalty>
0

> <i_epik_Tot_Q>
0

> <i_epik_Tot_abs_Q>
0

> <r_epik_Metal_State_Penalty>
-0

> <b_epik_Metal_Only>
0

> <s_lp_Force_Field>
OPLS_2005

> <r_lp_Energy>
31.9266

> <b_lp_Chiralities_Consistent>
1

> <s_lp_Variant>
AV-unprocessed.smi:888-1

> <Gold.Version>
5.8.1

> <Gold.Id.Protein>
6NUR|6NUR_protein|mol2

> <Gold.PLP.Fitness>
43.8391

> <Gold.PLP.PLP>
-32.6404

> <Gold.PLP.part.hbond>
-3.0000

> <Gold.PLP.part.metal>
0.0000

> <Gold.PLP.part.buried>
-0.8016

> <Gold.PLP.part.nonpolar>
-29.1541

> <Gold.PLP.part.repulsive>
0.5301

> <Gold.PLP.ligand.clash>
0.0000

> <Gold.PLP.ligand.torsion>
0.2420

> <Gold.PLP.Chemscore.Hbond>
2.8920

> <Gold.PLP.Chemscore.CHOScore>
1.0000

> <Gold.PLP.Chemscore.Metal>
0.0000

> <Gold.Chemscore.Hbonds>
donor molecule, donor type, donor heavy atom, donor atom, acceptor molecule, acceptor atom, score
      L1  H    10    31       P1  7948  1.00
      L1  H    13    32       P1  7948  0.98
      P1  H  7989  7998       L1     4  0.85
      L1  C     6    26       P1  7948  1.00

> <Gold.PLP.Chemscore.Internal.Correction>
0.0067

> <Gold.Rescore>
     Score         DG    S(hbond)    S(metal)    S(lipo)     H(rot)  DE(clash)    DE(int)     intcor
     14.02     -15.19       2.07        0.00      68.21       2.03       0.09       1.07       ----

> <Gold.Chemscore.Fitness>
14.0178

> <Gold.Chemscore.DG>
-15.1864

> <Gold.Chemscore.ZeroCoef>
-5.4800

> <Gold.Chemscore.Hbond>
2.0720

> <Gold.Chemscore.Metal>
0.0000

> <Gold.Chemscore.Lipo>
68.2143

> <Gold.Chemscore.Internal_Hbond>
0.0000

> <Gold.Chemscore.DEClash>
0.0949

> <Gold.Chemscore.DEInternal>
1.0737

> <Gold.Chemscore.Rot>
2.0293

> <Gold.Chemscore.Internal.Correction>
   9.000000E+99

> <Gold.Chemscore.Hbonds>
donor molecule, donor type, donor heavy atom, donor atom, acceptor molecule, acceptor atom, score
      L1  H    10    31       P1  7948  0.96
      L1  H    13    32       P1  7948  0.93
      P1  H  7989  7998       L1     4  0.13

> <Gold.Chemscore.Hbond.Weighted>
-6.9204

> <Gold.Chemscore.Metal.Weighted>
-0.0000

> <Gold.Chemscore.Lipo.Weighted>
-7.9811

> <Gold.Chemscore.Internal_Hbond.Weighted>
0.0000

> <Gold.Chemscore.DEClash.Weighted>
0.0949

> <Gold.Chemscore.DEInternal.Weighted>
1.0737

> <Gold.Chemscore.Rot.Weighted>
5.1950

> <Gold.Chemscore.Internal.Correction.Weighted>
   9.000000E+99

> <Gold.Protein.RotatedTorsions>
[ 6907 6896 6895 6894 ] final  -53.56 input  -60.11 | X-H torsion
[ 7974 7965 7964 7962 ] final -160.70 input  175.53 | X-H torsion
[ 8008 7997 7996 7995 ] final -131.34 input   59.86 | X-H torsion
[ 10167 10162 10161 10158 ] final -151.06 input  -65.29 | X-H torsion
[ 10718 10713 10712 10709 ] final -121.84 input   66.30 | X-H torsion
[ 10763 10752 10751 10750 ] final  167.36 input  -60.55 | X-H torsion
[ 11005 11000 10999 10996 ] final -116.13 input  -57.11 | X-H torsion

> <Gold.Protein.ActiveResidues>
 VAL166  LYS551  ARG553  GLY616  TRP617  ASP618  TYR619  PRO620  LYS621  CYS622 
 ASP623  PHE694  ASN695  SER759  ASP760  ASP761  ALA762  ILE779  LEU786  VAL792 
 PHE793  MET794  SER795  GLU796  ALA797  LYS798  CYS799  TRP800  GLU811  SER814 

> <Gold.Protein.RotatedAtoms>
  150.8416  134.7710  159.6936 H   0  0  0  0  0  0  0  0  0  0  0  0  # atno 6907 bound_to 6896
  152.4502  134.5406  159.9848 H   0  0  0  0  0  0  0  0  0  0  0  0  # atno 6908 bound_to 6896
  151.5545  133.3374  159.2995 H   0  0  0  0  0  0  0  0  0  0  0  0  # atno 6909 bound_to 6896
  144.7417  140.3504  143.6117 H   0  0  0  0  0  0  0  0  0  0  0  0  # atno 7974 bound_to 7965
  155.3107  140.0457  157.3034 H   0  0  0  0  0  0  0  0  0  0  0  0  # atno 8008 bound_to 7997
  154.5434  140.2295  155.8569 H   0  0  0  0  0  0  0  0  0  0  0  0  # atno 8009 bound_to 7997
  156.1902  140.3052  155.9324 H   0  0  0  0  0  0  0  0  0  0  0  0  # atno 8010 bound_to 7997
  139.7300  143.8822  152.2532 H   0  0  0  0  0  0  0  0  0  0  0  0  # atno 10167 bound_to 10162
  156.1370  130.6437  150.9711 H   0  0  0  0  0  0  0  0  0  0  0  0  # atno 10718 bound_to 10713
  154.3527  135.2753  155.2363 H   0  0  0  0  0  0  0  0  0  0  0  0  # atno 10763 bound_to 10752
  154.4585  135.5913  153.6243 H   0  0  0  0  0  0  0  0  0  0  0  0  # atno 10764 bound_to 10752
  152.9849  135.6059  154.3739 H   0  0  0  0  0  0  0  0  0  0  0  0  # atno 10765 bound_to 10752
  141.0442  133.9788  157.2944 H   0  0  0  0  0  0  0  0  0  0  0  0  # atno 11005 bound_to 11000
  145.7282  139.1729  143.2445 LP  0  0  0  0  0  0  0  0  0  0  0  0  # atno 17320 bound_to 7965
  146.1226  140.7289  142.9450 LP  0  0  0  0  0  0  0  0  0  0  0  0  # atno 17321 bound_to 7965
  139.8743  144.7052  150.8951 LP  0  0  0  0  0  0  0  0  0  0  0  0  # atno 17342 bound_to 10162
  140.7769  143.3712  151.1645 LP  0  0  0  0  0  0  0  0  0  0  0  0  # atno 17343 bound_to 10162
  157.6541  131.0892  150.7986 LP  0  0  0  0  0  0  0  0  0  0  0  0  # atno 17370 bound_to 10713
  156.8065  130.4938  149.5362 LP  0  0  0  0  0  0  0  0  0  0  0  0  # atno 17371 bound_to 10713
  139.9299  135.0200  156.8365 LP  0  0  0  0  0  0  0  0  0  0  0  0  # atno 17394 bound_to 11000
  140.6177  134.0023  155.7604 LP  0  0  0  0  0  0  0  0  0  0  0  0  # atno 17395 bound_to 11000

$$$$
