#       Name:                AV-unprocessed.smi:1501
#       Creating user name   scv26
#       Creation time:       Fri Mar 27 06:18:24 2020


#       File generated by GOLD software.
#

@<TRIPOS>MOLECULE
AV-unprocessed.smi:1501
    56    57     1
SMALL
NO_CHARGES


@<TRIPOS>ATOM
      1 ****        -0.4089  -0.5017  -3.1311 C.3            1 S1                 0.0000
      2 ****        -1.1383   0.0158  -1.9041 C.2            1 S1                 0.0000
      3 ****        -2.5387  -0.0372  -1.9570 N.2            1 S1                 0.0000
      4 ****        -3.2476   0.3889  -0.9553 C.2            1 S1                 0.0000
      5 ****        -4.6446   0.3526  -0.9701 N.pl3          1 S1                 0.0000
      6 ****        -5.4331   1.5209  -0.5712 C.3            1 S1                 0.0000
      7 ****        -6.8517   1.1170  -0.1363 C.3            1 S1                 0.0000
      8 ****        -7.4837   0.3848  -1.1778 O.3            1 S1                 0.0000
      9 ****        -6.7756  -0.8122  -1.4694 C.3            1 S1                 0.0000
     10 ****        -5.3549  -0.4711  -1.9489 C.3            1 S1                 0.0000
     11 ****        -2.6723   0.8979   0.1987 N.pl3          1 S1                -1.0000
     12 ****        -1.3166   0.9724   0.3230 C.2            1 S1                 0.0000
     13 ****        -0.7775   1.4101   1.3389 O.2            1 S1                 0.0000
     14 ****        -0.4949   0.5019  -0.8057 C.2            1 S1                 0.0000
     15 ****         1.0256   0.5986  -0.7020 C.3            1 S1                 0.0000
     16 ****         1.6366  -0.6266   0.0047 C.3            1 S1                 0.0000
     17 ****         3.1643  -0.5705   0.1006 C.2            1 S1                 0.0000
     18 ****         3.8281   0.0116  -0.7581 O.2            1 S1                 0.0000
     19 ****         3.7139  -1.1943   1.1536 N.am           1 S1                 0.0000
     20 ****         5.1455  -1.2760   1.4259 C.3            1 S1                 0.0000
     21 ****         5.6984   0.0024   2.0912 C.3            1 S1                 0.0000
     22 ****         7.2231  -0.0847   2.2519 C.3            1 S1                 0.0000
     23 ****         5.0244   0.2950   3.4427 C.3            1 S1                 0.0000
     24 ****         0.3399  -1.2425  -2.8501 H              1 S1                 0.0000
     25 ****         0.0888   0.3174  -3.6503 H              1 S1                 0.0000
     26 ****        -1.0997  -0.9736  -3.8309 H              1 S1                 0.0000
     27 ****        -4.9575   2.0676   0.2434 H              1 S1                 0.0000
     28 ****        -5.4866   2.2071  -1.4171 H              1 S1                 0.0000
     29 ****        -6.8225   0.5222   0.7779 H              1 S1                 0.0000
     30 ****        -7.4440   2.0059   0.0810 H              1 S1                 0.0000
     31 ****        -6.7440  -1.4550  -0.5880 H              1 S1                 0.0000
     32 ****        -7.3105  -1.3614  -2.2441 H              1 S1                 0.0000
     33 ****        -5.3989   0.0656  -2.8972 H              1 S1                 0.0000
     34 ****        -4.8105  -1.3986  -2.1318 H              1 S1                 0.0000
     35 ****         1.4509   0.7061  -1.6997 H              1 S1                 0.0000
     36 ****         1.3016   1.5146  -0.1769 H              1 S1                 0.0000
     37 ****         1.2179  -0.7157   1.0084 H              1 S1                 0.0000
     38 ****         1.3637  -1.5376  -0.5286 H              1 S1                 0.0000
     39 ****         3.0958  -1.6464   1.8119 H              1 S1                 0.0000
     40 ****         5.3172  -2.1359   2.0740 H              1 S1                 0.0000
     41 ****         5.6813  -1.4835   0.4979 H              1 S1                 0.0000
     42 ****         5.4934   0.8462   1.4308 H              1 S1                 0.0000
     43 ****         7.5074  -0.9127   2.9023 H              1 S1                 0.0000
     44 ****         7.6266   0.8319   2.6832 H              1 S1                 0.0000
     45 ****         7.7115  -0.2355   1.2887 H              1 S1                 0.0000
     46 ****         5.1755  -0.5249   4.1455 H              1 S1                 0.0000
     47 ****         3.9503   0.4450   3.3308 H              1 S1                 0.0000
     48 ****         5.4310   1.1997   3.8957 H              1 S1                 0.0000
     49 ****        -2.9931  -0.4043  -2.7687 LP             1 S1                 0.0000
     50 ****        -7.5178   0.9520  -2.0007 LP             1 S1                 0.0000
     51 ****        -8.4141   0.1522  -0.8945 LP             1 S1                 0.0000
     52 ****        -3.2567   1.2131   0.9464 LP             1 S1                 0.0000
     53 ****        -1.3368   1.7248   2.1058 LP             1 S1                 0.0000
     54 ****         0.2199   1.4510   1.3976 LP             1 S1                 0.0000
     55 ****         3.3702   0.4544  -1.5290 LP             1 S1                 0.0000
     56 ****         4.8249   0.0413  -0.6845 LP             1 S1                 0.0000
@<TRIPOS>BOND
    1    1    2 1     
    2    1   24 1     
    3    1   25 1     
    4    1   26 1     
    5    2   14 2     
    6    2    3 1     
    7    3    4 2     
    8    4    5 1     
    9    4   11 1     
   10    5   10 1     
   11    5    6 1     
   12    6    7 1     
   13    6   27 1     
   14    6   28 1     
   15    7    8 1     
   16    7   29 1     
   17    7   30 1     
   18    8    9 1     
   19    9   10 1     
   20    9   31 1     
   21    9   32 1     
   22   10   33 1     
   23   10   34 1     
   24   11   12 1     
   25   12   13 2     
   26   12   14 1     
   27   14   15 1     
   28   15   16 1     
   29   15   35 1     
   30   15   36 1     
   31   16   17 1     
   32   16   37 1     
   33   16   38 1     
   34   17   18 2     
   35   17   19 am    
   36   19   20 1     
   37   19   39 1     
   38   20   21 1     
   39   20   40 1     
   40   20   41 1     
   41   21   22 1     
   42   21   23 1     
   43   21   42 1     
   44   22   43 1     
   45   22   44 1     
   46   22   45 1     
   47   23   46 1     
   48   23   47 1     
   49   23   48 1     
   50    3   49 1     
   51    8   50 1     
   52    8   51 1     
   53   11   52 1     
   54   13   53 1     
   55   13   54 1     
   56   18   55 1     
   57   18   56 1     
@<TRIPOS>SUBSTRUCTURE
      1 S1             1
@<TRIPOS>SET
LONE_PAIRS      STATIC     ATOMS    <user>   **** ""
8 49 50 51 52 53 54 55 56
DONOR_HYDROGENS      STATIC     ATOMS    <user>   **** ""
1 39
ATOM$BLUE        STATIC     ATOMS    COLORGROUP SYSTEM
8 49 50 51 52 53 54 55 56
ATOM$RED        STATIC     ATOMS    COLORGROUP SYSTEM
1 39
