AV-unprocessed.smi:1166|AV-procd|sdf|4936|dock2
  -GOLD-   22720 3523D 1   1.00000     0.00000
 Structure written by MMmdl.
 46 47  0  0  0  0  0  0  0  0  1 V2000
  151.4343  143.3207  157.2920 C   0  0  0  0  0  0  0  0  0  0  0  0
  152.2582  143.6464  158.4518 N   0  0  0  0  0  0  0  0  0  0  0  0
  152.4841  145.0405  158.8127 C   0  0  0  0  0  0  0  0  0  0  0  0
  152.7569  142.6097  159.2737 C   0  0  0  0  0  0  0  0  0  0  0  0
  153.2146  142.8649  160.5903 C   0  0  0  0  0  0  0  0  0  0  0  0
  153.7021  141.7974  161.3675 C   0  0  0  0  0  0  0  0  0  0  0  0
  153.7336  140.5016  160.8186 C   0  0  0  0  0  0  0  0  0  0  0  0
  154.2126  139.4415  161.6344 N   0  0  0  0  0  0  0  0  0  0  0  0
  153.7917  138.1661  161.6796 C   0  0  0  0  0  0  0  0  0  0  0  0
  152.9036  137.6830  160.9777 O   0  0  0  0  0  0  0  0  0  0  0  0
  154.4847  137.4613  162.5850 N   0  0  0  0  0  0  0  0  0  0  0  0
  154.3076  136.0394  162.8609 C   0  0  2  0  0  0  0  0  0  0  0  0
  154.0964  135.7947  164.3640 C   0  0  0  0  0  0  0  0  0  0  0  0
  153.9653  134.2905  164.6288 C   0  0  0  0  0  0  0  0  0  0  0  0
  155.1832  133.5186  164.0911 C   0  0  0  0  0  0  0  0  0  0  0  0
  155.4369  133.8214  162.6675 N   0  0  0  0  0  0  0  0  0  0  0  0
  154.9458  132.6944  161.4357 S   0  0  0  0  0  0  0  0  0  0  0  0
  153.9571  131.4355  162.3424 C   0  0  0  0  0  0  0  0  0  0  0  0
  154.0475  133.4028  160.5111 O   0  0  0  0  0  0  0  0  0  0  0  0
  156.1567  132.0399  160.9169 O   0  0  0  0  0  0  0  0  0  0  0  0
  155.5353  135.2600  162.3514 C   0  0  0  0  0  0  0  0  0  0  0  0
  153.2465  140.3373  159.5010 C   0  0  0  0  0  0  0  0  0  0  0  0
  152.7771  141.3581  158.7534 N   0  0  0  0  0  0  0  0  0  0  0  0
  151.9765  142.6686  156.6065 H   0  0  0  0  0  0  0  0  0  0  0  0
  151.1497  144.2174  156.7412 H   0  0  0  0  0  0  0  0  0  0  0  0
  150.5201  142.8141  157.6027 H   0  0  0  0  0  0  0  0  0  0  0  0
  152.0742  145.2517  159.8009 H   0  0  0  0  0  0  0  0  0  0  0  0
  152.0062  145.7166  158.1037 H   0  0  0  0  0  0  0  0  0  0  0  0
  153.5506  145.2668  158.8198 H   0  0  0  0  0  0  0  0  0  0  0  0
  153.2021  143.8554  161.0192 H   0  0  0  0  0  0  0  0  0  0  0  0
  154.0517  141.9770  162.3737 H   0  0  0  0  0  0  0  0  0  0  0  0
  155.0082  139.6674  162.2130 H   0  0  0  0  0  0  0  0  0  0  0  0
  155.1981  137.9402  163.1148 H   0  0  0  0  0  0  0  0  0  0  0  0
  153.4266  135.6896  162.3228 H   0  0  0  0  0  0  0  0  0  0  0  0
  154.9356  136.1976  164.9328 H   0  0  0  0  0  0  0  0  0  0  0  0
  153.2019  136.3110  164.7147 H   0  0  0  0  0  0  0  0  0  0  0  0
  153.8607  134.1119  165.6993 H   0  0  0  0  0  0  0  0  0  0  0  0
  153.0514  133.9168  164.1688 H   0  0  0  0  0  0  0  0  0  0  0  0
  156.0700  133.7936  164.6631 H   0  0  0  0  0  0  0  0  0  0  0  0
  155.0460  132.4473  164.2337 H   0  0  0  0  0  0  0  0  0  0  0  0
  153.6274  130.6704  161.6401 H   0  0  0  0  0  0  0  0  0  0  0  0
  153.0812  131.9018  162.7899 H   0  0  0  0  0  0  0  0  0  0  0  0
  154.5668  130.9675  163.1132 H   0  0  0  0  0  0  0  0  0  0  0  0
  155.6579  135.4011  161.2777 H   0  0  0  0  0  0  0  0  0  0  0  0
  156.4413  135.6503  162.8174 H   0  0  0  0  0  0  0  0  0  0  0  0
  153.2024  139.3715  159.0226 H   0  0  0  0  0  0  0  0  0  0  0  0
  1  2  1  0  0  0  0
  1 24  1  0  0  0  0
  1 25  1  0  0  0  0
  1 26  1  0  0  0  0
  2  3  1  0  0  0  0
  2  4  1  0  0  0  0
  3 27  1  0  0  0  0
  3 28  1  0  0  0  0
  3 29  1  0  0  0  0
  4 23  1  0  0  0  0
  4  5  2  0  0  0  0
  5  6  1  0  0  0  0
  5 30  1  0  0  0  0
  6  7  2  0  0  0  0
  6 31  1  0  0  0  0
  7  8  1  0  0  0  0
  7 22  1  0  0  0  0
  8  9  1  0  0  0  0
  8 32  1  0  0  0  0
  9 10  2  0  0  0  0
  9 11  1  0  0  0  0
 11 12  1  0  0  0  0
 11 33  1  0  0  0  0
 12 21  1  0  0  0  0
 12 13  1  0  0  0  0
 12 34  1  0  0  0  0
 13 14  1  0  0  0  0
 13 35  1  0  0  0  0
 13 36  1  0  0  0  0
 14 15  1  0  0  0  0
 14 37  1  0  0  0  0
 14 38  1  0  0  0  0
 15 16  1  0  0  0  0
 15 39  1  0  0  0  0
 15 40  1  0  0  0  0
 16 17  1  0  0  0  0
 16 21  1  0  0  0  0
 17 18  1  0  0  0  0
 17 19  2  0  0  0  0
 17 20  2  0  0  0  0
 18 41  1  0  0  0  0
 18 42  1  0  0  0  0
 18 43  1  0  0  0  0
 21 44  1  0  0  0  0
 21 45  1  0  0  0  0
 22 23  2  0  0  0  0
 22 46  1  0  0  0  0
M  END
> <s_m_source_file>
AV-unprocessed.smi

> <i_m_source_file_index>
1166

> <i_lp_mmshare_version>
43012

> <i_f3d_flags>
0

> <s_epik_input>
W0NIM11OKFtDSDNdKWMxW2NIXVtjSF1jKFtjSF1uMSlbTkhdQyg9TylbTkhdW0NAQEhdMltDSDJdW0NIMl1bQ0gyXU4oW0NIMl0yKVMoPU8pKD1PKVtDSDNd

> <s_epik_cmdline>
J2VwaWtfcHl0aG9uJywgJy1waCcsICc3LjAnLCAnLXRuJywgJzgnLCAnLW1hJywgJzIwMCcsICctbWV0YWxfYmluZGluZycsICctaW1hZScsICc8aW5maWxlLm1hZT4nLCAnLW9tYWUnLCAnPG91dGZpbGUubWFlPic=

> <r_lp_tautomer_probability>
1

> <r_epik_Ionization_Penalty>
0.585334

> <r_epik_Ionization_Penalty_Charging>
0

> <r_epik_Ionization_Penalty_Neutral>
0.585334

> <r_epik_State_Penalty>
0.597345

> <r_epik_Charging_Adjusted_Penalty>
0.597345

> <i_epik_Tot_Q>
0

> <i_epik_Tot_abs_Q>
0

> <r_epik_Metal_State_Penalty>
0.29678

> <b_epik_Metal_Only>
0

> <s_lp_Force_Field>
OPLS_2005

> <r_lp_Energy>
0.833523

> <b_lp_Chiralities_Consistent>
1

> <s_lp_Variant>
AV-unprocessed.smi:1166-3

> <Gold.Version>
5.8.1

> <Gold.Id.Protein>
6NUR|6NUR_protein|mol2

> <Gold.PLP.Fitness>
44.3707

> <Gold.PLP.PLP>
-42.6576

> <Gold.PLP.part.hbond>
-1.0000

> <Gold.PLP.part.metal>
0.0000

> <Gold.PLP.part.buried>
-4.3581

> <Gold.PLP.part.nonpolar>
-37.7242

> <Gold.PLP.part.repulsive>
0.0079

> <Gold.PLP.ligand.clash>
0.0000

> <Gold.PLP.ligand.torsion>
1.6397

> <Gold.PLP.Chemscore.Hbond>
0.9750

> <Gold.PLP.Chemscore.CHOScore>
0.0000

> <Gold.PLP.Chemscore.Metal>
0.0000

> <Gold.Chemscore.Hbonds>
donor molecule, donor type, donor heavy atom, donor atom, acceptor molecule, acceptor atom, score
      P1  H  6896  6908       L1    19  0.85

> <Gold.PLP.Chemscore.Internal.Correction>
2.0674

> <Gold.Rescore>
     Score         DG    S(hbond)    S(metal)    S(lipo)     H(rot)  DE(clash)    DE(int)     intcor
     14.97     -17.55       0.97        0.00      97.44       1.00       0.04       2.54       ----

> <Gold.Chemscore.Fitness>
14.9660

> <Gold.Chemscore.DG>
-17.5463

> <Gold.Chemscore.ZeroCoef>
-5.4800

> <Gold.Chemscore.Hbond>
0.9659

> <Gold.Chemscore.Metal>
0.0000

> <Gold.Chemscore.Lipo>
97.4366

> <Gold.Chemscore.Internal_Hbond>
0.0000

> <Gold.Chemscore.DEClash>
0.0363

> <Gold.Chemscore.DEInternal>
2.5440

> <Gold.Chemscore.Rot>
1.0000

> <Gold.Chemscore.Internal.Correction>
   9.000000E+99

> <Gold.Chemscore.Hbonds>
donor molecule, donor type, donor heavy atom, donor atom, acceptor molecule, acceptor atom, score
      P1  H  6896  6908       L1    19  0.85

> <Gold.Chemscore.Hbond.Weighted>
-3.2262

> <Gold.Chemscore.Metal.Weighted>
-0.0000

> <Gold.Chemscore.Lipo.Weighted>
-11.4001

> <Gold.Chemscore.Internal_Hbond.Weighted>
0.0000

> <Gold.Chemscore.DEClash.Weighted>
0.0363

> <Gold.Chemscore.DEInternal.Weighted>
2.5440

> <Gold.Chemscore.Rot.Weighted>
2.5600

> <Gold.Chemscore.Internal.Correction.Weighted>
   9.000000E+99

> <Gold.Protein.RotatedTorsions>
[ 6907 6896 6895 6894 ] final  -16.86 input  -60.11 | X-H torsion
[ 7974 7965 7964 7962 ] final   47.73 input  175.53 | X-H torsion
[ 8008 7997 7996 7995 ] final   89.57 input   59.86 | X-H torsion
[ 10167 10162 10161 10158 ] final  111.43 input  -65.29 | X-H torsion
[ 10718 10713 10712 10709 ] final  -17.28 input   66.30 | X-H torsion
[ 10763 10752 10751 10750 ] final  -50.77 input  -60.55 | X-H torsion
[ 11005 11000 10999 10996 ] final  -30.34 input  -57.11 | X-H torsion

> <Gold.Protein.ActiveResidues>
 VAL166  LYS551  ARG553  GLY616  TRP617  ASP618  TYR619  PRO620  LYS621  CYS622 
 ASP623  PHE694  ASN695  SER759  ASP760  ASP761  ALA762  ILE779  LEU786  VAL792 
 PHE793  MET794  SER795  GLU796  ALA797  LYS798  CYS799  TRP800  GLU811  SER814 

> <Gold.Protein.RotatedAtoms>
  151.3021  135.0771  159.9242 H   0  0  0  0  0  0  0  0  0  0  0  0  # atno 6907 bound_to 6896
  152.5295  133.9822  159.7822 H   0  0  0  0  0  0  0  0  0  0  0  0  # atno 6908 bound_to 6896
  151.0111  133.5913  159.2713 H   0  0  0  0  0  0  0  0  0  0  0  0  # atno 6909 bound_to 6896
  146.0270  139.4718  142.9861 H   0  0  0  0  0  0  0  0  0  0  0  0  # atno 7974 bound_to 7965
  156.0015  140.3359  155.6850 H   0  0  0  0  0  0  0  0  0  0  0  0  # atno 8008 bound_to 7997
  155.6283  140.0682  157.2674 H   0  0  0  0  0  0  0  0  0  0  0  0  # atno 8009 bound_to 7997
  154.4251  140.1764  156.1433 H   0  0  0  0  0  0  0  0  0  0  0  0  # atno 8010 bound_to 7997
  139.6612  144.7128  151.1862 H   0  0  0  0  0  0  0  0  0  0  0  0  # atno 10167 bound_to 10162
  156.5758  130.4761  149.6342 H   0  0  0  0  0  0  0  0  0  0  0  0  # atno 10718 bound_to 10713
  154.1158  135.6542  153.4893 H   0  0  0  0  0  0  0  0  0  0  0  0  # atno 10763 bound_to 10752
  153.0241  135.5258  154.7147 H   0  0  0  0  0  0  0  0  0  0  0  0  # atno 10764 bound_to 10752
  154.6340  135.2979  155.0153 H   0  0  0  0  0  0  0  0  0  0  0  0  # atno 10765 bound_to 10752
  140.9374  133.7300  156.1026 H   0  0  0  0  0  0  0  0  0  0  0  0  # atno 11005 bound_to 11000
  145.7101  141.0109  143.1458 LP  0  0  0  0  0  0  0  0  0  0  0  0  # atno 17320 bound_to 7965
  144.7014  139.8747  143.7443 LP  0  0  0  0  0  0  0  0  0  0  0  0  # atno 17321 bound_to 7965
  140.7580  143.5992  150.8717 LP  0  0  0  0  0  0  0  0  0  0  0  0  # atno 17342 bound_to 10162
  139.9649  143.6121  152.2991 LP  0  0  0  0  0  0  0  0  0  0  0  0  # atno 17343 bound_to 10162
  156.2675  130.6998  151.1785 LP  0  0  0  0  0  0  0  0  0  0  0  0  # atno 17370 bound_to 10713
  157.7338  131.0588  150.5559 LP  0  0  0  0  0  0  0  0  0  0  0  0  # atno 17371 bound_to 10713
  140.7780  134.3757  157.5493 LP  0  0  0  0  0  0  0  0  0  0  0  0  # atno 17394 bound_to 11000
  139.8811  134.9064  156.2921 LP  0  0  0  0  0  0  0  0  0  0  0  0  # atno 17395 bound_to 11000

$$$$
