AV-unprocessed.smi:1433|AV-procd|sdf|5848|dock6
  -GOLD-   22720 5513D 1   1.00000     0.00000
 Structure written by MMmdl.
 45 46  0  0  0  0  0  0  0  0  2 V2000
  151.4619  137.4830  155.3083 C   0  0  0  0  0  0  0  0  0  0  0  0
  150.9806  138.5603  154.3200 C   0  0  1  0  0  0  0  0  0  0  0  0
  149.4838  138.4561  153.9737 C   0  0  0  0  0  0  0  0  0  0  0  0
  148.6212  138.8921  155.1056 N   0  3  2  0  0  0  0  0  0  0  0  0
  147.1617  138.6942  154.8215 C   0  0  1  0  0  0  0  0  0  0  0  0
  146.7440  139.5216  153.5831 C   0  0  0  0  0  0  0  0  0  0  0  0
  146.7511  137.2053  154.6372 C   0  0  0  0  0  0  0  0  0  0  0  0
  146.6648  136.8156  153.2338 N   0  0  0  0  0  0  0  0  0  0  0  0
  145.5760  136.2972  152.6448 C   0  0  0  0  0  0  0  0  0  0  0  0
  144.5400  136.0273  153.2518 O   0  0  0  0  0  0  0  0  0  0  0  0
  145.6616  136.0741  151.1353 C   0  0  0  0  0  0  0  0  0  0  0  0
  145.5314  134.6631  150.8175 N   0  0  0  0  0  0  0  0  0  0  0  0
  144.4788  134.0171  150.2027 C   0  0  0  0  0  0  0  0  0  0  0  0
  144.8142  132.6973  150.1032 C   0  0  0  0  0  0  0  0  0  0  0  0
  146.1079  132.6315  150.6920 C   0  0  0  0  0  0  0  0  0  0  0  0
  146.5362  133.8098  151.1159 N   0  0  0  0  0  0  0  0  0  0  0  0
  149.0180  140.2629  155.5264 C   0  0  0  0  0  0  0  0  0  0  0  0
  150.5185  140.3293  155.8665 C   0  0  2  0  0  0  0  0  0  0  0  0
  150.9656  141.7569  156.2007 C   0  0  0  0  0  0  0  0  0  0  0  0
  151.2881  139.8813  154.7570 O   0  0  0  0  0  0  0  0  0  0  0  0
  151.3385  136.4868  154.8829 H   0  0  0  0  0  0  0  0  0  0  0  0
  150.9092  137.5027  156.2472 H   0  0  0  0  0  0  0  0  0  0  0  0
  152.5196  137.6125  155.5389 H   0  0  0  0  0  0  0  0  0  0  0  0
  151.5437  138.4127  153.3979 H   0  0  0  0  0  0  0  0  0  0  0  0
  149.2714  139.0837  153.1066 H   0  0  0  0  0  0  0  0  0  0  0  0
  149.2654  137.4328  153.6736 H   0  0  0  0  0  0  0  0  0  0  0  0
  146.6115  139.0722  155.6847 H   0  0  0  0  0  0  0  0  0  0  0  0
  145.6781  139.4314  153.3741 H   0  0  0  0  0  0  0  0  0  0  0  0
  147.2817  139.1938  152.6929 H   0  0  0  0  0  0  0  0  0  0  0  0
  146.9304  140.5868  153.7062 H   0  0  0  0  0  0  0  0  0  0  0  0
  147.4759  136.5518  155.1240 H   0  0  0  0  0  0  0  0  0  0  0  0
  145.7814  136.9973  155.0915 H   0  0  0  0  0  0  0  0  0  0  0  0
  147.4714  137.0027  152.6548 H   0  0  0  0  0  0  0  0  0  0  0  0
  144.8808  136.6388  150.6230 H   0  0  0  0  0  0  0  0  0  0  0  0
  146.6199  136.4336  150.7577 H   0  0  0  0  0  0  0  0  0  0  0  0
  143.5904  134.5452  149.8889 H   0  0  0  0  0  0  0  0  0  0  0  0
  144.2249  131.8997  149.6754 H   0  0  0  0  0  0  0  0  0  0  0  0
  146.7448  131.7690  150.8217 H   0  0  0  0  0  0  0  0  0  0  0  0
  148.7721  140.9729  154.7349 H   0  0  0  0  0  0  0  0  0  0  0  0
  148.4755  140.5659  156.4213 H   0  0  0  0  0  0  0  0  0  0  0  0
  150.7244  139.7019  156.7341 H   0  0  0  0  0  0  0  0  0  0  0  0
  150.4132  142.1527  157.0534 H   0  0  0  0  0  0  0  0  0  0  0  0
  150.8050  142.4289  155.3571 H   0  0  0  0  0  0  0  0  0  0  0  0
  152.0264  141.7847  156.4510 H   0  0  0  0  0  0  0  0  0  0  0  0
  148.8376  138.2924  155.8891 H   0  0  0  0  0  0  0  0  0  0  0  0
  1  2  1  0  0  0  0
  1 21  1  0  0  0  0
  1 22  1  0  0  0  0
  1 23  1  0  0  0  0
  2 20  1  0  0  0  0
  2  3  1  0  0  0  0
  2 24  1  0  0  0  0
  3  4  1  0  0  0  0
  3 25  1  0  0  0  0
  3 26  1  0  0  0  0
  4  5  1  0  0  0  0
  4 17  1  0  0  0  0
  4 45  1  0  0  0  0
  5  6  1  0  0  0  0
  5  7  1  0  0  0  0
  5 27  1  0  0  0  0
  6 28  1  0  0  0  0
  6 29  1  0  0  0  0
  6 30  1  0  0  0  0
  7  8  1  0  0  0  0
  7 31  1  0  0  0  0
  7 32  1  0  0  0  0
  8  9  1  0  0  0  0
  8 33  1  0  0  0  0
  9 10  2  0  0  0  0
  9 11  1  0  0  0  0
 11 12  1  0  0  0  0
 11 34  1  0  0  0  0
 11 35  1  0  0  0  0
 12 16  1  0  0  0  0
 12 13  1  0  0  0  0
 13 14  2  0  0  0  0
 13 36  1  0  0  0  0
 14 15  1  0  0  0  0
 14 37  1  0  0  0  0
 15 16  2  0  0  0  0
 15 38  1  0  0  0  0
 17 18  1  0  0  0  0
 17 39  1  0  0  0  0
 17 40  1  0  0  0  0
 18 19  1  0  0  0  0
 18 20  1  0  0  0  0
 18 41  1  0  0  0  0
 19 42  1  0  0  0  0
 19 43  1  0  0  0  0
 19 44  1  0  0  0  0
M  CHG  1   4   1
M  END
> <s_m_source_file>
AV-unprocessed.smi

> <i_m_source_file_index>
1433

> <i_lp_mmshare_version>
43012

> <i_f3d_flags>
0

> <s_epik_input>
W0NIM11bQ0BASF0xW0NIMl1OKFtDSDJdW0NASF0oTzEpW0NIM10pW0NASF0oW0NIM10pW0NIMl1bTkhdQyg9TylbQ0gyXW4yW2NIXVtjSF1bY0hdbjI=

> <s_epik_cmdline>
J2VwaWtfcHl0aG9uJywgJy1waCcsICc3LjAnLCAnLXRuJywgJzgnLCAnLW1hJywgJzIwMCcsICctbWV0YWxfYmluZGluZycsICctaW1hZScsICc8aW5maWxlLm1hZT4nLCAnLW9tYWUnLCAnPG91dGZpbGUubWFlPic=

> <r_lp_tautomer_probability>
1

> <r_epik_Ionization_Penalty>
0.748405

> <r_epik_Ionization_Penalty_Charging>
0.748396

> <r_epik_Ionization_Penalty_Neutral>
8.54426e-06

> <r_epik_State_Penalty>
0.775162

> <r_epik_Charging_Adjusted_Penalty>
1.52356

> <i_epik_Tot_Q>
1

> <i_epik_Tot_abs_Q>
1

> <r_epik_Metal_State_Penalty>
0.775167

> <b_epik_Metal_Only>
0

> <s_lp_Force_Field>
OPLS_2005

> <r_lp_Energy>
21.4141

> <b_lp_Chiralities_Consistent>
1

> <s_lp_Variant>
AV-unprocessed.smi:1433-14

> <Gold.Version>
5.8.1

> <Gold.Id.Protein>
6NUR|6NUR_protein|mol2

> <Gold.PLP.Fitness>
40.4885

> <Gold.PLP.PLP>
-30.8399

> <Gold.PLP.part.hbond>
-2.0000

> <Gold.PLP.part.metal>
0.0000

> <Gold.PLP.part.buried>
-4.2066

> <Gold.PLP.part.nonpolar>
-25.0034

> <Gold.PLP.part.repulsive>
0.3567

> <Gold.PLP.ligand.clash>
0.7376

> <Gold.PLP.ligand.torsion>
0.6551

> <Gold.PLP.Chemscore.Hbond>
1.8800

> <Gold.PLP.Chemscore.CHOScore>
2.0000

> <Gold.PLP.Chemscore.Metal>
0.0000

> <Gold.Chemscore.Hbonds>
donor molecule, donor type, donor heavy atom, donor atom, acceptor molecule, acceptor atom, score
      L1  H     8    33       P1  7948  0.90
      P1  H  7989  7998       L1    20  1.00
      L1  C    13    36       P1 10186  0.83
      L1  C    15    38       P1 10747  1.00

> <Gold.PLP.Chemscore.Internal.Correction>
0.0565

> <Gold.Rescore>
     Score         DG    S(hbond)    S(metal)    S(lipo)     H(rot)  DE(clash)    DE(int)     intcor
     15.30     -16.27       1.85        0.00      80.09       1.87       0.43       0.53       ----

> <Gold.Chemscore.Fitness>
15.3046

> <Gold.Chemscore.DG>
-16.2679

> <Gold.Chemscore.ZeroCoef>
-5.4800

> <Gold.Chemscore.Hbond>
1.8542

> <Gold.Chemscore.Metal>
0.0000

> <Gold.Chemscore.Lipo>
80.0948

> <Gold.Chemscore.Internal_Hbond>
0.0000

> <Gold.Chemscore.DEClash>
0.4303

> <Gold.Chemscore.DEInternal>
0.5330

> <Gold.Chemscore.Rot>
1.8657

> <Gold.Chemscore.Internal.Correction>
   9.000000E+99

> <Gold.Chemscore.Hbonds>
donor molecule, donor type, donor heavy atom, donor atom, acceptor molecule, acceptor atom, score
      L1  H     8    33       P1  7948  0.87
      P1  H  7989  7998       L1    20  0.81

> <Gold.Chemscore.Hbond.Weighted>
-6.1930

> <Gold.Chemscore.Metal.Weighted>
-0.0000

> <Gold.Chemscore.Lipo.Weighted>
-9.3711

> <Gold.Chemscore.Internal_Hbond.Weighted>
0.0000

> <Gold.Chemscore.DEClash.Weighted>
0.4303

> <Gold.Chemscore.DEInternal.Weighted>
0.5330

> <Gold.Chemscore.Rot.Weighted>
4.7761

> <Gold.Chemscore.Internal.Correction.Weighted>
   9.000000E+99

> <Gold.Protein.RotatedTorsions>
[ 6907 6896 6895 6894 ] final  -34.92 input  -60.11 | X-H torsion
[ 7974 7965 7964 7962 ] final -151.19 input  175.53 | X-H torsion
[ 8008 7997 7996 7995 ] final  127.16 input   59.86 | X-H torsion
[ 10167 10162 10161 10158 ] final  155.83 input  -65.29 | X-H torsion
[ 10718 10713 10712 10709 ] final  176.58 input   66.30 | X-H torsion
[ 10763 10752 10751 10750 ] final   31.72 input  -60.55 | X-H torsion
[ 11005 11000 10999 10996 ] final -166.14 input  -57.11 | X-H torsion

> <Gold.Protein.ActiveResidues>
 VAL166  LYS551  ARG553  GLY616  TRP617  ASP618  TYR619  PRO620  LYS621  CYS622 
 ASP623  PHE694  ASN695  SER759  ASP760  ASP761  ALA762  ILE779  LEU786  VAL792 
 PHE793  MET794  SER795  GLU796  ALA797  LYS798  CYS799  TRP800  GLU811  SER814 

> <Gold.Protein.RotatedAtoms>
  151.0464  134.9643  159.8188 H   0  0  0  0  0  0  0  0  0  0  0  0  # atno 6907 bound_to 6896
  152.5373  134.2593  159.8939 H   0  0  0  0  0  0  0  0  0  0  0  0  # atno 6908 bound_to 6896
  151.2607  133.4261  159.2650 H   0  0  0  0  0  0  0  0  0  0  0  0  # atno 6909 bound_to 6896
  144.7864  140.4831  143.5803 H   0  0  0  0  0  0  0  0  0  0  0  0  # atno 7974 bound_to 7965
  156.2883  140.2675  156.2228 H   0  0  0  0  0  0  0  0  0  0  0  0  # atno 8008 bound_to 7997
  155.0151  140.0387  157.2433 H   0  0  0  0  0  0  0  0  0  0  0  0  # atno 8009 bound_to 7997
  154.7484  140.2738  155.6318 H   0  0  0  0  0  0  0  0  0  0  0  0  # atno 8010 bound_to 7997
  139.4821  144.5063  151.8092 H   0  0  0  0  0  0  0  0  0  0  0  0  # atno 10167 bound_to 10162
  156.9180  130.9931  151.3009 H   0  0  0  0  0  0  0  0  0  0  0  0  # atno 10718 bound_to 10713
  153.0300  135.6431  154.1244 H   0  0  0  0  0  0  0  0  0  0  0  0  # atno 10763 bound_to 10752
  154.0967  135.2862  155.3262 H   0  0  0  0  0  0  0  0  0  0  0  0  # atno 10764 bound_to 10752
  154.6427  135.5454  153.7871 H   0  0  0  0  0  0  0  0  0  0  0  0  # atno 10765 bound_to 10752
  140.5678  134.5268  157.5156 H   0  0  0  0  0  0  0  0  0  0  0  0  # atno 11005 bound_to 11000
  145.5911  139.1496  143.3182 LP  0  0  0  0  0  0  0  0  0  0  0  0  # atno 17320 bound_to 7965
  146.2097  140.6037  142.9065 LP  0  0  0  0  0  0  0  0  0  0  0  0  # atno 17321 bound_to 7965
  140.4562  144.1786  150.5902 LP  0  0  0  0  0  0  0  0  0  0  0  0  # atno 17342 bound_to 10162
  140.4533  143.2478  151.9318 LP  0  0  0  0  0  0  0  0  0  0  0  0  # atno 17343 bound_to 10162
  157.5926  130.8454  149.8681 LP  0  0  0  0  0  0  0  0  0  0  0  0  # atno 17370 bound_to 10713
  156.0504  130.3719  150.1215 LP  0  0  0  0  0  0  0  0  0  0  0  0  # atno 17371 bound_to 10713
  139.9376  134.7846  156.0761 LP  0  0  0  0  0  0  0  0  0  0  0  0  # atno 17394 bound_to 11000
  141.1075  133.6655  156.2898 LP  0  0  0  0  0  0  0  0  0  0  0  0  # atno 17395 bound_to 11000

$$$$
