AV-unprocessed.smi:1640|AV-procd|sdf|6555|dock1
  -GOLD-   22720 7233D 1   1.00000     0.00000
 Structure written by MMmdl.
 46 47  0  0  0  0  0  0  0  0  2 V2000
  152.7094  142.0278  160.8818 C   0  0  0  0  0  0  0  0  0  0  0  0
  152.5186  142.4358  159.4112 C   0  0  0  0  0  0  0  0  0  0  0  0
  152.1266  143.9181  159.3138 C   0  0  0  0  0  0  0  0  0  0  0  0
  151.4863  141.5498  158.6852 C   0  0  0  0  0  0  0  0  0  0  0  0
  151.3532  141.8516  157.1823 C   0  0  0  0  0  0  0  0  0  0  0  0
  150.4124  140.5349  156.2958 S   0  0  0  0  0  0  0  0  0  0  0  0
  151.2741  140.0650  155.1988 O   0  0  0  0  0  0  0  0  0  0  0  0
  150.0402  139.5538  157.3282 O   0  0  0  0  0  0  0  0  0  0  0  0
  149.1389  141.3848  155.7652 N   0  5  0  0  0  0  0  0  0  0  0  0
  147.8594  141.2412  156.4360 C   0  0  0  0  0  0  0  0  0  0  0  0
  146.7622  142.0632  155.7423 C   0  0  0  0  0  0  0  0  0  0  0  0
  146.8986  142.3264  154.3576 C   0  0  0  0  0  0  0  0  0  0  0  0
  145.9053  143.0608  153.6856 C   0  0  0  0  0  0  0  0  0  0  0  0
  144.7989  143.5130  154.4225 C   0  0  0  0  0  0  0  0  0  0  0  0
  144.6465  143.2795  155.7404 N   0  0  0  0  0  0  0  0  0  0  0  0
  145.5963  142.5729  156.4040 C   0  0  0  0  0  0  0  0  0  0  0  0
  145.3653  142.4028  157.7865 N   0  0  0  0  0  0  0  0  0  0  0  0
  144.9663  141.0485  158.1471 C   0  0  0  0  0  0  0  0  0  0  0  0
  144.5031  141.0160  159.6132 C   0  0  0  0  0  0  0  0  0  0  0  0
  145.5384  141.5217  160.4529 O   0  0  0  0  0  0  0  0  0  0  0  0
  145.8731  142.8710  160.1372 C   0  0  0  0  0  0  0  0  0  0  0  0
  146.3738  142.9524  158.6847 C   0  0  0  0  0  0  0  0  0  0  0  0
  151.7673  142.0696  161.4291 H   0  0  0  0  0  0  0  0  0  0  0  0
  153.4141  142.6914  161.3836 H   0  0  0  0  0  0  0  0  0  0  0  0
  153.1037  141.0161  160.9722 H   0  0  0  0  0  0  0  0  0  0  0  0
  153.4776  142.3220  158.9041 H   0  0  0  0  0  0  0  0  0  0  0  0
  151.1751  144.1094  159.8109 H   0  0  0  0  0  0  0  0  0  0  0  0
  152.0281  144.2324  158.2744 H   0  0  0  0  0  0  0  0  0  0  0  0
  152.8795  144.5560  159.7776 H   0  0  0  0  0  0  0  0  0  0  0  0
  151.7383  140.4984  158.8287 H   0  0  0  0  0  0  0  0  0  0  0  0
  150.5125  141.6926  159.1542 H   0  0  0  0  0  0  0  0  0  0  0  0
  150.8126  142.7871  157.0406 H   0  0  0  0  0  0  0  0  0  0  0  0
  152.3217  141.9559  156.6945 H   0  0  0  0  0  0  0  0  0  0  0  0
  147.5464  140.1976  156.4805 H   0  0  0  0  0  0  0  0  0  0  0  0
  147.9032  141.5701  157.4748 H   0  0  0  0  0  0  0  0  0  0  0  0
  147.7515  141.9754  153.7921 H   0  0  0  0  0  0  0  0  0  0  0  0
  145.9912  143.2709  152.6299 H   0  0  0  0  0  0  0  0  0  0  0  0
  144.0149  144.0792  153.9419 H   0  0  0  0  0  0  0  0  0  0  0  0
  144.1649  140.7018  157.4944 H   0  0  0  0  0  0  0  0  0  0  0  0
  145.8103  140.3723  158.0055 H   0  0  0  0  0  0  0  0  0  0  0  0
  143.5934  141.6036  159.7457 H   0  0  0  0  0  0  0  0  0  0  0  0
  144.2686  139.9940  159.9110 H   0  0  0  0  0  0  0  0  0  0  0  0
  145.0053  143.5157  160.2859 H   0  0  0  0  0  0  0  0  0  0  0  0
  146.6480  143.2154  160.8220 H   0  0  0  0  0  0  0  0  0  0  0  0
  147.3053  142.3935  158.5850 H   0  0  0  0  0  0  0  0  0  0  0  0
  146.5837  143.9881  158.4154 H   0  0  0  0  0  0  0  0  0  0  0  0
  1  2  1  0  0  0  0
  1 23  1  0  0  0  0
  1 24  1  0  0  0  0
  1 25  1  0  0  0  0
  2  3  1  0  0  0  0
  2  4  1  0  0  0  0
  2 26  1  0  0  0  0
  3 27  1  0  0  0  0
  3 28  1  0  0  0  0
  3 29  1  0  0  0  0
  4  5  1  0  0  0  0
  4 30  1  0  0  0  0
  4 31  1  0  0  0  0
  5  6  1  0  0  0  0
  5 32  1  0  0  0  0
  5 33  1  0  0  0  0
  6  7  2  0  0  0  0
  6  8  2  0  0  0  0
  6  9  1  0  0  0  0
  9 10  1  0  0  0  0
 10 11  1  0  0  0  0
 10 34  1  0  0  0  0
 10 35  1  0  0  0  0
 11 16  1  0  0  0  0
 11 12  2  0  0  0  0
 12 13  1  0  0  0  0
 12 36  1  0  0  0  0
 13 14  2  0  0  0  0
 13 37  1  0  0  0  0
 14 15  1  0  0  0  0
 14 38  1  0  0  0  0
 15 16  2  0  0  0  0
 16 17  1  0  0  0  0
 17 22  1  0  0  0  0
 17 18  1  0  0  0  0
 18 19  1  0  0  0  0
 18 39  1  0  0  0  0
 18 40  1  0  0  0  0
 19 20  1  0  0  0  0
 19 41  1  0  0  0  0
 19 42  1  0  0  0  0
 20 21  1  0  0  0  0
 21 22  1  0  0  0  0
 21 43  1  0  0  0  0
 21 44  1  0  0  0  0
 22 45  1  0  0  0  0
 22 46  1  0  0  0  0
M  CHG  1   9  -1
M  END
> <s_m_source_file>
AV-unprocessed.smi

> <i_m_source_file_index>
1640

> <i_lp_mmshare_version>
43012

> <i_f3d_flags>
0

> <s_epik_input>
W0NIM11bQ0hdKFtDSDNdKVtDSDJdW0NIMl1TKD1PKSg9TylbTkhdW0NIMl1jMVtjSF1bY0hdW2NIXW5jMU4yW0NIMl1bQ0gyXU9bQ0gyXVtDSDJdMg==

> <s_epik_cmdline>
J2VwaWtfcHl0aG9uJywgJy1waCcsICc3LjAnLCAnLXRuJywgJzgnLCAnLW1hJywgJzIwMCcsICctbWV0YWxfYmluZGluZycsICctaW1hZScsICc8aW5maWxlLm1hZT4nLCAnLW9tYWUnLCAnPG91dGZpbGUubWFlPic=

> <r_lp_tautomer_probability>
1

> <r_epik_Ionization_Penalty>
6.15599

> <r_epik_Ionization_Penalty_Charging>
6.0779

> <r_epik_Ionization_Penalty_Neutral>
0.078089

> <r_epik_State_Penalty>
6.0833

> <r_epik_Charging_Adjusted_Penalty>
12.1612

> <i_epik_Tot_Q>
-1

> <i_epik_Tot_abs_Q>
1

> <r_epik_Metal_State_Penalty>
2.0323

> <b_epik_Metal_Only>
1

> <s_lp_Force_Field>
OPLS_2005

> <r_lp_Energy>
20.5141

> <b_lp_Chiralities_Consistent>
1

> <s_lp_Variant>
AV-unprocessed.smi:1640-2

> <Gold.Version>
5.8.1

> <Gold.Id.Protein>
6NUR|6NUR_protein|mol2

> <Gold.PLP.Fitness>
43.6296

> <Gold.PLP.PLP>
-36.9150

> <Gold.PLP.part.hbond>
-2.0000

> <Gold.PLP.part.metal>
0.0000

> <Gold.PLP.part.buried>
-6.6465

> <Gold.PLP.part.nonpolar>
-29.4391

> <Gold.PLP.part.repulsive>
0.3256

> <Gold.PLP.ligand.clash>
0.0000

> <Gold.PLP.ligand.torsion>
1.0925

> <Gold.PLP.Chemscore.Hbond>
1.9920

> <Gold.PLP.Chemscore.CHOScore>
0.5470

> <Gold.PLP.Chemscore.Metal>
0.0000

> <Gold.Chemscore.Hbonds>
donor molecule, donor type, donor heavy atom, donor atom, acceptor molecule, acceptor atom, score
      P1  H  6934  6946       L1    20  0.99
      P1  H  7989  7998       L1     7  1.00
      L1  C    14    38       P1 10174  0.27

> <Gold.PLP.Chemscore.Internal.Correction>
1.2826

> <Gold.Rescore>
     Score         DG    S(hbond)    S(metal)    S(lipo)     H(rot)  DE(clash)    DE(int)     intcor
     15.09     -16.59       1.83        0.00      80.66       1.73       0.36       1.14       ----

> <Gold.Chemscore.Fitness>
15.0876

> <Gold.Chemscore.DG>
-16.5861

> <Gold.Chemscore.ZeroCoef>
-5.4800

> <Gold.Chemscore.Hbond>
1.8294

> <Gold.Chemscore.Metal>
0.0000

> <Gold.Chemscore.Lipo>
80.6571

> <Gold.Chemscore.Internal_Hbond>
0.0000

> <Gold.Chemscore.DEClash>
0.3600

> <Gold.Chemscore.DEInternal>
1.1385

> <Gold.Chemscore.Rot>
1.7347

> <Gold.Chemscore.Internal.Correction>
   9.000000E+99

> <Gold.Chemscore.Hbonds>
donor molecule, donor type, donor heavy atom, donor atom, acceptor molecule, acceptor atom, score
      P1  H  6934  6946       L1    20  0.45
      P1  H  7989  7998       L1     7  0.99

> <Gold.Chemscore.Hbond.Weighted>
-6.1101

> <Gold.Chemscore.Metal.Weighted>
-0.0000

> <Gold.Chemscore.Lipo.Weighted>
-9.4369

> <Gold.Chemscore.Internal_Hbond.Weighted>
0.0000

> <Gold.Chemscore.DEClash.Weighted>
0.3600

> <Gold.Chemscore.DEInternal.Weighted>
1.1385

> <Gold.Chemscore.Rot.Weighted>
4.4409

> <Gold.Chemscore.Internal.Correction.Weighted>
   9.000000E+99

> <Gold.Protein.RotatedTorsions>
[ 6907 6896 6895 6894 ] final  -35.18 input  -60.11 | X-H torsion
[ 7974 7965 7964 7962 ] final  -80.56 input  175.53 | X-H torsion
[ 8008 7997 7996 7995 ] final  -14.98 input   59.86 | X-H torsion
[ 10167 10162 10161 10158 ] final -179.09 input  -65.29 | X-H torsion
[ 10718 10713 10712 10709 ] final -171.64 input   66.30 | X-H torsion
[ 10763 10752 10751 10750 ] final   77.56 input  -60.55 | X-H torsion
[ 11005 11000 10999 10996 ] final    8.10 input  -57.11 | X-H torsion

> <Gold.Protein.ActiveResidues>
 VAL166  LYS551  ARG553  GLY616  TRP617  ASP618  TYR619  PRO620  LYS621  CYS622 
 ASP623  PHE694  ASN695  SER759  ASP760  ASP761  ALA762  ILE779  LEU786  VAL792 
 PHE793  MET794  SER795  GLU796  ALA797  LYS798  CYS799  TRP800  GLU811  SER814 

> <Gold.Protein.RotatedAtoms>
  151.0430  134.9620  159.8171 H   0  0  0  0  0  0  0  0  0  0  0  0  # atno 6907 bound_to 6896
  152.5367  134.2633  159.8954 H   0  0  0  0  0  0  0  0  0  0  0  0  # atno 6908 bound_to 6896
  151.2646  133.4242  159.2652 H   0  0  0  0  0  0  0  0  0  0  0  0  # atno 6909 bound_to 6896
  145.5583  140.9486  143.1461 H   0  0  0  0  0  0  0  0  0  0  0  0  # atno 7974 bound_to 7965
  154.5167  140.2208  155.9053 H   0  0  0  0  0  0  0  0  0  0  0  0  # atno 8008 bound_to 7997
  156.1615  140.3141  155.8781 H   0  0  0  0  0  0  0  0  0  0  0  0  # atno 8009 bound_to 7997
  155.3741  140.0468  157.3035 H   0  0  0  0  0  0  0  0  0  0  0  0  # atno 8010 bound_to 7997
  139.5402  144.2384  152.0879 H   0  0  0  0  0  0  0  0  0  0  0  0  # atno 10167 bound_to 10162
  156.7438  130.9352  151.3111 H   0  0  0  0  0  0  0  0  0  0  0  0  # atno 10718 bound_to 10713
  153.0808  135.4909  154.8498 H   0  0  0  0  0  0  0  0  0  0  0  0  # atno 10763 bound_to 10752
  154.7148  135.3027  154.9144 H   0  0  0  0  0  0  0  0  0  0  0  0  # atno 10764 bound_to 10752
  153.9826  135.6788  153.4803 H   0  0  0  0  0  0  0  0  0  0  0  0  # atno 10765 bound_to 10752
  140.5408  134.0376  155.7903 H   0  0  0  0  0  0  0  0  0  0  0  0  # atno 11005 bound_to 11000
  144.7495  139.7230  143.7278 LP  0  0  0  0  0  0  0  0  0  0  0  0  # atno 17320 bound_to 7965
  146.1869  139.5089  142.9830 LP  0  0  0  0  0  0  0  0  0  0  0  0  # atno 17321 bound_to 7965
  140.1861  144.4797  150.6503 LP  0  0  0  0  0  0  0  0  0  0  0  0  # atno 17342 bound_to 10162
  140.6628  143.2258  151.5814 LP  0  0  0  0  0  0  0  0  0  0  0  0  # atno 17343 bound_to 10162
  157.6807  130.9137  150.0260 LP  0  0  0  0  0  0  0  0  0  0  0  0  # atno 17370 bound_to 10713
  156.1447  130.3642  149.9529 LP  0  0  0  0  0  0  0  0  0  0  0  0  # atno 17371 bound_to 10713
  141.1228  133.9433  157.2695 LP  0  0  0  0  0  0  0  0  0  0  0  0  # atno 17394 bound_to 11000
  139.9505  135.0176  156.8979 LP  0  0  0  0  0  0  0  0  0  0  0  0  # atno 17395 bound_to 11000

$$$$
