AV-unprocessed.smi:724|AV-procd|sdf|3507|dock10
  -GOLD-   22720 0503D 1   1.00000     0.00000
 Structure written by MMmdl.
 36 37  0  0  0  0  0  0  0  0  1 V2000
  150.6832  144.7569  159.4430 C   0  0  0  0  0  0  0  0  0  0  0  0
  151.7745  143.8637  158.8173 C   0  0  0  0  0  0  0  0  0  0  0  0
  152.4571  144.6322  157.6670 C   0  0  0  0  0  0  0  0  0  0  0  0
  152.8325  143.5324  159.8964 C   0  0  0  0  0  0  0  0  0  0  0  0
  151.0980  142.5977  158.2395 C   0  0  0  0  0  0  0  0  0  0  0  0
  151.4076  141.4899  158.6816 O   0  0  0  0  0  0  0  0  0  0  0  0
  150.2028  142.7483  157.2463 N   0  0  0  0  0  0  0  0  0  0  0  0
  149.5354  141.6632  156.5286 C   0  0  0  0  0  0  0  0  0  0  0  0
  148.0028  141.8296  156.4951 C   0  0  0  0  0  0  0  0  0  0  0  0
  147.4037  142.1762  157.8198 C   0  0  0  0  0  0  0  0  0  0  0  0
  146.1312  142.4714  158.0718 N   0  0  0  0  0  0  0  0  0  0  0  0
  146.2041  142.8328  159.3819 C   0  0  0  0  0  0  0  0  0  0  0  0
  145.0115  143.2739  160.1671 C   0  0  0  0  0  0  0  0  0  0  0  0
  145.1708  143.7816  161.5847 C   0  0  0  0  0  0  0  0  0  0  0  0
  144.5129  142.4521  161.3375 C   0  0  0  0  0  0  0  0  0  0  0  0
  147.4009  142.7347  159.9473 N   0  0  0  0  0  0  0  0  0  0  0  0
  148.2215  142.3135  158.8919 O   0  0  0  0  0  0  0  0  0  0  0  0
  151.1092  145.6751  159.8484 H   0  0  0  0  0  0  0  0  0  0  0  0
  150.1719  144.2473  160.2609 H   0  0  0  0  0  0  0  0  0  0  0  0
  149.9259  145.0476  158.7132 H   0  0  0  0  0  0  0  0  0  0  0  0
  151.7424  144.9378  156.9012 H   0  0  0  0  0  0  0  0  0  0  0  0
  153.2222  144.0254  157.1801 H   0  0  0  0  0  0  0  0  0  0  0  0
  152.9434  145.5376  158.0316 H   0  0  0  0  0  0  0  0  0  0  0  0
  153.2929  144.4418  160.2841 H   0  0  0  0  0  0  0  0  0  0  0  0
  153.6367  142.9124  159.4977 H   0  0  0  0  0  0  0  0  0  0  0  0
  152.3944  143.0092  160.7479 H   0  0  0  0  0  0  0  0  0  0  0  0
  149.9995  143.6884  156.9387 H   0  0  0  0  0  0  0  0  0  0  0  0
  149.9197  141.5891  155.5099 H   0  0  0  0  0  0  0  0  0  0  0  0
  149.7903  140.7215  157.0148 H   0  0  0  0  0  0  0  0  0  0  0  0
  147.7302  142.6024  155.7758 H   0  0  0  0  0  0  0  0  0  0  0  0
  147.5422  140.9060  156.1426 H   0  0  0  0  0  0  0  0  0  0  0  0
  144.2756  143.7585  159.5284 H   0  0  0  0  0  0  0  0  0  0  0  0
  146.1696  143.7727  162.0174 H   0  0  0  0  0  0  0  0  0  0  0  0
  144.5354  144.6084  161.8953 H   0  0  0  0  0  0  0  0  0  0  0  0
  143.4366  142.3885  161.4834 H   0  0  0  0  0  0  0  0  0  0  0  0
  145.0740  141.5590  161.6065 H   0  0  0  0  0  0  0  0  0  0  0  0
  1  2  1  0  0  0  0
  1 18  1  0  0  0  0
  1 19  1  0  0  0  0
  1 20  1  0  0  0  0
  2  3  1  0  0  0  0
  2  4  1  0  0  0  0
  2  5  1  0  0  0  0
  3 21  1  0  0  0  0
  3 22  1  0  0  0  0
  3 23  1  0  0  0  0
  4 24  1  0  0  0  0
  4 25  1  0  0  0  0
  4 26  1  0  0  0  0
  5  6  2  0  0  0  0
  5  7  1  0  0  0  0
  7  8  1  0  0  0  0
  7 27  1  0  0  0  0
  8  9  1  0  0  0  0
  8 28  1  0  0  0  0
  8 29  1  0  0  0  0
  9 10  1  0  0  0  0
  9 30  1  0  0  0  0
  9 31  1  0  0  0  0
 10 17  1  0  0  0  0
 10 11  2  0  0  0  0
 11 12  1  0  0  0  0
 12 13  1  0  0  0  0
 12 16  2  0  0  0  0
 13 15  1  0  0  0  0
 13 14  1  0  0  0  0
 13 32  1  0  0  0  0
 14 15  1  0  0  0  0
 14 33  1  0  0  0  0
 14 34  1  0  0  0  0
 15 35  1  0  0  0  0
 15 36  1  0  0  0  0
 16 17  1  0  0  0  0
M  END
> <s_m_source_file>
AV-unprocessed.smi

> <i_m_source_file_index>
724

> <i_lp_mmshare_version>
43012

> <i_f3d_flags>
0

> <s_epik_input>
W0NIM11DKFtDSDNdKShbQ0gzXSlDKD1PKVtOSF1bQ0gyXVtDSDJdYzFuYyhubzEpW0NIXTJbQ0gyXVtDSDJdMg==

> <s_epik_cmdline>
J2VwaWtfcHl0aG9uJywgJy1waCcsICc3LjAnLCAnLXRuJywgJzgnLCAnLW1hJywgJzIwMCcsICctbWV0YWxfYmluZGluZycsICctaW1hZScsICc8aW5maWxlLm1hZT4nLCAnLW9tYWUnLCAnPG91dGZpbGUubWFlPic=

> <r_lp_tautomer_probability>
1

> <r_epik_Ionization_Penalty>
2.89377e-08

> <r_epik_Ionization_Penalty_Charging>
0

> <r_epik_Ionization_Penalty_Neutral>
2.89377e-08

> <r_epik_State_Penalty>
-0

> <r_epik_Charging_Adjusted_Penalty>
0

> <i_epik_Tot_Q>
0

> <i_epik_Tot_abs_Q>
0

> <r_epik_Metal_State_Penalty>
-0

> <b_epik_Metal_Only>
0

> <s_lp_Force_Field>
OPLS_2005

> <r_lp_Energy>
6.75537

> <b_lp_Chiralities_Consistent>
1

> <s_lp_Variant>
AV-unprocessed.smi:724-1

> <Gold.Version>
5.8.1

> <Gold.Id.Protein>
6NUR|6NUR_protein|mol2

> <Gold.PLP.Fitness>
36.9927

> <Gold.PLP.PLP>
-31.4925

> <Gold.PLP.part.hbond>
-4.4290

> <Gold.PLP.part.metal>
0.0000

> <Gold.PLP.part.buried>
-4.1427

> <Gold.PLP.part.nonpolar>
-23.1199

> <Gold.PLP.part.repulsive>
0.2583

> <Gold.PLP.ligand.clash>
0.0000

> <Gold.PLP.ligand.torsion>
0.1723

> <Gold.PLP.Chemscore.Hbond>
1.8917

> <Gold.PLP.Chemscore.CHOScore>
0.0000

> <Gold.PLP.Chemscore.Metal>
0.0000

> <Gold.Chemscore.Hbonds>
donor molecule, donor type, donor heavy atom, donor atom, acceptor molecule, acceptor atom, score
      L1  H     7    27       P1  8028  0.86
      P1  H  6933  6944       L1    16  0.75
      P1  H  6934  6946       L1    16  0.32

> <Gold.PLP.Chemscore.Internal.Correction>
0.1697

> <Gold.Rescore>
     Score         DG    S(hbond)    S(metal)    S(lipo)     H(rot)  DE(clash)    DE(int)     intcor
     10.88     -13.41       1.26        0.00      73.73       1.91       0.78       1.75       ----

> <Gold.Chemscore.Fitness>
10.8813

> <Gold.Chemscore.DG>
-13.4113

> <Gold.Chemscore.ZeroCoef>
-5.4800

> <Gold.Chemscore.Hbond>
1.2581

> <Gold.Chemscore.Metal>
0.0000

> <Gold.Chemscore.Lipo>
73.7275

> <Gold.Chemscore.Internal_Hbond>
0.0000

> <Gold.Chemscore.DEClash>
0.7796

> <Gold.Chemscore.DEInternal>
1.7504

> <Gold.Chemscore.Rot>
1.9129

> <Gold.Chemscore.Internal.Correction>
   9.000000E+99

> <Gold.Chemscore.Hbonds>
donor molecule, donor type, donor heavy atom, donor atom, acceptor molecule, acceptor atom, score
      L1  H     7    27       P1  8028  0.84
      P1  H  6933  6944       L1    16  0.23

> <Gold.Chemscore.Hbond.Weighted>
-4.2021

> <Gold.Chemscore.Metal.Weighted>
-0.0000

> <Gold.Chemscore.Lipo.Weighted>
-8.6261

> <Gold.Chemscore.Internal_Hbond.Weighted>
0.0000

> <Gold.Chemscore.DEClash.Weighted>
0.7796

> <Gold.Chemscore.DEInternal.Weighted>
1.7504

> <Gold.Chemscore.Rot.Weighted>
4.8970

> <Gold.Chemscore.Internal.Correction.Weighted>
   9.000000E+99

> <Gold.Protein.RotatedTorsions>
[ 6907 6896 6895 6894 ] final    7.95 input  -60.11 | X-H torsion
[ 7974 7965 7964 7962 ] final -122.91 input  175.53 | X-H torsion
[ 8008 7997 7996 7995 ] final -135.35 input   59.86 | X-H torsion
[ 10167 10162 10161 10158 ] final  139.05 input  -65.29 | X-H torsion
[ 10718 10713 10712 10709 ] final  -14.94 input   66.30 | X-H torsion
[ 10763 10752 10751 10750 ] final -130.31 input  -60.55 | X-H torsion
[ 11005 11000 10999 10996 ] final    2.34 input  -57.11 | X-H torsion

> <Gold.Protein.ActiveResidues>
 VAL166  LYS551  ARG553  GLY616  TRP617  ASP618  TYR619  PRO620  LYS621  CYS622 
 ASP623  PHE694  ASN695  SER759  ASP760  ASP761  ALA762  ILE779  LEU786  VAL792 
 PHE793  MET794  SER795  GLU796  ALA797  LYS798  CYS799  TRP800  GLU811  SER814 

> <Gold.Protein.RotatedAtoms>
  151.6981  135.0935  160.0245 H   0  0  0  0  0  0  0  0  0  0  0  0  # atno 6907 bound_to 6896
  152.3737  133.6449  159.6115 H   0  0  0  0  0  0  0  0  0  0  0  0  # atno 6908 bound_to 6896
  150.7693  133.9144  159.3420 H   0  0  0  0  0  0  0  0  0  0  0  0  # atno 6909 bound_to 6896
  145.0243  140.8015  143.4362 H   0  0  0  0  0  0  0  0  0  0  0  0  # atno 7974 bound_to 7965
  155.3773  140.0492  157.3044 H   0  0  0  0  0  0  0  0  0  0  0  0  # atno 8008 bound_to 7997
  154.5100  140.2188  155.9137 H   0  0  0  0  0  0  0  0  0  0  0  0  # atno 8009 bound_to 7997
  156.1571  140.3124  155.8750 H   0  0  0  0  0  0  0  0  0  0  0  0  # atno 8010 bound_to 7997
  139.5091  144.6317  151.5799 H   0  0  0  0  0  0  0  0  0  0  0  0  # atno 10167 bound_to 10162
  156.6088  130.4844  149.6210 H   0  0  0  0  0  0  0  0  0  0  0  0  # atno 10718 bound_to 10713
  154.8756  135.3866  154.4063 H   0  0  0  0  0  0  0  0  0  0  0  0  # atno 10763 bound_to 10752
  153.4781  135.7030  153.5959 H   0  0  0  0  0  0  0  0  0  0  0  0  # atno 10764 bound_to 10752
  153.4386  135.3861  155.2182 H   0  0  0  0  0  0  0  0  0  0  0  0  # atno 10765 bound_to 10752
  140.6054  133.9797  155.8152 H   0  0  0  0  0  0  0  0  0  0  0  0  # atno 11005 bound_to 11000
  145.1854  139.2329  143.5271 LP  0  0  0  0  0  0  0  0  0  0  0  0  # atno 17320 bound_to 7965
  146.3490  140.1637  142.8590 LP  0  0  0  0  0  0  0  0  0  0  0  0  # atno 17321 bound_to 7965
  140.6052  143.9536  150.6414 LP  0  0  0  0  0  0  0  0  0  0  0  0  # atno 17342 bound_to 10162
  140.2761  143.3422  152.1194 LP  0  0  0  0  0  0  0  0  0  0  0  0  # atno 17343 bound_to 10162
  156.2407  130.6849  151.1553 LP  0  0  0  0  0  0  0  0  0  0  0  0  # atno 17370 bound_to 10713
  157.7260  131.0649  150.5929 LP  0  0  0  0  0  0  0  0  0  0  0  0  # atno 17371 bound_to 10713
  141.0844  134.0013  157.3336 LP  0  0  0  0  0  0  0  0  0  0  0  0  # atno 17394 bound_to 11000
  139.9214  135.0200  156.8079 LP  0  0  0  0  0  0  0  0  0  0  0  0  # atno 17395 bound_to 11000

$$$$
