AV-unprocessed.smi:759|AV-procd|sdf|3620|dock6
  -GOLD-   22720 1 13D 1   1.00000     0.00000
 Structure written by MMmdl.
 24 25  0  0  0  0  0  0  0  0  2 V2000
  151.8424  138.3175  154.1873 C   0  0  0  0  0  0  0  0  0  0  0  0
  152.8755  138.0991  154.9988 N   0  0  0  0  0  0  0  0  0  0  0  0
  152.7726  138.9220  156.0646 N   0  0  0  0  0  0  0  0  0  0  0  0
  151.6493  139.5902  155.7963 C   0  0  0  0  0  0  0  0  0  0  0  0
  151.1299  140.6375  156.7328 C   0  0  1  0  0  0  0  0  0  0  0  0
  152.1215  140.9435  157.8713 C   0  0  0  0  0  0  0  0  0  0  0  0
  151.5551  142.0307  158.7977 C   0  0  0  0  0  0  0  0  0  0  0  0
  151.1528  143.2810  157.9975 C   0  0  0  0  0  0  0  0  0  0  0  0
  150.1862  142.9332  156.9328 N   0  3  0  0  0  0  0  0  0  0  0  0
  150.7058  141.9197  155.9881 C   0  0  0  0  0  0  0  0  0  0  0  0
  151.0154  139.2554  154.6296 N   0  0  0  0  0  0  0  0  0  0  0  0
  153.6309  137.4393  154.8768 H   0  0  0  0  0  0  0  0  0  0  0  0
  151.6923  137.7830  153.2608 H   0  0  0  0  0  0  0  0  0  0  0  0
  150.2300  140.2325  157.2000 H   0  0  0  0  0  0  0  0  0  0  0  0
  152.3337  140.0390  158.4427 H   0  0  0  0  0  0  0  0  0  0  0  0
  153.0725  141.2815  157.4569 H   0  0  0  0  0  0  0  0  0  0  0  0
  150.6869  141.6418  159.3316 H   0  0  0  0  0  0  0  0  0  0  0  0
  152.2922  142.2943  159.5569 H   0  0  0  0  0  0  0  0  0  0  0  0
  150.7034  144.0239  158.6568 H   0  0  0  0  0  0  0  0  0  0  0  0
  152.0324  143.7438  157.5478 H   0  0  0  0  0  0  0  0  0  0  0  0
  149.3489  142.5700  157.3657 H   0  0  0  0  0  0  0  0  0  0  0  0
  151.5506  142.3453  155.4444 H   0  0  0  0  0  0  0  0  0  0  0  0
  149.9335  141.6952  155.2519 H   0  0  0  0  0  0  0  0  0  0  0  0
  149.9499  143.7695  156.4181 H   0  0  0  0  0  0  0  0  0  0  0  0
  1 11  2  0  0  0  0
  1 13  1  0  0  0  0
  1  2  1  0  0  0  0
  2 12  1  0  0  0  0
  2  3  1  0  0  0  0
  3  4  2  0  0  0  0
  4 11  1  0  0  0  0
  4  5  1  0  0  0  0
  5 10  1  0  0  0  0
  5  6  1  0  0  0  0
  5 14  1  0  0  0  0
  6  7  1  0  0  0  0
  6 15  1  0  0  0  0
  6 16  1  0  0  0  0
  7  8  1  0  0  0  0
  7 17  1  0  0  0  0
  7 18  1  0  0  0  0
  8  9  1  0  0  0  0
  8 19  1  0  0  0  0
  8 20  1  0  0  0  0
  9 10  1  0  0  0  0
  9 21  1  0  0  0  0
  9 24  1  0  0  0  0
 10 22  1  0  0  0  0
 10 23  1  0  0  0  0
M  CHG  1   9   1
M  END
> <s_m_source_file>
AV-unprocessed.smi

> <i_m_source_file_index>
759

> <i_lp_mmshare_version>
43012

> <i_f3d_flags>
0

> <s_epik_input>
W25IXTFbY0hdbm5jMVtDQEBIXTJbQ0gyXVtDSDJdW0NIMl1bTkhdW0NIMl0y

> <s_epik_cmdline>
J2VwaWtfcHl0aG9uJywgJy1waCcsICc3LjAnLCAnLXRuJywgJzgnLCAnLW1hJywgJzIwMCcsICctbWV0YWxfYmluZGluZycsICctaW1hZScsICc8aW5maWxlLm1hZT4nLCAnLW9tYWUnLCAnPG91dGZpbGUubWFlPic=

> <r_lp_tautomer_probability>
0.948284

> <r_epik_Ionization_Penalty>
0.0050177

> <r_epik_Ionization_Penalty_Charging>
0.000345518

> <r_epik_Ionization_Penalty_Neutral>
0.00467218

> <r_epik_State_Penalty>
0.271452

> <r_epik_Charging_Adjusted_Penalty>
0.271797

> <i_epik_Tot_Q>
1

> <i_epik_Tot_abs_Q>
1

> <r_epik_Metal_State_Penalty>
0.537172

> <b_epik_Metal_Only>
0

> <s_lp_Force_Field>
OPLS_2005

> <r_lp_Energy>
9.69095

> <b_lp_Chiralities_Consistent>
1

> <s_lp_Variant>
AV-unprocessed.smi:759-2

> <Gold.Version>
5.8.1

> <Gold.Id.Protein>
6NUR|6NUR_protein|mol2

> <Gold.PLP.Fitness>
33.8686

> <Gold.PLP.PLP>
-19.7767

> <Gold.PLP.part.hbond>
-3.0000

> <Gold.PLP.part.metal>
0.0000

> <Gold.PLP.part.buried>
-5.0585

> <Gold.PLP.part.nonpolar>
-12.4176

> <Gold.PLP.part.repulsive>
0.4365

> <Gold.PLP.ligand.clash>
0.0000

> <Gold.PLP.ligand.torsion>
0.2207

> <Gold.PLP.Chemscore.Hbond>
3.9500

> <Gold.PLP.Chemscore.CHOScore>
0.8802

> <Gold.PLP.Chemscore.Metal>
0.0000

> <Gold.Chemscore.Hbonds>
donor molecule, donor type, donor heavy atom, donor atom, acceptor molecule, acceptor atom, score
      L1  H     9    24       P1  8028  2.00
      P1  H  7989  7998       L1    11  0.83
      P1  H  7997  8009       L1     3  1.00
      L1  C     1    13       P1  7949  0.90

> <Gold.PLP.Chemscore.Internal.Correction>
0.0427

> <Gold.Rescore>
     Score         DG    S(hbond)    S(metal)    S(lipo)     H(rot)  DE(clash)    DE(int)     intcor
     14.19     -14.21       1.98        0.00      39.88       1.00       0.00       0.02       ----

> <Gold.Chemscore.Fitness>
14.1865

> <Gold.Chemscore.DG>
-14.2104

> <Gold.Chemscore.ZeroCoef>
-5.4800

> <Gold.Chemscore.Hbond>
1.9835

> <Gold.Chemscore.Metal>
0.0000

> <Gold.Chemscore.Lipo>
39.8755

> <Gold.Chemscore.Internal_Hbond>
0.0000

> <Gold.Chemscore.DEClash>
0.0013

> <Gold.Chemscore.DEInternal>
0.0226

> <Gold.Chemscore.Rot>
1.0000

> <Gold.Chemscore.Internal.Correction>
   9.000000E+99

> <Gold.Chemscore.Hbonds>
donor molecule, donor type, donor heavy atom, donor atom, acceptor molecule, acceptor atom, score
      L1  H     9    24       P1  8028  0.96
      P1  H  7989  7998       L1    11  0.04
      P1  H  7997  8009       L1     3  0.73

> <Gold.Chemscore.Hbond.Weighted>
-6.6249

> <Gold.Chemscore.Metal.Weighted>
-0.0000

> <Gold.Chemscore.Lipo.Weighted>
-4.6654

> <Gold.Chemscore.Internal_Hbond.Weighted>
0.0000

> <Gold.Chemscore.DEClash.Weighted>
0.0013

> <Gold.Chemscore.DEInternal.Weighted>
0.0226

> <Gold.Chemscore.Rot.Weighted>
2.5600

> <Gold.Chemscore.Internal.Correction.Weighted>
   9.000000E+99

> <Gold.Protein.RotatedTorsions>
[ 6907 6896 6895 6894 ] final  -49.47 input  -60.11 | X-H torsion
[ 7974 7965 7964 7962 ] final  127.71 input  175.53 | X-H torsion
[ 8008 7997 7996 7995 ] final -161.92 input   59.86 | X-H torsion
[ 10167 10162 10161 10158 ] final  176.01 input  -65.29 | X-H torsion
[ 10718 10713 10712 10709 ] final   56.21 input   66.30 | X-H torsion
[ 10763 10752 10751 10750 ] final   10.69 input  -60.55 | X-H torsion
[ 11005 11000 10999 10996 ] final  126.46 input  -57.11 | X-H torsion

> <Gold.Protein.ActiveResidues>
 VAL166  LYS551  ARG553  GLY616  TRP617  ASP618  TYR619  PRO620  LYS621  CYS622 
 ASP623  PHE694  ASN695  SER759  ASP760  ASP761  ALA762  ILE779  LEU786  VAL792 
 PHE793  MET794  SER795  GLU796  ALA797  LYS798  CYS799  TRP800  GLU811  SER814 

> <Gold.Protein.RotatedAtoms>
  150.8802  134.8191  159.7218 H   0  0  0  0  0  0  0  0  0  0  0  0  # atno 6907 bound_to 6896
  152.4772  134.4809  159.9675 H   0  0  0  0  0  0  0  0  0  0  0  0  # atno 6908 bound_to 6896
  151.4885  133.3491  159.2885 H   0  0  0  0  0  0  0  0  0  0  0  0  # atno 6909 bound_to 6896
  145.0476  139.3910  143.5070 H   0  0  0  0  0  0  0  0  0  0  0  0  # atno 7974 bound_to 7965
  155.7993  140.0889  157.1966 H   0  0  0  0  0  0  0  0  0  0  0  0  # atno 8008 bound_to 7997
  154.3982  140.1475  156.3314 H   0  0  0  0  0  0  0  0  0  0  0  0  # atno 8009 bound_to 7997
  155.8479  140.3436  155.5676 H   0  0  0  0  0  0  0  0  0  0  0  0  # atno 8010 bound_to 7997
  139.5198  144.2965  152.0417 H   0  0  0  0  0  0  0  0  0  0  0  0  # atno 10167 bound_to 10162
  157.5411  130.8698  149.8824 H   0  0  0  0  0  0  0  0  0  0  0  0  # atno 10718 bound_to 10713
  153.2006  135.6855  153.8237 H   0  0  0  0  0  0  0  0  0  0  0  0  # atno 10763 bound_to 10752
  153.7504  135.3224  155.3321 H   0  0  0  0  0  0  0  0  0  0  0  0  # atno 10764 bound_to 10752
  154.8169  135.4679  154.0770 H   0  0  0  0  0  0  0  0  0  0  0  0  # atno 10765 bound_to 10752
  139.9457  134.9630  156.8711 H   0  0  0  0  0  0  0  0  0  0  0  0  # atno 11005 bound_to 11000
  146.3515  140.0110  142.8667 LP  0  0  0  0  0  0  0  0  0  0  0  0  # atno 17320 bound_to 7965
  145.1568  140.9652  143.4400 LP  0  0  0  0  0  0  0  0  0  0  0  0  # atno 17321 bound_to 7965
  140.2415  144.4265  150.6258 LP  0  0  0  0  0  0  0  0  0  0  0  0  # atno 17342 bound_to 10162
  140.6288  143.2184  151.6541 LP  0  0  0  0  0  0  0  0  0  0  0  0  # atno 17343 bound_to 10162
  156.0498  130.3720  150.1229 LP  0  0  0  0  0  0  0  0  0  0  0  0  # atno 17370 bound_to 10713
  156.9409  130.9744  151.3516 LP  0  0  0  0  0  0  0  0  0  0  0  0  # atno 17371 bound_to 10713
  140.5840  134.0325  155.7474 LP  0  0  0  0  0  0  0  0  0  0  0  0  # atno 17394 bound_to 11000
  141.1107  133.9621  157.2915 LP  0  0  0  0  0  0  0  0  0  0  0  0  # atno 17395 bound_to 11000

$$$$
