AV-unprocessed.smi:1766|AV-procd|sdf|7137|dock7
  -GOLD-   22720 8373D 1   1.00000     0.00000
 Structure written by MMmdl.
 40 42  0  0  0  0  0  0  0  0  2 V2000
  150.4747  136.9270  156.5901 N   0  0  0  0  0  0  0  0  0  0  0  0
  151.6418  136.9670  155.9421 C   0  0  0  0  0  0  0  0  0  0  0  0
  152.6804  136.5273  156.4312 O   0  0  0  0  0  0  0  0  0  0  0  0
  151.6494  137.5923  154.5453 C   0  0  0  0  0  0  0  0  0  0  0  0
  150.5301  138.5790  154.3929 C   0  0  0  0  0  0  0  0  0  0  0  0
  149.4079  138.3968  153.6375 N   0  3  0  0  0  0  0  0  0  0  0  0
  148.5865  139.5200  153.7249 C   0  0  0  0  0  0  0  0  0  0  0  0
  147.3589  139.7995  153.1324 C   0  0  0  0  0  0  0  0  0  0  0  0
  146.7836  141.0523  153.4301 C   0  0  0  0  0  0  0  0  0  0  0  0
  147.4258  141.9698  154.2868 C   0  0  0  0  0  0  0  0  0  0  0  0
  148.6692  141.6733  154.8836 C   0  0  0  0  0  0  0  0  0  0  0  0
  149.2312  140.4324  154.5838 C   0  0  0  0  0  0  0  0  0  0  0  0
  150.4199  139.8085  154.9805 N   0  0  0  0  0  0  0  0  0  0  0  0
  151.3142  140.5181  155.9106 C   0  0  0  0  0  0  0  0  0  0  0  0
  150.9658  140.2712  157.3917 C   0  0  2  0  0  0  0  0  0  0  0  0
  149.6140  139.8725  157.5083 O   0  0  0  0  0  0  0  0  0  0  0  0
  151.2816  141.4926  158.2405 C   0  0  0  0  0  0  0  0  0  0  0  0
  152.1892  141.3865  159.3163 C   0  0  0  0  0  0  0  0  0  0  0  0
  152.4944  142.5154  160.1015 C   0  0  0  0  0  0  0  0  0  0  0  0
  151.8956  143.7570  159.8143 C   0  0  0  0  0  0  0  0  0  0  0  0
  152.1891  144.8418  160.5694 F   0  0  0  0  0  0  0  0  0  0  0  0
  150.9924  143.8700  158.7401 C   0  0  0  0  0  0  0  0  0  0  0  0
  150.6873  142.7417  157.9541 C   0  0  0  0  0  0  0  0  0  0  0  0
  150.4296  136.5273  157.5165 H   0  0  0  0  0  0  0  0  0  0  0  0
  149.6421  137.3005  156.1568 H   0  0  0  0  0  0  0  0  0  0  0  0
  152.5987  138.1037  154.3828 H   0  0  0  0  0  0  0  0  0  0  0  0
  151.5797  136.8100  153.7902 H   0  0  0  0  0  0  0  0  0  0  0  0
  146.8658  139.0978  152.4754 H   0  0  0  0  0  0  0  0  0  0  0  0
  145.8313  141.3147  152.9921 H   0  0  0  0  0  0  0  0  0  0  0  0
  146.9549  142.9207  154.4906 H   0  0  0  0  0  0  0  0  0  0  0  0
  149.1525  142.3843  155.5374 H   0  0  0  0  0  0  0  0  0  0  0  0
  152.3394  140.2113  155.7002 H   0  0  0  0  0  0  0  0  0  0  0  0
  151.2713  141.5820  155.6782 H   0  0  0  0  0  0  0  0  0  0  0  0
  151.5650  139.4380  157.7608 H   0  0  0  0  0  0  0  0  0  0  0  0
  149.5831  138.9279  157.5314 H   0  0  0  0  0  0  0  0  0  0  0  0
  152.6562  140.4394  159.5436 H   0  0  0  0  0  0  0  0  0  0  0  0
  153.1887  142.4290  160.9243 H   0  0  0  0  0  0  0  0  0  0  0  0
  150.5344  144.8228  158.5185 H   0  0  0  0  0  0  0  0  0  0  0  0
  149.9969  142.8395  157.1290 H   0  0  0  0  0  0  0  0  0  0  0  0
  149.2267  137.5624  153.0939 H   0  0  0  0  0  0  0  0  0  0  0  0
  1  2  1  0  0  0  0
  1 24  1  0  0  0  0
  1 25  1  0  0  0  0
  2  3  2  0  0  0  0
  2  4  1  0  0  0  0
  4  5  1  0  0  0  0
  4 26  1  0  0  0  0
  4 27  1  0  0  0  0
  5 13  1  0  0  0  0
  5  6  2  0  0  0  0
  6  7  1  0  0  0  0
  6 40  1  0  0  0  0
  7 12  2  0  0  0  0
  7  8  1  0  0  0  0
  8  9  2  0  0  0  0
  8 28  1  0  0  0  0
  9 10  1  0  0  0  0
  9 29  1  0  0  0  0
 10 11  2  0  0  0  0
 10 30  1  0  0  0  0
 11 12  1  0  0  0  0
 11 31  1  0  0  0  0
 12 13  1  0  0  0  0
 13 14  1  0  0  0  0
 14 15  1  0  0  0  0
 14 32  1  0  0  0  0
 14 33  1  0  0  0  0
 15 16  1  0  0  0  0
 15 17  1  0  0  0  0
 15 34  1  0  0  0  0
 16 35  1  0  0  0  0
 17 23  1  0  0  0  0
 17 18  2  0  0  0  0
 18 19  1  0  0  0  0
 18 36  1  0  0  0  0
 19 20  2  0  0  0  0
 19 37  1  0  0  0  0
 20 21  1  0  0  0  0
 20 22  1  0  0  0  0
 22 23  2  0  0  0  0
 22 38  1  0  0  0  0
 23 39  1  0  0  0  0
M  CHG  1   6   1
M  END
> <s_m_source_file>
AV-unprocessed.smi

> <i_m_source_file_index>
1766

> <i_lp_mmshare_version>
43012

> <i_f3d_flags>
0

> <s_epik_input>
W2NIXTFbY0hdW2NIXVtjSF1jKGMxMiluKGMobjIpW0NIMl1DKD1PKVtOSDJdKVtDSDJdW0NASF0oW09IXSljM1tjSF1bY0hdYyhGKVtjSF1bY0hdMw==

> <s_epik_cmdline>
J2VwaWtfcHl0aG9uJywgJy1waCcsICc3LjAnLCAnLXRuJywgJzgnLCAnLW1hJywgJzIwMCcsICctbWV0YWxfYmluZGluZycsICctaW1hZScsICc8aW5maWxlLm1hZT4nLCAnLW9tYWUnLCAnPG91dGZpbGUubWFlPic=

> <r_epik_Ionization_Penalty>
1.66646

> <r_epik_Ionization_Penalty_Charging>
1.66645

> <r_epik_Ionization_Penalty_Neutral>
2.12833e-06

> <r_epik_State_Penalty>
1.76975

> <r_epik_Charging_Adjusted_Penalty>
3.43621

> <i_epik_Tot_Q>
1

> <i_epik_Tot_abs_Q>
1

> <r_epik_Metal_State_Penalty>
1.80493

> <b_epik_Metal_Only>
0

> <s_lp_Force_Field>
OPLS_2005

> <r_lp_Energy>
14.4919

> <b_lp_Chiralities_Consistent>
1

> <s_lp_Variant>
AV-unprocessed.smi:1766-3

> <Gold.Version>
5.8.1

> <Gold.Id.Protein>
6NUR|6NUR_protein|mol2

> <Gold.PLP.Fitness>
55.4735

> <Gold.PLP.PLP>
-49.1197

> <Gold.PLP.part.hbond>
-3.0000

> <Gold.PLP.part.metal>
0.0000

> <Gold.PLP.part.buried>
1.2159

> <Gold.PLP.part.nonpolar>
-47.5921

> <Gold.PLP.part.repulsive>
0.1090

> <Gold.PLP.ligand.clash>
0.0157

> <Gold.PLP.ligand.torsion>
1.3413

> <Gold.PLP.Chemscore.Hbond>
3.0000

> <Gold.PLP.Chemscore.CHOScore>
0.0000

> <Gold.PLP.Chemscore.Metal>
0.0000

> <Gold.Chemscore.Hbonds>
donor molecule, donor type, donor heavy atom, donor atom, acceptor molecule, acceptor atom, score
      L1  H     6    40       P1  7948  2.00
      P1  H 10752 10765       L1     3  1.00

> <Gold.PLP.Chemscore.Internal.Correction>
0.0519

> <Gold.Rescore>
     Score         DG    S(hbond)    S(metal)    S(lipo)     H(rot)  DE(clash)    DE(int)     intcor
     14.17     -17.43       1.79        0.00     117.65       3.05       0.70       2.57       ----

> <Gold.Chemscore.Fitness>
14.1688

> <Gold.Chemscore.DG>
-17.4347

> <Gold.Chemscore.ZeroCoef>
-5.4800

> <Gold.Chemscore.Hbond>
1.7935

> <Gold.Chemscore.Metal>
0.0000

> <Gold.Chemscore.Lipo>
117.6475

> <Gold.Chemscore.Internal_Hbond>
0.0000

> <Gold.Chemscore.DEClash>
0.6954

> <Gold.Chemscore.DEInternal>
2.5705

> <Gold.Chemscore.Rot>
3.0470

> <Gold.Chemscore.Internal.Correction>
   9.000000E+99

> <Gold.Chemscore.Hbonds>
donor molecule, donor type, donor heavy atom, donor atom, acceptor molecule, acceptor atom, score
      L1  H     6    40       P1  7948  0.98
      P1  H 10752 10765       L1     3  0.71

> <Gold.Chemscore.Hbond.Weighted>
-5.9903

> <Gold.Chemscore.Metal.Weighted>
-0.0000

> <Gold.Chemscore.Lipo.Weighted>
-13.7648

> <Gold.Chemscore.Internal_Hbond.Weighted>
0.0000

> <Gold.Chemscore.DEClash.Weighted>
0.6954

> <Gold.Chemscore.DEInternal.Weighted>
2.5705

> <Gold.Chemscore.Rot.Weighted>
7.8004

> <Gold.Chemscore.Internal.Correction.Weighted>
   9.000000E+99

> <Gold.Protein.RotatedTorsions>
[ 6907 6896 6895 6894 ] final   27.24 input  -60.11 | X-H torsion
[ 7974 7965 7964 7962 ] final -118.66 input  175.53 | X-H torsion
[ 8008 7997 7996 7995 ] final -143.42 input   59.86 | X-H torsion
[ 10167 10162 10161 10158 ] final  132.26 input  -65.29 | X-H torsion
[ 10718 10713 10712 10709 ] final -110.77 input   66.30 | X-H torsion
[ 10763 10752 10751 10750 ] final -126.13 input  -60.55 | X-H torsion
[ 11005 11000 10999 10996 ] final -117.02 input  -57.11 | X-H torsion

> <Gold.Protein.ActiveResidues>
 VAL166  LYS551  ARG553  GLY616  TRP617  ASP618  TYR619  PRO620  LYS621  CYS622 
 ASP623  PHE694  ASN695  SER759  ASP760  ASP761  ALA762  ILE779  LEU786  VAL792 
 PHE793  MET794  SER795  GLU796  ALA797  LYS798  CYS799  TRP800  GLU811  SER814 

> <Gold.Protein.RotatedAtoms>
  151.9993  134.9937  160.0564 H   0  0  0  0  0  0  0  0  0  0  0  0  # atno 6907 bound_to 6896
  152.1534  133.4531  159.4833 H   0  0  0  0  0  0  0  0  0  0  0  0  # atno 6908 bound_to 6896
  150.6878  134.2079  159.4390 H   0  0  0  0  0  0  0  0  0  0  0  0  # atno 6909 bound_to 6896
  145.0713  140.8361  143.4094 H   0  0  0  0  0  0  0  0  0  0  0  0  # atno 7974 bound_to 7965
  155.5103  140.0583  157.2924 H   0  0  0  0  0  0  0  0  0  0  0  0  # atno 8008 bound_to 7997
  154.4554  140.1970  156.0343 H   0  0  0  0  0  0  0  0  0  0  0  0  # atno 8009 bound_to 7997
  156.0789  140.3250  155.7672 H   0  0  0  0  0  0  0  0  0  0  0  0  # atno 8010 bound_to 7997
  139.5347  144.6670  151.4826 H   0  0  0  0  0  0  0  0  0  0  0  0  # atno 10167 bound_to 10162
  156.0609  130.5832  150.8282 H   0  0  0  0  0  0  0  0  0  0  0  0  # atno 10718 bound_to 10713
  154.8743  135.4006  154.3380 H   0  0  0  0  0  0  0  0  0  0  0  0  # atno 10763 bound_to 10752
  153.4184  135.7022  153.6316 H   0  0  0  0  0  0  0  0  0  0  0  0  # atno 10764 bound_to 10752
  153.4989  135.3732  155.2500 H   0  0  0  0  0  0  0  0  0  0  0  0  # atno 10765 bound_to 10752
  141.0383  133.9876  157.3036 H   0  0  0  0  0  0  0  0  0  0  0  0  # atno 11005 bound_to 11000
  145.1289  139.2645  143.5549 LP  0  0  0  0  0  0  0  0  0  0  0  0  # atno 17320 bound_to 7965
  146.3529  140.0934  142.8611 LP  0  0  0  0  0  0  0  0  0  0  0  0  # atno 17321 bound_to 7965
  140.6547  143.8623  150.6823 LP  0  0  0  0  0  0  0  0  0  0  0  0  # atno 17342 bound_to 10162
  140.1999  143.3967  152.1799 LP  0  0  0  0  0  0  0  0  0  0  0  0  # atno 17343 bound_to 10162
  157.5617  131.0946  150.9549 LP  0  0  0  0  0  0  0  0  0  0  0  0  # atno 17370 bound_to 10713
  156.9785  130.5518  149.5295 LP  0  0  0  0  0  0  0  0  0  0  0  0  # atno 17371 bound_to 10713
  139.9256  135.0201  156.8224 LP  0  0  0  0  0  0  0  0  0  0  0  0  # atno 17394 bound_to 11000
  140.6282  133.9930  155.7649 LP  0  0  0  0  0  0  0  0  0  0  0  0  # atno 17395 bound_to 11000

$$$$
