AV-unprocessed.smi:2331|AV-procd|sdf|9316|dock8
  -GOLD-   2272012533D 1   1.00000     0.00000
 Structure written by MMmdl.
 50 51  0  0  0  0  0  0  0  0  2 V2000
  144.0170  136.0341  152.9345 C   0  0  0  0  0  0  0  0  0  0  0  0
  145.5624  136.1027  152.8689 C   0  0  0  0  0  0  0  0  0  0  0  0
  145.9139  137.3008  151.9609 C   0  0  0  0  0  0  0  0  0  0  0  0
  146.1162  136.3792  154.2941 C   0  0  0  0  0  0  0  0  0  0  0  0
  147.4654  136.9414  154.2827 N   0  0  0  0  0  0  0  0  0  0  0  0
  147.9345  137.8866  155.1147 C   0  0  0  0  0  0  0  0  0  0  0  0
  147.2244  138.4551  155.9431 O   0  0  0  0  0  0  0  0  0  0  0  0
  149.2305  138.2032  154.8896 N   0  0  0  0  0  0  0  0  0  0  0  0
  150.2104  137.2177  154.4164 C   0  0  0  0  0  0  0  0  0  0  0  0
  151.5146  137.5689  155.1190 C   0  0  0  0  0  0  0  0  0  0  0  0
  151.4187  139.0730  155.2900 C   0  0  0  0  0  0  0  0  0  0  0  0
  149.9190  139.3590  155.5020 C   0  0  1  0  0  0  0  0  0  0  0  0
  149.4777  140.7526  154.9400 C   0  0  0  0  0  0  0  0  0  0  0  0
  147.9436  140.9158  154.9477 C   0  0  0  0  0  0  0  0  0  0  0  0
  150.1542  141.9500  155.6379 C   0  0  0  0  0  0  0  0  0  0  0  0
  149.8073  140.8113  153.5663 O   0  0  0  0  0  0  0  0  0  0  0  0
  146.1886  134.8162  152.2922 C   0  0  0  0  0  0  0  0  0  0  0  0
  145.9402  134.3717  150.9673 C   0  0  0  0  0  0  0  0  0  0  0  0
  146.5255  133.1744  150.5081 C   0  0  0  0  0  0  0  0  0  0  0  0
  147.3205  132.4549  151.3269 N   0  3  0  0  0  0  0  0  0  0  0  0
  147.5902  132.8315  152.5937 C   0  0  0  0  0  0  0  0  0  0  0  0
  147.0303  134.0186  153.1070 C   0  0  0  0  0  0  0  0  0  0  0  0
  143.5999  136.9521  153.3498 H   0  0  0  0  0  0  0  0  0  0  0  0
  143.6639  135.2166  153.5626 H   0  0  0  0  0  0  0  0  0  0  0  0
  143.5786  135.9042  151.9443 H   0  0  0  0  0  0  0  0  0  0  0  0
  145.4650  138.2232  152.3315 H   0  0  0  0  0  0  0  0  0  0  0  0
  145.5503  137.1466  150.9443 H   0  0  0  0  0  0  0  0  0  0  0  0
  146.9884  137.4735  151.9014 H   0  0  0  0  0  0  0  0  0  0  0  0
  145.4848  137.1078  154.8034 H   0  0  0  0  0  0  0  0  0  0  0  0
  146.0715  135.4783  154.9086 H   0  0  0  0  0  0  0  0  0  0  0  0
  148.1072  136.5628  153.6016 H   0  0  0  0  0  0  0  0  0  0  0  0
  149.9292  136.1851  154.6321 H   0  0  0  0  0  0  0  0  0  0  0  0
  150.3158  137.3208  153.3356 H   0  0  0  0  0  0  0  0  0  0  0  0
  151.5496  137.0880  156.0977 H   0  0  0  0  0  0  0  0  0  0  0  0
  152.3966  137.2592  154.5578 H   0  0  0  0  0  0  0  0  0  0  0  0
  152.0366  139.4396  156.1103 H   0  0  0  0  0  0  0  0  0  0  0  0
  151.7764  139.5422  154.3732 H   0  0  0  0  0  0  0  0  0  0  0  0
  149.7358  139.3276  156.5784 H   0  0  0  0  0  0  0  0  0  0  0  0
  147.5442  140.9825  155.9596 H   0  0  0  0  0  0  0  0  0  0  0  0
  147.4523  140.0765  154.4533 H   0  0  0  0  0  0  0  0  0  0  0  0
  147.6368  141.8252  154.4291 H   0  0  0  0  0  0  0  0  0  0  0  0
  149.9441  141.9578  156.7071 H   0  0  0  0  0  0  0  0  0  0  0  0
  149.7987  142.8969  155.2300 H   0  0  0  0  0  0  0  0  0  0  0  0
  151.2372  141.9365  155.5149 H   0  0  0  0  0  0  0  0  0  0  0  0
  149.3254  140.1379  153.1112 H   0  0  0  0  0  0  0  0  0  0  0  0
  145.3067  134.9211  150.2883 H   0  0  0  0  0  0  0  0  0  0  0  0
  146.3807  132.7733  149.5155 H   0  0  0  0  0  0  0  0  0  0  0  0
  148.2388  132.1758  153.1562 H   0  0  0  0  0  0  0  0  0  0  0  0
  147.2465  134.3057  154.1253 H   0  0  0  0  0  0  0  0  0  0  0  0
  147.7342  131.5915  150.9738 H   0  0  0  0  0  0  0  0  0  0  0  0
  1  2  1  0  0  0  0
  1 23  1  0  0  0  0
  1 24  1  0  0  0  0
  1 25  1  0  0  0  0
  2  3  1  0  0  0  0
  2  4  1  0  0  0  0
  2 17  1  0  0  0  0
  3 26  1  0  0  0  0
  3 27  1  0  0  0  0
  3 28  1  0  0  0  0
  4  5  1  0  0  0  0
  4 29  1  0  0  0  0
  4 30  1  0  0  0  0
  5  6  1  0  0  0  0
  5 31  1  0  0  0  0
  6  7  2  0  0  0  0
  6  8  1  0  0  0  0
  8 12  1  0  0  0  0
  8  9  1  0  0  0  0
  9 10  1  0  0  0  0
  9 32  1  0  0  0  0
  9 33  1  0  0  0  0
 10 11  1  0  0  0  0
 10 34  1  0  0  0  0
 10 35  1  0  0  0  0
 11 12  1  0  0  0  0
 11 36  1  0  0  0  0
 11 37  1  0  0  0  0
 12 13  1  0  0  0  0
 12 38  1  0  0  0  0
 13 14  1  0  0  0  0
 13 15  1  0  0  0  0
 13 16  1  0  0  0  0
 14 39  1  0  0  0  0
 14 40  1  0  0  0  0
 14 41  1  0  0  0  0
 15 42  1  0  0  0  0
 15 43  1  0  0  0  0
 15 44  1  0  0  0  0
 16 45  1  0  0  0  0
 17 22  1  0  0  0  0
 17 18  2  0  0  0  0
 18 19  1  0  0  0  0
 18 46  1  0  0  0  0
 19 20  2  0  0  0  0
 19 47  1  0  0  0  0
 20 21  1  0  0  0  0
 20 50  1  0  0  0  0
 21 22  2  0  0  0  0
 21 48  1  0  0  0  0
 22 49  1  0  0  0  0
M  CHG  1  20   1
M  END
> <s_m_source_file>
AV-unprocessed.smi

> <i_m_source_file_index>
2331

> <i_lp_mmshare_version>
43012

> <i_f3d_flags>
0

> <s_epik_input>
W2NIXTFbY0hdbltjSF1bY0hdYzFDKFtDSDNdKShbQ0gzXSlbQ0gyXVtOSF1DKD1PKU4yW0NIMl1bQ0gyXVtDSDJdW0NASF0yQyhbQ0gzXSkoW0NIM10pW09IXQ==

> <s_epik_cmdline>
J2VwaWtfcHl0aG9uJywgJy1waCcsICc3LjAnLCAnLXRuJywgJzgnLCAnLW1hJywgJzIwMCcsICctbWV0YWxfYmluZGluZycsICctaW1hZScsICc8aW5maWxlLm1hZT4nLCAnLW9tYWUnLCAnPG91dGZpbGUubWFlPic=

> <r_epik_Ionization_Penalty>
1.40501

> <r_epik_Ionization_Penalty_Charging>
1.40494

> <r_epik_Ionization_Penalty_Neutral>
7.00889e-05

> <r_epik_State_Penalty>
1.48741

> <r_epik_Charging_Adjusted_Penalty>
2.89235

> <i_epik_Tot_Q>
1

> <i_epik_Tot_abs_Q>
1

> <r_epik_Metal_State_Penalty>
1.54092

> <b_epik_Metal_Only>
0

> <s_lp_Force_Field>
OPLS_2005

> <r_lp_Energy>
55.517

> <b_lp_Chiralities_Consistent>
1

> <s_lp_Variant>
AV-unprocessed.smi:2331-3

> <Gold.Version>
5.8.1

> <Gold.Id.Protein>
6NUR|6NUR_protein|mol2

> <Gold.PLP.Fitness>
42.3841

> <Gold.PLP.PLP>
-32.5907

> <Gold.PLP.part.hbond>
-4.5434

> <Gold.PLP.part.metal>
0.0000

> <Gold.PLP.part.buried>
1.9019

> <Gold.PLP.part.nonpolar>
-28.6811

> <Gold.PLP.part.repulsive>
0.0552

> <Gold.PLP.ligand.clash>
0.0000

> <Gold.PLP.ligand.torsion>
0.7356

> <Gold.PLP.Chemscore.Hbond>
3.6160

> <Gold.PLP.Chemscore.CHOScore>
0.0000

> <Gold.PLP.Chemscore.Metal>
0.0000

> <Gold.Chemscore.Hbonds>
donor molecule, donor type, donor heavy atom, donor atom, acceptor molecule, acceptor atom, score
      L1  H     5    31       P1  7948  1.00
      L1  H    16    45       P1  7957  0.32
      L1  H    20    50       P1 10747  0.96
      P1  H  7989  7998       L1    16  0.37
      P1  H  8011  8017       L1    16  1.00

> <Gold.PLP.Chemscore.Internal.Correction>
0.4166

> <Gold.Rescore>
     Score         DG    S(hbond)    S(metal)    S(lipo)     H(rot)  DE(clash)    DE(int)     intcor
     16.54     -20.31       2.92        0.00      87.68       2.02       1.65       2.12       ----

> <Gold.Chemscore.Fitness>
16.5450

> <Gold.Chemscore.DG>
-20.3135

> <Gold.Chemscore.ZeroCoef>
-5.4800

> <Gold.Chemscore.Hbond>
2.9175

> <Gold.Chemscore.Metal>
0.0000

> <Gold.Chemscore.Lipo>
87.6769

> <Gold.Chemscore.Internal_Hbond>
0.0000

> <Gold.Chemscore.DEClash>
1.6475

> <Gold.Chemscore.DEInternal>
2.1211

> <Gold.Chemscore.Rot>
2.0192

> <Gold.Chemscore.Internal.Correction>
   9.000000E+99

> <Gold.Chemscore.Hbonds>
donor molecule, donor type, donor heavy atom, donor atom, acceptor molecule, acceptor atom, score
      L1  H     5    31       P1  7948  0.98
      L1  H    16    45       P1  7957  0.31
      L1  H    20    50       P1 10747  0.91
      P1  H  7989  7998       L1    16  0.23
      P1  H  8011  8017       L1    16  0.51

> <Gold.Chemscore.Hbond.Weighted>
-9.7444

> <Gold.Chemscore.Metal.Weighted>
-0.0000

> <Gold.Chemscore.Lipo.Weighted>
-10.2582

> <Gold.Chemscore.Internal_Hbond.Weighted>
0.0000

> <Gold.Chemscore.DEClash.Weighted>
1.6475

> <Gold.Chemscore.DEInternal.Weighted>
2.1211

> <Gold.Chemscore.Rot.Weighted>
5.1691

> <Gold.Chemscore.Internal.Correction.Weighted>
   9.000000E+99

> <Gold.Protein.RotatedTorsions>
[ 6907 6896 6895 6894 ] final -125.54 input  -60.11 | X-H torsion
[ 7974 7965 7964 7962 ] final  -18.07 input  175.53 | X-H torsion
[ 8008 7997 7996 7995 ] final  140.88 input   59.86 | X-H torsion
[ 10167 10162 10161 10158 ] final  -52.33 input  -65.29 | X-H torsion
[ 10718 10713 10712 10709 ] final   57.87 input   66.30 | X-H torsion
[ 10763 10752 10751 10750 ] final  -18.56 input  -60.55 | X-H torsion
[ 11005 11000 10999 10996 ] final   18.27 input  -57.11 | X-H torsion

> <Gold.Protein.ActiveResidues>
 VAL166  LYS551  ARG553  GLY616  TRP617  ASP618  TYR619  PRO620  LYS621  CYS622 
 ASP623  PHE694  ASN695  SER759  ASP760  ASP761  ALA762  ILE779  LEU786  VAL792 
 PHE793  MET794  SER795  GLU796  ALA797  LYS798  CYS799  TRP800  GLU811  SER814 

> <Gold.Protein.RotatedAtoms>
  150.8878  133.7284  159.2913 H   0  0  0  0  0  0  0  0  0  0  0  0  # atno 6907 bound_to 6896
  151.4844  135.1052  159.9796 H   0  0  0  0  0  0  0  0  0  0  0  0  # atno 6908 bound_to 6896
  152.4801  133.8186  159.7097 H   0  0  0  0  0  0  0  0  0  0  0  0  # atno 6909 bound_to 6896
  146.1910  140.3869  142.8458 H   0  0  0  0  0  0  0  0  0  0  0  0  # atno 7974 bound_to 7965
  156.2973  140.2329  156.4474 H   0  0  0  0  0  0  0  0  0  0  0  0  # atno 8008 bound_to 7997
  154.8132  140.0442  157.1378 H   0  0  0  0  0  0  0  0  0  0  0  0  # atno 8009 bound_to 7997
  154.9400  140.3028  155.5129 H   0  0  0  0  0  0  0  0  0  0  0  0  # atno 8010 bound_to 7997
  140.6543  143.2587  151.4633 H   0  0  0  0  0  0  0  0  0  0  0  0  # atno 10167 bound_to 10162
  157.5550  130.8793  149.9021 H   0  0  0  0  0  0  0  0  0  0  0  0  # atno 10718 bound_to 10713
  153.5912  135.7002  153.5422 H   0  0  0  0  0  0  0  0  0  0  0  0  # atno 10763 bound_to 10752
  153.3177  135.4083  155.1390 H   0  0  0  0  0  0  0  0  0  0  0  0  # atno 10764 bound_to 10752
  154.8600  135.3688  154.5444 H   0  0  0  0  0  0  0  0  0  0  0  0  # atno 10765 bound_to 10752
  140.4267  134.1462  155.7677 H   0  0  0  0  0  0  0  0  0  0  0  0  # atno 11005 bound_to 11000
  144.8487  140.6968  143.6182 LP  0  0  0  0  0  0  0  0  0  0  0  0  # atno 17320 bound_to 7965
  145.3792  139.1641  143.4290 LP  0  0  0  0  0  0  0  0  0  0  0  0  # atno 17321 bound_to 7965
  139.5762  144.1813  152.1907 LP  0  0  0  0  0  0  0  0  0  0  0  0  # atno 17342 bound_to 10162
  140.1124  144.5445  150.6916 LP  0  0  0  0  0  0  0  0  0  0  0  0  # atno 17343 bound_to 10162
  156.0610  130.3700  150.0982 LP  0  0  0  0  0  0  0  0  0  0  0  0  # atno 17370 bound_to 10713
  156.9151  130.9664  151.3557 LP  0  0  0  0  0  0  0  0  0  0  0  0  # atno 17371 bound_to 10713
  141.1762  133.8509  157.1413 LP  0  0  0  0  0  0  0  0  0  0  0  0  # atno 17394 bound_to 11000
  140.0162  134.9966  157.0498 LP  0  0  0  0  0  0  0  0  0  0  0  0  # atno 17395 bound_to 11000

$$$$
