#       Name:                AV-unprocessed.smi:1749
#       Creating user name   scv26
#       Creation time:       Fri Mar 27 08:26:45 2020


#       File generated by GOLD software.
#

@<TRIPOS>MOLECULE
AV-unprocessed.smi:1749
    36    37     1
SMALL
NO_CHARGES


@<TRIPOS>ATOM
      1 ****        -2.9883  -0.7863   2.2331 C.3            1 S1                 0.0000
      2 ****        -2.3642  -0.0308   1.0512 C.3            1 S1                 0.0000
      3 ****        -2.8132  -0.6234  -0.2980 C.3            1 S1                 0.0000
      4 ****        -2.1910   0.1360  -1.4802 C.3            1 S1                 0.0000
      5 ****        -0.6584   0.1620  -1.3799 C.3            1 S1                 0.0000
      6 ****        -0.1943   0.7571  -0.0383 C.3            1 S1                 0.0000
      7 ****         1.2634   0.7116   0.0312 N.am           1 S1                 0.0000
      8 ****         2.0540   1.4884   0.7979 C.2            1 S1                 0.0000
      9 ****         1.5328   2.3162   1.5440 O.2            1 S1                 0.0000
     10 ****         3.3987   1.3130   0.7049 N.pl3          1 S1                -1.0000
     11 ****         3.9588   0.4372  -0.1500 C.2            1 S1                 0.0000
     12 ****         4.2867  -0.8140   0.2108 N.2            1 S1                 0.0000
     13 ****         4.8468  -1.5513  -0.8235 N.2            1 S1                 0.0000
     14 ****         4.9373  -0.8303  -1.9407 C.2            1 S1                 0.0000
     15 ****         4.3466   0.8142  -1.8306 S.3            1 S1                 0.0000
     16 ****        -0.8258  -0.0066   1.1448 C.3            1 S1                 0.0000
     17 ****        -2.6757  -1.8308   2.2464 H              1 S1                 0.0000
     18 ****        -4.0773  -0.7644   2.1817 H              1 S1                 0.0000
     19 ****        -2.6950  -0.3388   3.1831 H              1 S1                 0.0000
     20 ****        -2.7178   1.0001   1.0993 H              1 S1                 0.0000
     21 ****        -2.5290  -1.6752  -0.3523 H              1 S1                 0.0000
     22 ****        -3.9005  -0.5929  -0.3765 H              1 S1                 0.0000
     23 ****        -2.4934  -0.3269  -2.4199 H              1 S1                 0.0000
     24 ****        -2.5730   1.1573  -1.5010 H              1 S1                 0.0000
     25 ****        -0.2719  -0.8527  -1.4877 H              1 S1                 0.0000
     26 ****        -0.2456   0.7394  -2.2081 H              1 S1                 0.0000
     27 ****        -0.5168   1.7994  -0.0006 H              1 S1                 0.0000
     28 ****         1.7202   0.0346  -0.5619 H              1 S1                 0.0000
     29 ****         5.3552  -1.2686  -2.8345 H              1 S1                 0.0000
     30 ****        -0.5247   0.4540   2.0866 H              1 S1                 0.0000
     31 ****        -0.4438  -1.0284   1.1674 H              1 S1                 0.0000
     32 ****         0.5372   2.4047   1.5749 LP             1 S1                 0.0000
     33 ****         2.1047   2.9006   2.1197 LP             1 S1                 0.0000
     34 ****         3.9956   1.8564   1.2952 LP             1 S1                 0.0000
     35 ****         4.1421  -1.1777   1.1311 LP             1 S1                 0.0000
     36 ****         5.1445  -2.5023  -0.7408 LP             1 S1                 0.0000
@<TRIPOS>BOND
    1    1    2 1     
    2    1   17 1     
    3    1   18 1     
    4    1   19 1     
    5    2   16 1     
    6    2    3 1     
    7    2   20 1     
    8    3    4 1     
    9    3   21 1     
   10    3   22 1     
   11    4    5 1     
   12    4   23 1     
   13    4   24 1     
   14    5    6 1     
   15    5   25 1     
   16    5   26 1     
   17    6    7 1     
   18    6   16 1     
   19    6   27 1     
   20    7    8 am    
   21    7   28 1     
   22    8    9 2     
   23    8   10 1     
   24   10   11 1     
   25   11   15 1     
   26   11   12 2     
   27   12   13 1     
   28   13   14 2     
   29   14   15 1     
   30   14   29 1     
   31   16   30 1     
   32   16   31 1     
   33    9   32 1     
   34    9   33 1     
   35   10   34 1     
   36   12   35 1     
   37   13   36 1     
@<TRIPOS>SUBSTRUCTURE
      1 S1             1
@<TRIPOS>SET
LONE_PAIRS      STATIC     ATOMS    <user>   **** ""
5 32 33 34 35 36
DONOR_HYDROGENS      STATIC     ATOMS    <user>   **** ""
1 28
ATOM$BLUE        STATIC     ATOMS    COLORGROUP SYSTEM
5 32 33 34 35 36
ATOM$RED        STATIC     ATOMS    COLORGROUP SYSTEM
1 28
