#       Name:                AV-unprocessed.smi:1982
#       Creating user name   scv26
#       Creation time:       Fri Mar 27 10:22:05 2020


#       File generated by GOLD software.
#

@<TRIPOS>MOLECULE
AV-unprocessed.smi:1982
    41    42     1
SMALL
NO_CHARGES


@<TRIPOS>ATOM
      1 ****        -1.3959  -1.8186   2.4902 C.3            1 S1                 0.0000
      2 ****        -1.0045  -1.4286   1.0536 C.3            1 S1                 0.0000
      3 ****        -1.6081  -2.4394   0.0563 C.3            1 S1                 0.0000
      4 ****        -1.2384  -2.1112  -1.3963 C.3            1 S1                 0.0000
      5 ****        -1.6678  -0.6835  -1.7622 C.3            1 S1                 0.0000
      6 ****        -1.0794   0.3574  -0.7906 C.3            1 S1                 0.0000
      7 ****         0.3662   0.4772  -0.9743 N.am           1 S1                 0.0000
      8 ****         0.9896   1.3188  -1.8132 C.2            1 S1                 0.0000
      9 ****         0.3994   2.0671  -2.5915 O.2            1 S1                 0.0000
     10 ****         2.5181   1.3192  -1.7602 C.3            1 S1                 0.0000
     11 ****         2.9938   1.6969  -0.4415 N.pl3          1 S1                 0.0000
     12 ****         3.1257   2.8940   0.1334 C.2            1 S1                 0.0000
     13 ****         3.5776   2.7933   1.3740 N.2            1 S1                 0.0000
     14 ****         3.7247   1.4268   1.5455 N.2            1 S1                 0.0000
     15 ****         3.3802   0.7709   0.4716 N.2            1 S1                 0.0000
     16 ****        -1.4205   0.0234   0.6852 C.3            1 S1                 0.0000
     17 ****        -0.8343   1.0802   1.6448 C.3            1 S1                 0.0000
     18 ****        -2.4669  -1.6998   2.6560 H              1 S1                 0.0000
     19 ****        -0.8716  -1.2150   3.2305 H              1 S1                 0.0000
     20 ****        -1.1428  -2.8590   2.6956 H              1 S1                 0.0000
     21 ****         0.0818  -1.5023   0.9833 H              1 S1                 0.0000
     22 ****        -1.2669  -3.4474   0.2945 H              1 S1                 0.0000
     23 ****        -2.6943  -2.4518   0.1578 H              1 S1                 0.0000
     24 ****        -0.1630  -2.2253  -1.5378 H              1 S1                 0.0000
     25 ****        -1.7140  -2.8245  -2.0699 H              1 S1                 0.0000
     26 ****        -1.3753  -0.4556  -2.7880 H              1 S1                 0.0000
     27 ****        -2.7563  -0.6206  -1.7373 H              1 S1                 0.0000
     28 ****        -1.5349   1.3223  -1.0213 H              1 S1                 0.0000
     29 ****         0.9418  -0.1020  -0.3799 H              1 S1                 0.0000
     30 ****         2.8980   0.3291  -2.0167 H              1 S1                 0.0000
     31 ****         2.9205   2.0214  -2.4914 H              1 S1                 0.0000
     32 ****         2.8860   3.8293  -0.3510 H              1 S1                 0.0000
     33 ****        -2.5061   0.0836   0.7777 H              1 S1                 0.0000
     34 ****         0.2512   1.0026   1.7182 H              1 S1                 0.0000
     35 ****        -1.2428   0.9807   2.6500 H              1 S1                 0.0000
     36 ****        -1.0713   2.0892   1.3062 H              1 S1                 0.0000
     37 ****        -0.6001   2.0693  -2.6220 LP             1 S1                 0.0000
     38 ****         0.9193   2.6731  -3.1936 LP             1 S1                 0.0000
     39 ****         3.7667   3.5258   2.0280 LP             1 S1                 0.0000
     40 ****         4.0535   0.9971   2.3864 LP             1 S1                 0.0000
     41 ****         3.3976  -0.2210   0.3460 LP             1 S1                 0.0000
@<TRIPOS>BOND
    1    1    2 1     
    2    1   18 1     
    3    1   19 1     
    4    1   20 1     
    5    2   16 1     
    6    2    3 1     
    7    2   21 1     
    8    3    4 1     
    9    3   22 1     
   10    3   23 1     
   11    4    5 1     
   12    4   24 1     
   13    4   25 1     
   14    5    6 1     
   15    5   26 1     
   16    5   27 1     
   17    6    7 1     
   18    6   16 1     
   19    6   28 1     
   20    7    8 am    
   21    7   29 1     
   22    8    9 2     
   23    8   10 1     
   24   10   11 1     
   25   10   30 1     
   26   10   31 1     
   27   11   15 1     
   28   11   12 1     
   29   12   13 2     
   30   12   32 1     
   31   13   14 1     
   32   14   15 2     
   33   16   17 1     
   34   16   33 1     
   35   17   34 1     
   36   17   35 1     
   37   17   36 1     
   38    9   37 1     
   39    9   38 1     
   40   13   39 1     
   41   14   40 1     
   42   15   41 1     
@<TRIPOS>SUBSTRUCTURE
      1 S1             1
@<TRIPOS>SET
LONE_PAIRS      STATIC     ATOMS    <user>   **** ""
5 37 38 39 40 41
DONOR_HYDROGENS      STATIC     ATOMS    <user>   **** ""
1 29
ATOM$BLUE        STATIC     ATOMS    COLORGROUP SYSTEM
5 37 38 39 40 41
ATOM$RED        STATIC     ATOMS    COLORGROUP SYSTEM
1 29
