AV-unprocessed.smi:2528|AV-procd|sdf|9948|dock3
  -GOLD-   2272013593D 1   1.00000     0.00000
 Structure written by MMmdl.
 44 46  0  0  0  0  0  0  0  0  2 V2000
  151.3247  135.2767  155.7166 O   0  0  0  0  0  0  0  0  0  0  0  0
  150.5453  135.5629  154.8077 C   0  0  0  0  0  0  0  0  0  0  0  0
  149.8390  134.6492  154.1264 N   0  0  0  0  0  0  0  0  0  0  0  0
  149.8840  133.2075  154.3583 C   0  0  0  0  0  0  0  0  0  0  0  0
  148.9169  132.4147  153.4544 C   0  0  2  0  0  0  0  0  0  0  0  0
  148.1161  133.2971  152.4744 C   0  0  0  0  0  0  0  0  0  0  0  0
  147.1971  132.4682  151.6608 N   0  3  2  0  0  0  0  0  0  0  0  0
  146.4321  133.2743  150.6762 C   0  0  0  0  0  0  0  0  0  0  0  0
  145.5576  132.3767  149.7868 C   0  0  0  0  0  0  0  0  0  0  0  0
  144.6154  131.5186  150.6403 C   0  0  0  0  0  0  0  0  0  0  0  0
  145.4245  130.7150  151.6670 C   0  0  0  0  0  0  0  0  0  0  0  0
  146.3171  131.6345  152.5249 C   0  0  1  0  0  0  0  0  0  0  0  0
  147.1738  130.8155  153.5102 C   0  0  0  0  0  0  0  0  0  0  0  0
  148.0089  131.6805  154.2678 O   0  0  0  0  0  0  0  0  0  0  0  0
  150.2871  136.8068  154.3670 N   0  0  0  0  0  0  0  0  0  0  0  0
  150.8124  138.0347  154.8508 C   0  0  0  0  0  0  0  0  0  0  0  0
  150.0345  139.1771  154.5547 C   0  0  0  0  0  0  0  0  0  0  0  0
  150.4691  140.4434  154.9924 C   0  0  0  0  0  0  0  0  0  0  0  0
  151.6712  140.5347  155.7164 C   0  0  0  0  0  0  0  0  0  0  0  0
  152.3841  139.3486  155.9703 C   0  0  0  0  0  0  0  0  0  0  0  0
  151.9694  138.1340  155.5523 N   0  0  0  0  0  0  0  0  0  0  0  0
  149.2283  134.9727  153.3905 H   0  0  0  0  0  0  0  0  0  0  0  0
  150.9057  132.8799  154.1648 H   0  0  0  0  0  0  0  0  0  0  0  0
  149.6897  132.9848  155.4088 H   0  0  0  0  0  0  0  0  0  0  0  0
  149.5148  131.7022  152.8831 H   0  0  0  0  0  0  0  0  0  0  0  0
  147.5336  134.0443  153.0156 H   0  0  0  0  0  0  0  0  0  0  0  0
  148.7997  133.8365  151.8176 H   0  0  0  0  0  0  0  0  0  0  0  0
  145.8097  134.0003  151.2020 H   0  0  0  0  0  0  0  0  0  0  0  0
  147.1243  133.8420  150.0532 H   0  0  0  0  0  0  0  0  0  0  0  0
  144.9799  132.9873  149.0925 H   0  0  0  0  0  0  0  0  0  0  0  0
  146.1927  131.7318  149.1780 H   0  0  0  0  0  0  0  0  0  0  0  0
  143.8966  132.1580  151.1542 H   0  0  0  0  0  0  0  0  0  0  0  0
  144.0382  130.8459  150.0050 H   0  0  0  0  0  0  0  0  0  0  0  0
  144.7461  130.1496  152.3071 H   0  0  0  0  0  0  0  0  0  0  0  0
  146.0411  129.9807  151.1467 H   0  0  0  0  0  0  0  0  0  0  0  0
  145.6763  132.3045  153.1015 H   0  0  0  0  0  0  0  0  0  0  0  0
  146.5326  130.2636  154.1978 H   0  0  0  0  0  0  0  0  0  0  0  0
  147.7826  130.0783  152.9839 H   0  0  0  0  0  0  0  0  0  0  0  0
  149.6383  136.8863  153.5985 H   0  0  0  0  0  0  0  0  0  0  0  0
  149.1138  139.0902  153.9963 H   0  0  0  0  0  0  0  0  0  0  0  0
  149.8896  141.3284  154.7751 H   0  0  0  0  0  0  0  0  0  0  0  0
  152.0372  141.4879  156.0682 H   0  0  0  0  0  0  0  0  0  0  0  0
  153.3114  139.3748  156.5233 H   0  0  0  0  0  0  0  0  0  0  0  0
  147.7725  131.8293  151.1308 H   0  0  0  0  0  0  0  0  0  0  0  0
  1  2  2  0  0  0  0
  2  3  1  0  0  0  0
  2 15  1  0  0  0  0
  3  4  1  0  0  0  0
  3 22  1  0  0  0  0
  4  5  1  0  0  0  0
  4 23  1  0  0  0  0
  4 24  1  0  0  0  0
  5 14  1  0  0  0  0
  5  6  1  0  0  0  0
  5 25  1  0  0  0  0
  6  7  1  0  0  0  0
  6 26  1  0  0  0  0
  6 27  1  0  0  0  0
  7 12  1  0  0  0  0
  7  8  1  0  0  0  0
  7 44  1  0  0  0  0
  8  9  1  0  0  0  0
  8 28  1  0  0  0  0
  8 29  1  0  0  0  0
  9 10  1  0  0  0  0
  9 30  1  0  0  0  0
  9 31  1  0  0  0  0
 10 11  1  0  0  0  0
 10 32  1  0  0  0  0
 10 33  1  0  0  0  0
 11 12  1  0  0  0  0
 11 34  1  0  0  0  0
 11 35  1  0  0  0  0
 12 13  1  0  0  0  0
 12 36  1  0  0  0  0
 13 14  1  0  0  0  0
 13 37  1  0  0  0  0
 13 38  1  0  0  0  0
 15 16  1  0  0  0  0
 15 39  1  0  0  0  0
 16 21  1  0  0  0  0
 16 17  2  0  0  0  0
 17 18  1  0  0  0  0
 17 40  1  0  0  0  0
 18 19  2  0  0  0  0
 18 41  1  0  0  0  0
 19 20  1  0  0  0  0
 19 42  1  0  0  0  0
 20 21  2  0  0  0  0
 20 43  1  0  0  0  0
M  CHG  1   7   1
M  END
> <s_m_source_file>
AV-unprocessed.smi

> <i_m_source_file_index>
2528

> <i_lp_mmshare_version>
43012

> <i_f3d_flags>
0

> <s_epik_input>
bjFbY0hdW2NIXVtjSF1bY0hdYzFbTkhdQyg9TylbTkhdW0NIMl1bQ0BIXShbQ0gyXTIpT1tDSDJdW0NAQEhdKE4yMylbQ0gyXVtDSDJdW0NIMl1bQ0gyXTM=

> <s_epik_cmdline>
J2VwaWtfcHl0aG9uJywgJy1waCcsICc3LjAnLCAnLXRuJywgJzgnLCAnLW1hJywgJzIwMCcsICctbWV0YWxfYmluZGluZycsICctaW1hZScsICc8aW5maWxlLm1hZT4nLCAnLW9tYWUnLCAnPG91dGZpbGUubWFlPic=

> <r_epik_Ionization_Penalty>
0.0932337

> <r_epik_Ionization_Penalty_Charging>
0.0931942

> <r_epik_Ionization_Penalty_Neutral>
3.9565e-05

> <r_epik_State_Penalty>
0.0834605

> <r_epik_Charging_Adjusted_Penalty>
0.176655

> <i_epik_Tot_Q>
1

> <i_epik_Tot_abs_Q>
1

> <r_epik_Metal_State_Penalty>
0.0834607

> <b_epik_Metal_Only>
0

> <s_lp_Force_Field>
OPLS_2005

> <r_lp_Energy>
24.6959

> <b_lp_Chiralities_Consistent>
1

> <s_lp_Variant>
AV-unprocessed.smi:2528-1

> <Gold.Version>
5.8.1

> <Gold.Id.Protein>
6NUR|6NUR_protein|mol2

> <Gold.PLP.Fitness>
50.7325

> <Gold.PLP.PLP>
-41.4191

> <Gold.PLP.part.hbond>
-4.3649

> <Gold.PLP.part.metal>
0.0000

> <Gold.PLP.part.buried>
-2.6200

> <Gold.PLP.part.nonpolar>
-33.4046

> <Gold.PLP.part.repulsive>
0.2247

> <Gold.PLP.ligand.clash>
0.2433

> <Gold.PLP.ligand.torsion>
0.8568

> <Gold.PLP.Chemscore.Hbond>
3.7561

> <Gold.PLP.Chemscore.CHOScore>
0.0000

> <Gold.PLP.Chemscore.Metal>
0.0000

> <Gold.Chemscore.Hbonds>
donor molecule, donor type, donor heavy atom, donor atom, acceptor molecule, acceptor atom, score
      L1  H     3    22       P1  7948  0.70
      L1  H     7    44       P1 10747  1.00
      L1  H    15    39       P1  7948  0.98
      P1  H 10752 10763       L1     1  1.00

> <Gold.PLP.Chemscore.Internal.Correction>
0.0020

> <Gold.Rescore>
     Score         DG    S(hbond)    S(metal)    S(lipo)     H(rot)  DE(clash)    DE(int)     intcor
     20.77     -23.00       2.80        0.00      97.85       1.29       0.17       2.06       ----

> <Gold.Chemscore.Fitness>
20.7731

> <Gold.Chemscore.DG>
-22.9986

> <Gold.Chemscore.ZeroCoef>
-5.4800

> <Gold.Chemscore.Hbond>
2.8039

> <Gold.Chemscore.Metal>
0.0000

> <Gold.Chemscore.Lipo>
97.8510

> <Gold.Chemscore.Internal_Hbond>
0.0000

> <Gold.Chemscore.DEClash>
0.1692

> <Gold.Chemscore.DEInternal>
2.0563

> <Gold.Chemscore.Rot>
1.2870

> <Gold.Chemscore.Internal.Correction>
   9.000000E+99

> <Gold.Chemscore.Hbonds>
donor molecule, donor type, donor heavy atom, donor atom, acceptor molecule, acceptor atom, score
      L1  H     3    22       P1  7948  0.08
      L1  H     7    44       P1 10747  1.00
      L1  H    15    39       P1  7948  0.69
      P1  H 10752 10763       L1     1  0.29

> <Gold.Chemscore.Hbond.Weighted>
-9.3649

> <Gold.Chemscore.Metal.Weighted>
-0.0000

> <Gold.Chemscore.Lipo.Weighted>
-11.4486

> <Gold.Chemscore.Internal_Hbond.Weighted>
0.0000

> <Gold.Chemscore.DEClash.Weighted>
0.1692

> <Gold.Chemscore.DEInternal.Weighted>
2.0563

> <Gold.Chemscore.Rot.Weighted>
3.2948

> <Gold.Chemscore.Internal.Correction.Weighted>
   9.000000E+99

> <Gold.Protein.RotatedTorsions>
[ 6907 6896 6895 6894 ] final   24.69 input  -60.11 | X-H torsion
[ 7974 7965 7964 7962 ] final  -99.83 input  175.53 | X-H torsion
[ 8008 7997 7996 7995 ] final   98.29 input   59.86 | X-H torsion
[ 10167 10162 10161 10158 ] final  102.73 input  -65.29 | X-H torsion
[ 10718 10713 10712 10709 ] final  -54.49 input   66.30 | X-H torsion
[ 10763 10752 10751 10750 ] final   75.64 input  -60.55 | X-H torsion
[ 11005 11000 10999 10996 ] final -119.26 input  -57.11 | X-H torsion

> <Gold.Protein.ActiveResidues>
 VAL166  LYS551  ARG553  GLY616  TRP617  ASP618  TYR619  PRO620  LYS621  CYS622 
 ASP623  PHE694  ASN695  SER759  ASP760  ASP761  ALA762  ILE779  LEU786  VAL792 
 PHE793  MET794  SER795  GLU796  ALA797  LYS798  CYS799  TRP800  GLU811  SER814 

> <Gold.Protein.RotatedAtoms>
  151.9612  135.0122  160.0547 H   0  0  0  0  0  0  0  0  0  0  0  0  # atno 6907 bound_to 6896
  152.1866  133.4739  159.4994 H   0  0  0  0  0  0  0  0  0  0  0  0  # atno 6908 bound_to 6896
  150.6927  134.1682  159.4245 H   0  0  0  0  0  0  0  0  0  0  0  0  # atno 6909 bound_to 6896
  145.3025  140.9381  143.2815 H   0  0  0  0  0  0  0  0  0  0  0  0  # atno 7974 bound_to 7965
  156.0989  140.3246  155.7915 H   0  0  0  0  0  0  0  0  0  0  0  0  # atno 8008 bound_to 7997
  155.4871  140.0558  157.2976 H   0  0  0  0  0  0  0  0  0  0  0  0  # atno 8009 bound_to 7997
  154.4684  140.2000  156.0073 H   0  0  0  0  0  0  0  0  0  0  0  0  # atno 8010 bound_to 7997
  139.7324  144.7032  151.0702 H   0  0  0  0  0  0  0  0  0  0  0  0  # atno 10167 bound_to 10162
  156.1446  130.4153  150.0045 H   0  0  0  0  0  0  0  0  0  0  0  0  # atno 10718 bound_to 10713
  153.0669  135.4981  154.8219 H   0  0  0  0  0  0  0  0  0  0  0  0  # atno 10763 bound_to 10752
  154.6966  135.2994  154.9405 H   0  0  0  0  0  0  0  0  0  0  0  0  # atno 10764 bound_to 10752
  154.0142  135.6750  153.4820 H   0  0  0  0  0  0  0  0  0  0  0  0  # atno 10765 bound_to 10752
  141.0228  134.0099  157.3258 H   0  0  0  0  0  0  0  0  0  0  0  0  # atno 11005 bound_to 11000
  144.9082  139.4562  143.6600 LP  0  0  0  0  0  0  0  0  0  0  0  0  # atno 17320 bound_to 7965
  146.3147  139.7875  142.8993 LP  0  0  0  0  0  0  0  0  0  0  0  0  # atno 17321 bound_to 7965
  140.7773  143.5027  150.9751 LP  0  0  0  0  0  0  0  0  0  0  0  0  # atno 17342 bound_to 10162
  139.8715  143.7187  152.3166 LP  0  0  0  0  0  0  0  0  0  0  0  0  # atno 17343 bound_to 10162
  156.7920  130.9259  151.3646 LP  0  0  0  0  0  0  0  0  0  0  0  0  # atno 17370 bound_to 10713
  157.6606  130.8962  149.9821 LP  0  0  0  0  0  0  0  0  0  0  0  0  # atno 17371 bound_to 10713
  139.9157  135.0196  156.7870 LP  0  0  0  0  0  0  0  0  0  0  0  0  # atno 17394 bound_to 11000
  140.6543  133.9703  155.7771 LP  0  0  0  0  0  0  0  0  0  0  0  0  # atno 17395 bound_to 11000

$$$$
