AV-unprocessed.smi:1445|AV-procd|sdf|5886|dock7
  -GOLD-   22720 5563D 1   1.00000     0.00000
 Structure written by MMmdl.
 46 47  0  0  0  0  0  0  0  0  2 V2000
  151.8554  138.2912  154.4689 C   0  0  0  0  0  0  0  0  0  0  0  0
  150.4895  138.2663  154.0689 O   0  0  0  0  0  0  0  0  0  0  0  0
  149.7362  139.4145  154.2242 C   0  0  0  0  0  0  0  0  0  0  0  0
  150.3219  140.4995  154.7906 N   0  0  0  0  0  0  0  0  0  0  0  0
  149.5866  141.6198  154.9451 C   0  0  0  0  0  0  0  0  0  0  0  0
  148.2385  141.7166  154.5547 C   0  0  0  0  0  0  0  0  0  0  0  0
  147.6288  140.5929  153.9670 C   0  0  0  0  0  0  0  0  0  0  0  0
  148.3926  139.4152  153.7817 C   0  0  0  0  0  0  0  0  0  0  0  0
  147.8666  138.2224  153.2138 N   0  0  0  0  0  0  0  0  0  0  0  0
  146.5798  137.8493  153.1148 C   0  0  0  0  0  0  0  0  0  0  0  0
  145.6164  138.5019  153.5167 O   0  0  0  0  0  0  0  0  0  0  0  0
  146.4589  136.6693  152.4897 N   0  0  0  0  0  0  0  0  0  0  0  0
  145.1889  136.0119  152.2031 C   0  0  0  0  0  0  0  0  0  0  0  0
  145.0572  135.6758  150.7048 C   0  0  0  0  0  0  0  0  0  0  0  0
  144.8282  134.2287  150.4691 N   0  3  2  0  0  0  0  0  0  0  0  0
  143.5435  133.7605  151.0507 C   0  0  0  0  0  0  0  0  0  0  0  0
  143.2608  132.2994  150.6676 C   0  0  0  0  0  0  0  0  0  0  0  0
  144.4197  131.3858  151.0903 C   0  0  0  0  0  0  0  0  0  0  0  0
  145.7642  131.8986  150.5418 C   0  0  1  0  0  0  0  0  0  0  0  0
  145.9282  131.6476  149.0328 C   0  0  0  0  0  0  0  0  0  0  0  0
  145.9699  133.3819  150.9121 C   0  0  0  0  0  0  0  0  0  0  0  0
  152.3041  137.3159  154.2814 H   0  0  0  0  0  0  0  0  0  0  0  0
  151.9558  138.5015  155.5346 H   0  0  0  0  0  0  0  0  0  0  0  0
  152.4234  139.0306  153.9025 H   0  0  0  0  0  0  0  0  0  0  0  0
  150.0862  142.4621  155.4004 H   0  0  0  0  0  0  0  0  0  0  0  0
  147.6834  142.6303  154.7075 H   0  0  0  0  0  0  0  0  0  0  0  0
  146.5891  140.6500  153.6844 H   0  0  0  0  0  0  0  0  0  0  0  0
  148.5423  137.6286  152.7553 H   0  0  0  0  0  0  0  0  0  0  0  0
  147.2997  136.1974  152.1896 H   0  0  0  0  0  0  0  0  0  0  0  0
  145.1384  135.0969  152.7940 H   0  0  0  0  0  0  0  0  0  0  0  0
  144.3718  136.6462  152.5477 H   0  0  0  0  0  0  0  0  0  0  0  0
  144.2565  136.2514  150.2374 H   0  0  0  0  0  0  0  0  0  0  0  0
  145.9811  135.9827  150.2122 H   0  0  0  0  0  0  0  0  0  0  0  0
  143.5731  133.8678  152.1363 H   0  0  0  0  0  0  0  0  0  0  0  0
  142.7249  134.3857  150.6919 H   0  0  0  0  0  0  0  0  0  0  0  0
  142.3360  131.9652  151.1388 H   0  0  0  0  0  0  0  0  0  0  0  0
  143.0987  132.2244  149.5918 H   0  0  0  0  0  0  0  0  0  0  0  0
  144.4662  131.3528  152.1796 H   0  0  0  0  0  0  0  0  0  0  0  0
  144.2360  130.3622  150.7618 H   0  0  0  0  0  0  0  0  0  0  0  0
  146.5527  131.3275  151.0337 H   0  0  0  0  0  0  0  0  0  0  0  0
  145.1966  132.2013  148.4446 H   0  0  0  0  0  0  0  0  0  0  0  0
  145.8109  130.5894  148.7975 H   0  0  0  0  0  0  0  0  0  0  0  0
  146.9193  131.9493  148.6933 H   0  0  0  0  0  0  0  0  0  0  0  0
  146.9034  133.7359  150.4759 H   0  0  0  0  0  0  0  0  0  0  0  0
  146.0825  133.4773  151.9936 H   0  0  0  0  0  0  0  0  0  0  0  0
  144.7422  134.1108  149.4696 H   0  0  0  0  0  0  0  0  0  0  0  0
  1  2  1  0  0  0  0
  1 22  1  0  0  0  0
  1 23  1  0  0  0  0
  1 24  1  0  0  0  0
  2  3  1  0  0  0  0
  3  8  1  0  0  0  0
  3  4  2  0  0  0  0
  4  5  1  0  0  0  0
  5  6  2  0  0  0  0
  5 25  1  0  0  0  0
  6  7  1  0  0  0  0
  6 26  1  0  0  0  0
  7  8  2  0  0  0  0
  7 27  1  0  0  0  0
  8  9  1  0  0  0  0
  9 10  1  0  0  0  0
  9 28  1  0  0  0  0
 10 11  2  0  0  0  0
 10 12  1  0  0  0  0
 12 13  1  0  0  0  0
 12 29  1  0  0  0  0
 13 14  1  0  0  0  0
 13 30  1  0  0  0  0
 13 31  1  0  0  0  0
 14 15  1  0  0  0  0
 14 32  1  0  0  0  0
 14 33  1  0  0  0  0
 15 21  1  0  0  0  0
 15 16  1  0  0  0  0
 15 46  1  0  0  0  0
 16 17  1  0  0  0  0
 16 34  1  0  0  0  0
 16 35  1  0  0  0  0
 17 18  1  0  0  0  0
 17 36  1  0  0  0  0
 17 37  1  0  0  0  0
 18 19  1  0  0  0  0
 18 38  1  0  0  0  0
 18 39  1  0  0  0  0
 19 20  1  0  0  0  0
 19 21  1  0  0  0  0
 19 40  1  0  0  0  0
 20 41  1  0  0  0  0
 20 42  1  0  0  0  0
 20 43  1  0  0  0  0
 21 44  1  0  0  0  0
 21 45  1  0  0  0  0
M  CHG  1  15   1
M  END
> <s_m_source_file>
AV-unprocessed.smi

> <i_m_source_file_index>
1445

> <i_lp_mmshare_version>
43012

> <i_f3d_flags>
0

> <s_epik_input>
W0NIM11PYzFuW2NIXVtjSF1bY0hdYzFbTkhdQyg9TylbTkhdW0NIMl1bQ0gyXU4yW0NIMl1bQ0gyXVtDSDJdW0NAQEhdKFtDSDNdKVtDSDJdMg==

> <s_epik_cmdline>
J2VwaWtfcHl0aG9uJywgJy1waCcsICc3LjAnLCAnLXRuJywgJzgnLCAnLW1hJywgJzIwMCcsICctbWV0YWxfYmluZGluZycsICctaW1hZScsICc8aW5maWxlLm1hZT4nLCAnLW9tYWUnLCAnPG91dGZpbGUubWFlPic=

> <r_lp_tautomer_probability>
1

> <r_epik_Ionization_Penalty>
0.00179544

> <r_epik_Ionization_Penalty_Charging>
0.00171832

> <r_epik_Ionization_Penalty_Neutral>
7.71118e-05

> <r_epik_State_Penalty>
0.0011618

> <r_epik_Charging_Adjusted_Penalty>
0.00288012

> <i_epik_Tot_Q>
1

> <i_epik_Tot_abs_Q>
1

> <r_epik_Metal_State_Penalty>
-0

> <b_epik_Metal_Only>
0

> <s_lp_Force_Field>
OPLS_2005

> <r_lp_Energy>
21.8434

> <b_lp_Chiralities_Consistent>
1

> <s_lp_Variant>
AV-unprocessed.smi:1445-2

> <Gold.Version>
5.8.1

> <Gold.Id.Protein>
6NUR|6NUR_protein|mol2

> <Gold.PLP.Fitness>
50.8441

> <Gold.PLP.PLP>
-39.2980

> <Gold.PLP.part.hbond>
-4.2894

> <Gold.PLP.part.metal>
0.0000

> <Gold.PLP.part.buried>
1.4198

> <Gold.PLP.part.nonpolar>
-38.0565

> <Gold.PLP.part.repulsive>
1.6932

> <Gold.PLP.ligand.clash>
0.0000

> <Gold.PLP.ligand.torsion>
0.5014

> <Gold.PLP.Chemscore.Hbond>
3.3395

> <Gold.PLP.Chemscore.CHOScore>
0.8323

> <Gold.PLP.Chemscore.Metal>
0.0000

> <Gold.Chemscore.Hbonds>
donor molecule, donor type, donor heavy atom, donor atom, acceptor molecule, acceptor atom, score
      L1  H     9    28       P1  7948  1.00
      L1  H    12    29       P1  7948  1.00
      L1  H    15    46       P1  7921  0.04
      P1  H  7989  7998       L1     4  0.98
      L1  C     5    25       P1  8028  0.74

> <Gold.PLP.Chemscore.Internal.Correction>
0.0334

> <Gold.Rescore>
     Score         DG    S(hbond)    S(metal)    S(lipo)     H(rot)  DE(clash)    DE(int)     intcor
     19.53     -22.28       2.68        0.00     104.53       1.71       1.07       1.69       ----

> <Gold.Chemscore.Fitness>
19.5255

> <Gold.Chemscore.DG>
-22.2814

> <Gold.Chemscore.ZeroCoef>
-5.4800

> <Gold.Chemscore.Hbond>
2.6800

> <Gold.Chemscore.Metal>
0.0000

> <Gold.Chemscore.Lipo>
104.5268

> <Gold.Chemscore.Internal_Hbond>
0.0000

> <Gold.Chemscore.DEClash>
1.0653

> <Gold.Chemscore.DEInternal>
1.6907

> <Gold.Chemscore.Rot>
1.7107

> <Gold.Chemscore.Internal.Correction>
   9.000000E+99

> <Gold.Chemscore.Hbonds>
donor molecule, donor type, donor heavy atom, donor atom, acceptor molecule, acceptor atom, score
      L1  H     9    28       P1  7948  0.97
      L1  H    12    29       P1  7948  0.95
      L1  H    15    46       P1  7921  0.06
      P1  H  7989  7998       L1     4  0.13

> <Gold.Chemscore.Hbond.Weighted>
-8.9512

> <Gold.Chemscore.Metal.Weighted>
-0.0000

> <Gold.Chemscore.Lipo.Weighted>
-12.2296

> <Gold.Chemscore.Internal_Hbond.Weighted>
0.0000

> <Gold.Chemscore.DEClash.Weighted>
1.0653

> <Gold.Chemscore.DEInternal.Weighted>
1.6907

> <Gold.Chemscore.Rot.Weighted>
4.3794

> <Gold.Chemscore.Internal.Correction.Weighted>
   9.000000E+99

> <Gold.Protein.RotatedTorsions>
[ 6907 6896 6895 6894 ] final  -89.50 input  -60.11 | X-H torsion
[ 7974 7965 7964 7962 ] final  -10.04 input  175.53 | X-H torsion
[ 8008 7997 7996 7995 ] final   73.06 input   59.86 | X-H torsion
[ 10167 10162 10161 10158 ] final -177.77 input  -65.29 | X-H torsion
[ 10718 10713 10712 10709 ] final   87.34 input   66.30 | X-H torsion
[ 10763 10752 10751 10750 ] final  -13.70 input  -60.55 | X-H torsion
[ 11005 11000 10999 10996 ] final  -34.72 input  -57.11 | X-H torsion

> <Gold.Protein.ActiveResidues>
 VAL166  LYS551  ARG553  GLY616  TRP617  ASP618  TYR619  PRO620  LYS621  CYS622 
 ASP623  PHE694  ASN695  SER759  ASP760  ASP761  ALA762  ILE779  LEU786  VAL792 
 PHE793  MET794  SER795  GLU796  ALA797  LYS798  CYS799  TRP800  GLU811  SER814 

> <Gold.Protein.RotatedAtoms>
  150.6874  134.2578  159.4536 H   0  0  0  0  0  0  0  0  0  0  0  0  # atno 6907 bound_to 6896
  152.0510  134.9651  160.0584 H   0  0  0  0  0  0  0  0  0  0  0  0  # atno 6908 bound_to 6896
  152.1115  133.4268  159.4670 H   0  0  0  0  0  0  0  0  0  0  0  0  # atno 6909 bound_to 6896
  146.2233  140.2705  142.8356 H   0  0  0  0  0  0  0  0  0  0  0  0  # atno 7974 bound_to 7965
  155.7781  140.3482  155.5282 H   0  0  0  0  0  0  0  0  0  0  0  0  # atno 8008 bound_to 7997
  155.8756  140.0993  157.1541 H   0  0  0  0  0  0  0  0  0  0  0  0  # atno 8009 bound_to 7997
  154.4020  140.1332  156.4119 H   0  0  0  0  0  0  0  0  0  0  0  0  # atno 8010 bound_to 7997
  139.5464  144.2224  152.0996 H   0  0  0  0  0  0  0  0  0  0  0  0  # atno 10167 bound_to 10162
  157.6939  131.0251  150.3108 H   0  0  0  0  0  0  0  0  0  0  0  0  # atno 10718 bound_to 10713
  153.5172  135.7016  153.5750 H   0  0  0  0  0  0  0  0  0  0  0  0  # atno 10763 bound_to 10752
  153.3814  135.3919  155.1859 H   0  0  0  0  0  0  0  0  0  0  0  0  # atno 10764 bound_to 10752
  154.8698  135.3836  154.4658 H   0  0  0  0  0  0  0  0  0  0  0  0  # atno 10765 bound_to 10752
  140.9739  133.7094  156.1570 H   0  0  0  0  0  0  0  0  0  0  0  0  # atno 11005 bound_to 11000
  144.9272  140.7934  143.5712 LP  0  0  0  0  0  0  0  0  0  0  0  0  # atno 17320 bound_to 7965
  145.2646  139.1979  143.4874 LP  0  0  0  0  0  0  0  0  0  0  0  0  # atno 17321 bound_to 7965
  140.1712  144.4934  150.6578 LP  0  0  0  0  0  0  0  0  0  0  0  0  # atno 17342 bound_to 10162
  140.6713  143.2287  151.5617 LP  0  0  0  0  0  0  0  0  0  0  0  0  # atno 17343 bound_to 10162
  156.3610  130.3847  149.7252 LP  0  0  0  0  0  0  0  0  0  0  0  0  # atno 17370 bound_to 10713
  156.4698  130.7991  151.3009 LP  0  0  0  0  0  0  0  0  0  0  0  0  # atno 17371 bound_to 10713
  140.7288  134.4278  157.5568 LP  0  0  0  0  0  0  0  0  0  0  0  0  # atno 17394 bound_to 11000
  139.8923  134.8759  156.2278 LP  0  0  0  0  0  0  0  0  0  0  0  0  # atno 17395 bound_to 11000

$$$$
