AV-unprocessed.smi:2448|AV-procd|sdf|9662|dock4
  -GOLD-   2272013303D 1   1.00000     0.00000
 Structure written by MMmdl.
 38 39  0  0  0  0  0  0  0  0  2 V2000
  150.0547  142.6138  158.8733 O   0  0  0  0  0  0  0  0  0  0  0  0
  151.3581  142.5887  158.3198 C   0  0  2  0  0  0  0  0  0  0  0  0
  151.3543  141.6252  157.1160 C   0  0  0  0  0  0  0  0  0  0  0  0
  150.6300  140.3840  157.4040 N   0  0  0  0  0  0  0  0  0  0  0  0
  150.2523  139.5773  156.2354 C   0  0  1  0  0  0  0  0  0  0  0  0
  150.1644  140.4270  154.9413 C   0  0  0  0  0  0  0  0  0  0  0  0
  148.7821  140.5187  154.3194 C   0  0  0  0  0  0  0  0  0  0  0  0
  148.1120  141.7601  154.2440 C   0  0  0  0  0  0  0  0  0  0  0  0
  146.8323  141.8171  153.6552 C   0  0  0  0  0  0  0  0  0  0  0  0
  146.2620  140.6905  153.1745 N   0  3  0  0  0  0  0  0  0  0  0  0
  146.8656  139.4830  153.2305 C   0  0  0  0  0  0  0  0  0  0  0  0
  148.1459  139.3645  153.8087 C   0  0  0  0  0  0  0  0  0  0  0  0
  151.2581  138.4196  156.0622 C   0  0  0  0  0  0  0  0  0  0  0  0
  152.4555  138.9066  155.7344 F   0  0  0  0  0  0  0  0  0  0  0  0
  151.3844  137.7438  157.2041 F   0  0  0  0  0  0  0  0  0  0  0  0
  150.8572  137.5821  155.1050 F   0  0  0  0  0  0  0  0  0  0  0  0
  152.3828  142.2197  159.4077 C   0  0  0  0  0  0  0  0  0  0  0  0
  152.5354  143.4261  160.3384 C   0  0  0  0  0  0  0  0  0  0  0  0
  152.3428  144.9194  159.3346 S   0  0  0  0  0  0  0  0  0  0  0  0
  151.7114  144.0237  157.8902 C   0  0  0  0  0  0  0  0  0  0  0  0
  149.4703  143.0168  158.2497 H   0  0  0  0  0  0  0  0  0  0  0  0
  150.9154  142.1209  156.2491 H   0  0  0  0  0  0  0  0  0  0  0  0
  152.3856  141.4103  156.8499 H   0  0  0  0  0  0  0  0  0  0  0  0
  149.7953  140.6045  157.9387 H   0  0  0  0  0  0  0  0  0  0  0  0
  149.2815  139.1143  156.4182 H   0  0  0  0  0  0  0  0  0  0  0  0
  150.5465  141.4310  155.1312 H   0  0  0  0  0  0  0  0  0  0  0  0
  150.8202  140.0031  154.1805 H   0  0  0  0  0  0  0  0  0  0  0  0
  148.5731  142.6581  154.6292 H   0  0  0  0  0  0  0  0  0  0  0  0
  146.2523  142.7229  153.5551 H   0  0  0  0  0  0  0  0  0  0  0  0
  146.3108  138.6551  152.8133 H   0  0  0  0  0  0  0  0  0  0  0  0
  148.6339  138.4013  153.8504 H   0  0  0  0  0  0  0  0  0  0  0  0
  152.1001  141.3234  159.9613 H   0  0  0  0  0  0  0  0  0  0  0  0
  153.3455  142.0122  158.9382 H   0  0  0  0  0  0  0  0  0  0  0  0
  151.7472  143.4197  161.0919 H   0  0  0  0  0  0  0  0  0  0  0  0
  153.4927  143.4245  160.8599 H   0  0  0  0  0  0  0  0  0  0  0  0
  152.5145  144.0087  157.1523 H   0  0  0  0  0  0  0  0  0  0  0  0
  150.8694  144.5494  157.4383 H   0  0  0  0  0  0  0  0  0  0  0  0
  145.3349  140.7538  152.7524 H   0  0  0  0  0  0  0  0  0  0  0  0
  1  2  1  0  0  0  0
  1 21  1  0  0  0  0
  2 20  1  0  0  0  0
  2  3  1  0  0  0  0
  2 17  1  0  0  0  0
  3  4  1  0  0  0  0
  3 22  1  0  0  0  0
  3 23  1  0  0  0  0
  4  5  1  0  0  0  0
  4 24  1  0  0  0  0
  5  6  1  0  0  0  0
  5 13  1  0  0  0  0
  5 25  1  0  0  0  0
  6  7  1  0  0  0  0
  6 26  1  0  0  0  0
  6 27  1  0  0  0  0
  7 12  1  0  0  0  0
  7  8  2  0  0  0  0
  8  9  1  0  0  0  0
  8 28  1  0  0  0  0
  9 10  2  0  0  0  0
  9 29  1  0  0  0  0
 10 11  1  0  0  0  0
 10 38  1  0  0  0  0
 11 12  2  0  0  0  0
 11 30  1  0  0  0  0
 12 31  1  0  0  0  0
 13 14  1  0  0  0  0
 13 15  1  0  0  0  0
 13 16  1  0  0  0  0
 17 18  1  0  0  0  0
 17 32  1  0  0  0  0
 17 33  1  0  0  0  0
 18 19  1  0  0  0  0
 18 34  1  0  0  0  0
 18 35  1  0  0  0  0
 19 20  1  0  0  0  0
 20 36  1  0  0  0  0
 20 37  1  0  0  0  0
M  CHG  1  10   1
M  END
> <s_m_source_file>
AV-unprocessed.smi

> <i_m_source_file_index>
2448

> <i_lp_mmshare_version>
43012

> <i_f3d_flags>
0

> <s_epik_input>
W0NIMl0xU1tDSDJdW0NIMl1bQ0BAXTEoW09IXSlbQ0gyXVtOSF1bQ0BASF0oQyhGKShGKUYpW0NIMl1jMltjSF1bY0hdbltjSF1bY0hdMg==

> <s_epik_cmdline>
J2VwaWtfcHl0aG9uJywgJy1waCcsICc3LjAnLCAnLXRuJywgJzgnLCAnLW1hJywgJzIwMCcsICctbWV0YWxfYmluZGluZycsICctaW1hZScsICc8aW5maWxlLm1hZT4nLCAnLW9tYWUnLCAnPG91dGZpbGUubWFlPic=

> <r_epik_Ionization_Penalty>
1.11129

> <r_epik_Ionization_Penalty_Charging>
1.08366

> <r_epik_Ionization_Penalty_Neutral>
0.0276276

> <r_epik_State_Penalty>
1.93785

> <r_epik_Charging_Adjusted_Penalty>
3.02151

> <i_epik_Tot_Q>
1

> <i_epik_Tot_abs_Q>
1

> <r_epik_Metal_State_Penalty>
5.97911

> <b_epik_Metal_Only>
0

> <s_lp_Force_Field>
OPLS_2005

> <r_lp_Energy>
38.9461

> <b_lp_Chiralities_Consistent>
1

> <s_lp_Variant>
AV-unprocessed.smi:2448-12

> <Gold.Version>
5.8.1

> <Gold.Id.Protein>
6NUR|6NUR_protein|mol2

> <Gold.PLP.Fitness>
46.3073

> <Gold.PLP.PLP>
-42.9638

> <Gold.PLP.part.hbond>
-1.6132

> <Gold.PLP.part.metal>
0.0000

> <Gold.PLP.part.buried>
-2.6041

> <Gold.PLP.part.nonpolar>
-39.2275

> <Gold.PLP.part.repulsive>
0.0040

> <Gold.PLP.ligand.clash>
0.0000

> <Gold.PLP.ligand.torsion>
1.6333

> <Gold.PLP.Chemscore.Hbond>
2.0000

> <Gold.PLP.Chemscore.CHOScore>
0.0000

> <Gold.PLP.Chemscore.Metal>
0.0000

> <Gold.Chemscore.Hbonds>
donor molecule, donor type, donor heavy atom, donor atom, acceptor molecule, acceptor atom, score
      L1  H    10    38       P1 10175  2.00

> <Gold.PLP.Chemscore.Internal.Correction>
0.6102

> <Gold.Rescore>
     Score         DG    S(hbond)    S(metal)    S(lipo)     H(rot)  DE(clash)    DE(int)     intcor
     16.91     -18.65       1.77        0.00     114.97       2.42       0.34       1.40       ----

> <Gold.Chemscore.Fitness>
16.9130

> <Gold.Chemscore.DG>
-18.6458

> <Gold.Chemscore.ZeroCoef>
-5.4800

> <Gold.Chemscore.Hbond>
1.7728

> <Gold.Chemscore.Metal>
0.0000

> <Gold.Chemscore.Lipo>
114.9728

> <Gold.Chemscore.Internal_Hbond>
0.0000

> <Gold.Chemscore.DEClash>
0.3372

> <Gold.Chemscore.DEInternal>
1.3956

> <Gold.Chemscore.Rot>
2.4247

> <Gold.Chemscore.Internal.Correction>
   9.000000E+99

> <Gold.Chemscore.Hbonds>
donor molecule, donor type, donor heavy atom, donor atom, acceptor molecule, acceptor atom, score
      L1  H    10    38       P1 10175  0.40

> <Gold.Chemscore.Hbond.Weighted>
-5.9212

> <Gold.Chemscore.Metal.Weighted>
-0.0000

> <Gold.Chemscore.Lipo.Weighted>
-13.4518

> <Gold.Chemscore.Internal_Hbond.Weighted>
0.0000

> <Gold.Chemscore.DEClash.Weighted>
0.3372

> <Gold.Chemscore.DEInternal.Weighted>
1.3956

> <Gold.Chemscore.Rot.Weighted>
6.2072

> <Gold.Chemscore.Internal.Correction.Weighted>
   9.000000E+99

> <Gold.Protein.RotatedTorsions>
[ 6907 6896 6895 6894 ] final  104.04 input  -60.11 | X-H torsion
[ 7974 7965 7964 7962 ] final  -17.74 input  175.53 | X-H torsion
[ 8008 7997 7996 7995 ] final  104.47 input   59.86 | X-H torsion
[ 10167 10162 10161 10158 ] final -117.87 input  -65.29 | X-H torsion
[ 10718 10713 10712 10709 ] final  -97.25 input   66.30 | X-H torsion
[ 10763 10752 10751 10750 ] final   56.10 input  -60.55 | X-H torsion
[ 11005 11000 10999 10996 ] final  168.88 input  -57.11 | X-H torsion

> <Gold.Protein.ActiveResidues>
 VAL166  LYS551  ARG553  GLY616  TRP617  ASP618  TYR619  PRO620  LYS621  CYS622 
 ASP623  PHE694  ASN695  SER759  ASP760  ASP761  ALA762  ILE779  LEU786  VAL792 
 PHE793  MET794  SER795  GLU796  ALA797  LYS798  CYS799  TRP800  GLU811  SER814 

> <Gold.Protein.RotatedAtoms>
  152.5277  133.9735  159.7772 H   0  0  0  0  0  0  0  0  0  0  0  0  # atno 6907 bound_to 6896
  151.0002  133.6055  159.2703 H   0  0  0  0  0  0  0  0  0  0  0  0  # atno 6908 bound_to 6896
  151.3167  135.0814  159.9344 H   0  0  0  0  0  0  0  0  0  0  0  0  # atno 6909 bound_to 6896
  146.1926  140.3822  142.8452 H   0  0  0  0  0  0  0  0  0  0  0  0  # atno 7974 bound_to 7965
  156.1576  140.3147  155.8752 H   0  0  0  0  0  0  0  0  0  0  0  0  # atno 8008 bound_to 7997
  155.3847  140.0490  157.3059 H   0  0  0  0  0  0  0  0  0  0  0  0  # atno 8009 bound_to 7997
  154.5116  140.2166  155.9157 H   0  0  0  0  0  0  0  0  0  0  0  0  # atno 8010 bound_to 7997
  140.0637  143.4943  152.2018 H   0  0  0  0  0  0  0  0  0  0  0  0  # atno 10167 bound_to 10162
  156.0079  130.5186  150.6347 H   0  0  0  0  0  0  0  0  0  0  0  0  # atno 10718 bound_to 10713
  152.9827  135.5688  154.5174 H   0  0  0  0  0  0  0  0  0  0  0  0  # atno 10763 bound_to 10752
  154.4668  135.2783  155.1674 H   0  0  0  0  0  0  0  0  0  0  0  0  # atno 10764 bound_to 10752
  154.3239  135.6263  153.5573 H   0  0  0  0  0  0  0  0  0  0  0  0  # atno 10765 bound_to 10752
  140.2919  134.7666  157.3845 H   0  0  0  0  0  0  0  0  0  0  0  0  # atno 11005 bound_to 11000
  144.8517  140.7011  143.6164 LP  0  0  0  0  0  0  0  0  0  0  0  0  # atno 17320 bound_to 7965
  145.3744  139.1651  143.4315 LP  0  0  0  0  0  0  0  0  0  0  0  0  # atno 17321 bound_to 7965
  139.5878  144.7538  151.3476 LP  0  0  0  0  0  0  0  0  0  0  0  0  # atno 17342 bound_to 10162
  140.7159  143.7266  150.7655 LP  0  0  0  0  0  0  0  0  0  0  0  0  # atno 17343 bound_to 10162
  157.4138  131.0827  151.1195 LP  0  0  0  0  0  0  0  0  0  0  0  0  # atno 17370 bound_to 10713
  157.1818  130.6313  149.5674 LP  0  0  0  0  0  0  0  0  0  0  0  0  # atno 17371 bound_to 10713
  140.1187  134.5248  155.8202 LP  0  0  0  0  0  0  0  0  0  0  0  0  # atno 17394 bound_to 11000
  141.2144  133.6749  156.6826 LP  0  0  0  0  0  0  0  0  0  0  0  0  # atno 17395 bound_to 11000

$$$$
