#       Name:                AV-unprocessed.smi:1741
#       Creating user name   scv26
#       Creation time:       Fri Mar 27 08:23:28 2020


#       File generated by GOLD software.
#

@<TRIPOS>MOLECULE
AV-unprocessed.smi:1741
    43    44     1
SMALL
NO_CHARGES


@<TRIPOS>ATOM
      1 ****        -6.2701   0.5459   1.2278 C.3            1 S1                 0.0000
      2 ****        -5.5011   0.2634  -0.0685 C.3            1 S1                 0.0000
      3 ****        -4.2064   0.9159  -0.0780 N.pl3          1 S1                 0.0000
      4 ****        -2.9683   0.3605   0.1783 C.2            1 S1                 0.0000
      5 ****        -2.0713   1.3834   0.0504 C.2            1 S1                 0.0000
      6 ****        -0.6627   1.3708   0.2108 N.am           1 S1                 0.0000
      7 ****         0.1150   0.3187   0.5136 C.2            1 S1                 0.0000
      8 ****        -0.2886  -0.8310   0.6895 O.2            1 S1                 0.0000
      9 ****         1.4046   0.6773   0.5941 N.am           1 S1                 0.0000
     10 ****         2.5253  -0.2100   0.9022 C.3            1 S1                 0.0000
     11 ****         3.4093   0.4607   1.9639 C.3            1 S1                 0.0000
     12 ****         3.3192  -0.5408  -0.3785 C.3            1 S1                 0.0000
     13 ****         2.5119  -1.2240  -1.4836 C.3            1 S1                 0.0000
     14 ****         3.6029  -1.8937  -2.2868 C.3            1 S1                 0.0000
     15 ****         4.5674  -2.3477  -1.1943 C.3            1 S1                 0.0000
     16 ****         4.3686  -1.4626  -0.0942 O.3            1 S1                 0.0000
     17 ****        -2.8368   2.5299  -0.2857 C.2            1 S1                 0.0000
     18 ****        -4.1265   2.2396  -0.3624 N.2            1 S1                 0.0000
     19 ****        -7.2357   0.0401   1.2238 H              1 S1                 0.0000
     20 ****        -6.4546   1.6132   1.3536 H              1 S1                 0.0000
     21 ****        -5.7146   0.1965   2.0987 H              1 S1                 0.0000
     22 ****        -5.3518  -0.8099  -0.1906 H              1 S1                 0.0000
     23 ****        -6.0739   0.6043  -0.9320 H              1 S1                 0.0000
     24 ****        -2.8480  -0.6843   0.4240 H              1 S1                 0.0000
     25 ****        -0.1982   2.2580   0.0837 H              1 S1                 0.0000
     26 ****         1.6333   1.6465   0.4292 H              1 S1                 0.0000
     27 ****         2.1532  -1.1435   1.3283 H              1 S1                 0.0000
     28 ****         4.2370  -0.1870   2.2538 H              1 S1                 0.0000
     29 ****         2.8389   0.6839   2.8660 H              1 S1                 0.0000
     30 ****         3.8329   1.3961   1.5966 H              1 S1                 0.0000
     31 ****         3.7740   0.3654  -0.7826 H              1 S1                 0.0000
     32 ****         1.8427  -1.9762  -1.0631 H              1 S1                 0.0000
     33 ****         1.9165  -0.5257  -2.0724 H              1 S1                 0.0000
     34 ****         3.2406  -2.7154  -2.9051 H              1 S1                 0.0000
     35 ****         4.0880  -1.1640  -2.9366 H              1 S1                 0.0000
     36 ****         4.3296  -3.3610  -0.8694 H              1 S1                 0.0000
     37 ****         5.6042  -2.3349  -1.5307 H              1 S1                 0.0000
     38 ****        -2.5077   3.5415  -0.4723 H              1 S1                 0.0000
     39 ****        -1.2640  -1.0363   0.6092 LP             1 S1                 0.0000
     40 ****         0.3590  -1.5596   0.9126 LP             1 S1                 0.0000
     41 ****         4.1280  -1.9951   0.7173 LP             1 S1                 0.0000
     42 ****         5.2137  -0.9564   0.0777 LP             1 S1                 0.0000
     43 ****        -4.8782   2.8613  -0.5823 LP             1 S1                 0.0000
@<TRIPOS>BOND
    1    1    2 1     
    2    1   19 1     
    3    1   20 1     
    4    1   21 1     
    5    2    3 1     
    6    2   22 1     
    7    2   23 1     
    8    3   18 1     
    9    3    4 1     
   10    4    5 2     
   11    4   24 1     
   12    5    6 1     
   13    5   17 1     
   14    6    7 am    
   15    6   25 1     
   16    7    8 2     
   17    7    9 am    
   18    9   10 1     
   19    9   26 1     
   20   10   11 1     
   21   10   12 1     
   22   10   27 1     
   23   11   28 1     
   24   11   29 1     
   25   11   30 1     
   26   12   16 1     
   27   12   13 1     
   28   12   31 1     
   29   13   14 1     
   30   13   32 1     
   31   13   33 1     
   32   14   15 1     
   33   14   34 1     
   34   14   35 1     
   35   15   16 1     
   36   15   36 1     
   37   15   37 1     
   38   17   18 2     
   39   17   38 1     
   40    8   39 1     
   41    8   40 1     
   42   16   41 1     
   43   16   42 1     
   44   18   43 1     
@<TRIPOS>SUBSTRUCTURE
      1 S1             1
@<TRIPOS>SET
LONE_PAIRS      STATIC     ATOMS    <user>   **** ""
5 39 40 41 42 43
DONOR_HYDROGENS      STATIC     ATOMS    <user>   **** ""
2 25 26
ATOM$BLUE        STATIC     ATOMS    COLORGROUP SYSTEM
5 39 40 41 42 43
ATOM$RED        STATIC     ATOMS    COLORGROUP SYSTEM
2 25 26
