AV-unprocessed.smi:2603|AV-procd|sdf|10185|dock4
  -GOLD-   2272014203D 1   1.00000     0.00000
 Structure written by MMmdl.
 35 36  0  0  0  0  0  0  0  0  1 V2000
  152.7771  142.1437  160.2667 C   0  0  0  0  0  0  0  0  0  0  0  0
  152.2917  143.4808  159.7018 C   0  0  0  0  0  0  0  0  0  0  0  0
  152.1685  143.3690  158.2950 O   0  0  0  0  0  0  0  0  0  0  0  0
  150.9050  142.8590  157.9107 C   0  0  2  0  0  0  0  0  0  0  0  0
  150.8220  141.3584  157.9171 C   0  0  0  0  0  0  0  0  0  0  0  0
  150.9644  142.1054  156.6026 C   0  0  1  0  0  0  0  0  0  0  0  0
  149.8207  142.1740  155.7534 N   0  0  0  0  0  0  0  0  0  0  0  0
  149.5044  141.2897  154.7959 C   0  0  0  0  0  0  0  0  0  0  0  0
  150.1821  140.2969  154.5308 O   0  0  0  0  0  0  0  0  0  0  0  0
  148.2167  141.5641  154.0196 C   0  0  0  0  0  0  0  0  0  0  0  0
  147.1258  141.9705  154.9765 C   0  0  0  0  0  0  0  0  0  0  0  0
  146.0540  142.8841  154.7583 C   0  0  0  0  0  0  0  0  0  0  0  0
  145.7369  143.6817  153.5258 C   0  0  0  0  0  0  0  0  0  0  0  0
  145.2835  143.0057  155.8260 N   0  0  0  0  0  0  0  0  0  0  0  0
  145.8338  142.1606  156.7944 O   0  0  0  0  0  0  0  0  0  0  0  0
  146.9289  141.5577  156.2654 C   0  0  0  0  0  0  0  0  0  0  0  0
  147.6705  140.6145  157.1508 C   0  0  0  0  0  0  0  0  0  0  0  0
  152.8889  142.1959  161.3497 H   0  0  0  0  0  0  0  0  0  0  0  0
  153.7431  141.8672  159.8434 H   0  0  0  0  0  0  0  0  0  0  0  0
  152.0703  141.3447  160.0413 H   0  0  0  0  0  0  0  0  0  0  0  0
  151.3299  143.7456  160.1440 H   0  0  0  0  0  0  0  0  0  0  0  0
  153.0004  144.2711  159.9537 H   0  0  0  0  0  0  0  0  0  0  0  0
  150.0381  143.4761  158.1429 H   0  0  0  0  0  0  0  0  0  0  0  0
  151.6876  140.8054  158.2771 H   0  0  0  0  0  0  0  0  0  0  0  0
  149.8567  140.9105  158.1451 H   0  0  0  0  0  0  0  0  0  0  0  0
  151.9404  142.0466  156.1226 H   0  0  0  0  0  0  0  0  0  0  0  0
  149.1987  142.9567  155.8941 H   0  0  0  0  0  0  0  0  0  0  0  0
  148.3990  142.3351  153.2699 H   0  0  0  0  0  0  0  0  0  0  0  0
  147.9437  140.6660  153.4644 H   0  0  0  0  0  0  0  0  0  0  0  0
  146.2749  144.6299  153.5281 H   0  0  0  0  0  0  0  0  0  0  0  0
  144.6714  143.9030  153.4546 H   0  0  0  0  0  0  0  0  0  0  0  0
  146.0202  143.1414  152.6226 H   0  0  0  0  0  0  0  0  0  0  0  0
  148.6553  141.0121  157.3960 H   0  0  0  0  0  0  0  0  0  0  0  0
  147.8080  139.6510  156.6597 H   0  0  0  0  0  0  0  0  0  0  0  0
  147.1327  140.4439  158.0839 H   0  0  0  0  0  0  0  0  0  0  0  0
  1  2  1  0  0  0  0
  1 18  1  0  0  0  0
  1 19  1  0  0  0  0
  1 20  1  0  0  0  0
  2  3  1  0  0  0  0
  2 21  1  0  0  0  0
  2 22  1  0  0  0  0
  3  4  1  0  0  0  0
  4  6  1  0  0  0  0
  4  5  1  0  0  0  0
  4 23  1  0  0  0  0
  5  6  1  0  0  0  0
  5 24  1  0  0  0  0
  5 25  1  0  0  0  0
  6  7  1  0  0  0  0
  6 26  1  0  0  0  0
  7  8  1  0  0  0  0
  7 27  1  0  0  0  0
  8  9  2  0  0  0  0
  8 10  1  0  0  0  0
 10 11  1  0  0  0  0
 10 28  1  0  0  0  0
 10 29  1  0  0  0  0
 11 16  2  0  0  0  0
 11 12  1  0  0  0  0
 12 13  1  0  0  0  0
 12 14  2  0  0  0  0
 13 30  1  0  0  0  0
 13 31  1  0  0  0  0
 13 32  1  0  0  0  0
 14 15  1  0  0  0  0
 15 16  1  0  0  0  0
 16 17  1  0  0  0  0
 17 33  1  0  0  0  0
 17 34  1  0  0  0  0
 17 35  1  0  0  0  0
M  END
> <s_m_source_file>
AV-unprocessed.smi

> <i_m_source_file_index>
2603

> <i_lp_mmshare_version>
43012

> <i_f3d_flags>
0

> <s_epik_input>
W0NIM11bQ0gyXU9bQ0BASF0xW0NIMl1bQ0BIXTFbTkhdQyg9TylbQ0gyXWMyYyhbQ0gzXSlub2MyW0NIM10=

> <s_epik_cmdline>
J2VwaWtfcHl0aG9uJywgJy1waCcsICc3LjAnLCAnLXRuJywgJzgnLCAnLW1hJywgJzIwMCcsICctbWV0YWxfYmluZGluZycsICctaW1hZScsICc8aW5maWxlLm1hZT4nLCAnLW9tYWUnLCAnPG91dGZpbGUubWFlPic=

> <r_lp_tautomer_probability>
1

> <r_epik_Ionization_Penalty>
2.37325e-08

> <r_epik_Ionization_Penalty_Charging>
0

> <r_epik_Ionization_Penalty_Neutral>
2.37325e-08

> <r_epik_State_Penalty>
-0

> <r_epik_Charging_Adjusted_Penalty>
0

> <i_epik_Tot_Q>
0

> <i_epik_Tot_abs_Q>
0

> <r_epik_Metal_State_Penalty>
-0

> <b_epik_Metal_Only>
0

> <s_lp_Force_Field>
OPLS_2005

> <r_lp_Energy>
10.4269

> <b_lp_Chiralities_Consistent>
1

> <s_lp_Variant>
AV-unprocessed.smi:2603-1

> <Gold.Version>
5.8.1

> <Gold.Id.Protein>
6NUR|6NUR_protein|mol2

> <Gold.PLP.Fitness>
39.4745

> <Gold.PLP.PLP>
-35.5721

> <Gold.PLP.part.hbond>
-2.0000

> <Gold.PLP.part.metal>
0.0000

> <Gold.PLP.part.buried>
-4.7507

> <Gold.PLP.part.nonpolar>
-28.8268

> <Gold.PLP.part.repulsive>
0.5206

> <Gold.PLP.ligand.clash>
0.0000

> <Gold.PLP.ligand.torsion>
1.3807

> <Gold.PLP.Chemscore.Hbond>
1.9920

> <Gold.PLP.Chemscore.CHOScore>
0.0000

> <Gold.PLP.Chemscore.Metal>
0.0000

> <Gold.Chemscore.Hbonds>
donor molecule, donor type, donor heavy atom, donor atom, acceptor molecule, acceptor atom, score
      L1  H     7    27       P1  8028  0.96
      P1  H  7989  7998       L1     9  1.00

> <Gold.PLP.Chemscore.Internal.Correction>
0.6877

> <Gold.Rescore>
     Score         DG    S(hbond)    S(metal)    S(lipo)     H(rot)  DE(clash)    DE(int)     intcor
     14.72     -15.82       1.68        0.00      77.44       1.69       0.13       0.96       ----

> <Gold.Chemscore.Fitness>
14.7241

> <Gold.Chemscore.DG>
-15.8166

> <Gold.Chemscore.ZeroCoef>
-5.4800

> <Gold.Chemscore.Hbond>
1.6800

> <Gold.Chemscore.Metal>
0.0000

> <Gold.Chemscore.Lipo>
77.4364

> <Gold.Chemscore.Internal_Hbond>
0.0000

> <Gold.Chemscore.DEClash>
0.1326

> <Gold.Chemscore.DEInternal>
0.9600

> <Gold.Chemscore.Rot>
1.6933

> <Gold.Chemscore.Internal.Correction>
   9.000000E+99

> <Gold.Chemscore.Hbonds>
donor molecule, donor type, donor heavy atom, donor atom, acceptor molecule, acceptor atom, score
      L1  H     7    27       P1  8028  0.92
      P1  H  7989  7998       L1     9  0.58

> <Gold.Chemscore.Hbond.Weighted>
-5.6113

> <Gold.Chemscore.Metal.Weighted>
-0.0000

> <Gold.Chemscore.Lipo.Weighted>
-9.0601

> <Gold.Chemscore.Internal_Hbond.Weighted>
0.0000

> <Gold.Chemscore.DEClash.Weighted>
0.1326

> <Gold.Chemscore.DEInternal.Weighted>
0.9600

> <Gold.Chemscore.Rot.Weighted>
4.3348

> <Gold.Chemscore.Internal.Correction.Weighted>
   9.000000E+99

> <Gold.Protein.RotatedTorsions>
[ 6907 6896 6895 6894 ] final -137.31 input  -60.11 | X-H torsion
[ 7974 7965 7964 7962 ] final   53.18 input  175.53 | X-H torsion
[ 8008 7997 7996 7995 ] final  -67.38 input   59.86 | X-H torsion
[ 10167 10162 10161 10158 ] final -101.58 input  -65.29 | X-H torsion
[ 10718 10713 10712 10709 ] final  -26.29 input   66.30 | X-H torsion
[ 10763 10752 10751 10750 ] final -142.96 input  -60.55 | X-H torsion
[ 11005 11000 10999 10996 ] final   59.17 input  -57.11 | X-H torsion

> <Gold.Protein.ActiveResidues>
 VAL166  LYS551  ARG553  GLY616  TRP617  ASP618  TYR619  PRO620  LYS621  CYS622 
 ASP623  PHE694  ASN695  SER759  ASP760  ASP761  ALA762  ILE779  LEU786  VAL792 
 PHE793  MET794  SER795  GLU796  ALA797  LYS798  CYS799  TRP800  GLU811  SER814 

> <Gold.Protein.RotatedAtoms>
  151.0209  133.5877  159.2671 H   0  0  0  0  0  0  0  0  0  0  0  0  # atno 6907 bound_to 6896
  151.2995  135.0763  159.9243 H   0  0  0  0  0  0  0  0  0  0  0  0  # atno 6908 bound_to 6896
  152.5323  133.9893  159.7897 H   0  0  0  0  0  0  0  0  0  0  0  0  # atno 6909 bound_to 6896
  145.9738  139.4175  143.0174 H   0  0  0  0  0  0  0  0  0  0  0  0  # atno 7974 bound_to 7965
  154.4796  140.0894  156.7345 H   0  0  0  0  0  0  0  0  0  0  0  0  # atno 8008 bound_to 7997
  155.4505  140.3457  155.4282 H   0  0  0  0  0  0  0  0  0  0  0  0  # atno 8009 bound_to 7997
  156.1170  140.1463  156.9246 H   0  0  0  0  0  0  0  0  0  0  0  0  # atno 8010 bound_to 7997
  140.2398  143.3547  152.0812 H   0  0  0  0  0  0  0  0  0  0  0  0  # atno 10167 bound_to 10162
  156.4531  130.4488  149.6977 H   0  0  0  0  0  0  0  0  0  0  0  0  # atno 10718 bound_to 10713
  154.8489  135.3481  154.6111 H   0  0  0  0  0  0  0  0  0  0  0  0  # atno 10763 bound_to 10752
  153.6719  135.6984  153.5149 H   0  0  0  0  0  0  0  0  0  0  0  0  # atno 10764 bound_to 10752
  153.2735  135.4285  155.0967 H   0  0  0  0  0  0  0  0  0  0  0  0  # atno 10765 bound_to 10752
  140.0323  134.5993  155.9490 H   0  0  0  0  0  0  0  0  0  0  0  0  # atno 11005 bound_to 11000
  145.7868  140.9832  143.1070 LP  0  0  0  0  0  0  0  0  0  0  0  0  # atno 17320 bound_to 7965
  144.6843  139.9632  143.7480 LP  0  0  0  0  0  0  0  0  0  0  0  0  # atno 17321 bound_to 7965
  139.5081  144.6844  151.5926 LP  0  0  0  0  0  0  0  0  0  0  0  0  # atno 17342 bound_to 10162
  140.6122  143.9415  150.6462 LP  0  0  0  0  0  0  0  0  0  0  0  0  # atno 17343 bound_to 10162
  156.3795  130.7572  151.2563 LP  0  0  0  0  0  0  0  0  0  0  0  0  # atno 17370 bound_to 10713
  157.7502  131.0300  150.4116 LP  0  0  0  0  0  0  0  0  0  0  0  0  # atno 17371 bound_to 10713
  141.1838  133.6551  156.5131 LP  0  0  0  0  0  0  0  0  0  0  0  0  # atno 17394 bound_to 11000
  140.4204  134.7192  157.4887 LP  0  0  0  0  0  0  0  0  0  0  0  0  # atno 17395 bound_to 11000

$$$$
