#       Name:                AV-unprocessed.smi:744
#       Creating user name   scv26
#       Creation time:       Fri Mar 27 00:56:28 2020


#       File generated by GOLD software.
#

@<TRIPOS>MOLECULE
AV-unprocessed.smi:744
    39    40     1
SMALL
NO_CHARGES


@<TRIPOS>ATOM
      1 ****         0.0486   1.8390  -0.2962 O.2            1 S1                 0.0000
      2 ****        -0.5145   0.8524  -0.7717 C.2            1 S1                 0.0000
      3 ****         0.1411  -0.2352  -1.2022 N.am           1 S1                 0.0000
      4 ****         1.5894  -0.4096  -1.1652 C.3            1 S1                 0.0000
      5 ****         2.0851  -0.8325   0.2342 C.3            1 S1                 0.0000
      6 ****         1.5061  -2.1540   0.7577 C.3            1 S1                 0.0000
      7 ****         2.5033  -2.6584   1.8120 C.3            1 S1                 0.0000
      8 ****         3.7575  -1.7787   1.6866 C.3            1 S1                 0.0000
      9 ****         3.6047  -1.0082   0.3710 C.3            1 S1                 0.0000
     10 ****         4.1361  -1.7893  -0.6836 O.3            1 S1                 0.0000
     11 ****        -1.8430   0.7130  -0.9266 N.am           1 S1                 0.0000
     12 ****        -2.8679   1.6404  -0.5988 C.ar           1 S1                 0.0000
     13 ****        -4.1829   1.1998  -0.8714 C.ar           1 S1                 0.0000
     14 ****        -5.2709   2.0466  -0.5840 C.ar           1 S1                 0.0000
     15 ****        -5.0158   3.3144  -0.0313 C.ar           1 S1                 0.0000
     16 ****        -3.6774   3.6756   0.2093 C.ar           1 S1                 0.0000
     17 ****        -2.6332   2.8654  -0.0650 N.ar           1 S1                 0.0000
     18 ****        -0.3993  -1.0007  -1.5777 H              1 S1                 0.0000
     19 ****         1.8477  -1.1665  -1.9062 H              1 S1                 0.0000
     20 ****         2.0839   0.5109  -1.4796 H              1 S1                 0.0000
     21 ****         1.7982  -0.0530   0.9426 H              1 S1                 0.0000
     22 ****         0.5028  -2.0281   1.1664 H              1 S1                 0.0000
     23 ****         1.4398  -2.8796  -0.0541 H              1 S1                 0.0000
     24 ****         2.0856  -2.5878   2.8171 H              1 S1                 0.0000
     25 ****         2.7432  -3.7070   1.6327 H              1 S1                 0.0000
     26 ****         3.7749  -1.0684   2.5143 H              1 S1                 0.0000
     27 ****         4.6829  -2.3539   1.7397 H              1 S1                 0.0000
     28 ****         4.1261  -0.0507   0.3974 H              1 S1                 0.0000
     29 ****         4.0127  -1.3207  -1.4949 H              1 S1                 0.0000
     30 ****        -2.1583  -0.1576  -1.3277 H              1 S1                 0.0000
     31 ****        -4.3612   0.2226  -1.2967 H              1 S1                 0.0000
     32 ****        -6.2833   1.7283  -0.7848 H              1 S1                 0.0000
     33 ****        -5.8239   3.9918   0.2022 H              1 S1                 0.0000
     34 ****        -3.4383   4.6398   0.6330 H              1 S1                 0.0000
     35 ****         1.0452   1.8555  -0.2157 LP             1 S1                 0.0000
     36 ****        -0.4908   2.6236   0.0095 LP             1 S1                 0.0000
     37 ****         3.6603  -2.6679  -0.7256 LP             1 S1                 0.0000
     38 ****         5.1117  -1.9456  -0.5292 LP             1 S1                 0.0000
     39 ****        -1.6977   3.1645   0.1231 LP             1 S1                 0.0000
@<TRIPOS>BOND
    1    1    2 2     
    2    2    3 am    
    3    2   11 am    
    4    3    4 1     
    5    3   18 1     
    6    4    5 1     
    7    4   19 1     
    8    4   20 1     
    9    5    9 1     
   10    5    6 1     
   11    5   21 1     
   12    6    7 1     
   13    6   22 1     
   14    6   23 1     
   15    7    8 1     
   16    7   24 1     
   17    7   25 1     
   18    8    9 1     
   19    8   26 1     
   20    8   27 1     
   21    9   10 1     
   22    9   28 1     
   23   10   29 1     
   24   11   12 1     
   25   11   30 1     
   26   12   17 ar    
   27   12   13 ar    
   28   13   14 ar    
   29   13   31 1     
   30   14   15 ar    
   31   14   32 1     
   32   15   16 ar    
   33   15   33 1     
   34   16   17 ar    
   35   16   34 1     
   36    1   35 1     
   37    1   36 1     
   38   10   37 1     
   39   10   38 1     
   40   17   39 1     
@<TRIPOS>SUBSTRUCTURE
      1 S1             1
@<TRIPOS>SET
LONE_PAIRS      STATIC     ATOMS    <user>   **** ""
5 35 36 37 38 39
DONOR_HYDROGENS      STATIC     ATOMS    <user>   **** ""
3 18 29 30
ATOM$BLUE        STATIC     ATOMS    COLORGROUP SYSTEM
5 35 36 37 38 39
ATOM$RED        STATIC     ATOMS    COLORGROUP SYSTEM
3 18 29 30
