AV-unprocessed.smi:17|AV-procd|sdf|103|dock4
  -GOLD-   2262015253D 1   1.00000     0.00000
 Structure written by MMmdl.
 57 59  0  0  0  0  0  0  0  0  1 V2000
  146.6866  137.3982  162.7309 C   0  0  0  0  0  0  0  0  0  0  0  0
  147.9713  136.6713  162.3024 C   0  0  0  0  0  0  0  0  0  0  0  0
  147.8522  136.0051  161.0020 N   0  0  0  0  0  0  0  0  0  0  0  0
  147.8927  136.7793  159.8828 C   0  0  0  0  0  0  0  0  0  0  0  0
  146.7786  137.4665  159.5137 N   0  0  0  0  0  0  0  0  0  0  0  0
  146.7807  138.2292  158.4176 C   0  0  0  0  0  0  0  0  0  0  0  0
  147.7747  138.4471  157.5564 N   0  0  0  0  0  0  0  0  0  0  0  0
  148.8983  137.7655  157.9178 C   0  0  0  0  0  0  0  0  0  0  0  0
  149.0435  136.9141  159.0511 C   0  0  0  0  0  0  0  0  0  0  0  0
  150.3381  136.4070  159.0889 N   0  0  0  0  0  0  0  0  0  0  0  0
  150.9212  136.9261  158.0438 C   0  0  0  0  0  0  0  0  0  0  0  0
  150.1309  137.7600  157.2884 N   0  0  0  0  0  0  0  0  0  0  0  0
  150.5286  138.4718  156.0860 C   0  0  0  0  0  0  0  0  0  0  0  0
  151.2410  139.8193  156.3798 C   0  0  2  0  0  0  0  0  0  0  0  0
  152.0288  139.7652  157.7144 C   0  0  0  0  0  0  0  0  0  0  0  0
  153.2341  139.0418  157.5734 O   0  0  0  0  0  0  0  0  0  0  0  0
  150.2485  141.0193  156.2943 C   0  0  2  0  0  0  0  0  0  0  0  0
  150.9150  142.3822  156.4615 C   0  0  0  0  0  0  0  0  0  0  0  0
  150.9373  142.5970  157.9770 C   0  0  0  0  0  0  0  0  0  0  0  0
  149.9706  141.7014  158.5152 O   0  0  0  0  0  0  0  0  0  0  0  0
  149.2411  141.1161  157.4474 C   0  0  0  0  0  0  0  0  0  0  0  0
  148.0662  134.5559  160.8775 C   0  0  1  0  0  0  0  0  0  0  0  0
  147.0767  133.7582  161.7441 C   0  0  0  0  0  0  0  0  0  0  0  0
  148.0493  134.0761  159.4100 C   0  0  0  0  0  0  0  0  0  0  0  0
  148.7144  132.3610  159.1953 S   0  0  0  0  0  0  0  0  0  0  0  0
  147.4081  131.5398  158.1925 C   0  0  0  0  0  0  0  0  0  0  0  0
  149.9448  132.4125  158.3906 O   0  0  0  0  0  0  0  0  0  0  0  0
  148.7308  131.7136  160.5156 O   0  0  0  0  0  0  0  0  0  0  0  0
  146.8362  137.9126  163.6800 H   0  0  0  0  0  0  0  0  0  0  0  0
  145.8570  136.7036  162.8631 H   0  0  0  0  0  0  0  0  0  0  0  0
  146.3843  138.1440  161.9959 H   0  0  0  0  0  0  0  0  0  0  0  0
  148.7773  137.4023  162.2584 H   0  0  0  0  0  0  0  0  0  0  0  0
  148.2726  135.9589  163.0680 H   0  0  0  0  0  0  0  0  0  0  0  0
  145.8538  138.7391  158.2000 H   0  0  0  0  0  0  0  0  0  0  0  0
  151.9526  136.7202  157.7968 H   0  0  0  0  0  0  0  0  0  0  0  0
  151.1676  137.7993  155.5169 H   0  0  0  0  0  0  0  0  0  0  0  0
  149.6442  138.6397  155.4703 H   0  0  0  0  0  0  0  0  0  0  0  0
  151.9881  139.9597  155.5973 H   0  0  0  0  0  0  0  0  0  0  0  0
  152.2653  140.7657  158.0750 H   0  0  0  0  0  0  0  0  0  0  0  0
  151.4358  139.3155  158.5089 H   0  0  0  0  0  0  0  0  0  0  0  0
  153.0237  138.1301  157.4404 H   0  0  0  0  0  0  0  0  0  0  0  0
  149.7179  140.9679  155.3425 H   0  0  0  0  0  0  0  0  0  0  0  0
  151.9031  142.4755  156.0149 H   0  0  0  0  0  0  0  0  0  0  0  0
  150.2864  143.1463  156.0014 H   0  0  0  0  0  0  0  0  0  0  0  0
  151.9140  142.3537  158.3958 H   0  0  0  0  0  0  0  0  0  0  0  0
  150.7024  143.6287  158.2396 H   0  0  0  0  0  0  0  0  0  0  0  0
  148.4311  141.7944  157.1743 H   0  0  0  0  0  0  0  0  0  0  0  0
  148.7749  140.1769  157.7378 H   0  0  0  0  0  0  0  0  0  0  0  0
  149.0605  134.3107  161.2509 H   0  0  0  0  0  0  0  0  0  0  0  0
  147.3085  132.6931  161.7208 H   0  0  0  0  0  0  0  0  0  0  0  0
  146.0503  133.8787  161.3972 H   0  0  0  0  0  0  0  0  0  0  0  0
  147.1179  134.0779  162.7856 H   0  0  0  0  0  0  0  0  0  0  0  0
  147.0160  134.0446  159.0639 H   0  0  0  0  0  0  0  0  0  0  0  0
  148.5790  134.7483  158.7364 H   0  0  0  0  0  0  0  0  0  0  0  0
  147.6382  130.4785  158.1037 H   0  0  0  0  0  0  0  0  0  0  0  0
  147.3732  131.9757  157.1970 H   0  0  0  0  0  0  0  0  0  0  0  0
  146.4405  131.6589  158.6793 H   0  0  0  0  0  0  0  0  0  0  0  0
  1  2  1  0  0  0  0
  1 29  1  0  0  0  0
  1 30  1  0  0  0  0
  1 31  1  0  0  0  0
  2  3  1  0  0  0  0
  2 32  1  0  0  0  0
  2 33  1  0  0  0  0
  3  4  1  0  0  0  0
  3 22  1  0  0  0  0
  4  9  1  0  0  0  0
  4  5  2  0  0  0  0
  5  6  1  0  0  0  0
  6  7  2  0  0  0  0
  6 34  1  0  0  0  0
  7  8  1  0  0  0  0
  8 12  1  0  0  0  0
  8  9  2  0  0  0  0
  9 10  1  0  0  0  0
 10 11  2  0  0  0  0
 11 12  1  0  0  0  0
 11 35  1  0  0  0  0
 12 13  1  0  0  0  0
 13 14  1  0  0  0  0
 13 36  1  0  0  0  0
 13 37  1  0  0  0  0
 14 15  1  0  0  0  0
 14 17  1  0  0  0  0
 14 38  1  0  0  0  0
 15 16  1  0  0  0  0
 15 39  1  0  0  0  0
 15 40  1  0  0  0  0
 16 41  1  0  0  0  0
 17 21  1  0  0  0  0
 17 18  1  0  0  0  0
 17 42  1  0  0  0  0
 18 19  1  0  0  0  0
 18 43  1  0  0  0  0
 18 44  1  0  0  0  0
 19 20  1  0  0  0  0
 19 45  1  0  0  0  0
 19 46  1  0  0  0  0
 20 21  1  0  0  0  0
 21 47  1  0  0  0  0
 21 48  1  0  0  0  0
 22 23  1  0  0  0  0
 22 24  1  0  0  0  0
 22 49  1  0  0  0  0
 23 50  1  0  0  0  0
 23 51  1  0  0  0  0
 23 52  1  0  0  0  0
 24 25  1  0  0  0  0
 24 53  1  0  0  0  0
 24 54  1  0  0  0  0
 25 26  1  0  0  0  0
 25 27  2  0  0  0  0
 25 28  2  0  0  0  0
 26 55  1  0  0  0  0
 26 56  1  0  0  0  0
 26 57  1  0  0  0  0
M  END
> <s_m_source_file>
AV-unprocessed.smi

> <i_m_source_file_index>
17

> <i_lp_mmshare_version>
43012

> <i_f3d_flags>
0

> <s_epik_input>
W0NIM11TKD1PKSg9TylbQ0gyXVtDQEBIXShbQ0gzXSlOKFtDSDJdW0NIM10pYyhuW2NIXW4xKWMoYzEyKW5bY0hdbjJbQ0gyXVtDQEhdKFtDSDJdW09IXSlbQ0BASF0zW0NIMl1bQ0gyXU9bQ0gyXTM=

> <s_epik_cmdline>
J2VwaWtfcHl0aG9uJywgJy1waCcsICc3LjAnLCAnLXRuJywgJzgnLCAnLW1hJywgJzIwMCcsICctbWV0YWxfYmluZGluZycsICctaW1hZScsICc8aW5maWxlLm1hZT4nLCAnLW9tYWUnLCAnPG91dGZpbGUubWFlPic=

> <r_lp_tautomer_probability>
1

> <r_epik_Ionization_Penalty>
0.00119955

> <r_epik_Ionization_Penalty_Charging>
0

> <r_epik_Ionization_Penalty_Neutral>
0.00119955

> <r_epik_State_Penalty>
0.000665399

> <r_epik_Charging_Adjusted_Penalty>
0.000665399

> <i_epik_Tot_Q>
0

> <i_epik_Tot_abs_Q>
0

> <r_epik_Metal_State_Penalty>
-0

> <b_epik_Metal_Only>
0

> <s_lp_Force_Field>
OPLS_2005

> <r_lp_Energy>
34.7732

> <b_lp_Chiralities_Consistent>
1

> <s_lp_Variant>
AV-unprocessed.smi:17-5

> <Gold.Version>
5.8.1

> <Gold.Id.Protein>
6NUR|6NUR_protein|mol2

> <Gold.PLP.Fitness>
41.7423

> <Gold.PLP.PLP>
-35.0501

> <Gold.PLP.part.hbond>
-4.1977

> <Gold.PLP.part.metal>
0.0000

> <Gold.PLP.part.buried>
-1.0714

> <Gold.PLP.part.nonpolar>
-28.0013

> <Gold.PLP.part.repulsive>
0.0307

> <Gold.PLP.ligand.clash>
0.0458

> <Gold.PLP.ligand.torsion>
2.8362

> <Gold.PLP.Chemscore.Hbond>
3.5177

> <Gold.PLP.Chemscore.CHOScore>
0.0000

> <Gold.PLP.Chemscore.Metal>
0.0000

> <Gold.Chemscore.Hbonds>
donor molecule, donor type, donor heavy atom, donor atom, acceptor molecule, acceptor atom, score
      P1  H  6896  6907       L1    10  1.00
      P1  H  6896  6909       L1    27  1.00
      P1  H  6934  6947       L1     5  0.37
      P1  H  7997  8009       L1    16  1.00

> <Gold.PLP.Chemscore.Internal.Correction>
1.8572

> <Gold.Rescore>
     Score         DG    S(hbond)    S(metal)    S(lipo)     H(rot)  DE(clash)    DE(int)     intcor
      7.77     -14.86       2.72        0.00      79.31       3.51       0.05       7.05       ----

> <Gold.Chemscore.Fitness>
7.7689

> <Gold.Chemscore.DG>
-14.8633

> <Gold.Chemscore.ZeroCoef>
-5.4800

> <Gold.Chemscore.Hbond>
2.7181

> <Gold.Chemscore.Metal>
0.0000

> <Gold.Chemscore.Lipo>
79.3133

> <Gold.Chemscore.Internal_Hbond>
0.0000

> <Gold.Chemscore.DEClash>
0.0477

> <Gold.Chemscore.DEInternal>
7.0467

> <Gold.Chemscore.Rot>
3.5059

> <Gold.Chemscore.Internal.Correction>
   9.000000E+99

> <Gold.Chemscore.Hbonds>
donor molecule, donor type, donor heavy atom, donor atom, acceptor molecule, acceptor atom, score
      P1  H  6896  6907       L1    10  0.96
      P1  H  6896  6909       L1    27  0.69
      P1  H  7997  8009       L1    16  0.70

> <Gold.Chemscore.Hbond.Weighted>
-9.0786

> <Gold.Chemscore.Metal.Weighted>
-0.0000

> <Gold.Chemscore.Lipo.Weighted>
-9.2797

> <Gold.Chemscore.Internal_Hbond.Weighted>
0.0000

> <Gold.Chemscore.DEClash.Weighted>
0.0477

> <Gold.Chemscore.DEInternal.Weighted>
7.0467

> <Gold.Chemscore.Rot.Weighted>
8.9750

> <Gold.Chemscore.Internal.Correction.Weighted>
   9.000000E+99

> <Gold.Protein.RotatedTorsions>
[ 6907 6896 6895 6894 ] final  -31.64 input  -60.11 | X-H torsion
[ 7974 7965 7964 7962 ] final  141.10 input  175.53 | X-H torsion
[ 8008 7997 7996 7995 ] final  174.70 input   59.86 | X-H torsion
[ 10167 10162 10161 10158 ] final  109.31 input  -65.29 | X-H torsion
[ 10718 10713 10712 10709 ] final   88.56 input   66.30 | X-H torsion
[ 10763 10752 10751 10750 ] final   66.82 input  -60.55 | X-H torsion
[ 11005 11000 10999 10996 ] final  111.49 input  -57.11 | X-H torsion

> <Gold.Protein.ActiveResidues>
 VAL166  LYS551  ARG553  GLY616  TRP617  ASP618  TYR619  PRO620  LYS621  CYS622 
 ASP623  PHE694  ASN695  SER759  ASP760  ASP761  ALA762  ILE779  LEU786  VAL792 
 PHE793  MET794  SER795  GLU796  ALA797  LYS798  CYS799  TRP800  GLU811  SER814 

> <Gold.Protein.RotatedAtoms>
  151.0894  134.9907  159.8394 H   0  0  0  0  0  0  0  0  0  0  0  0  # atno 6907 bound_to 6896
  152.5427  134.2084  159.8750 H   0  0  0  0  0  0  0  0  0  0  0  0  # atno 6908 bound_to 6896
  151.2119  133.4507  159.2632 H   0  0  0  0  0  0  0  0  0  0  0  0  # atno 6909 bound_to 6896
  144.9126  139.5272  143.5701 H   0  0  0  0  0  0  0  0  0  0  0  0  # atno 7974 bound_to 7965
  156.0947  140.1427  156.9547 H   0  0  0  0  0  0  0  0  0  0  0  0  # atno 8008 bound_to 7997
  154.4664  140.0925  156.7077 H   0  0  0  0  0  0  0  0  0  0  0  0  # atno 8009 bound_to 7997
  155.4861  140.3446  155.4349 H   0  0  0  0  0  0  0  0  0  0  0  0  # atno 8010 bound_to 7997
  139.6777  144.7121  151.1573 H   0  0  0  0  0  0  0  0  0  0  0  0  # atno 10167 bound_to 10162
  157.6950  131.0299  150.3293 H   0  0  0  0  0  0  0  0  0  0  0  0  # atno 10718 bound_to 10713
  153.0157  135.5306  154.6883 H   0  0  0  0  0  0  0  0  0  0  0  0  # atno 10763 bound_to 10752
  154.6025  135.2869  155.0522 H   0  0  0  0  0  0  0  0  0  0  0  0  # atno 10764 bound_to 10752
  154.1574  135.6553  153.5030 H   0  0  0  0  0  0  0  0  0  0  0  0  # atno 10765 bound_to 10752
  139.8905  134.9509  156.6440 H   0  0  0  0  0  0  0  0  0  0  0  0  # atno 11005 bound_to 11000
  146.3166  139.7944  142.8978 LP  0  0  0  0  0  0  0  0  0  0  0  0  # atno 17320 bound_to 7965
  145.3428  141.0291  143.3382 LP  0  0  0  0  0  0  0  0  0  0  0  0  # atno 17321 bound_to 7965
  140.7641  143.5747  150.8958 LP  0  0  0  0  0  0  0  0  0  0  0  0  # atno 17342 bound_to 10162
  139.9417  143.6374  152.3052 LP  0  0  0  0  0  0  0  0  0  0  0  0  # atno 17343 bound_to 10162
  156.3769  130.3873  149.7131 LP  0  0  0  0  0  0  0  0  0  0  0  0  # atno 17370 bound_to 10713
  156.4527  130.7914  151.2935 LP  0  0  0  0  0  0  0  0  0  0  0  0  # atno 17371 bound_to 10713
  140.7572  133.8848  155.8390 LP  0  0  0  0  0  0  0  0  0  0  0  0  # atno 17394 bound_to 11000
  140.9952  134.1224  157.4370 LP  0  0  0  0  0  0  0  0  0  0  0  0  # atno 17395 bound_to 11000

$$$$
