AV-unprocessed.smi:1413|AV-procd|sdf|5757|dock3
  -GOLD-   22720 5393D 1   1.00000     0.00000
 Structure written by MMmdl.
 53 55  0  0  0  0  0  0  0  0  1 V2000
  153.6280  141.7192  160.8018 C   0  0  0  0  0  0  0  0  0  0  0  0
  152.9674  142.0557  159.4608 C   0  0  1  0  0  0  0  0  0  0  0  0
  152.3585  140.8110  158.7905 C   0  0  0  0  0  0  0  0  0  0  0  0
  151.6507  141.1952  157.5779 N   0  0  0  0  0  0  0  0  0  0  0  0
  151.2072  140.1037  156.8196 C   0  0  0  0  0  0  0  0  0  0  0  0
  151.6886  139.8649  155.5123 C   0  0  0  0  0  0  0  0  0  0  0  0
  151.1887  138.7582  154.8007 C   0  0  0  0  0  0  0  0  0  0  0  0
  150.2214  137.9310  155.4055 C   0  0  0  0  0  0  0  0  0  0  0  0
  149.7395  136.8167  154.6667 N   0  0  0  0  0  0  0  0  0  0  0  0
  149.4428  135.5844  155.1139 C   0  0  0  0  0  0  0  0  0  0  0  0
  149.5473  135.2089  156.2812 O   0  0  0  0  0  0  0  0  0  0  0  0
  148.9932  134.8064  154.1185 N   0  0  0  0  0  0  0  0  0  0  0  0
  148.5839  133.4085  154.2414 C   0  0  1  0  0  0  0  0  0  0  0  0
  147.5426  133.2941  155.3660 C   0  0  0  0  0  0  0  0  0  0  0  0
  148.0472  132.9127  152.8843 C   0  0  2  0  0  0  0  0  0  0  0  0
  146.8352  133.6842  152.3578 C   0  0  0  0  0  0  0  0  0  0  0  0
  146.1866  132.6608  151.4551 C   0  0  0  0  0  0  0  0  0  0  0  0
  146.3933  131.3753  152.2485 C   0  0  0  0  0  0  0  0  0  0  0  0
  147.5953  131.5629  152.9906 O   0  0  0  0  0  0  0  0  0  0  0  0
  149.8195  138.2452  156.7268 C   0  0  0  0  0  0  0  0  0  0  0  0
  150.2962  139.3045  157.4152 N   0  0  0  0  0  0  0  0  0  0  0  0
  150.6175  142.1914  157.8269 C   0  0  0  0  0  0  0  0  0  0  0  0
  151.2103  143.4234  158.5399 C   0  0  2  0  0  0  0  0  0  0  0  0
  152.0510  144.3222  157.6156 C   0  0  0  0  0  0  0  0  0  0  0  0
  151.9382  143.0163  159.7023 O   0  0  0  0  0  0  0  0  0  0  0  0
  154.4294  140.9913  160.6729 H   0  0  0  0  0  0  0  0  0  0  0  0
  152.9057  141.3021  161.5041 H   0  0  0  0  0  0  0  0  0  0  0  0
  154.0594  142.6110  161.2574 H   0  0  0  0  0  0  0  0  0  0  0  0
  153.7274  142.4874  158.8092 H   0  0  0  0  0  0  0  0  0  0  0  0
  153.1431  140.0935  158.5464 H   0  0  0  0  0  0  0  0  0  0  0  0
  151.6701  140.3166  159.4774 H   0  0  0  0  0  0  0  0  0  0  0  0
  152.4228  140.5147  155.0592 H   0  0  0  0  0  0  0  0  0  0  0  0
  151.5400  138.5550  153.7997 H   0  0  0  0  0  0  0  0  0  0  0  0
  149.5303  136.9984  153.6962 H   0  0  0  0  0  0  0  0  0  0  0  0
  148.9417  135.2086  153.1943 H   0  0  0  0  0  0  0  0  0  0  0  0
  149.4389  132.7874  154.5144 H   0  0  0  0  0  0  0  0  0  0  0  0
  147.2428  132.2585  155.5272 H   0  0  0  0  0  0  0  0  0  0  0  0
  146.6445  133.8690  155.1376 H   0  0  0  0  0  0  0  0  0  0  0  0
  147.9441  133.6651  156.3096 H   0  0  0  0  0  0  0  0  0  0  0  0
  148.8381  132.9360  152.1323 H   0  0  0  0  0  0  0  0  0  0  0  0
  146.1575  133.9429  153.1730 H   0  0  0  0  0  0  0  0  0  0  0  0
  147.1076  134.6009  151.8340 H   0  0  0  0  0  0  0  0  0  0  0  0
  145.1371  132.8715  151.2487 H   0  0  0  0  0  0  0  0  0  0  0  0
  146.7200  132.6076  150.5050 H   0  0  0  0  0  0  0  0  0  0  0  0
  145.5736  131.2258  152.9521 H   0  0  0  0  0  0  0  0  0  0  0  0
  146.4542  130.4959  151.6069 H   0  0  0  0  0  0  0  0  0  0  0  0
  149.1143  137.6365  157.2706 H   0  0  0  0  0  0  0  0  0  0  0  0
  150.1457  142.4852  156.8880 H   0  0  0  0  0  0  0  0  0  0  0  0
  149.8383  141.7522  158.4514 H   0  0  0  0  0  0  0  0  0  0  0  0
  150.3789  144.0308  158.8985 H   0  0  0  0  0  0  0  0  0  0  0  0
  151.4406  144.7180  156.8037 H   0  0  0  0  0  0  0  0  0  0  0  0
  152.8834  143.7858  157.1609 H   0  0  0  0  0  0  0  0  0  0  0  0
  152.4592  145.1707  158.1649 H   0  0  0  0  0  0  0  0  0  0  0  0
  1  2  1  0  0  0  0
  1 26  1  0  0  0  0
  1 27  1  0  0  0  0
  1 28  1  0  0  0  0
  2 25  1  0  0  0  0
  2  3  1  0  0  0  0
  2 29  1  0  0  0  0
  3  4  1  0  0  0  0
  3 30  1  0  0  0  0
  3 31  1  0  0  0  0
  4  5  1  0  0  0  0
  4 22  1  0  0  0  0
  5 21  1  0  0  0  0
  5  6  2  0  0  0  0
  6  7  1  0  0  0  0
  6 32  1  0  0  0  0
  7  8  2  0  0  0  0
  7 33  1  0  0  0  0
  8  9  1  0  0  0  0
  8 20  1  0  0  0  0
  9 10  1  0  0  0  0
  9 34  1  0  0  0  0
 10 11  2  0  0  0  0
 10 12  1  0  0  0  0
 12 13  1  0  0  0  0
 12 35  1  0  0  0  0
 13 14  1  0  0  0  0
 13 15  1  0  0  0  0
 13 36  1  0  0  0  0
 14 37  1  0  0  0  0
 14 38  1  0  0  0  0
 14 39  1  0  0  0  0
 15 19  1  0  0  0  0
 15 16  1  0  0  0  0
 15 40  1  0  0  0  0
 16 17  1  0  0  0  0
 16 41  1  0  0  0  0
 16 42  1  0  0  0  0
 17 18  1  0  0  0  0
 17 43  1  0  0  0  0
 17 44  1  0  0  0  0
 18 19  1  0  0  0  0
 18 45  1  0  0  0  0
 18 46  1  0  0  0  0
 20 21  2  0  0  0  0
 20 47  1  0  0  0  0
 22 23  1  0  0  0  0
 22 48  1  0  0  0  0
 22 49  1  0  0  0  0
 23 24  1  0  0  0  0
 23 25  1  0  0  0  0
 23 50  1  0  0  0  0
 24 51  1  0  0  0  0
 24 52  1  0  0  0  0
 24 53  1  0  0  0  0
M  END
> <s_m_source_file>
AV-unprocessed.smi

> <i_m_source_file_index>
1413

> <i_lp_mmshare_version>
43012

> <i_f3d_flags>
0

> <s_epik_input>
W0NIM11bQ0BASF0xW0NIMl1OKFtDSDJdW0NASF0oTzEpW0NIM10pYzJbY0hdW2NIXWMoW2NIXW4yKVtOSF1DKD1PKVtOSF1bQ0BIXShbQ0gzXSlbQ0BASF0zW0NIMl1bQ0gyXVtDSDJdTzM=

> <s_epik_cmdline>
J2VwaWtfcHl0aG9uJywgJy1waCcsICc3LjAnLCAnLXRuJywgJzgnLCAnLW1hJywgJzIwMCcsICctbWV0YWxfYmluZGluZycsICctaW1hZScsICc8aW5maWxlLm1hZT4nLCAnLW9tYWUnLCAnPG91dGZpbGUubWFlPic=

> <r_lp_tautomer_probability>
1

> <r_epik_Ionization_Penalty>
0.00271172

> <r_epik_Ionization_Penalty_Charging>
0

> <r_epik_Ionization_Penalty_Neutral>
0.00271172

> <r_epik_State_Penalty>
0.00186503

> <r_epik_Charging_Adjusted_Penalty>
0.00186503

> <i_epik_Tot_Q>
0

> <i_epik_Tot_abs_Q>
0

> <r_epik_Metal_State_Penalty>
-0

> <b_epik_Metal_Only>
0

> <s_lp_Force_Field>
OPLS_2005

> <r_lp_Energy>
38.2473

> <b_lp_Chiralities_Consistent>
1

> <s_lp_Variant>
AV-unprocessed.smi:1413-10

> <Gold.Version>
5.8.1

> <Gold.Id.Protein>
6NUR|6NUR_protein|mol2

> <Gold.PLP.Fitness>
48.3125

> <Gold.PLP.PLP>
-43.0858

> <Gold.PLP.part.hbond>
-2.0000

> <Gold.PLP.part.metal>
0.0000

> <Gold.PLP.part.buried>
-5.4061

> <Gold.PLP.part.nonpolar>
-36.4719

> <Gold.PLP.part.repulsive>
0.4468

> <Gold.PLP.ligand.clash>
0.0000

> <Gold.PLP.ligand.torsion>
0.3753

> <Gold.PLP.Chemscore.Hbond>
1.9516

> <Gold.PLP.Chemscore.CHOScore>
0.0000

> <Gold.PLP.Chemscore.Metal>
0.0000

> <Gold.Chemscore.Hbonds>
donor molecule, donor type, donor heavy atom, donor atom, acceptor molecule, acceptor atom, score
      L1  H     9    34       P1  7948  0.94
      L1  H    12    35       P1  7948  1.00

> <Gold.PLP.Chemscore.Internal.Correction>
0.1224

> <Gold.Rescore>
     Score         DG    S(hbond)    S(metal)    S(lipo)     H(rot)  DE(clash)    DE(int)     intcor
     19.65     -20.99       1.76        0.00     111.83       1.35       0.08       1.26       ----

> <Gold.Chemscore.Fitness>
19.6517

> <Gold.Chemscore.DG>
-20.9879

> <Gold.Chemscore.ZeroCoef>
-5.4800

> <Gold.Chemscore.Hbond>
1.7582

> <Gold.Chemscore.Metal>
0.0000

> <Gold.Chemscore.Lipo>
111.8286

> <Gold.Chemscore.Internal_Hbond>
0.0000

> <Gold.Chemscore.DEClash>
0.0781

> <Gold.Chemscore.DEInternal>
1.2581

> <Gold.Chemscore.Rot>
1.3471

> <Gold.Chemscore.Internal.Correction>
   9.000000E+99

> <Gold.Chemscore.Hbonds>
donor molecule, donor type, donor heavy atom, donor atom, acceptor molecule, acceptor atom, score
      L1  H     9    34       P1  7948  0.74
      L1  H    12    35       P1  7948  0.40

> <Gold.Chemscore.Hbond.Weighted>
-5.8725

> <Gold.Chemscore.Metal.Weighted>
-0.0000

> <Gold.Chemscore.Lipo.Weighted>
-13.0840

> <Gold.Chemscore.Internal_Hbond.Weighted>
0.0000

> <Gold.Chemscore.DEClash.Weighted>
0.0781

> <Gold.Chemscore.DEInternal.Weighted>
1.2581

> <Gold.Chemscore.Rot.Weighted>
3.4485

> <Gold.Chemscore.Internal.Correction.Weighted>
   9.000000E+99

> <Gold.Protein.RotatedTorsions>
[ 6907 6896 6895 6894 ] final  120.57 input  -60.11 | X-H torsion
[ 7974 7965 7964 7962 ] final -168.90 input  175.53 | X-H torsion
[ 8008 7997 7996 7995 ] final  128.08 input   59.86 | X-H torsion
[ 10167 10162 10161 10158 ] final  -29.58 input  -65.29 | X-H torsion
[ 10718 10713 10712 10709 ] final  -75.03 input   66.30 | X-H torsion
[ 10763 10752 10751 10750 ] final -169.41 input  -60.55 | X-H torsion
[ 11005 11000 10999 10996 ] final  -13.61 input  -57.11 | X-H torsion

> <Gold.Protein.ActiveResidues>
 VAL166  LYS551  ARG553  GLY616  TRP617  ASP618  TYR619  PRO620  LYS621  CYS622 
 ASP623  PHE694  ASN695  SER759  ASP760  ASP761  ALA762  ILE779  LEU786  VAL792 
 PHE793  MET794  SER795  GLU796  ALA797  LYS798  CYS799  TRP800  GLU811  SER814 

> <Gold.Protein.RotatedAtoms>
  152.4388  133.7409  159.6639 H   0  0  0  0  0  0  0  0  0  0  0  0  # atno 6907 bound_to 6896
  150.8275  133.8137  159.3118 H   0  0  0  0  0  0  0  0  0  0  0  0  # atno 6908 bound_to 6896
  151.5800  135.1061  160.0067 H   0  0  0  0  0  0  0  0  0  0  0  0  # atno 6909 bound_to 6896
  144.7195  140.2301  143.6305 H   0  0  0  0  0  0  0  0  0  0  0  0  # atno 7974 bound_to 7965
  156.2906  140.2653  156.2377 H   0  0  0  0  0  0  0  0  0  0  0  0  # atno 8008 bound_to 7997
  155.0009  140.0388  157.2378 H   0  0  0  0  0  0  0  0  0  0  0  0  # atno 8009 bound_to 7997
  154.7603  140.2759  155.6225 H   0  0  0  0  0  0  0  0  0  0  0  0  # atno 8010 bound_to 7997
  140.7259  143.3917  151.1417 H   0  0  0  0  0  0  0  0  0  0  0  0  # atno 10167 bound_to 10162
  156.0222  130.4431  150.2981 H   0  0  0  0  0  0  0  0  0  0  0  0  # atno 10718 bound_to 10713
  154.6526  135.2913  154.9968 H   0  0  0  0  0  0  0  0  0  0  0  0  # atno 10763 bound_to 10752
  154.1056  135.6570  153.4880 H   0  0  0  0  0  0  0  0  0  0  0  0  # atno 10764 bound_to 10752
  153.0384  135.5253  154.7440 H   0  0  0  0  0  0  0  0  0  0  0  0  # atno 10765 bound_to 10752
  140.7779  133.8386  155.9265 H   0  0  0  0  0  0  0  0  0  0  0  0  # atno 11005 bound_to 11000
  145.8418  139.2133  143.1823 LP  0  0  0  0  0  0  0  0  0  0  0  0  # atno 17320 bound_to 7965
  146.0339  140.8231  142.9862 LP  0  0  0  0  0  0  0  0  0  0  0  0  # atno 17321 bound_to 7965
  139.7524  143.8759  152.3080 LP  0  0  0  0  0  0  0  0  0  0  0  0  # atno 17342 bound_to 10162
  139.8617  144.7114  150.9092 LP  0  0  0  0  0  0  0  0  0  0  0  0  # atno 17343 bound_to 10162
  157.1084  131.0214  151.3058 LP  0  0  0  0  0  0  0  0  0  0  0  0  # atno 17370 bound_to 10713
  157.4724  130.7716  149.7336 LP  0  0  0  0  0  0  0  0  0  0  0  0  # atno 17371 bound_to 10713
  140.9511  134.1777  157.4727 LP  0  0  0  0  0  0  0  0  0  0  0  0  # atno 17394 bound_to 11000
  139.8746  134.9909  156.5526 LP  0  0  0  0  0  0  0  0  0  0  0  0  # atno 17395 bound_to 11000

$$$$
