AV-unprocessed.smi:1056|AV-procd|sdf|4638|dock6
  -GOLD-   22720 3143D 1   1.00000     0.00000
 Structure written by MMmdl.
 44 46  0  0  0  0  0  0  0  0  1 V2000
  151.6221  144.3647  159.1518 C   0  0  0  0  0  0  0  0  0  0  0  0
  152.3427  143.1790  159.7687 C   0  0  0  0  0  0  0  0  0  0  0  0
  152.6461  142.0621  158.9579 C   0  0  0  0  0  0  0  0  0  0  0  0
  153.3156  140.9395  159.4921 C   0  0  0  0  0  0  0  0  0  0  0  0
  153.7058  139.7549  158.8910 N   0  0  0  0  0  0  0  0  0  0  0  0
  154.2809  139.1162  159.9063 C   0  0  0  0  0  0  0  0  0  0  0  0
  154.3099  139.7486  161.0952 N   0  0  0  0  0  0  0  0  0  0  0  0
  154.8781  139.2573  162.3381 C   0  0  0  0  0  0  0  0  0  0  0  0
  155.6507  140.3483  163.1074 C   0  0  2  0  0  0  0  0  0  0  0  0
  156.9117  140.5201  162.4870 O   0  0  0  0  0  0  0  0  0  0  0  0
  155.8600  139.9754  164.5929 C   0  0  0  0  0  0  0  0  0  0  0  0
  156.3349  141.0619  165.4568 N   0  0  0  0  0  0  0  0  0  0  0  0
  156.1244  140.8087  166.8827 C   0  0  0  0  0  0  0  0  0  0  0  0
  156.7468  141.9085  167.7574 C   0  0  0  0  0  0  0  0  0  0  0  0
  156.4239  143.2455  167.2707 N   0  0  0  0  0  0  0  0  0  0  0  0
  156.0044  143.5215  166.0253 C   0  0  0  0  0  0  0  0  0  0  0  0
  155.7972  144.6745  165.6542 O   0  0  0  0  0  0  0  0  0  0  0  0
  155.7494  142.3512  165.0562 C   0  0  0  0  0  0  0  0  0  0  0  0
  153.6776  140.9661  160.8706 C   0  0  0  0  0  0  0  0  0  0  0  0
  153.3825  142.0716  161.6877 C   0  0  0  0  0  0  0  0  0  0  0  0
  152.7123  143.1846  161.1380 C   0  0  0  0  0  0  0  0  0  0  0  0
  152.3984  144.3738  162.0282 C   0  0  0  0  0  0  0  0  0  0  0  0
  151.3674  144.1769  158.1083 H   0  0  0  0  0  0  0  0  0  0  0  0
  152.2520  145.2539  159.1886 H   0  0  0  0  0  0  0  0  0  0  0  0
  150.6963  144.5733  159.6883 H   0  0  0  0  0  0  0  0  0  0  0  0
  152.3663  142.0579  157.9147 H   0  0  0  0  0  0  0  0  0  0  0  0
  154.7090  138.1328  159.7782 H   0  0  0  0  0  0  0  0  0  0  0  0
  154.0618  138.8701  162.9491 H   0  0  0  0  0  0  0  0  0  0  0  0
  155.5300  138.4109  162.1160 H   0  0  0  0  0  0  0  0  0  0  0  0
  155.0943  141.2843  163.0372 H   0  0  0  0  0  0  0  0  0  0  0  0
  157.2247  139.6742  162.2056 H   0  0  0  0  0  0  0  0  0  0  0  0
  154.8943  139.6500  164.9834 H   0  0  0  0  0  0  0  0  0  0  0  0
  156.5083  139.1013  164.6815 H   0  0  0  0  0  0  0  0  0  0  0  0
  155.0553  140.7335  167.0900 H   0  0  0  0  0  0  0  0  0  0  0  0
  156.5658  139.8576  167.1773 H   0  0  0  0  0  0  0  0  0  0  0  0
  156.4127  141.8086  168.7904 H   0  0  0  0  0  0  0  0  0  0  0  0
  157.8327  141.8067  167.7639 H   0  0  0  0  0  0  0  0  0  0  0  0
  156.5680  144.0163  167.9068 H   0  0  0  0  0  0  0  0  0  0  0  0
  156.1176  142.6314  164.0682 H   0  0  0  0  0  0  0  0  0  0  0  0
  154.6662  142.2520  164.9663 H   0  0  0  0  0  0  0  0  0  0  0  0
  153.6710  142.0623  162.7284 H   0  0  0  0  0  0  0  0  0  0  0  0
  152.7717  144.2220  163.0413 H   0  0  0  0  0  0  0  0  0  0  0  0
  151.3212  144.5315  162.0888 H   0  0  0  0  0  0  0  0  0  0  0  0
  152.8606  145.2792  161.6340 H   0  0  0  0  0  0  0  0  0  0  0  0
  1  2  1  0  0  0  0
  1 23  1  0  0  0  0
  1 24  1  0  0  0  0
  1 25  1  0  0  0  0
  2 21  1  0  0  0  0
  2  3  2  0  0  0  0
  3  4  1  0  0  0  0
  3 26  1  0  0  0  0
  4 19  2  0  0  0  0
  4  5  1  0  0  0  0
  5  6  2  0  0  0  0
  6  7  1  0  0  0  0
  6 27  1  0  0  0  0
  7  8  1  0  0  0  0
  7 19  1  0  0  0  0
  8  9  1  0  0  0  0
  8 28  1  0  0  0  0
  8 29  1  0  0  0  0
  9 10  1  0  0  0  0
  9 11  1  0  0  0  0
  9 30  1  0  0  0  0
 10 31  1  0  0  0  0
 11 12  1  0  0  0  0
 11 32  1  0  0  0  0
 11 33  1  0  0  0  0
 12 18  1  0  0  0  0
 12 13  1  0  0  0  0
 13 14  1  0  0  0  0
 13 34  1  0  0  0  0
 13 35  1  0  0  0  0
 14 15  1  0  0  0  0
 14 36  1  0  0  0  0
 14 37  1  0  0  0  0
 15 16  1  0  0  0  0
 15 38  1  0  0  0  0
 16 17  2  0  0  0  0
 16 18  1  0  0  0  0
 18 39  1  0  0  0  0
 18 40  1  0  0  0  0
 19 20  1  0  0  0  0
 20 21  2  0  0  0  0
 20 41  1  0  0  0  0
 21 22  1  0  0  0  0
 22 42  1  0  0  0  0
 22 43  1  0  0  0  0
 22 44  1  0  0  0  0
M  END
> <s_m_source_file>
AV-unprocessed.smi

> <i_m_source_file_index>
1056

> <i_lp_mmshare_version>
43012

> <i_f3d_flags>
0

> <s_epik_input>
W0NIM11jKFtjSF0xKWMoW0NIM10pW2NIXWMoYzEyKW4oW2NIXW4yKVtDSDJdW0NASF0oW09IXSlbQ0gyXU4zW0NIMl1bQ0gyXVtOSF1DKD1PKVtDSDJdMw==

> <s_epik_cmdline>
J2VwaWtfcHl0aG9uJywgJy1waCcsICc3LjAnLCAnLXRuJywgJzgnLCAnLW1hJywgJzIwMCcsICctbWV0YWxfYmluZGluZycsICctaW1hZScsICc8aW5maWxlLm1hZT4nLCAnLW9tYWUnLCAnPG91dGZpbGUubWFlPic=

> <r_epik_Ionization_Penalty>
1.40166

> <r_epik_Ionization_Penalty_Charging>
0

> <r_epik_Ionization_Penalty_Neutral>
1.40166

> <r_epik_State_Penalty>
1.44226

> <r_epik_Charging_Adjusted_Penalty>
1.44226

> <i_epik_Tot_Q>
0

> <i_epik_Tot_abs_Q>
0

> <r_epik_Metal_State_Penalty>
1.50267

> <b_epik_Metal_Only>
0

> <s_lp_Force_Field>
OPLS_2005

> <r_lp_Energy>
30.6142

> <b_lp_Chiralities_Consistent>
1

> <s_lp_Variant>
AV-unprocessed.smi:1056-9

> <Gold.Version>
5.8.1

> <Gold.Id.Protein>
6NUR|6NUR_protein|mol2

> <Gold.PLP.Fitness>
48.6725

> <Gold.PLP.PLP>
-47.0014

> <Gold.PLP.part.hbond>
-2.7581

> <Gold.PLP.part.metal>
0.0000

> <Gold.PLP.part.buried>
-4.3952

> <Gold.PLP.part.nonpolar>
-39.6741

> <Gold.PLP.part.repulsive>
0.1302

> <Gold.PLP.ligand.clash>
0.0000

> <Gold.PLP.ligand.torsion>
0.6896

> <Gold.PLP.Chemscore.Hbond>
1.0000

> <Gold.PLP.Chemscore.CHOScore>
0.0000

> <Gold.PLP.Chemscore.Metal>
0.0000

> <Gold.Chemscore.Hbonds>
donor molecule, donor type, donor heavy atom, donor atom, acceptor molecule, acceptor atom, score
      P1  H  7997  8008       L1     5  1.00

> <Gold.PLP.Chemscore.Internal.Correction>
0.0504

> <Gold.Rescore>
     Score         DG    S(hbond)    S(metal)    S(lipo)     H(rot)  DE(clash)    DE(int)     intcor
     15.25     -17.38       0.95        0.00     125.39       2.31       1.41       0.72       ----

> <Gold.Chemscore.Fitness>
15.2550

> <Gold.Chemscore.DG>
-17.3849

> <Gold.Chemscore.ZeroCoef>
-5.4800

> <Gold.Chemscore.Hbond>
0.9460

> <Gold.Chemscore.Metal>
0.0000

> <Gold.Chemscore.Lipo>
125.3923

> <Gold.Chemscore.Internal_Hbond>
0.0000

> <Gold.Chemscore.DEClash>
1.4068

> <Gold.Chemscore.DEInternal>
0.7231

> <Gold.Chemscore.Rot>
2.3147

> <Gold.Chemscore.Internal.Correction>
   9.000000E+99

> <Gold.Chemscore.Hbonds>
donor molecule, donor type, donor heavy atom, donor atom, acceptor molecule, acceptor atom, score
      P1  H  7997  8008       L1     5  0.73

> <Gold.Chemscore.Hbond.Weighted>
-3.1596

> <Gold.Chemscore.Metal.Weighted>
-0.0000

> <Gold.Chemscore.Lipo.Weighted>
-14.6709

> <Gold.Chemscore.Internal_Hbond.Weighted>
0.0000

> <Gold.Chemscore.DEClash.Weighted>
1.4068

> <Gold.Chemscore.DEInternal.Weighted>
0.7231

> <Gold.Chemscore.Rot.Weighted>
5.9256

> <Gold.Chemscore.Internal.Correction.Weighted>
   9.000000E+99

> <Gold.Protein.RotatedTorsions>
[ 6907 6896 6895 6894 ] final -150.56 input  -60.11 | X-H torsion
[ 7974 7965 7964 7962 ] final  -55.36 input  175.53 | X-H torsion
[ 8008 7997 7996 7995 ] final -104.72 input   59.86 | X-H torsion
[ 10167 10162 10161 10158 ] final -153.64 input  -65.29 | X-H torsion
[ 10718 10713 10712 10709 ] final   85.02 input   66.30 | X-H torsion
[ 10763 10752 10751 10750 ] final   -9.95 input  -60.55 | X-H torsion
[ 11005 11000 10999 10996 ] final   37.75 input  -57.11 | X-H torsion

> <Gold.Protein.ActiveResidues>
 VAL166  LYS551  ARG553  GLY616  TRP617  ASP618  TYR619  PRO620  LYS621  CYS622 
 ASP623  PHE694  ASN695  SER759  ASP760  ASP761  ALA762  ILE779  LEU786  VAL792 
 PHE793  MET794  SER795  GLU796  ALA797  LYS798  CYS799  TRP800  GLU811  SER814 

> <Gold.Protein.RotatedAtoms>
  151.2004  133.4614  159.2595 H   0  0  0  0  0  0  0  0  0  0  0  0  # atno 6907 bound_to 6896
  151.1075  135.0008  159.8488 H   0  0  0  0  0  0  0  0  0  0  0  0  # atno 6908 bound_to 6896
  152.5448  134.1925  159.8733 H   0  0  0  0  0  0  0  0  0  0  0  0  # atno 6909 bound_to 6896
  145.8750  140.8187  142.9869 H   0  0  0  0  0  0  0  0  0  0  0  0  # atno 7974 bound_to 7965
  154.8894  140.0416  157.1829 H   0  0  0  0  0  0  0  0  0  0  0  0  # atno 8008 bound_to 7997
  154.8557  140.2936  155.5549 H   0  0  0  0  0  0  0  0  0  0  0  0  # atno 8009 bound_to 7997
  156.2997  140.2456  156.3522 H   0  0  0  0  0  0  0  0  0  0  0  0  # atno 8010 bound_to 7997
  139.7080  143.9155  152.2456 H   0  0  0  0  0  0  0  0  0  0  0  0  # atno 10167 bound_to 10162
  157.6908  131.0157  150.2759 H   0  0  0  0  0  0  0  0  0  0  0  0  # atno 10718 bound_to 10713
  153.4622  135.7016  153.6043 H   0  0  0  0  0  0  0  0  0  0  0  0  # atno 10763 bound_to 10752
  153.4333  135.3797  155.2184 H   0  0  0  0  0  0  0  0  0  0  0  0  # atno 10764 bound_to 10752
  154.8727  135.3956  154.4049 H   0  0  0  0  0  0  0  0  0  0  0  0  # atno 10765 bound_to 10752
  140.2195  134.3658  155.8011 H   0  0  0  0  0  0  0  0  0  0  0  0  # atno 11005 bound_to 11000
  144.6726  140.1297  143.7444 LP  0  0  0  0  0  0  0  0  0  0  0  0  # atno 17320 bound_to 7965
  145.9091  139.2476  143.1448 LP  0  0  0  0  0  0  0  0  0  0  0  0  # atno 17321 bound_to 7965
  139.9016  144.6908  150.8659 LP  0  0  0  0  0  0  0  0  0  0  0  0  # atno 17342 bound_to 10162
  140.7726  143.3509  151.2016 LP  0  0  0  0  0  0  0  0  0  0  0  0  # atno 17343 bound_to 10162
  156.3314  130.3801  149.7488 LP  0  0  0  0  0  0  0  0  0  0  0  0  # atno 17370 bound_to 10713
  156.5026  130.8136  151.3138 LP  0  0  0  0  0  0  0  0  0  0  0  0  # atno 17371 bound_to 10713
  141.2223  133.7186  156.8551 LP  0  0  0  0  0  0  0  0  0  0  0  0  # atno 17394 bound_to 11000
  140.1865  134.8996  157.3010 LP  0  0  0  0  0  0  0  0  0  0  0  0  # atno 17395 bound_to 11000

$$$$
