#       Name:                AV-unprocessed.smi:2488
#       Creating user name   scv26
#       Creation time:       Fri Mar 27 13:43:04 2020


#       File generated by GOLD software.
#

@<TRIPOS>MOLECULE
AV-unprocessed.smi:2488
    40    41     1
SMALL
NO_CHARGES


@<TRIPOS>ATOM
      1 ****        -4.5146  -0.4800   1.2155 C.3            1 S1                 0.0000
      2 ****        -3.5768  -1.6087   0.7726 C.3            1 S1                 0.0000
      3 ****        -2.1160  -1.2629   0.9940 C.ar           1 S1                 0.0000
      4 ****        -1.6336  -1.4365   2.2446 N.ar           1 S1                 0.0000
      5 ****        -0.3511  -1.1239   2.4428 C.ar           1 S1                 0.0000
      6 ****         0.5065  -0.6548   1.5337 N.ar           1 S1                 0.0000
      7 ****         0.0376  -0.4625   0.2756 C.ar           1 S1                 0.0000
      8 ****         0.9126   0.0205  -0.7186 N.3            1 S1                 0.0000
      9 ****         1.4036  -1.0701  -1.5572 C.3            1 S1                 0.0000
     10 ****         2.2004  -0.5213  -2.7494 C.3            1 S1                 0.0000
     11 ****         3.2535   0.3017  -2.2664 O.3            1 S1                 0.0000
     12 ****         2.7522   1.4301  -1.5599 C.3            1 S1                 0.0000
     13 ****         1.9521   0.9805  -0.3145 C.3            1 S1                 0.0000
     14 ****         1.4242   2.2387   0.3996 C.2            1 S1                 0.0000
     15 ****         2.1785   2.7405   1.3806 N.am           1 S1                 0.0000
     16 ****         0.3602   2.7566   0.0640 O.2            1 S1                 0.0000
     17 ****        -1.3039  -0.7688  -0.0497 C.ar           1 S1                 0.0000
     18 ****        -1.7911  -0.5855  -1.3015 F              1 S1                 0.0000
     19 ****        -5.5565  -0.7515   1.0459 H              1 S1                 0.0000
     20 ****        -4.3141   0.4366   0.6600 H              1 S1                 0.0000
     21 ****        -4.3958  -0.2618   2.2772 H              1 S1                 0.0000
     22 ****        -3.8131  -2.5208   1.3219 H              1 S1                 0.0000
     23 ****        -3.7437  -1.8362  -0.2805 H              1 S1                 0.0000
     24 ****         0.0335  -1.2674   3.4415 H              1 S1                 0.0000
     25 ****         2.0371  -1.7276  -0.9595 H              1 S1                 0.0000
     26 ****         0.5758  -1.6765  -1.9274 H              1 S1                 0.0000
     27 ****         2.6272  -1.3417  -3.3266 H              1 S1                 0.0000
     28 ****         1.5562   0.0438  -3.4253 H              1 S1                 0.0000
     29 ****         3.5999   2.0498  -1.2648 H              1 S1                 0.0000
     30 ****         2.1378   2.0364  -2.2289 H              1 S1                 0.0000
     31 ****         2.6416   0.4644   0.3566 H              1 S1                 0.0000
     32 ****         1.8773   3.5668   1.8764 H              1 S1                 0.0000
     33 ****         3.0509   2.2924   1.6202 H              1 S1                 0.0000
     34 ****        -2.2095  -1.7823   2.9854 LP             1 S1                 0.0000
     35 ****         1.4568  -0.4532   1.7709 LP             1 S1                 0.0000
     36 ****         0.3350   0.6187  -1.2741 LP             1 S1                 0.0000
     37 ****         3.7987   0.6200  -3.0418 LP             1 S1                 0.0000
     38 ****         3.8304  -0.2363  -1.6517 LP             1 S1                 0.0000
     39 ****        -0.1752   2.3608  -0.6821 LP             1 S1                 0.0000
     40 ****         0.0305   3.5735   0.5374 LP             1 S1                 0.0000
@<TRIPOS>BOND
    1    1    2 1     
    2    1   19 1     
    3    1   20 1     
    4    1   21 1     
    5    2    3 1     
    6    2   22 1     
    7    2   23 1     
    8    3   17 ar    
    9    3    4 ar    
   10    4    5 ar    
   11    5    6 ar    
   12    5   24 1     
   13    6    7 ar    
   14    7    8 1     
   15    7   17 ar    
   16    8   13 1     
   17    8    9 1     
   18    9   10 1     
   19    9   25 1     
   20    9   26 1     
   21   10   11 1     
   22   10   27 1     
   23   10   28 1     
   24   11   12 1     
   25   12   13 1     
   26   12   29 1     
   27   12   30 1     
   28   13   14 1     
   29   13   31 1     
   30   14   15 am    
   31   14   16 2     
   32   15   32 1     
   33   15   33 1     
   34   17   18 1     
   35    4   34 1     
   36    6   35 1     
   37    8   36 1     
   38   11   37 1     
   39   11   38 1     
   40   16   39 1     
   41   16   40 1     
@<TRIPOS>SUBSTRUCTURE
      1 S1             1
@<TRIPOS>SET
LONE_PAIRS      STATIC     ATOMS    <user>   **** ""
7 34 35 36 37 38 39 40
DONOR_HYDROGENS      STATIC     ATOMS    <user>   **** ""
2 32 33
ATOM$BLUE        STATIC     ATOMS    COLORGROUP SYSTEM
7 34 35 36 37 38 39 40
ATOM$RED        STATIC     ATOMS    COLORGROUP SYSTEM
2 32 33
