AV-unprocessed.smi:2706|AV-procd|sdf|10445|dock4
  -GOLD-   2272014483D 1   1.00000     0.00000
 Structure written by MMmdl.
 43 46  0  0  0  0  0  0  0  0  1 V2000
  151.4483  139.7630  155.6032 C   0  0  0  0  0  0  0  0  0  0  0  0
  150.4388  140.8173  155.6092 N   0  0  0  0  0  0  0  0  0  0  0  0
  150.7061  142.0756  156.2944 C   0  0  0  0  0  0  0  0  0  0  0  0
  149.2418  140.6460  154.8775 C   0  0  0  0  0  0  0  0  0  0  0  0
  148.3180  141.7049  154.7064 C   0  0  0  0  0  0  0  0  0  0  0  0
  147.1466  141.4722  153.9637 C   0  0  0  0  0  0  0  0  0  0  0  0
  146.9280  140.1959  153.4152 C   0  0  0  0  0  0  0  0  0  0  0  0
  147.8869  139.1830  153.6262 C   0  0  0  0  0  0  0  0  0  0  0  0
  147.5836  137.9274  153.0356 N   0  0  0  0  0  0  0  0  0  0  0  0
  146.3858  137.3223  152.9427 C   0  0  0  0  0  0  0  0  0  0  0  0
  145.3204  137.7870  153.3500 O   0  0  0  0  0  0  0  0  0  0  0  0
  146.4917  136.1304  152.3394 N   0  0  0  0  0  0  0  0  0  0  0  0
  145.4102  135.2379  152.0741 C   0  0  2  0  0  0  0  0  0  0  0  0
  145.7379  133.7554  151.9882 C   0  0  1  0  0  0  0  0  0  0  0  0
  144.7218  132.6170  151.9832 C   0  0  2  0  0  0  0  0  0  0  0  0
  145.1339  131.6205  150.8800 C   0  0  0  0  0  0  0  0  0  0  0  0
  144.8116  132.4047  149.5841 C   0  0  0  0  0  0  0  0  0  0  0  0
  144.2578  133.7376  150.1294 C   0  0  1  0  0  0  0  0  0  0  0  0
  143.4750  133.2256  151.3394 C   0  0  0  0  0  0  0  0  0  0  0  0
  145.4227  134.5151  150.7353 C   0  0  1  0  0  0  0  0  0  0  0  0
  149.0115  139.4222  154.3431 N   0  0  0  0  0  0  0  0  0  0  0  0
  151.0353  138.8336  155.9963 H   0  0  0  0  0  0  0  0  0  0  0  0
  152.3080  140.0304  156.2175 H   0  0  0  0  0  0  0  0  0  0  0  0
  151.8049  139.5814  154.5890 H   0  0  0  0  0  0  0  0  0  0  0  0
  149.9648  142.2506  157.0746 H   0  0  0  0  0  0  0  0  0  0  0  0
  150.6800  142.9095  155.5921 H   0  0  0  0  0  0  0  0  0  0  0  0
  151.6894  142.0696  156.7647 H   0  0  0  0  0  0  0  0  0  0  0  0
  148.4836  142.6851  155.1270 H   0  0  0  0  0  0  0  0  0  0  0  0
  146.4253  142.2626  153.8164 H   0  0  0  0  0  0  0  0  0  0  0  0
  146.0331  140.0015  152.8421 H   0  0  0  0  0  0  0  0  0  0  0  0
  148.3696  137.4309  152.6433 H   0  0  0  0  0  0  0  0  0  0  0  0
  147.4078  135.8307  152.0396 H   0  0  0  0  0  0  0  0  0  0  0  0
  144.4414  135.5178  152.4818 H   0  0  0  0  0  0  0  0  0  0  0  0
  146.7732  133.4631  152.1561 H   0  0  0  0  0  0  0  0  0  0  0  0
  144.5744  132.1765  152.9693 H   0  0  0  0  0  0  0  0  0  0  0  0
  146.1861  131.3409  150.9470 H   0  0  0  0  0  0  0  0  0  0  0  0
  144.5398  130.7074  150.9358 H   0  0  0  0  0  0  0  0  0  0  0  0
  145.6913  132.5487  148.9554 H   0  0  0  0  0  0  0  0  0  0  0  0
  144.0594  131.8804  148.9929 H   0  0  0  0  0  0  0  0  0  0  0  0
  143.6843  134.3247  149.4120 H   0  0  0  0  0  0  0  0  0  0  0  0
  142.7126  132.4870  151.0836 H   0  0  0  0  0  0  0  0  0  0  0  0
  142.9997  134.0075  151.9306 H   0  0  0  0  0  0  0  0  0  0  0  0
  146.2451  134.7364  150.0570 H   0  0  0  0  0  0  0  0  0  0  0  0
  1  2  1  0  0  0  0
  1 22  1  0  0  0  0
  1 23  1  0  0  0  0
  1 24  1  0  0  0  0
  2  3  1  0  0  0  0
  2  4  1  0  0  0  0
  3 25  1  0  0  0  0
  3 26  1  0  0  0  0
  3 27  1  0  0  0  0
  4 21  1  0  0  0  0
  4  5  2  0  0  0  0
  5  6  1  0  0  0  0
  5 28  1  0  0  0  0
  6  7  2  0  0  0  0
  6 29  1  0  0  0  0
  7  8  1  0  0  0  0
  7 30  1  0  0  0  0
  8  9  1  0  0  0  0
  8 21  2  0  0  0  0
  9 10  1  0  0  0  0
  9 31  1  0  0  0  0
 10 11  2  0  0  0  0
 10 12  1  0  0  0  0
 12 13  1  0  0  0  0
 12 32  1  0  0  0  0
 13 20  1  0  0  0  0
 13 14  1  0  0  0  0
 13 33  1  0  0  0  0
 14 20  1  0  0  0  0
 14 15  1  0  0  0  0
 14 34  1  0  0  0  0
 15 19  1  0  0  0  0
 15 16  1  0  0  0  0
 15 35  1  0  0  0  0
 16 17  1  0  0  0  0
 16 36  1  0  0  0  0
 16 37  1  0  0  0  0
 17 18  1  0  0  0  0
 17 38  1  0  0  0  0
 17 39  1  0  0  0  0
 18 19  1  0  0  0  0
 18 20  1  0  0  0  0
 18 40  1  0  0  0  0
 19 41  1  0  0  0  0
 19 42  1  0  0  0  0
 20 43  1  0  0  0  0
M  END
> <s_m_source_file>
AV-unprocessed.smi

> <i_m_source_file_index>
2706

> <i_lp_mmshare_version>
43012

> <i_f3d_flags>
0

> <s_epik_input>
W0NIM11OKFtDSDNdKWMxW2NIXVtjSF1bY0hdYyhuMSlbTkhdQyg9TylbTkhdW0NASF0yW0NAQEhdM1tDQEBIXShbQ0gyXTQpW0NIMl1bQ0gyXVtDQEBIXTRbQ0BIXTIz

> <s_epik_cmdline>
J2VwaWtfcHl0aG9uJywgJy1waCcsICc3LjAnLCAnLXRuJywgJzgnLCAnLW1hJywgJzIwMCcsICctbWV0YWxfYmluZGluZycsICctaW1hZScsICc8aW5maWxlLm1hZT4nLCAnLW9tYWUnLCAnPG91dGZpbGUubWFlPic=

> <r_lp_tautomer_probability>
1

> <r_epik_Ionization_Penalty>
0.0296788

> <r_epik_Ionization_Penalty_Charging>
0

> <r_epik_Ionization_Penalty_Neutral>
0.0296788

> <r_epik_State_Penalty>
0.0248512

> <r_epik_Charging_Adjusted_Penalty>
0.0248512

> <i_epik_Tot_Q>
0

> <i_epik_Tot_abs_Q>
0

> <r_epik_Metal_State_Penalty>
0.0237882

> <b_epik_Metal_Only>
0

> <s_lp_Force_Field>
OPLS_2005

> <r_lp_Energy>
77.4142

> <b_lp_Chiralities_Consistent>
1

> <s_lp_Variant>
AV-unprocessed.smi:2706-2

> <Gold.Version>
5.8.1

> <Gold.Id.Protein>
6NUR|6NUR_protein|mol2

> <Gold.PLP.Fitness>
44.9648

> <Gold.PLP.PLP>
-40.3224

> <Gold.PLP.part.hbond>
-1.6429

> <Gold.PLP.part.metal>
0.0000

> <Gold.PLP.part.buried>
-2.9042

> <Gold.PLP.part.nonpolar>
-36.8009

> <Gold.PLP.part.repulsive>
0.4071

> <Gold.PLP.ligand.clash>
0.0000

> <Gold.PLP.ligand.torsion>
0.6343

> <Gold.PLP.Chemscore.Hbond>
1.9600

> <Gold.PLP.Chemscore.CHOScore>
0.0000

> <Gold.PLP.Chemscore.Metal>
0.0000

> <Gold.Chemscore.Hbonds>
donor molecule, donor type, donor heavy atom, donor atom, acceptor molecule, acceptor atom, score
      L1  H     9    31       P1  7948  1.00
      L1  H    12    32       P1  7948  0.96

> <Gold.PLP.Chemscore.Internal.Correction>
0.0309

> <Gold.Rescore>
     Score         DG    S(hbond)    S(metal)    S(lipo)     H(rot)  DE(clash)    DE(int)     intcor
     17.96     -20.07       1.90        0.00      92.43       1.00       0.22       1.89       ----

> <Gold.Chemscore.Fitness>
17.9589

> <Gold.Chemscore.DG>
-20.0709

> <Gold.Chemscore.ZeroCoef>
-5.4800

> <Gold.Chemscore.Hbond>
1.8972

> <Gold.Chemscore.Metal>
0.0000

> <Gold.Chemscore.Lipo>
92.4292

> <Gold.Chemscore.Internal_Hbond>
0.0000

> <Gold.Chemscore.DEClash>
0.2172

> <Gold.Chemscore.DEInternal>
1.8948

> <Gold.Chemscore.Rot>
1.0000

> <Gold.Chemscore.Internal.Correction>
   9.000000E+99

> <Gold.Chemscore.Hbonds>
donor molecule, donor type, donor heavy atom, donor atom, acceptor molecule, acceptor atom, score
      L1  H     9    31       P1  7948  0.90
      L1  H    12    32       P1  7948  0.90

> <Gold.Chemscore.Hbond.Weighted>
-6.3367

> <Gold.Chemscore.Metal.Weighted>
-0.0000

> <Gold.Chemscore.Lipo.Weighted>
-10.8142

> <Gold.Chemscore.Internal_Hbond.Weighted>
0.0000

> <Gold.Chemscore.DEClash.Weighted>
0.2172

> <Gold.Chemscore.DEInternal.Weighted>
1.8948

> <Gold.Chemscore.Rot.Weighted>
2.5600

> <Gold.Chemscore.Internal.Correction.Weighted>
   9.000000E+99

> <Gold.Protein.RotatedTorsions>
[ 6907 6896 6895 6894 ] final   88.02 input  -60.11 | X-H torsion
[ 7974 7965 7964 7962 ] final -144.84 input  175.53 | X-H torsion
[ 8008 7997 7996 7995 ] final  131.73 input   59.86 | X-H torsion
[ 10167 10162 10161 10158 ] final  160.82 input  -65.29 | X-H torsion
[ 10718 10713 10712 10709 ] final  -38.02 input   66.30 | X-H torsion
[ 10763 10752 10751 10750 ] final   10.34 input  -60.55 | X-H torsion
[ 11005 11000 10999 10996 ] final   59.51 input  -57.11 | X-H torsion

> <Gold.Protein.ActiveResidues>
 VAL166  LYS551  ARG553  GLY616  TRP617  ASP618  TYR619  PRO620  LYS621  CYS622 
 ASP623  PHE694  ASN695  SER759  ASP760  ASP761  ALA762  ILE779  LEU786  VAL792 
 PHE793  MET794  SER795  GLU796  ALA797  LYS798  CYS799  TRP800  GLU811  SER814 

> <Gold.Protein.RotatedAtoms>
  152.5419  134.2186  159.8778 H   0  0  0  0  0  0  0  0  0  0  0  0  # atno 6907 bound_to 6896
  151.2164  133.4520  159.2607 H   0  0  0  0  0  0  0  0  0  0  0  0  # atno 6908 bound_to 6896
  151.0847  134.9893  159.8429 H   0  0  0  0  0  0  0  0  0  0  0  0  # atno 6909 bound_to 6896
  144.8269  140.5659  143.5541 H   0  0  0  0  0  0  0  0  0  0  0  0  # atno 7974 bound_to 7965
  156.2974  140.2564  156.2973 H   0  0  0  0  0  0  0  0  0  0  0  0  # atno 8008 bound_to 7997
  154.9452  140.0395  157.2135 H   0  0  0  0  0  0  0  0  0  0  0  0  # atno 8009 bound_to 7997
  154.8088  140.2841  155.5872 H   0  0  0  0  0  0  0  0  0  0  0  0  # atno 8010 bound_to 7997
  139.4843  144.4597  151.8721 H   0  0  0  0  0  0  0  0  0  0  0  0  # atno 10167 bound_to 10162
  156.3085  130.4249  149.8073 H   0  0  0  0  0  0  0  0  0  0  0  0  # atno 10718 bound_to 10713
  153.2042  135.6860  153.8193 H   0  0  0  0  0  0  0  0  0  0  0  0  # atno 10763 bound_to 10752
  153.7448  135.3232  155.3311 H   0  0  0  0  0  0  0  0  0  0  0  0  # atno 10764 bound_to 10752
  154.8188  135.4667  154.0822 H   0  0  0  0  0  0  0  0  0  0  0  0  # atno 10765 bound_to 10752
  140.0298  134.6028  155.9522 H   0  0  0  0  0  0  0  0  0  0  0  0  # atno 11005 bound_to 11000
  145.4981  139.1485  143.3673 LP  0  0  0  0  0  0  0  0  0  0  0  0  # atno 17320 bound_to 7965
  146.2574  140.5120  142.8868 LP  0  0  0  0  0  0  0  0  0  0  0  0  # atno 17321 bound_to 7965
  140.4058  144.2433  150.5891 LP  0  0  0  0  0  0  0  0  0  0  0  0  # atno 17342 bound_to 10162
  140.5013  143.2317  151.8674 LP  0  0  0  0  0  0  0  0  0  0  0  0  # atno 17343 bound_to 10162
  156.5425  130.8306  151.3273 LP  0  0  0  0  0  0  0  0  0  0  0  0  # atno 17370 bound_to 10713
  157.7385  130.9815  150.2258 LP  0  0  0  0  0  0  0  0  0  0  0  0  # atno 17371 bound_to 10713
  141.1824  133.6549  156.5076 LP  0  0  0  0  0  0  0  0  0  0  0  0  # atno 17394 bound_to 11000
  140.4244  134.7158  157.4908 LP  0  0  0  0  0  0  0  0  0  0  0  0  # atno 17395 bound_to 11000

$$$$
