AV-unprocessed.smi:1976|AV-procd|sdf|7983|dock6
  -GOLD-   2272010163D 1   1.00000     0.00000
 Structure written by MMmdl.
 45 47  0  0  0  0  0  0  0  0  2 V2000
  148.5505  139.8735  154.2315 O   0  0  0  0  0  0  0  0  0  0  0  0
  148.8821  141.0231  154.5241 C   0  0  0  0  0  0  0  0  0  0  0  0
  150.3514  141.3798  154.7927 C   0  0  0  0  0  0  0  0  0  0  0  0
  150.7063  141.3696  156.2219 N   0  0  0  0  0  0  0  0  0  0  0  0
  151.0706  142.6012  156.8007 C   0  0  0  0  0  0  0  0  0  0  0  0
  151.4048  142.7310  158.0989 C   0  0  0  0  0  0  0  0  0  0  0  0
  151.8531  144.0633  158.6795 C   0  0  0  0  0  0  0  0  0  0  0  0
  152.2760  143.9213  159.9360 F   0  0  0  0  0  0  0  0  0  0  0  0
  152.8439  144.5932  157.9611 F   0  0  0  0  0  0  0  0  0  0  0  0
  150.8352  144.9231  158.6789 F   0  0  0  0  0  0  0  0  0  0  0  0
  151.4048  141.5156  158.8894 C   0  0  0  0  0  0  0  0  0  0  0  0
  151.0727  140.3271  158.3481 C   0  0  0  0  0  0  0  0  0  0  0  0
  150.6943  140.2057  156.9383 C   0  0  0  0  0  0  0  0  0  0  0  0
  150.3874  139.1262  156.4316 O   0  0  0  0  0  0  0  0  0  0  0  0
  148.0070  142.0354  154.6122 N   0  0  0  0  0  0  0  0  0  0  0  0
  146.5695  141.9091  154.3984 C   0  0  2  0  0  0  0  0  0  0  0  0
  145.8049  143.2460  154.4604 C   0  0  0  0  0  0  0  0  0  0  0  0
  144.4724  142.9220  155.1645 C   0  0  0  0  0  0  0  0  0  0  0  0
  144.4862  141.4612  155.3718 N   0  3  2  0  0  0  0  0  0  0  0  0
  143.6479  140.9268  156.4673 C   0  0  0  0  0  0  0  0  0  0  0  0
  143.7386  139.3874  156.4739 C   0  0  0  0  0  0  0  0  0  0  0  0
  145.2014  138.8990  156.5197 C   0  0  0  0  0  0  0  0  0  0  0  0
  146.0435  139.5584  155.4099 C   0  0  0  0  0  0  0  0  0  0  0  0
  145.9025  141.0867  155.5000 C   0  0  1  0  0  0  0  0  0  0  0  0
  150.9782  140.6795  154.2391 H   0  0  0  0  0  0  0  0  0  0  0  0
  150.5689  142.3584  154.3601 H   0  0  0  0  0  0  0  0  0  0  0  0
  151.0711  143.4369  156.1159 H   0  0  0  0  0  0  0  0  0  0  0  0
  151.6729  141.5586  159.9347 H   0  0  0  0  0  0  0  0  0  0  0  0
  151.0832  139.4423  158.9675 H   0  0  0  0  0  0  0  0  0  0  0  0
  148.3598  142.9509  154.8517 H   0  0  0  0  0  0  0  0  0  0  0  0
  146.3813  141.4315  153.4343 H   0  0  0  0  0  0  0  0  0  0  0  0
  146.3541  143.9918  155.0372 H   0  0  0  0  0  0  0  0  0  0  0  0
  145.6485  143.6548  153.4614 H   0  0  0  0  0  0  0  0  0  0  0  0
  144.4228  143.4368  156.1254 H   0  0  0  0  0  0  0  0  0  0  0  0
  143.6059  143.2214  154.5744 H   0  0  0  0  0  0  0  0  0  0  0  0
  143.9810  141.3340  157.4232 H   0  0  0  0  0  0  0  0  0  0  0  0
  142.6138  141.2423  156.3239 H   0  0  0  0  0  0  0  0  0  0  0  0
  143.1829  138.9841  157.3211 H   0  0  0  0  0  0  0  0  0  0  0  0
  143.2578  138.9948  155.5769 H   0  0  0  0  0  0  0  0  0  0  0  0
  145.6325  139.1393  157.4924 H   0  0  0  0  0  0  0  0  0  0  0  0
  145.2383  137.8131  156.4256 H   0  0  0  0  0  0  0  0  0  0  0  0
  147.0897  139.2674  155.5095 H   0  0  0  0  0  0  0  0  0  0  0  0
  145.7105  139.2056  154.4327 H   0  0  0  0  0  0  0  0  0  0  0  0
  146.2649  141.4286  156.4726 H   0  0  0  0  0  0  0  0  0  0  0  0
  144.1583  141.0456  154.5115 H   0  0  0  0  0  0  0  0  0  0  0  0
  1  2  2  0  0  0  0
  2  3  1  0  0  0  0
  2 15  1  0  0  0  0
  3  4  1  0  0  0  0
  3 25  1  0  0  0  0
  3 26  1  0  0  0  0
  4 13  1  0  0  0  0
  4  5  1  0  0  0  0
  5  6  2  0  0  0  0
  5 27  1  0  0  0  0
  6  7  1  0  0  0  0
  6 11  1  0  0  0  0
  7  8  1  0  0  0  0
  7  9  1  0  0  0  0
  7 10  1  0  0  0  0
 11 12  2  0  0  0  0
 11 28  1  0  0  0  0
 12 13  1  0  0  0  0
 12 29  1  0  0  0  0
 13 14  2  0  0  0  0
 15 16  1  0  0  0  0
 15 30  1  0  0  0  0
 16 24  1  0  0  0  0
 16 17  1  0  0  0  0
 16 31  1  0  0  0  0
 17 18  1  0  0  0  0
 17 32  1  0  0  0  0
 17 33  1  0  0  0  0
 18 19  1  0  0  0  0
 18 34  1  0  0  0  0
 18 35  1  0  0  0  0
 19 24  1  0  0  0  0
 19 20  1  0  0  0  0
 19 45  1  0  0  0  0
 20 21  1  0  0  0  0
 20 36  1  0  0  0  0
 20 37  1  0  0  0  0
 21 22  1  0  0  0  0
 21 38  1  0  0  0  0
 21 39  1  0  0  0  0
 22 23  1  0  0  0  0
 22 40  1  0  0  0  0
 22 41  1  0  0  0  0
 23 24  1  0  0  0  0
 23 42  1  0  0  0  0
 23 43  1  0  0  0  0
 24 44  1  0  0  0  0
M  CHG  1  19   1
M  END
> <s_m_source_file>
AV-unprocessed.smi

> <i_m_source_file_index>
1976

> <i_lp_mmshare_version>
43012

> <i_f3d_flags>
0

> <s_epik_input>
W0NIMl0xW0NIMl1bQ0gyXVtDSDJdW0NASF0oTjEyKVtDQEBIXShbQ0gyXVtDSDJdMilbTkhdQyg9TylbQ0gyXW4zW2NIXWMoQyhGKShGKUYpW2NIXVtjSF1jMz1P

> <s_epik_cmdline>
J2VwaWtfcHl0aG9uJywgJy1waCcsICc3LjAnLCAnLXRuJywgJzgnLCAnLW1hJywgJzIwMCcsICctbWV0YWxfYmluZGluZycsICctaW1hZScsICc8aW5maWxlLm1hZT4nLCAnLW9tYWUnLCAnPG91dGZpbGUubWFlPic=

> <r_lp_tautomer_probability>
1

> <r_epik_Ionization_Penalty>
0.00171506

> <r_epik_Ionization_Penalty_Charging>
0.00171498

> <r_epik_Ionization_Penalty_Neutral>
7.81737e-08

> <r_epik_State_Penalty>
0.00115937

> <r_epik_Charging_Adjusted_Penalty>
0.00287436

> <i_epik_Tot_Q>
1

> <i_epik_Tot_abs_Q>
1

> <r_epik_Metal_State_Penalty>
-0

> <b_epik_Metal_Only>
0

> <s_lp_Force_Field>
OPLS_2005

> <r_lp_Energy>
45.9566

> <b_lp_Chiralities_Consistent>
1

> <s_lp_Variant>
AV-unprocessed.smi:1976-1

> <Gold.Version>
5.8.1

> <Gold.Id.Protein>
6NUR|6NUR_protein|mol2

> <Gold.PLP.Fitness>
51.0349

> <Gold.PLP.PLP>
-40.6274

> <Gold.PLP.part.hbond>
-2.0000

> <Gold.PLP.part.metal>
0.0000

> <Gold.PLP.part.buried>
-3.0295

> <Gold.PLP.part.nonpolar>
-37.2214

> <Gold.PLP.part.repulsive>
0.3101

> <Gold.PLP.ligand.clash>
0.0000

> <Gold.PLP.ligand.torsion>
0.5080

> <Gold.PLP.Chemscore.Hbond>
3.0000

> <Gold.PLP.Chemscore.CHOScore>
0.7918

> <Gold.PLP.Chemscore.Metal>
0.0000

> <Gold.Chemscore.Hbonds>
donor molecule, donor type, donor heavy atom, donor atom, acceptor molecule, acceptor atom, score
      L1  H    15    30       P1  8028  1.00
      L1  H    19    45       P1 10175  1.46
      L1  C     5    27       P1  8028  0.75

> <Gold.PLP.Chemscore.Internal.Correction>
0.0482

> <Gold.Rescore>
     Score         DG    S(hbond)    S(metal)    S(lipo)     H(rot)  DE(clash)    DE(int)     intcor
     11.95     -15.64       1.81        0.00      69.75       1.58       2.88       0.82       ----

> <Gold.Chemscore.Fitness>
11.9526

> <Gold.Chemscore.DG>
-15.6443

> <Gold.Chemscore.ZeroCoef>
-5.4800

> <Gold.Chemscore.Hbond>
1.8131

> <Gold.Chemscore.Metal>
0.0000

> <Gold.Chemscore.Lipo>
69.7509

> <Gold.Chemscore.Internal_Hbond>
0.0000

> <Gold.Chemscore.DEClash>
2.8766

> <Gold.Chemscore.DEInternal>
0.8152

> <Gold.Chemscore.Rot>
1.5830

> <Gold.Chemscore.Internal.Correction>
   9.000000E+99

> <Gold.Chemscore.Hbonds>
donor molecule, donor type, donor heavy atom, donor atom, acceptor molecule, acceptor atom, score
      L1  H    15    30       P1  8028  0.97
      L1  H    19    45       P1 10175  0.64

> <Gold.Chemscore.Hbond.Weighted>
-6.0559

> <Gold.Chemscore.Metal.Weighted>
-0.0000

> <Gold.Chemscore.Lipo.Weighted>
-8.1609

> <Gold.Chemscore.Internal_Hbond.Weighted>
0.0000

> <Gold.Chemscore.DEClash.Weighted>
2.8766

> <Gold.Chemscore.DEInternal.Weighted>
0.8152

> <Gold.Chemscore.Rot.Weighted>
4.0524

> <Gold.Chemscore.Internal.Correction.Weighted>
   9.000000E+99

> <Gold.Protein.RotatedTorsions>
[ 6907 6896 6895 6894 ] final -114.50 input  -60.11 | X-H torsion
[ 7974 7965 7964 7962 ] final   57.44 input  175.53 | X-H torsion
[ 8008 7997 7996 7995 ] final  -50.85 input   59.86 | X-H torsion
[ 10167 10162 10161 10158 ] final -162.87 input  -65.29 | X-H torsion
[ 10718 10713 10712 10709 ] final -113.45 input   66.30 | X-H torsion
[ 10763 10752 10751 10750 ] final -176.53 input  -60.55 | X-H torsion
[ 11005 11000 10999 10996 ] final   -3.88 input  -57.11 | X-H torsion

> <Gold.Protein.ActiveResidues>
 VAL166  LYS551  ARG553  GLY616  TRP617  ASP618  TYR619  PRO620  LYS621  CYS622 
 ASP623  PHE694  ASN695  SER759  ASP760  ASP761  ALA762  ILE779  LEU786  VAL792 
 PHE793  MET794  SER795  GLU796  ALA797  LYS798  CYS799  TRP800  GLU811  SER814 

> <Gold.Protein.RotatedAtoms>
  150.7907  133.8792  159.3280 H   0  0  0  0  0  0  0  0  0  0  0  0  # atno 6907 bound_to 6896
  151.6631  135.0985  160.0193 H   0  0  0  0  0  0  0  0  0  0  0  0  # atno 6908 bound_to 6896
  152.3980  133.6737  159.6328 H   0  0  0  0  0  0  0  0  0  0  0  0  # atno 6909 bound_to 6896
  145.9290  139.3791  143.0432 H   0  0  0  0  0  0  0  0  0  0  0  0  # atno 7974 bound_to 7965
  154.4070  140.1262  156.4733 H   0  0  0  0  0  0  0  0  0  0  0  0  # atno 8008 bound_to 7997
  155.7157  140.3493  155.4974 H   0  0  0  0  0  0  0  0  0  0  0  0  # atno 8009 bound_to 7997
  155.9260  140.1061  157.1160 H   0  0  0  0  0  0  0  0  0  0  0  0  # atno 8010 bound_to 7997
  139.6361  144.0347  152.2055 H   0  0  0  0  0  0  0  0  0  0  0  0  # atno 10167 bound_to 10162
  156.0767  130.5974  150.8644 H   0  0  0  0  0  0  0  0  0  0  0  0  # atno 10718 bound_to 10713
  154.5712  135.2828  155.0825 H   0  0  0  0  0  0  0  0  0  0  0  0  # atno 10763 bound_to 10752
  154.2197  135.6393  153.5144 H   0  0  0  0  0  0  0  0  0  0  0  0  # atno 10764 bound_to 10752
  153.0058  135.5511  154.6336 H   0  0  0  0  0  0  0  0  0  0  0  0  # atno 10765 bound_to 10752
  140.6742  133.9210  155.8514 H   0  0  0  0  0  0  0  0  0  0  0  0  # atno 11005 bound_to 11000
  145.8451  140.9559  143.0779 LP  0  0  0  0  0  0  0  0  0  0  0  0  # atno 17320 bound_to 7965
  144.6762  140.0334  143.7482 LP  0  0  0  0  0  0  0  0  0  0  0  0  # atno 17321 bound_to 7965
  140.0025  144.6283  150.7717 LP  0  0  0  0  0  0  0  0  0  0  0  0  # atno 17342 bound_to 10162
  140.7466  143.2893  151.3375 LP  0  0  0  0  0  0  0  0  0  0  0  0  # atno 17343 bound_to 10162
  157.5866  131.0945  150.9186 LP  0  0  0  0  0  0  0  0  0  0  0  0  # atno 17370 bound_to 10713
  156.9371  130.5371  149.5279 LP  0  0  0  0  0  0  0  0  0  0  0  0  # atno 17371 bound_to 10713
  141.0368  134.0677  157.3949 LP  0  0  0  0  0  0  0  0  0  0  0  0  # atno 17394 bound_to 11000
  139.8972  135.0149  156.7088 LP  0  0  0  0  0  0  0  0  0  0  0  0  # atno 17395 bound_to 11000

$$$$
