AV-unprocessed.smi:639|AV-procd|sdf|3145|dock5
  -GOLD-   22720 0 73D 1   1.00000     0.00000
 Structure written by MMmdl.
 24 25  0  0  0  0  0  0  0  0  1 V2000
  150.9752  141.5047  156.8590 C   0  0  0  0  0  0  0  0  0  0  0  0
  150.3068  140.6463  155.9047 N   0  0  0  0  0  0  0  0  0  0  0  0
  149.0249  140.1447  155.9516 C   0  0  0  0  0  0  0  0  0  0  0  0
  148.8337  139.3814  154.8320 C   0  0  0  0  0  0  0  0  0  0  0  0
  147.5945  138.6161  154.4105 C   0  0  2  0  0  0  0  0  0  0  0  0
  147.2518  137.4752  155.3864 C   0  0  0  0  0  0  0  0  0  0  0  0
  147.6795  138.1197  153.0448 N   0  0  0  0  0  0  0  0  0  0  0  0
  146.7945  138.7014  152.2236 C   0  0  0  0  0  0  0  0  0  0  0  0
  146.6707  138.4804  151.0213 O   0  0  0  0  0  0  0  0  0  0  0  0
  146.0661  139.5583  152.9456 N   0  0  0  0  0  0  0  0  0  0  0  0
  146.4272  139.5782  154.2277 C   0  0  0  0  0  0  0  0  0  0  0  0
  145.9200  140.2501  155.1246 O   0  0  0  0  0  0  0  0  0  0  0  0
  150.0866  139.4848  154.1573 C   0  0  0  0  0  0  0  0  0  0  0  0
  150.9632  140.2380  154.8006 N   0  0  0  0  0  0  0  0  0  0  0  0
  150.2382  142.0261  157.4707 H   0  0  0  0  0  0  0  0  0  0  0  0
  151.5850  142.2430  156.3369 H   0  0  0  0  0  0  0  0  0  0  0  0
  151.6148  140.9044  157.5065 H   0  0  0  0  0  0  0  0  0  0  0  0
  148.3565  140.3712  156.7692 H   0  0  0  0  0  0  0  0  0  0  0  0
  147.0959  137.8480  156.3993 H   0  0  0  0  0  0  0  0  0  0  0  0
  148.0573  136.7412  155.4266 H   0  0  0  0  0  0  0  0  0  0  0  0
  146.3436  136.9495  155.0881 H   0  0  0  0  0  0  0  0  0  0  0  0
  148.3528  137.4248  152.7562 H   0  0  0  0  0  0  0  0  0  0  0  0
  145.3183  140.1192  152.5644 H   0  0  0  0  0  0  0  0  0  0  0  0
  150.3838  139.0363  153.2208 H   0  0  0  0  0  0  0  0  0  0  0  0
  1  2  1  0  0  0  0
  1 15  1  0  0  0  0
  1 16  1  0  0  0  0
  1 17  1  0  0  0  0
  2 14  1  0  0  0  0
  2  3  1  0  0  0  0
  3  4  2  0  0  0  0
  3 18  1  0  0  0  0
  4  5  1  0  0  0  0
  4 13  1  0  0  0  0
  5 11  1  0  0  0  0
  5  6  1  0  0  0  0
  5  7  1  0  0  0  0
  6 19  1  0  0  0  0
  6 20  1  0  0  0  0
  6 21  1  0  0  0  0
  7  8  1  0  0  0  0
  7 22  1  0  0  0  0
  8  9  2  0  0  0  0
  8 10  1  0  0  0  0
 10 11  1  0  0  0  0
 10 23  1  0  0  0  0
 11 12  2  0  0  0  0
 13 14  2  0  0  0  0
 13 24  1  0  0  0  0
M  END
> <s_m_source_file>
AV-unprocessed.smi

> <i_m_source_file_index>
639

> <i_lp_mmshare_version>
43012

> <i_f3d_flags>
0

> <s_epik_input>
W0NIM11uMVtjSF1jKFtjSF1uMSlbQ0BAXTIoW0NIM10pW05IXUMoPU8pW05IXUMyPU8=

> <s_epik_cmdline>
J2VwaWtfcHl0aG9uJywgJy1waCcsICc3LjAnLCAnLXRuJywgJzgnLCAnLW1hJywgJzIwMCcsICctbWV0YWxfYmluZGluZycsICctaW1hZScsICc8aW5maWxlLm1hZT4nLCAnLW9tYWUnLCAnPG91dGZpbGUubWFlPic=

> <r_lp_tautomer_probability>
1

> <r_epik_Ionization_Penalty>
0.0282779

> <r_epik_Ionization_Penalty_Charging>
0

> <r_epik_Ionization_Penalty_Neutral>
0.0282779

> <r_epik_State_Penalty>
0.022996

> <r_epik_Charging_Adjusted_Penalty>
0.022996

> <i_epik_Tot_Q>
0

> <i_epik_Tot_abs_Q>
0

> <r_epik_Metal_State_Penalty>
0.428533

> <b_epik_Metal_Only>
0

> <s_lp_Force_Field>
OPLS_2005

> <r_lp_Energy>
13.4697

> <b_lp_Chiralities_Consistent>
1

> <s_lp_Variant>
AV-unprocessed.smi:639-2

> <Gold.Version>
5.8.1

> <Gold.Id.Protein>
6NUR|6NUR_protein|mol2

> <Gold.PLP.Fitness>
31.6308

> <Gold.PLP.PLP>
-17.9874

> <Gold.PLP.part.hbond>
-4.0849

> <Gold.PLP.part.metal>
0.0000

> <Gold.PLP.part.buried>
-2.7910

> <Gold.PLP.part.nonpolar>
-13.0810

> <Gold.PLP.part.repulsive>
0.9410

> <Gold.PLP.ligand.clash>
0.0000

> <Gold.PLP.ligand.torsion>
0.1204

> <Gold.PLP.Chemscore.Hbond>
3.8000

> <Gold.PLP.Chemscore.CHOScore>
0.7858

> <Gold.PLP.Chemscore.Metal>
0.0000

> <Gold.Chemscore.Hbonds>
donor molecule, donor type, donor heavy atom, donor atom, acceptor molecule, acceptor atom, score
      L1  H     7    22       P1  7948  1.00
      L1  H    10    23       P1 10175  1.00
      P1  H  7954  7966       L1     9  1.00
      P1  H  7989  7998       L1    14  0.80
      L1  C    13    24       P1  7957  0.79

> <Gold.PLP.Chemscore.Internal.Correction>
0.1268

> <Gold.Rescore>
     Score         DG    S(hbond)    S(metal)    S(lipo)     H(rot)  DE(clash)    DE(int)     intcor
     15.55     -16.47       3.16        0.00      25.62       1.00       0.72       0.21       ----

> <Gold.Chemscore.Fitness>
15.5496

> <Gold.Chemscore.DG>
-16.4745

> <Gold.Chemscore.ZeroCoef>
-5.4800

> <Gold.Chemscore.Hbond>
3.1607

> <Gold.Chemscore.Metal>
0.0000

> <Gold.Chemscore.Lipo>
25.6212

> <Gold.Chemscore.Internal_Hbond>
0.0000

> <Gold.Chemscore.DEClash>
0.7186

> <Gold.Chemscore.DEInternal>
0.2063

> <Gold.Chemscore.Rot>
1.0000

> <Gold.Chemscore.Internal.Correction>
   9.000000E+99

> <Gold.Chemscore.Hbonds>
donor molecule, donor type, donor heavy atom, donor atom, acceptor molecule, acceptor atom, score
      L1  H     7    22       P1  7948  0.97
      L1  H    10    23       P1 10175  0.87
      P1  H  7954  7966       L1     9  0.94
      P1  H  7989  7998       L1    14  0.12

> <Gold.Chemscore.Hbond.Weighted>
-10.5568

> <Gold.Chemscore.Metal.Weighted>
-0.0000

> <Gold.Chemscore.Lipo.Weighted>
-2.9977

> <Gold.Chemscore.Internal_Hbond.Weighted>
0.0000

> <Gold.Chemscore.DEClash.Weighted>
0.7186

> <Gold.Chemscore.DEInternal.Weighted>
0.2063

> <Gold.Chemscore.Rot.Weighted>
2.5600

> <Gold.Chemscore.Internal.Correction.Weighted>
   9.000000E+99

> <Gold.Protein.RotatedTorsions>
[ 6907 6896 6895 6894 ] final   -8.41 input  -60.11 | X-H torsion
[ 7974 7965 7964 7962 ] final   64.50 input  175.53 | X-H torsion
[ 8008 7997 7996 7995 ] final  -51.35 input   59.86 | X-H torsion
[ 10167 10162 10161 10158 ] final   86.55 input  -65.29 | X-H torsion
[ 10718 10713 10712 10709 ] final -176.94 input   66.30 | X-H torsion
[ 10763 10752 10751 10750 ] final  168.92 input  -60.55 | X-H torsion
[ 11005 11000 10999 10996 ] final   47.65 input  -57.11 | X-H torsion

> <Gold.Protein.ActiveResidues>
 VAL166  LYS551  ARG553  GLY616  TRP617  ASP618  TYR619  PRO620  LYS621  CYS622 
 ASP623  PHE694  ASN695  SER759  ASP760  ASP761  ALA762  ILE779  LEU786  VAL792 
 PHE793  MET794  SER795  GLU796  ALA797  LYS798  CYS799  TRP800  GLU811  SER814 

> <Gold.Protein.RotatedAtoms>
  151.4341  135.1013  159.9650 H   0  0  0  0  0  0  0  0  0  0  0  0  # atno 6907 bound_to 6896
  152.4946  133.8590  159.7251 H   0  0  0  0  0  0  0  0  0  0  0  0  # atno 6908 bound_to 6896
  150.9134  133.6910  159.2877 H   0  0  0  0  0  0  0  0  0  0  0  0  # atno 6909 bound_to 6896
  145.8495  139.3245  143.0884 H   0  0  0  0  0  0  0  0  0  0  0  0  # atno 7974 bound_to 7965
  154.4081  140.1250  156.4814 H   0  0  0  0  0  0  0  0  0  0  0  0  # atno 8008 bound_to 7997
  155.7081  140.3494  155.4942 H   0  0  0  0  0  0  0  0  0  0  0  0  # atno 8009 bound_to 7997
  155.9325  140.1072  157.1111 H   0  0  0  0  0  0  0  0  0  0  0  0  # atno 8010 bound_to 7997
  139.8864  144.6411  150.8787 H   0  0  0  0  0  0  0  0  0  0  0  0  # atno 10167 bound_to 10162
  156.8221  130.9623  151.3111 H   0  0  0  0  0  0  0  0  0  0  0  0  # atno 10718 bound_to 10713
  154.3757  135.2753  155.2241 H   0  0  0  0  0  0  0  0  0  0  0  0  # atno 10763 bound_to 10752
  154.4369  135.5964  153.6108 H   0  0  0  0  0  0  0  0  0  0  0  0  # atno 10764 bound_to 10752
  152.9836  135.6009  154.3993 H   0  0  0  0  0  0  0  0  0  0  0  0  # atno 10765 bound_to 10752
  140.1260  134.4767  155.8559 H   0  0  0  0  0  0  0  0  0  0  0  0  # atno 11005 bound_to 11000
  145.9374  140.9005  143.0325 LP  0  0  0  0  0  0  0  0  0  0  0  0  # atno 17320 bound_to 7965
  144.6730  140.1501  143.7430 LP  0  0  0  0  0  0  0  0  0  0  0  0  # atno 17321 bound_to 7965
  140.7735  143.3545  151.1949 LP  0  0  0  0  0  0  0  0  0  0  0  0  # atno 17342 bound_to 10162
  139.7149  143.9316  152.2963 LP  0  0  0  0  0  0  0  0  0  0  0  0  # atno 17343 bound_to 10162
  157.6451  130.8837  149.9523 LP  0  0  0  0  0  0  0  0  0  0  0  0  # atno 17370 bound_to 10713
  156.0982  130.3657  150.0266 LP  0  0  0  0  0  0  0  0  0  0  0  0  # atno 17371 bound_to 10713
  141.2161  133.6778  156.6979 LP  0  0  0  0  0  0  0  0  0  0  0  0  # atno 17394 bound_to 11000
  140.2903  134.8246  157.4011 LP  0  0  0  0  0  0  0  0  0  0  0  0  # atno 17395 bound_to 11000

$$$$
