#       Name:                AV-unprocessed.smi:72
#       Creating user name   scv26
#       Creation time:       Thu Mar 26 16:56:58 2020


#       File generated by GOLD software.
#

@<TRIPOS>MOLECULE
AV-unprocessed.smi:72
    41    42     1
SMALL
NO_CHARGES


@<TRIPOS>ATOM
      1 ****         1.1708   4.5689  -1.0369 N.2            1 S1                 0.0000
      2 ****         0.6386   3.4811  -0.6063 C.2            1 S1                 0.0000
      3 ****         0.8164   2.9441   0.6767 N.2            1 S1                 0.0000
      4 ****         0.2458   1.8151   0.9634 C.2            1 S1                 0.0000
      5 ****        -0.5338   1.0619  -0.0131 N.am           1 S1                 0.0000
      6 ****        -1.2324  -0.2416   0.3532 C.3            1 S1                 0.0000
      7 ****        -0.7496  -0.7068   1.5848 O.3            1 S1                 0.0000
      8 ****         0.1289  -1.8198   1.4259 C.3            1 S1                 0.0000
      9 ****         1.5886  -1.3481   1.2316 C.3            1 S1                 0.0000
     10 ****         2.1132  -0.8913   2.4600 O.3            1 S1                 0.0000
     11 ****        -0.4946  -2.5235   0.2161 C.3            1 S1                 0.0000
     12 ****         0.4107  -3.3701  -0.4649 O.3            1 S1                 0.0000
     13 ****        -0.9647  -1.3749  -0.6674 C.3            1 S1                 0.0000
     14 ****        -2.1424  -1.7616  -1.3468 O.3            1 S1                 0.0000
     15 ****        -0.8094   1.6508  -1.2749 C.2            1 S1                 0.0000
     16 ****        -1.5691   1.1382  -2.0960 O.2            1 S1                 0.0000
     17 ****        -0.1839   2.8207  -1.5272 N.am           1 S1                 0.0000
     18 ****        -2.2841   0.0328   0.4515 H              1 S1                 0.0000
     19 ****         0.0729  -2.4674   2.3021 H              1 S1                 0.0000
     20 ****        -1.3477  -3.1117   0.5595 H              1 S1                 0.0000
     21 ****        -0.1809  -1.0812  -1.3676 H              1 S1                 0.0000
     22 ****         0.8879   4.7506  -1.9888 H              1 S1                 0.0000
     23 ****         0.3211   1.3664   1.9540 H              1 S1                 0.0000
     24 ****         2.2203  -2.1796   0.9199 H              1 S1                 0.0000
     25 ****         1.6827  -0.5814   0.4643 H              1 S1                 0.0000
     26 ****         3.0119  -0.6317   2.3252 H              1 S1                 0.0000
     27 ****        -0.0400  -3.7565  -1.2004 H              1 S1                 0.0000
     28 ****        -2.4376  -1.0305  -1.8688 H              1 S1                 0.0000
     29 ****        -0.3418   3.2475  -2.4282 H              1 S1                 0.0000
     30 ****         1.7807   5.1544  -0.5028 LP             1 S1                 0.0000
     31 ****         1.3720   3.4220   1.3571 LP             1 S1                 0.0000
     32 ****        -1.5250  -0.9852   2.1516 LP             1 S1                 0.0000
     33 ****        -0.2541   0.0340   2.0384 LP             1 S1                 0.0000
     34 ****         2.0724  -1.6253   3.1378 LP             1 S1                 0.0000
     35 ****         1.5812  -0.1088   2.7836 LP             1 S1                 0.0000
     36 ****         0.7300  -4.0895   0.1519 LP             1 S1                 0.0000
     37 ****         1.1927  -2.8378  -0.7892 LP             1 S1                 0.0000
     38 ****        -2.8486  -2.0110  -0.6842 LP             1 S1                 0.0000
     39 ****        -1.9497  -2.5440  -1.9390 LP             1 S1                 0.0000
     40 ****        -2.0212   0.2714  -1.8858 LP             1 S1                 0.0000
     41 ****        -1.7344   1.5885  -2.9735 LP             1 S1                 0.0000
@<TRIPOS>BOND
    1    1    2 2     
    2    1   22 1     
    3    2   17 1     
    4    2    3 1     
    5    3    4 2     
    6    4    5 1     
    7    4   23 1     
    8    5    6 1     
    9    5   15 am    
   10    6   18 1     
   11    6   13 1     
   12    6    7 1     
   13    7    8 1     
   14    8   19 1     
   15    8    9 1     
   16    8   11 1     
   17    9   10 1     
   18    9   24 1     
   19    9   25 1     
   20   10   26 1     
   21   11   20 1     
   22   11   12 1     
   23   11   13 1     
   24   12   27 1     
   25   13   21 1     
   26   13   14 1     
   27   14   28 1     
   28   15   16 2     
   29   15   17 am    
   30   17   29 1     
   31    1   30 1     
   32    3   31 1     
   33    7   32 1     
   34    7   33 1     
   35   10   34 1     
   36   10   35 1     
   37   12   36 1     
   38   12   37 1     
   39   14   38 1     
   40   14   39 1     
   41   16   40 1     
   42   16   41 1     
@<TRIPOS>SUBSTRUCTURE
      1 S1             1
@<TRIPOS>SET
LONE_PAIRS      STATIC     ATOMS    <user>   **** ""
12 30 31 32 33 34 35 36 37 38 39 40 41
DONOR_HYDROGENS      STATIC     ATOMS    <user>   **** ""
5 22 26 27 28 29
ATOM$BLUE        STATIC     ATOMS    COLORGROUP SYSTEM
12 30 31 32 33 34 35 36 37 38 39 40 41
ATOM$RED        STATIC     ATOMS    COLORGROUP SYSTEM
5 22 26 27 28 29
