AV-unprocessed.smi:1691|AV-procd|sdf|6775|dock10
  -GOLD-   22720 7533D 1   1.00000     0.00000
 Structure written by MMmdl.
 44 45  0  0  0  0  0  0  0  0  2 V2000
  146.8078  140.9154  154.0397 C   0  0  0  0  0  0  0  0  0  0  0  0
  147.6223  139.7253  153.4935 C   0  0  0  0  0  0  0  0  0  0  0  0
  147.1179  139.3874  152.0772 C   0  0  0  0  0  0  0  0  0  0  0  0
  147.5882  138.5046  154.4601 C   0  0  1  0  0  0  0  0  0  0  0  0
  146.3784  137.5641  154.1933 C   0  0  0  0  0  0  0  0  0  0  0  0
  146.6279  136.5880  153.1362 N   0  0  0  0  0  0  0  0  0  0  0  0
  145.7423  135.6941  152.6740 C   0  0  0  0  0  0  0  0  0  0  0  0
  144.5920  135.5910  153.0995 O   0  0  0  0  0  0  0  0  0  0  0  0
  146.2709  134.9485  151.6906 N   0  0  0  0  0  0  0  0  0  0  0  0
  145.6268  133.9246  150.9524 C   0  0  0  0  0  0  0  0  0  0  0  0
  144.2782  133.8539  150.4948 C   0  0  0  0  0  0  0  0  0  0  0  0
  144.0550  132.7276  149.8330 N   0  0  0  0  0  0  0  0  0  0  0  0
  145.2414  132.0804  149.8648 N   0  0  0  0  0  0  0  0  0  0  0  0
  146.2249  132.7728  150.5361 C   0  0  0  0  0  0  0  0  0  0  0  0
  148.9152  137.8106  154.4465 N   0  3  0  0  0  0  0  0  0  0  0  0
  150.1033  138.6977  154.4990 C   0  0  0  0  0  0  0  0  0  0  0  0
  151.3764  137.8812  154.2211 C   0  0  0  0  0  0  0  0  0  0  0  0
  151.4724  136.8120  155.1553 O   0  0  0  0  0  0  0  0  0  0  0  0
  150.3767  135.9094  155.0535 C   0  0  0  0  0  0  0  0  0  0  0  0
  149.0660  136.6516  155.3618 C   0  0  0  0  0  0  0  0  0  0  0  0
  145.3621  131.1770  149.4290 H   0  0  0  0  0  0  0  0  0  0  0  0
  145.7664  140.6387  154.2069 H   0  0  0  0  0  0  0  0  0  0  0  0
  146.8178  141.7523  153.3406 H   0  0  0  0  0  0  0  0  0  0  0  0
  147.2099  141.2898  154.9811 H   0  0  0  0  0  0  0  0  0  0  0  0
  148.6554  140.0586  153.3901 H   0  0  0  0  0  0  0  0  0  0  0  0
  146.1212  138.9456  152.1047 H   0  0  0  0  0  0  0  0  0  0  0  0
  147.7818  138.6949  151.5606 H   0  0  0  0  0  0  0  0  0  0  0  0
  147.0638  140.2818  151.4557 H   0  0  0  0  0  0  0  0  0  0  0  0
  147.4547  138.9184  155.4611 H   0  0  0  0  0  0  0  0  0  0  0  0
  146.1564  136.9743  155.0814 H   0  0  0  0  0  0  0  0  0  0  0  0
  145.4818  138.1539  153.9964 H   0  0  0  0  0  0  0  0  0  0  0  0
  147.5517  136.5898  152.7284 H   0  0  0  0  0  0  0  0  0  0  0  0
  147.2298  135.1365  151.4377 H   0  0  0  0  0  0  0  0  0  0  0  0
  143.4674  134.5577  150.6120 H   0  0  0  0  0  0  0  0  0  0  0  0
  147.2303  132.3960  150.6529 H   0  0  0  0  0  0  0  0  0  0  0  0
  150.0112  139.4927  153.7584 H   0  0  0  0  0  0  0  0  0  0  0  0
  150.1890  139.1736  155.4747 H   0  0  0  0  0  0  0  0  0  0  0  0
  151.3743  137.4905  153.2023 H   0  0  0  0  0  0  0  0  0  0  0  0
  152.2580  138.5155  154.3170 H   0  0  0  0  0  0  0  0  0  0  0  0
  150.3475  135.4638  154.0578 H   0  0  0  0  0  0  0  0  0  0  0  0
  150.5228  135.0949  155.7631 H   0  0  0  0  0  0  0  0  0  0  0  0
  149.0799  136.9824  156.3990 H   0  0  0  0  0  0  0  0  0  0  0  0
  148.2237  135.9690  155.2529 H   0  0  0  0  0  0  0  0  0  0  0  0
  148.9597  137.4113  153.5197 H   0  0  0  0  0  0  0  0  0  0  0  0
  1  2  1  0  0  0  0
  1 22  1  0  0  0  0
  1 23  1  0  0  0  0
  1 24  1  0  0  0  0
  2  3  1  0  0  0  0
  2  4  1  0  0  0  0
  2 25  1  0  0  0  0
  3 26  1  0  0  0  0
  3 27  1  0  0  0  0
  3 28  1  0  0  0  0
  4  5  1  0  0  0  0
  4 15  1  0  0  0  0
  4 29  1  0  0  0  0
  5  6  1  0  0  0  0
  5 30  1  0  0  0  0
  5 31  1  0  0  0  0
  6  7  1  0  0  0  0
  6 32  1  0  0  0  0
  7  8  2  0  0  0  0
  7  9  1  0  0  0  0
  9 10  1  0  0  0  0
  9 33  1  0  0  0  0
 10 14  2  0  0  0  0
 10 11  1  0  0  0  0
 11 12  2  0  0  0  0
 11 34  1  0  0  0  0
 12 13  1  0  0  0  0
 13 21  1  0  0  0  0
 13 14  1  0  0  0  0
 14 35  1  0  0  0  0
 15 20  1  0  0  0  0
 15 16  1  0  0  0  0
 15 44  1  0  0  0  0
 16 17  1  0  0  0  0
 16 36  1  0  0  0  0
 16 37  1  0  0  0  0
 17 18  1  0  0  0  0
 17 38  1  0  0  0  0
 17 39  1  0  0  0  0
 18 19  1  0  0  0  0
 19 20  1  0  0  0  0
 19 40  1  0  0  0  0
 19 41  1  0  0  0  0
 20 42  1  0  0  0  0
 20 43  1  0  0  0  0
M  CHG  1  15   1
M  END
> <s_m_source_file>
AV-unprocessed.smi

> <i_m_source_file_index>
1691

> <i_lp_mmshare_version>
43012

> <i_f3d_flags>
0

> <s_epik_input>
W0NIMl0xW0NIMl1PW0NIMl1bQ0gyXU4xW0NASF0oW0NIXShbQ0gzXSlbQ0gzXSlbQ0gyXVtOSF1DKD1PKVtOSF1jMltjSF1uW25IXVtjSF0y

> <s_epik_cmdline>
J2VwaWtfcHl0aG9uJywgJy1waCcsICc3LjAnLCAnLXRuJywgJzgnLCAnLW1hJywgJzIwMCcsICctbWV0YWxfYmluZGluZycsICctaW1hZScsICc8aW5maWxlLm1hZT4nLCAnLW9tYWUnLCAnPG91dGZpbGUubWFlPic=

> <r_lp_tautomer_probability>
0.5

> <r_epik_Ionization_Penalty>
0.363378

> <r_epik_Ionization_Penalty_Charging>
0.363339

> <r_epik_Ionization_Penalty_Neutral>
3.97246e-05

> <r_epik_State_Penalty>
0.36031

> <r_epik_Charging_Adjusted_Penalty>
0.723649

> <i_epik_Tot_Q>
1

> <i_epik_Tot_abs_Q>
1

> <r_epik_Metal_State_Penalty>
0.360311

> <b_epik_Metal_Only>
0

> <s_lp_Force_Field>
OPLS_2005

> <r_lp_Energy>
33.682

> <b_lp_Chiralities_Consistent>
1

> <s_lp_Variant>
AV-unprocessed.smi:1691-2

> <Gold.Version>
5.8.1

> <Gold.Id.Protein>
6NUR|6NUR_protein|mol2

> <Gold.PLP.Fitness>
45.3393

> <Gold.PLP.PLP>
-27.7584

> <Gold.PLP.part.hbond>
-4.0000

> <Gold.PLP.part.metal>
0.0000

> <Gold.PLP.part.buried>
-2.3666

> <Gold.PLP.part.nonpolar>
-23.2232

> <Gold.PLP.part.repulsive>
0.6255

> <Gold.PLP.ligand.clash>
0.0000

> <Gold.PLP.ligand.torsion>
1.3571

> <Gold.PLP.Chemscore.Hbond>
4.9360

> <Gold.PLP.Chemscore.CHOScore>
1.7326

> <Gold.PLP.Chemscore.Metal>
0.0000

> <Gold.Chemscore.Hbonds>
donor molecule, donor type, donor heavy atom, donor atom, acceptor molecule, acceptor atom, score
      L1  H     6    32       P1  7948  1.00
      L1  H     9    33       P1  7948  0.95
      L1  H    15    44       P1  7948  2.00
      P1  H 10752 10764       L1    18  0.95
      L1  C    11    34       P1 10186  0.62
      L1  C    14    35       P1 10747  1.00

> <Gold.PLP.Chemscore.Internal.Correction>
0.2893

> <Gold.Rescore>
     Score         DG    S(hbond)    S(metal)    S(lipo)     H(rot)  DE(clash)    DE(int)     intcor
     17.22     -18.73       2.95        0.00      69.52       1.84       0.13       1.38       ----

> <Gold.Chemscore.Fitness>
17.2244

> <Gold.Chemscore.DG>
-18.7344

> <Gold.Chemscore.ZeroCoef>
-5.4800

> <Gold.Chemscore.Hbond>
2.9454

> <Gold.Chemscore.Metal>
0.0000

> <Gold.Chemscore.Lipo>
69.5167

> <Gold.Chemscore.Internal_Hbond>
0.0000

> <Gold.Chemscore.DEClash>
0.1334

> <Gold.Chemscore.DEInternal>
1.3766

> <Gold.Chemscore.Rot>
1.8425

> <Gold.Chemscore.Internal.Correction>
   9.000000E+99

> <Gold.Chemscore.Hbonds>
donor molecule, donor type, donor heavy atom, donor atom, acceptor molecule, acceptor atom, score
      L1  H     6    32       P1  7948  1.00
      L1  H     9    33       P1  7948  0.70
      L1  H    15    44       P1  7948  0.94
      P1  H 10752 10764       L1    18  0.10

> <Gold.Chemscore.Hbond.Weighted>
-9.8378

> <Gold.Chemscore.Metal.Weighted>
-0.0000

> <Gold.Chemscore.Lipo.Weighted>
-8.1334

> <Gold.Chemscore.Internal_Hbond.Weighted>
0.0000

> <Gold.Chemscore.DEClash.Weighted>
0.1334

> <Gold.Chemscore.DEInternal.Weighted>
1.3766

> <Gold.Chemscore.Rot.Weighted>
4.7168

> <Gold.Chemscore.Internal.Correction.Weighted>
   9.000000E+99

> <Gold.Protein.RotatedTorsions>
[ 6907 6896 6895 6894 ] final  -92.34 input  -60.11 | X-H torsion
[ 7974 7965 7964 7962 ] final   34.37 input  175.53 | X-H torsion
[ 8008 7997 7996 7995 ] final   43.00 input   59.86 | X-H torsion
[ 10167 10162 10161 10158 ] final  152.04 input  -65.29 | X-H torsion
[ 10718 10713 10712 10709 ] final  114.94 input   66.30 | X-H torsion
[ 10763 10752 10751 10750 ] final  -69.55 input  -60.55 | X-H torsion
[ 11005 11000 10999 10996 ] final  131.33 input  -57.11 | X-H torsion

> <Gold.Protein.ActiveResidues>
 VAL166  LYS551  ARG553  GLY616  TRP617  ASP618  TYR619  PRO620  LYS621  CYS622 
 ASP623  PHE694  ASN695  SER759  ASP760  ASP761  ALA762  ILE779  LEU786  VAL792 
 PHE793  MET794  SER795  GLU796  ALA797  LYS798  CYS799  TRP800  GLU811  SER814 

> <Gold.Protein.RotatedAtoms>
  150.6905  134.2137  159.4368 H   0  0  0  0  0  0  0  0  0  0  0  0  # atno 6907 bound_to 6896
  152.0097  134.9880  160.0577 H   0  0  0  0  0  0  0  0  0  0  0  0  # atno 6908 bound_to 6896
  152.1500  133.4481  159.4846 H   0  0  0  0  0  0  0  0  0  0  0  0  # atno 6909 bound_to 6896
  146.1357  139.6277  142.9197 H   0  0  0  0  0  0  0  0  0  0  0  0  # atno 7974 bound_to 7965
  155.2955  140.3381  155.4250 H   0  0  0  0  0  0  0  0  0  0  0  0  # atno 8008 bound_to 7997
  156.2026  140.1738  156.7907 H   0  0  0  0  0  0  0  0  0  0  0  0  # atno 8009 bound_to 7997
  154.5578  140.0693  156.8756 H   0  0  0  0  0  0  0  0  0  0  0  0  # atno 8010 bound_to 7997
  139.4836  144.5391  151.7595 H   0  0  0  0  0  0  0  0  0  0  0  0  # atno 10167 bound_to 10162
  157.6252  131.1005  150.7258 H   0  0  0  0  0  0  0  0  0  0  0  0  # atno 10718 bound_to 10713
  154.4050  135.6022  153.5919 H   0  0  0  0  0  0  0  0  0  0  0  0  # atno 10763 bound_to 10752
  152.9789  135.5916  154.4138 H   0  0  0  0  0  0  0  0  0  0  0  0  # atno 10764 bound_to 10752
  154.3942  135.2842  155.2114 H   0  0  0  0  0  0  0  0  0  0  0  0  # atno 10765 bound_to 10752
  139.9724  134.9573  156.9423 H   0  0  0  0  0  0  0  0  0  0  0  0  # atno 11005 bound_to 11000
  145.5161  141.0434  143.2461 LP  0  0  0  0  0  0  0  0  0  0  0  0  # atno 17320 bound_to 7965
  144.7737  139.6677  143.7184 LP  0  0  0  0  0  0  0  0  0  0  0  0  # atno 17321 bound_to 7965
  140.4928  144.1286  150.5954 LP  0  0  0  0  0  0  0  0  0  0  0  0  # atno 17342 bound_to 10162
  140.4152  143.2638  151.9784 LP  0  0  0  0  0  0  0  0  0  0  0  0  # atno 17343 bound_to 10162
  156.7608  130.4798  149.5437 LP  0  0  0  0  0  0  0  0  0  0  0  0  # atno 17370 bound_to 10713
  156.1419  130.6250  151.0479 LP  0  0  0  0  0  0  0  0  0  0  0  0  # atno 17371 bound_to 10713
  140.5265  134.0855  155.7305 LP  0  0  0  0  0  0  0  0  0  0  0  0  # atno 17394 bound_to 11000
  141.1403  133.9150  157.2341 LP  0  0  0  0  0  0  0  0  0  0  0  0  # atno 17395 bound_to 11000

$$$$
