AV-unprocessed.smi:170|AV-procd|sdf|1407|dock3
  -GOLD-   2262019163D 1   1.00000     0.00000
 Structure written by MMmdl.
 57 61  0  0  0  0  0  0  0  0  1 V2000
  147.8174  136.3204  154.3430 O   0  0  0  0  0  0  0  0  0  0  0  0
  148.8113  136.4380  155.3441 C   0  0  1  0  0  0  0  0  0  0  0  0
  148.2533  137.1640  156.5837 C   0  0  0  0  0  0  0  0  0  0  0  0
  149.3001  137.7758  157.3819 N   0  0  0  0  0  0  0  0  0  0  0  0
  149.3885  137.7957  158.7552 C   0  0  0  0  0  0  0  0  0  0  0  0
  150.4323  138.4150  159.2351 N   0  0  0  0  0  0  0  0  0  0  0  0
  151.1126  138.8586  158.1069 C   0  0  0  0  0  0  0  0  0  0  0  0
  152.3112  139.5965  157.8895 C   0  0  0  0  0  0  0  0  0  0  0  0
  153.1180  140.0720  158.8649 N   0  0  0  0  0  0  0  0  0  0  0  0
  153.5653  138.9906  159.7348 C   0  0  0  0  0  0  0  0  0  0  0  0
  154.6248  139.5041  160.7181 C   0  0  0  0  0  0  0  0  0  0  0  0
  154.0808  140.5899  161.4560 O   0  0  0  0  0  0  0  0  0  0  0  0
  153.7292  141.6827  160.6144 C   0  0  0  0  0  0  0  0  0  0  0  0
  152.6472  141.2569  159.5939 C   0  0  1  0  0  0  0  0  0  0  0  0
  152.2690  142.4226  158.6430 C   0  0  0  0  0  0  0  0  0  0  0  0
  151.5766  143.5944  159.3356 C   0  0  0  0  0  0  0  0  0  0  0  0
  151.4678  144.9497  158.6199 C   0  0  0  0  0  0  0  0  0  0  0  0
  151.6318  145.6288  159.9822 C   0  0  0  0  0  0  0  0  0  0  0  0
  152.2962  144.3386  160.4705 C   0  0  0  0  0  0  0  0  0  0  0  0
  152.6856  139.8395  156.6095 N   0  0  0  0  0  0  0  0  0  0  0  0
  151.9297  139.4020  155.5977 C   0  0  0  0  0  0  0  0  0  0  0  0
  150.7878  138.7121  155.6451 N   0  0  0  0  0  0  0  0  0  0  0  0
  150.4151  138.4592  156.9326 C   0  0  0  0  0  0  0  0  0  0  0  0
  149.4002  135.0536  155.6794 C   0  0  2  0  0  0  0  0  0  0  0  0
  150.1358  134.3311  154.5379 C   0  0  0  0  0  0  0  0  0  0  0  0
  149.5523  132.9264  154.5581 C   0  0  0  0  0  0  0  0  0  0  0  0
  148.8764  132.8405  155.9220 C   0  0  0  0  0  0  0  0  0  0  0  0
  148.3876  134.1562  156.1194 O   0  0  0  0  0  0  0  0  0  0  0  0
  148.2174  136.4975  153.5053 H   0  0  0  0  0  0  0  0  0  0  0  0
  149.6107  137.0457  154.9182 H   0  0  0  0  0  0  0  0  0  0  0  0
  147.5420  137.9374  156.2907 H   0  0  0  0  0  0  0  0  0  0  0  0
  147.7082  136.4630  157.2173 H   0  0  0  0  0  0  0  0  0  0  0  0
  148.6485  137.3353  159.3936 H   0  0  0  0  0  0  0  0  0  0  0  0
  152.7142  138.5862  160.2850 H   0  0  0  0  0  0  0  0  0  0  0  0
  153.9802  138.1764  159.1384 H   0  0  0  0  0  0  0  0  0  0  0  0
  154.9127  138.7117  161.4090 H   0  0  0  0  0  0  0  0  0  0  0  0
  155.5288  139.8172  160.1933 H   0  0  0  0  0  0  0  0  0  0  0  0
  153.3630  142.4836  161.2557 H   0  0  0  0  0  0  0  0  0  0  0  0
  154.6180  142.0620  160.1070 H   0  0  0  0  0  0  0  0  0  0  0  0
  151.7610  140.9727  160.1613 H   0  0  0  0  0  0  0  0  0  0  0  0
  153.1656  142.7764  158.1327 H   0  0  0  0  0  0  0  0  0  0  0  0
  151.6100  142.0594  157.8544 H   0  0  0  0  0  0  0  0  0  0  0  0
  150.5867  143.3074  159.6958 H   0  0  0  0  0  0  0  0  0  0  0  0
  152.3069  145.1427  157.9488 H   0  0  0  0  0  0  0  0  0  0  0  0
  150.5111  145.1304  158.1290 H   0  0  0  0  0  0  0  0  0  0  0  0
  152.2794  146.5060  159.9820 H   0  0  0  0  0  0  0  0  0  0  0  0
  150.6780  145.8266  160.4743 H   0  0  0  0  0  0  0  0  0  0  0  0
  152.0082  144.0273  161.4751 H   0  0  0  0  0  0  0  0  0  0  0  0
  153.3808  144.3539  160.3500 H   0  0  0  0  0  0  0  0  0  0  0  0
  152.2907  139.6404  154.6081 H   0  0  0  0  0  0  0  0  0  0  0  0
  150.0975  135.1665  156.5118 H   0  0  0  0  0  0  0  0  0  0  0  0
  149.9901  134.7989  153.5637 H   0  0  0  0  0  0  0  0  0  0  0  0
  151.2084  134.3133  154.7338 H   0  0  0  0  0  0  0  0  0  0  0  0
  148.8031  132.8285  153.7716 H   0  0  0  0  0  0  0  0  0  0  0  0
  150.3024  132.1494  154.4087 H   0  0  0  0  0  0  0  0  0  0  0  0
  148.0739  132.1033  155.9501 H   0  0  0  0  0  0  0  0  0  0  0  0
  149.5987  132.5966  156.7026 H   0  0  0  0  0  0  0  0  0  0  0  0
  1  2  1  0  0  0  0
  1 29  1  0  0  0  0
  2  3  1  0  0  0  0
  2 24  1  0  0  0  0
  2 30  1  0  0  0  0
  3  4  1  0  0  0  0
  3 31  1  0  0  0  0
  3 32  1  0  0  0  0
  4 23  1  0  0  0  0
  4  5  1  0  0  0  0
  5  6  2  0  0  0  0
  5 33  1  0  0  0  0
  6  7  1  0  0  0  0
  7 23  2  0  0  0  0
  7  8  1  0  0  0  0
  8  9  1  0  0  0  0
  8 20  2  0  0  0  0
  9 14  1  0  0  0  0
  9 10  1  0  0  0  0
 10 11  1  0  0  0  0
 10 34  1  0  0  0  0
 10 35  1  0  0  0  0
 11 12  1  0  0  0  0
 11 36  1  0  0  0  0
 11 37  1  0  0  0  0
 12 13  1  0  0  0  0
 13 14  1  0  0  0  0
 13 38  1  0  0  0  0
 13 39  1  0  0  0  0
 14 15  1  0  0  0  0
 14 40  1  0  0  0  0
 15 16  1  0  0  0  0
 15 41  1  0  0  0  0
 15 42  1  0  0  0  0
 16 19  1  0  0  0  0
 16 17  1  0  0  0  0
 16 43  1  0  0  0  0
 17 18  1  0  0  0  0
 17 44  1  0  0  0  0
 17 45  1  0  0  0  0
 18 19  1  0  0  0  0
 18 46  1  0  0  0  0
 18 47  1  0  0  0  0
 19 48  1  0  0  0  0
 19 49  1  0  0  0  0
 20 21  1  0  0  0  0
 21 22  2  0  0  0  0
 21 50  1  0  0  0  0
 22 23  1  0  0  0  0
 24 28  1  0  0  0  0
 24 25  1  0  0  0  0
 24 51  1  0  0  0  0
 25 26  1  0  0  0  0
 25 52  1  0  0  0  0
 25 53  1  0  0  0  0
 26 27  1  0  0  0  0
 26 54  1  0  0  0  0
 26 55  1  0  0  0  0
 27 28  1  0  0  0  0
 27 56  1  0  0  0  0
 27 57  1  0  0  0  0
M  END
> <s_m_source_file>
AV-unprocessed.smi

> <i_m_source_file_index>
170

> <i_lp_mmshare_version>
43012

> <i_f3d_flags>
0

> <s_epik_input>
TzFbQ0gyXVtDSDJdW0NIMl1bQ0BIXTFbQ0BIXShbT0hdKVtDSDJdbihbY0hdbjIpYyhjMjMpbltjSF1uYzNONFtDSDJdW0NIMl1PW0NIMl1bQ0BIXTRbQ0gyXVtDSF01W0NIMl1bQ0gyXVtDSDJdNQ==

> <s_epik_cmdline>
J2VwaWtfcHl0aG9uJywgJy1waCcsICc3LjAnLCAnLXRuJywgJzgnLCAnLW1hJywgJzIwMCcsICctbWV0YWxfYmluZGluZycsICctaW1hZScsICc8aW5maWxlLm1hZT4nLCAnLW9tYWUnLCAnPG91dGZpbGUubWFlPic=

> <r_lp_tautomer_probability>
1

> <r_epik_Ionization_Penalty>
4.98275e-05

> <r_epik_Ionization_Penalty_Charging>
0

> <r_epik_Ionization_Penalty_Neutral>
4.98275e-05

> <r_epik_State_Penalty>
-0

> <r_epik_Charging_Adjusted_Penalty>
0

> <i_epik_Tot_Q>
0

> <i_epik_Tot_abs_Q>
0

> <r_epik_Metal_State_Penalty>
-0

> <b_epik_Metal_Only>
0

> <s_lp_Force_Field>
OPLS_2005

> <r_lp_Energy>
52.7393

> <b_lp_Chiralities_Consistent>
1

> <s_lp_Variant>
AV-unprocessed.smi:170-2

> <Gold.Version>
5.8.1

> <Gold.Id.Protein>
6NUR|6NUR_protein|mol2

> <Gold.PLP.Fitness>
50.8288

> <Gold.PLP.PLP>
-46.0614

> <Gold.PLP.part.hbond>
-3.2300

> <Gold.PLP.part.metal>
0.0000

> <Gold.PLP.part.buried>
-6.3478

> <Gold.PLP.part.nonpolar>
-35.9388

> <Gold.PLP.part.repulsive>
0.0317

> <Gold.PLP.ligand.clash>
0.0000

> <Gold.PLP.ligand.torsion>
0.7831

> <Gold.PLP.Chemscore.Hbond>
2.0000

> <Gold.PLP.Chemscore.CHOScore>
0.0000

> <Gold.PLP.Chemscore.Metal>
0.0000

> <Gold.Chemscore.Hbonds>
donor molecule, donor type, donor heavy atom, donor atom, acceptor molecule, acceptor atom, score
      L1  H     1    29       P1  7948  1.00
      P1  H  7997  8010       L1    20  1.00

> <Gold.PLP.Chemscore.Internal.Correction>
0.3335

> <Gold.Rescore>
     Score         DG    S(hbond)    S(metal)    S(lipo)     H(rot)  DE(clash)    DE(int)     intcor
     18.25     -18.84       1.93        0.00     116.22       2.61       0.04       0.56       ----

> <Gold.Chemscore.Fitness>
18.2460

> <Gold.Chemscore.DG>
-18.8384

> <Gold.Chemscore.ZeroCoef>
-5.4800

> <Gold.Chemscore.Hbond>
1.9321

> <Gold.Chemscore.Metal>
0.0000

> <Gold.Chemscore.Lipo>
116.2246

> <Gold.Chemscore.Internal_Hbond>
0.0000

> <Gold.Chemscore.DEClash>
0.0371

> <Gold.Chemscore.DEInternal>
0.5554

> <Gold.Chemscore.Rot>
2.6144

> <Gold.Chemscore.Internal.Correction>
   9.000000E+99

> <Gold.Chemscore.Hbonds>
donor molecule, donor type, donor heavy atom, donor atom, acceptor molecule, acceptor atom, score
      L1  H     1    29       P1  7948  1.00
      P1  H  7997  8010       L1    20  0.89

> <Gold.Chemscore.Hbond.Weighted>
-6.4531

> <Gold.Chemscore.Metal.Weighted>
-0.0000

> <Gold.Chemscore.Lipo.Weighted>
-13.5983

> <Gold.Chemscore.Internal_Hbond.Weighted>
0.0000

> <Gold.Chemscore.DEClash.Weighted>
0.0371

> <Gold.Chemscore.DEInternal.Weighted>
0.5554

> <Gold.Chemscore.Rot.Weighted>
6.6929

> <Gold.Chemscore.Internal.Correction.Weighted>
   9.000000E+99

> <Gold.Protein.RotatedTorsions>
[ 6907 6896 6895 6894 ] final   -8.52 input  -60.11 | X-H torsion
[ 7974 7965 7964 7962 ] final   51.12 input  175.53 | X-H torsion
[ 8008 7997 7996 7995 ] final   74.46 input   59.86 | X-H torsion
[ 10167 10162 10161 10158 ] final  -64.85 input  -65.29 | X-H torsion
[ 10718 10713 10712 10709 ] final  -92.66 input   66.30 | X-H torsion
[ 10763 10752 10751 10750 ] final  -31.23 input  -60.55 | X-H torsion
[ 11005 11000 10999 10996 ] final  -32.68 input  -57.11 | X-H torsion

> <Gold.Protein.ActiveResidues>
 VAL166  LYS551  ARG553  GLY616  TRP617  ASP618  TYR619  PRO620  LYS621  CYS622 
 ASP623  PHE694  ASN695  SER759  ASP760  ASP761  ALA762  ILE779  LEU786  VAL792 
 PHE793  MET794  SER795  GLU796  ALA797  LYS798  CYS799  TRP800  GLU811  SER814 

> <Gold.Protein.RotatedAtoms>
  151.4324  135.1011  159.9645 H   0  0  0  0  0  0  0  0  0  0  0  0  # atno 6907 bound_to 6896
  152.4951  133.8605  159.7258 H   0  0  0  0  0  0  0  0  0  0  0  0  # atno 6908 bound_to 6896
  150.9146  133.6897  159.2874 H   0  0  0  0  0  0  0  0  0  0  0  0  # atno 6909 bound_to 6896
  145.9945  139.4374  143.0053 H   0  0  0  0  0  0  0  0  0  0  0  0  # atno 7974 bound_to 7965
  155.7987  140.3477  155.5390 H   0  0  0  0  0  0  0  0  0  0  0  0  # atno 8008 bound_to 7997
  155.8560  140.0964  157.1664 H   0  0  0  0  0  0  0  0  0  0  0  0  # atno 8009 bound_to 7997
  154.4009  140.1367  156.3890 H   0  0  0  0  0  0  0  0  0  0  0  0  # atno 8010 bound_to 7997
  140.5772  143.2323  151.6418 H   0  0  0  0  0  0  0  0  0  0  0  0  # atno 10167 bound_to 10162
  156.0004  130.4996  150.5660 H   0  0  0  0  0  0  0  0  0  0  0  0  # atno 10718 bound_to 10713
  153.7939  135.6895  153.4867 H   0  0  0  0  0  0  0  0  0  0  0  0  # atno 10763 bound_to 10752
  153.1731  135.4535  154.9928 H   0  0  0  0  0  0  0  0  0  0  0  0  # atno 10764 bound_to 10752
  154.8033  135.3346  154.7433 H   0  0  0  0  0  0  0  0  0  0  0  0  # atno 10765 bound_to 10752
  140.9572  133.7186  156.1312 H   0  0  0  0  0  0  0  0  0  0  0  0  # atno 11005 bound_to 11000
  145.7580  140.9946  143.1215 LP  0  0  0  0  0  0  0  0  0  0  0  0  # atno 17320 bound_to 7965
  144.6899  139.9296  143.7471 LP  0  0  0  0  0  0  0  0  0  0  0  0  # atno 17321 bound_to 7965
  139.5149  144.3395  152.0753 LP  0  0  0  0  0  0  0  0  0  0  0  0  # atno 17342 bound_to 10162
  140.2540  144.4138  150.6211 LP  0  0  0  0  0  0  0  0  0  0  0  0  # atno 17343 bound_to 10162
  157.3562  131.0742  151.1673 LP  0  0  0  0  0  0  0  0  0  0  0  0  # atno 17370 bound_to 10713
  157.2473  130.6597  149.5916 LP  0  0  0  0  0  0  0  0  0  0  0  0  # atno 17371 bound_to 10713
  140.7519  134.4035  157.5540 LP  0  0  0  0  0  0  0  0  0  0  0  0  # atno 17394 bound_to 11000
  139.8866  134.8905  156.2576 LP  0  0  0  0  0  0  0  0  0  0  0  0  # atno 17395 bound_to 11000

$$$$
