AV-unprocessed.smi:2106|AV-procd|sdf|8594|dock9
  -GOLD-   2272011333D 1   1.00000     0.00000
 Structure written by MMmdl.
 47 48  0  0  0  0  0  0  0  0  1 V2000
  151.9855  144.2956  157.7605 C   0  0  0  0  0  0  0  0  0  0  0  0
  152.3052  143.2560  158.7936 C   0  0  0  0  0  0  0  0  0  0  0  0
  152.8029  143.4476  160.1127 C   0  0  0  0  0  0  0  0  0  0  0  0
  152.9163  142.1828  160.6175 C   0  0  0  0  0  0  0  0  0  0  0  0
  153.3850  141.7188  161.9575 C   0  0  0  0  0  0  0  0  0  0  0  0
  152.5026  141.3145  159.6223 N   0  0  0  0  0  0  0  0  0  0  0  0
  152.4267  139.8603  159.6436 C   0  0  0  0  0  0  0  0  0  0  0  0
  151.3477  139.3093  158.7032 C   0  0  0  0  0  0  0  0  0  0  0  0
  150.4418  138.5905  159.1284 O   0  0  0  0  0  0  0  0  0  0  0  0
  151.4620  139.6574  157.4126 N   0  0  0  0  0  0  0  0  0  0  0  0
  150.5508  139.2476  156.3510 C   0  0  0  0  0  0  0  0  0  0  0  0
  150.2461  140.4150  155.3937 C   0  0  0  0  0  0  0  0  0  0  0  0
  148.8346  140.5824  155.0522 N   0  0  0  0  0  0  0  0  0  0  0  0
  148.2930  139.4340  154.3317 C   0  0  0  0  0  0  0  0  0  0  0  0
  146.8055  139.6218  153.9816 C   0  0  2  0  0  0  0  0  0  0  0  0
  146.2606  138.4610  153.1425 C   0  0  0  0  0  0  0  0  0  0  0  0
  146.6388  140.8246  153.2331 O   0  0  0  0  0  0  0  0  0  0  0  0
  147.1634  142.0018  153.8487 C   0  0  1  0  0  0  0  0  0  0  0  0
  146.2812  142.4789  155.0150 C   0  0  0  0  0  0  0  0  0  0  0  0
  148.6369  141.7821  154.2453 C   0  0  0  0  0  0  0  0  0  0  0  0
  152.1256  141.9771  158.5070 N   0  0  0  0  0  0  0  0  0  0  0  0
  152.0820  145.3013  158.1700 H   0  0  0  0  0  0  0  0  0  0  0  0
  150.9652  144.1842  157.3922 H   0  0  0  0  0  0  0  0  0  0  0  0
  152.6593  144.2191  156.9071 H   0  0  0  0  0  0  0  0  0  0  0  0
  153.0409  144.3747  160.6125 H   0  0  0  0  0  0  0  0  0  0  0  0
  153.6171  142.5656  162.6035 H   0  0  0  0  0  0  0  0  0  0  0  0
  154.2857  141.1120  161.8645 H   0  0  0  0  0  0  0  0  0  0  0  0
  152.6207  141.1201  162.4529 H   0  0  0  0  0  0  0  0  0  0  0  0
  153.4033  139.4590  159.3697 H   0  0  0  0  0  0  0  0  0  0  0  0
  152.2186  139.5228  160.6602 H   0  0  0  0  0  0  0  0  0  0  0  0
  152.2368  140.2476  157.1460 H   0  0  0  0  0  0  0  0  0  0  0  0
  150.9770  138.3949  155.8214 H   0  0  0  0  0  0  0  0  0  0  0  0
  149.6277  138.8984  156.8142 H   0  0  0  0  0  0  0  0  0  0  0  0
  150.6015  141.3307  155.8687 H   0  0  0  0  0  0  0  0  0  0  0  0
  150.8327  140.3066  154.4803 H   0  0  0  0  0  0  0  0  0  0  0  0
  148.8657  139.2686  153.4177 H   0  0  0  0  0  0  0  0  0  0  0  0
  148.3939  138.5299  154.9310 H   0  0  0  0  0  0  0  0  0  0  0  0
  146.2210  139.6835  154.9000 H   0  0  0  0  0  0  0  0  0  0  0  0
  146.3503  137.5150  153.6766 H   0  0  0  0  0  0  0  0  0  0  0  0
  146.8013  138.3664  152.2005 H   0  0  0  0  0  0  0  0  0  0  0  0
  145.2066  138.6111  152.9077 H   0  0  0  0  0  0  0  0  0  0  0  0
  147.1353  142.7834  153.0890 H   0  0  0  0  0  0  0  0  0  0  0  0
  146.6328  143.4366  155.3995 H   0  0  0  0  0  0  0  0  0  0  0  0
  146.2834  141.7744  155.8462 H   0  0  0  0  0  0  0  0  0  0  0  0
  145.2485  142.6117  154.6918 H   0  0  0  0  0  0  0  0  0  0  0  0
  149.0032  142.6583  154.7819 H   0  0  0  0  0  0  0  0  0  0  0  0
  149.2363  141.7079  153.3366 H   0  0  0  0  0  0  0  0  0  0  0  0
  1  2  1  0  0  0  0
  1 22  1  0  0  0  0
  1 23  1  0  0  0  0
  1 24  1  0  0  0  0
  2 21  2  0  0  0  0
  2  3  1  0  0  0  0
  3  4  2  0  0  0  0
  3 25  1  0  0  0  0
  4  5  1  0  0  0  0
  4  6  1  0  0  0  0
  5 26  1  0  0  0  0
  5 27  1  0  0  0  0
  5 28  1  0  0  0  0
  6  7  1  0  0  0  0
  6 21  1  0  0  0  0
  7  8  1  0  0  0  0
  7 29  1  0  0  0  0
  7 30  1  0  0  0  0
  8  9  2  0  0  0  0
  8 10  1  0  0  0  0
 10 11  1  0  0  0  0
 10 31  1  0  0  0  0
 11 12  1  0  0  0  0
 11 32  1  0  0  0  0
 11 33  1  0  0  0  0
 12 13  1  0  0  0  0
 12 34  1  0  0  0  0
 12 35  1  0  0  0  0
 13 20  1  0  0  0  0
 13 14  1  0  0  0  0
 14 15  1  0  0  0  0
 14 36  1  0  0  0  0
 14 37  1  0  0  0  0
 15 16  1  0  0  0  0
 15 17  1  0  0  0  0
 15 38  1  0  0  0  0
 16 39  1  0  0  0  0
 16 40  1  0  0  0  0
 16 41  1  0  0  0  0
 17 18  1  0  0  0  0
 18 19  1  0  0  0  0
 18 20  1  0  0  0  0
 18 42  1  0  0  0  0
 19 43  1  0  0  0  0
 19 44  1  0  0  0  0
 19 45  1  0  0  0  0
 20 46  1  0  0  0  0
 20 47  1  0  0  0  0
M  END
> <s_m_source_file>
AV-unprocessed.smi

> <i_m_source_file_index>
2106

> <i_lp_mmshare_version>
43012

> <i_f3d_flags>
0

> <s_epik_input>
W0NIM11jMVtjSF1jKFtDSDNdKW4objEpW0NIMl1DKD1PKVtOSF1bQ0gyXVtDSDJdTjJbQ0gyXVtDQEBIXShbQ0gzXSlPW0NAQEhdKFtDSDNdKVtDSDJdMg==

> <s_epik_cmdline>
J2VwaWtfcHl0aG9uJywgJy1waCcsICc3LjAnLCAnLXRuJywgJzgnLCAnLW1hJywgJzIwMCcsICctbWV0YWxfYmluZGluZycsICctaW1hZScsICc8aW5maWxlLm1hZT4nLCAnLW9tYWUnLCAnPG91dGZpbGUubWFlPic=

> <r_lp_tautomer_probability>
1

> <r_epik_Ionization_Penalty>
0.197284

> <r_epik_Ionization_Penalty_Charging>
0

> <r_epik_Ionization_Penalty_Neutral>
0.197284

> <r_epik_State_Penalty>
0.186684

> <r_epik_Charging_Adjusted_Penalty>
0.186684

> <i_epik_Tot_Q>
0

> <i_epik_Tot_abs_Q>
0

> <r_epik_Metal_State_Penalty>
0.186634

> <b_epik_Metal_Only>
0

> <s_lp_Force_Field>
OPLS_2005

> <r_lp_Energy>
21.9362

> <b_lp_Chiralities_Consistent>
1

> <s_lp_Variant>
AV-unprocessed.smi:2106-2

> <Gold.Version>
5.8.1

> <Gold.Id.Protein>
6NUR|6NUR_protein|mol2

> <Gold.PLP.Fitness>
41.6410

> <Gold.PLP.PLP>
-43.2938

> <Gold.PLP.part.hbond>
-0.5112

> <Gold.PLP.part.metal>
0.0000

> <Gold.PLP.part.buried>
-3.5953

> <Gold.PLP.part.nonpolar>
-40.0003

> <Gold.PLP.part.repulsive>
0.3502

> <Gold.PLP.ligand.clash>
0.0000

> <Gold.PLP.ligand.torsion>
0.8362

> <Gold.PLP.Chemscore.Hbond>
0.0000

> <Gold.PLP.Chemscore.CHOScore>
0.0000

> <Gold.PLP.Chemscore.Metal>
0.0000

> <Gold.PLP.Chemscore.Internal.Correction>
0.0195

> <Gold.Rescore>
     Score         DG    S(hbond)    S(metal)    S(lipo)     H(rot)  DE(clash)    DE(int)     intcor
     12.01     -14.59       0.00        0.00     114.27       1.67       0.14       2.44       ----

> <Gold.Chemscore.Fitness>
12.0117

> <Gold.Chemscore.DG>
-14.5860

> <Gold.Chemscore.ZeroCoef>
-5.4800

> <Gold.Chemscore.Hbond>
0.0000

> <Gold.Chemscore.Metal>
0.0000

> <Gold.Chemscore.Lipo>
114.2741

> <Gold.Chemscore.Internal_Hbond>
0.0000

> <Gold.Chemscore.DEClash>
0.1370

> <Gold.Chemscore.DEInternal>
2.4372

> <Gold.Chemscore.Rot>
1.6657

> <Gold.Chemscore.Internal.Correction>
   9.000000E+99

> <Gold.Chemscore.Hbond.Weighted>
-0.0000

> <Gold.Chemscore.Metal.Weighted>
-0.0000

> <Gold.Chemscore.Lipo.Weighted>
-13.3701

> <Gold.Chemscore.Internal_Hbond.Weighted>
0.0000

> <Gold.Chemscore.DEClash.Weighted>
0.1370

> <Gold.Chemscore.DEInternal.Weighted>
2.4372

> <Gold.Chemscore.Rot.Weighted>
4.2641

> <Gold.Chemscore.Internal.Correction.Weighted>
   9.000000E+99

> <Gold.Protein.RotatedTorsions>
[ 6907 6896 6895 6894 ] final  -12.41 input  -60.11 | X-H torsion
[ 7974 7965 7964 7962 ] final  -28.88 input  175.53 | X-H torsion
[ 8008 7997 7996 7995 ] final   52.25 input   59.86 | X-H torsion
[ 10167 10162 10161 10158 ] final   58.00 input  -65.29 | X-H torsion
[ 10718 10713 10712 10709 ] final   29.54 input   66.30 | X-H torsion
[ 10763 10752 10751 10750 ] final  -54.97 input  -60.55 | X-H torsion
[ 11005 11000 10999 10996 ] final  -48.77 input  -57.11 | X-H torsion

> <Gold.Protein.ActiveResidues>
 VAL166  LYS551  ARG553  GLY616  TRP617  ASP618  TYR619  PRO620  LYS621  CYS622 
 ASP623  PHE694  ASN695  SER759  ASP760  ASP761  ALA762  ILE779  LEU786  VAL792 
 PHE793  MET794  SER795  GLU796  ALA797  LYS798  CYS799  TRP800  GLU811  SER814 

> <Gold.Protein.RotatedAtoms>
  151.3709  135.0922  159.9464 H   0  0  0  0  0  0  0  0  0  0  0  0  # atno 6907 bound_to 6896
  152.5136  133.9166  159.7524 H   0  0  0  0  0  0  0  0  0  0  0  0  # atno 6908 bound_to 6896
  150.9579  133.6422  159.2789 H   0  0  0  0  0  0  0  0  0  0  0  0  # atno 6909 bound_to 6896
  146.1257  140.5339  142.8716 H   0  0  0  0  0  0  0  0  0  0  0  0  # atno 7974 bound_to 7965
  155.4487  140.3457  155.4298 H   0  0  0  0  0  0  0  0  0  0  0  0  # atno 8008 bound_to 7997
  156.1233  140.1493  156.9202 H   0  0  0  0  0  0  0  0  0  0  0  0  # atno 8009 bound_to 7997
  154.4840  140.0861  156.7422 H   0  0  0  0  0  0  0  0  0  0  0  0  # atno 8010 bound_to 7997
  140.1919  144.4077  150.6567 H   0  0  0  0  0  0  0  0  0  0  0  0  # atno 10167 bound_to 10162
  157.2480  130.7101  149.6391 H   0  0  0  0  0  0  0  0  0  0  0  0  # atno 10718 bound_to 10713
  154.1833  135.6439  153.5040 H   0  0  0  0  0  0  0  0  0  0  0  0  # atno 10763 bound_to 10752
  153.0053  135.5411  154.6491 H   0  0  0  0  0  0  0  0  0  0  0  0  # atno 10764 bound_to 10752
  154.5861  135.2929  155.0656 H   0  0  0  0  0  0  0  0  0  0  0  0  # atno 10765 bound_to 10752
  141.0720  133.6676  156.3488 H   0  0  0  0  0  0  0  0  0  0  0  0  # atno 11005 bound_to 11000
  144.7640  140.5487  143.6716 LP  0  0  0  0  0  0  0  0  0  0  0  0  # atno 17320 bound_to 7965
  145.5371  139.1475  143.3468 LP  0  0  0  0  0  0  0  0  0  0  0  0  # atno 17321 bound_to 7965
  140.6450  143.2211  151.6206 LP  0  0  0  0  0  0  0  0  0  0  0  0  # atno 17342 bound_to 10162
  139.5252  144.3080  152.1017 LP  0  0  0  0  0  0  0  0  0  0  0  0  # atno 17343 bound_to 10162
  155.9667  130.4437  150.5431 LP  0  0  0  0  0  0  0  0  0  0  0  0  # atno 17370 bound_to 10713
  157.3309  131.0699  151.1862 LP  0  0  0  0  0  0  0  0  0  0  0  0  # atno 17371 bound_to 10713
  140.5653  134.5893  157.5444 LP  0  0  0  0  0  0  0  0  0  0  0  0  # atno 17394 bound_to 11000
  139.9533  134.7579  156.0399 LP  0  0  0  0  0  0  0  0  0  0  0  0  # atno 17395 bound_to 11000

$$$$
