#       Name:                AV-unprocessed.smi:679
#       Creating user name   scv26
#       Creation time:       Fri Mar 27 00:28:47 2020


#       File generated by GOLD software.
#

@<TRIPOS>MOLECULE
AV-unprocessed.smi:679
    48    50     1
SMALL
NO_CHARGES


@<TRIPOS>ATOM
      1 ****        -4.4413   2.4642  -1.5385 C.3            1 S1                 0.0000
      2 ****        -2.9276   2.6479  -1.4115 C.3            1 S1                 0.0000
      3 ****        -2.3296   1.3746  -1.2408 O.3            1 S1                 0.0000
      4 ****        -0.9172   1.4349  -1.1205 C.3            1 S1                 0.0000
      5 ****        -0.4095   1.8696   0.2575 C.3            1 S1                 0.0000
      6 ****         0.7022   0.8376   0.0557 C.3            1 S1                 0.0000
      7 ****         1.0615   0.1590   1.2962 N.am           1 S1                 0.0000
      8 ****         2.0534  -0.7357   1.4144 C.2            1 S1                 0.0000
      9 ****         2.7640  -1.0839   0.4709 O.2            1 S1                 0.0000
     10 ****         2.2671  -1.3344   2.8073 C.3            1 S1                 0.0000
     11 ****         3.6724  -1.3576   3.1698 N.pl3          1 S1                 0.0000
     12 ****         4.6247  -2.2627   2.9348 C.2            1 S1                 0.0000
     13 ****         5.7909  -1.8874   3.4381 N.2            1 S1                 0.0000
     14 ****         5.5041  -0.6620   4.0165 N.2            1 S1                 0.0000
     15 ****         4.2487  -0.3420   3.8599 N.2            1 S1                 0.0000
     16 ****        -0.2630   0.0529  -0.8717 C.3            1 S1                 0.0000
     17 ****        -1.1540  -1.0476  -0.2797 C.3            1 S1                 0.0000
     18 ****        -1.7452  -1.8154  -1.4642 C.3            1 S1                 0.0000
     19 ****        -0.7633  -1.6041  -2.6215 C.3            1 S1                 0.0000
     20 ****         0.3183  -0.6574  -2.0897 C.3            1 S1                 0.0000
     21 ****        -4.9415   3.4237  -1.6706 H              1 S1                 0.0000
     22 ****        -4.8536   1.9911  -0.6470 H              1 S1                 0.0000
     23 ****        -4.6880   1.8367  -2.3953 H              1 S1                 0.0000
     24 ****        -2.5342   3.1315  -2.3068 H              1 S1                 0.0000
     25 ****        -2.7011   3.2919  -0.5607 H              1 S1                 0.0000
     26 ****        -0.4384   1.9792  -1.9382 H              1 S1                 0.0000
     27 ****        -0.0694   2.9039   0.3130 H              1 S1                 0.0000
     28 ****        -1.0999   1.6233   1.0663 H              1 S1                 0.0000
     29 ****         1.5528   1.2603  -0.4847 H              1 S1                 0.0000
     30 ****         0.5222   0.3889   2.1184 H              1 S1                 0.0000
     31 ****         1.7144  -0.7715   3.5615 H              1 S1                 0.0000
     32 ****         1.8845  -2.3555   2.8222 H              1 S1                 0.0000
     33 ****         4.4654  -3.1855   2.3969 H              1 S1                 0.0000
     34 ****        -0.5608  -1.7404   0.3177 H              1 S1                 0.0000
     35 ****        -1.9351  -0.6588   0.3745 H              1 S1                 0.0000
     36 ****        -1.8885  -2.8709  -1.2307 H              1 S1                 0.0000
     37 ****        -2.7195  -1.4025  -1.7286 H              1 S1                 0.0000
     38 ****        -0.3302  -2.5444  -2.9640 H              1 S1                 0.0000
     39 ****        -1.2804  -1.1530  -3.4692 H              1 S1                 0.0000
     40 ****         0.6492   0.0392  -2.8604 H              1 S1                 0.0000
     41 ****         1.1940  -1.2381  -1.7982 H              1 S1                 0.0000
     42 ****        -2.5577   0.8072  -2.0320 LP             1 S1                 0.0000
     43 ****        -2.7020   0.9565  -0.4122 LP             1 S1                 0.0000
     44 ****         2.6142  -0.6950  -0.4381 LP             1 S1                 0.0000
     45 ****         3.4910  -1.7556   0.6137 LP             1 S1                 0.0000
     46 ****         6.6657  -2.3711   3.4079 LP             1 S1                 0.0000
     47 ****         6.1746  -0.0941   4.4940 LP             1 S1                 0.0000
     48 ****         3.7992   0.4899   4.1853 LP             1 S1                 0.0000
@<TRIPOS>BOND
    1    1    2 1     
    2    1   21 1     
    3    1   22 1     
    4    1   23 1     
    5    2    3 1     
    6    2   24 1     
    7    2   25 1     
    8    3    4 1     
    9    4   16 1     
   10    4    5 1     
   11    4   26 1     
   12    5    6 1     
   13    5   27 1     
   14    5   28 1     
   15    6    7 1     
   16    6   16 1     
   17    6   29 1     
   18    7    8 am    
   19    7   30 1     
   20    8    9 2     
   21    8   10 1     
   22   10   11 1     
   23   10   31 1     
   24   10   32 1     
   25   11   15 1     
   26   11   12 1     
   27   12   13 2     
   28   12   33 1     
   29   13   14 1     
   30   14   15 2     
   31   16   20 1     
   32   16   17 1     
   33   17   18 1     
   34   17   34 1     
   35   17   35 1     
   36   18   19 1     
   37   18   36 1     
   38   18   37 1     
   39   19   20 1     
   40   19   38 1     
   41   19   39 1     
   42   20   40 1     
   43   20   41 1     
   44    3   42 1     
   45    3   43 1     
   46    9   44 1     
   47    9   45 1     
   48   13   46 1     
   49   14   47 1     
   50   15   48 1     
@<TRIPOS>SUBSTRUCTURE
      1 S1             1
@<TRIPOS>SET
LONE_PAIRS      STATIC     ATOMS    <user>   **** ""
7 42 43 44 45 46 47 48
DONOR_HYDROGENS      STATIC     ATOMS    <user>   **** ""
1 30
ATOM$BLUE        STATIC     ATOMS    COLORGROUP SYSTEM
7 42 43 44 45 46 47 48
ATOM$RED        STATIC     ATOMS    COLORGROUP SYSTEM
1 30
