#       Name:                AV-unprocessed.smi:2597
#       Creating user name   scv26
#       Creation time:       Fri Mar 27 14:18:53 2020


#       File generated by GOLD software.
#

@<TRIPOS>MOLECULE
AV-unprocessed.smi:2597
    35    36     1
SMALL
NO_CHARGES


@<TRIPOS>ATOM
      1 ****        -0.8558   0.6138  -2.4057 N.3            1 S1                 0.0000
      2 ****        -1.5086  -0.0464  -1.2887 C.3            1 S1                 0.0000
      3 ****        -1.4594  -1.5780  -1.4701 C.3            1 S1                 0.0000
      4 ****        -2.1224  -2.2979  -0.2847 C.3            1 S1                 0.0000
      5 ****        -1.5149  -1.8630   1.0587 C.3            1 S1                 0.0000
      6 ****        -1.5955  -0.3361   1.2391 C.3            1 S1                 0.0000
      7 ****        -0.9475   0.4463   0.0754 C.3            1 S1                 0.0000
      8 ****         0.5135   0.4686   0.1848 N.pl3          1 S1                 0.0000
      9 ****         1.2954   1.4926   0.6808 C.2            1 S1                 0.0000
     10 ****         2.5700   1.0038   0.6003 C.2            1 S1                 0.0000
     11 ****         3.8801   1.6287   0.9862 C.3            1 S1                 0.0000
     12 ****         3.6866   3.0258   1.0690 O.3            1 S1                 0.0000
     13 ****         2.5128  -0.2868   0.0798 N.2            1 S1                 0.0000
     14 ****         1.2781  -0.5983  -0.1570 N.2            1 S1                 0.0000
     15 ****        -2.5580   0.2479  -1.3311 H              1 S1                 0.0000
     16 ****        -1.2622   1.4854   0.1841 H              1 S1                 0.0000
     17 ****        -1.3065   0.3500  -3.2701 H              1 S1                 0.0000
     18 ****        -0.9568   1.6150  -2.3188 H              1 S1                 0.0000
     19 ****        -1.9728  -1.8565  -2.3911 H              1 S1                 0.0000
     20 ****        -0.4347  -1.9291  -1.5861 H              1 S1                 0.0000
     21 ****        -3.1916  -2.0829  -0.2838 H              1 S1                 0.0000
     22 ****        -2.0254  -3.3772  -0.4050 H              1 S1                 0.0000
     23 ****        -2.0432  -2.3556   1.8754 H              1 S1                 0.0000
     24 ****        -0.4803  -2.1989   1.1245 H              1 S1                 0.0000
     25 ****        -2.6457  -0.0511   1.3119 H              1 S1                 0.0000
     26 ****        -1.1408  -0.0466   2.1873 H              1 S1                 0.0000
     27 ****         0.8974   2.4337   1.0301 H              1 S1                 0.0000
     28 ****         4.2270   1.2508   1.9480 H              1 S1                 0.0000
     29 ****         4.6527   1.4157   0.2470 H              1 S1                 0.0000
     30 ****         4.5075   3.4275   1.3093 H              1 S1                 0.0000
     31 ****         0.1080   0.3471  -2.4049 LP             1 S1                 0.0000
     32 ****         2.9951   3.2303   1.7618 LP             1 S1                 0.0000
     33 ****         3.3851   3.3779   0.1830 LP             1 S1                 0.0000
     34 ****         3.3011  -0.8797  -0.0851 LP             1 S1                 0.0000
     35 ****         0.9484  -1.4677  -0.5250 LP             1 S1                 0.0000
@<TRIPOS>BOND
    1    1    2 1     
    2    1   17 1     
    3    1   18 1     
    4    2   15 1     
    5    2    7 1     
    6    2    3 1     
    7    3    4 1     
    8    3   19 1     
    9    3   20 1     
   10    4    5 1     
   11    4   21 1     
   12    4   22 1     
   13    5    6 1     
   14    5   23 1     
   15    5   24 1     
   16    6    7 1     
   17    6   25 1     
   18    6   26 1     
   19    7   16 1     
   20    7    8 1     
   21    8   14 1     
   22    8    9 1     
   23    9   10 2     
   24    9   27 1     
   25   10   11 1     
   26   10   13 1     
   27   11   12 1     
   28   11   28 1     
   29   11   29 1     
   30   12   30 1     
   31   13   14 2     
   32    1   31 1     
   33   12   32 1     
   34   12   33 1     
   35   13   34 1     
   36   14   35 1     
@<TRIPOS>SUBSTRUCTURE
      1 S1             1
@<TRIPOS>SET
LONE_PAIRS      STATIC     ATOMS    <user>   **** ""
5 31 32 33 34 35
DONOR_HYDROGENS      STATIC     ATOMS    <user>   **** ""
3 17 18 30
ATOM$BLUE        STATIC     ATOMS    COLORGROUP SYSTEM
5 31 32 33 34 35
ATOM$RED        STATIC     ATOMS    COLORGROUP SYSTEM
3 17 18 30
