AV-unprocessed.smi:2855|AV-procd|sdf|10983|dock8
  -GOLD-   2272015433D 1   1.00000     0.00000
 Structure written by MMmdl.
 47 48  0  0  0  0  0  0  0  0  1 V2000
  153.8750  141.5434  160.3444 C   0  0  0  0  0  0  0  0  0  0  0  0
  153.1519  142.3854  159.2835 C   0  0  2  0  0  0  0  0  0  0  0  0
  152.8302  143.8010  159.8068 C   0  0  0  0  0  0  0  0  0  0  0  0
  152.0275  144.6269  158.7820 C   0  0  0  0  0  0  0  0  0  0  0  0
  150.7123  143.9208  158.3649 C   0  0  2  0  0  0  0  0  0  0  0  0
  149.6526  143.8714  159.5225 C   0  0  0  0  0  0  0  0  0  0  0  0
  148.2307  143.4886  159.0679 C   0  0  0  0  0  0  0  0  0  0  0  0
  149.5666  145.2060  160.2909 C   0  0  0  0  0  0  0  0  0  0  0  0
  151.1421  142.5574  157.7454 C   0  0  2  0  0  0  0  0  0  0  0  0
  150.0598  141.8199  157.1032 N   0  0  0  0  0  0  0  0  0  0  0  0
  150.1771  141.0227  156.0272 C   0  0  0  0  0  0  0  0  0  0  0  0
  151.2509  140.8218  155.4607 O   0  0  0  0  0  0  0  0  0  0  0  0
  148.9067  140.3493  155.4795 C   0  0  0  0  0  0  0  0  0  0  0  0
  147.8073  141.2731  155.1518 N   0  0  0  0  0  0  0  0  0  0  0  0
  147.5481  141.6053  153.8296 C   0  0  0  0  0  0  0  0  0  0  0  0
  146.5634  142.4548  153.4528 C   0  0  0  0  0  0  0  0  0  0  0  0
  145.7028  143.0778  154.4527 C   0  0  0  0  0  0  0  0  0  0  0  0
  144.7864  143.8602  154.2114 O   0  0  0  0  0  0  0  0  0  0  0  0
  145.9936  142.7177  155.7712 N   0  0  0  0  0  0  0  0  0  0  0  0
  147.0072  141.8435  156.1663 C   0  0  0  0  0  0  0  0  0  0  0  0
  147.1842  141.6011  157.3594 O   0  0  0  0  0  0  0  0  0  0  0  0
  151.8805  141.6781  158.7707 C   0  0  0  0  0  0  0  0  0  0  0  0
  145.4238  143.1254  156.4984 H   0  0  0  0  0  0  0  0  0  0  0  0
  153.2502  141.3950  161.2258 H   0  0  0  0  0  0  0  0  0  0  0  0
  154.7976  142.0267  160.6673 H   0  0  0  0  0  0  0  0  0  0  0  0
  154.1380  140.5603  159.9532 H   0  0  0  0  0  0  0  0  0  0  0  0
  153.8310  142.4955  158.4366 H   0  0  0  0  0  0  0  0  0  0  0  0
  152.2771  143.7349  160.7438 H   0  0  0  0  0  0  0  0  0  0  0  0
  153.7578  144.3231  160.0435 H   0  0  0  0  0  0  0  0  0  0  0  0
  151.8460  145.6305  159.1626 H   0  0  0  0  0  0  0  0  0  0  0  0
  152.6464  144.7783  157.8963 H   0  0  0  0  0  0  0  0  0  0  0  0
  150.2748  144.5194  157.5645 H   0  0  0  0  0  0  0  0  0  0  0  0
  149.9553  143.1172  160.2479 H   0  0  0  0  0  0  0  0  0  0  0  0
  147.9086  144.0831  158.2123 H   0  0  0  0  0  0  0  0  0  0  0  0
  147.5030  143.6399  159.8658 H   0  0  0  0  0  0  0  0  0  0  0  0
  148.1627  142.4347  158.8038 H   0  0  0  0  0  0  0  0  0  0  0  0
  149.3736  146.0408  159.6164 H   0  0  0  0  0  0  0  0  0  0  0  0
  150.4801  145.4200  160.8444 H   0  0  0  0  0  0  0  0  0  0  0  0
  148.7651  145.1879  161.0299 H   0  0  0  0  0  0  0  0  0  0  0  0
  151.8646  142.7682  156.9539 H   0  0  0  0  0  0  0  0  0  0  0  0
  149.1401  141.9288  157.5053 H   0  0  0  0  0  0  0  0  0  0  0  0
  149.1849  139.7780  154.5925 H   0  0  0  0  0  0  0  0  0  0  0  0
  148.5724  139.6023  156.2016 H   0  0  0  0  0  0  0  0  0  0  0  0
  148.1644  141.1714  153.0549 H   0  0  0  0  0  0  0  0  0  0  0  0
  146.4123  142.6756  152.4059 H   0  0  0  0  0  0  0  0  0  0  0  0
  152.1590  140.7303  158.3074 H   0  0  0  0  0  0  0  0  0  0  0  0
  151.2213  141.4270  159.6019 H   0  0  0  0  0  0  0  0  0  0  0  0
  1  2  1  0  0  0  0
  1 24  1  0  0  0  0
  1 25  1  0  0  0  0
  1 26  1  0  0  0  0
  2 22  1  0  0  0  0
  2  3  1  0  0  0  0
  2 27  1  0  0  0  0
  3  4  1  0  0  0  0
  3 28  1  0  0  0  0
  3 29  1  0  0  0  0
  4  5  1  0  0  0  0
  4 30  1  0  0  0  0
  4 31  1  0  0  0  0
  5  6  1  0  0  0  0
  5  9  1  0  0  0  0
  5 32  1  0  0  0  0
  6  7  1  0  0  0  0
  6  8  1  0  0  0  0
  6 33  1  0  0  0  0
  7 34  1  0  0  0  0
  7 35  1  0  0  0  0
  7 36  1  0  0  0  0
  8 37  1  0  0  0  0
  8 38  1  0  0  0  0
  8 39  1  0  0  0  0
  9 10  1  0  0  0  0
  9 22  1  0  0  0  0
  9 40  1  0  0  0  0
 10 11  1  0  0  0  0
 10 41  1  0  0  0  0
 11 12  2  0  0  0  0
 11 13  1  0  0  0  0
 13 14  1  0  0  0  0
 13 42  1  0  0  0  0
 13 43  1  0  0  0  0
 14 20  1  0  0  0  0
 14 15  1  0  0  0  0
 15 16  2  0  0  0  0
 15 44  1  0  0  0  0
 16 17  1  0  0  0  0
 16 45  1  0  0  0  0
 17 18  2  0  0  0  0
 17 19  1  0  0  0  0
 19 23  1  0  0  0  0
 19 20  1  0  0  0  0
 20 21  2  0  0  0  0
 22 46  1  0  0  0  0
 22 47  1  0  0  0  0
M  END
> <s_m_source_file>
AV-unprocessed.smi

> <i_m_source_file_index>
2855

> <i_lp_mmshare_version>
43012

> <i_f3d_flags>
0

> <s_epik_input>
W0NIM11bQ0BASF0xW0NIMl1bQ0gyXVtDQEBIXShbQ0hdKFtDSDNdKVtDSDNdKVtDQEhdKFtDSDJdMSlbTkhdQyg9TylbQ0gyXW4yW2NIXVtjSF1jKD1PKVtuSF1jMj1P

> <s_epik_cmdline>
J2VwaWtfcHl0aG9uJywgJy1waCcsICc3LjAnLCAnLXRuJywgJzgnLCAnLW1hJywgJzIwMCcsICctbWV0YWxfYmluZGluZycsICctaW1hZScsICc8aW5maWxlLm1hZT4nLCAnLW9tYWUnLCAnPG91dGZpbGUubWFlPic=

> <r_lp_tautomer_probability>
0.999537

> <r_epik_Ionization_Penalty>
0.00306256

> <r_epik_Ionization_Penalty_Charging>
0.00306254

> <r_epik_Ionization_Penalty_Neutral>
2.0223e-08

> <r_epik_State_Penalty>
0.0021533

> <r_epik_Charging_Adjusted_Penalty>
0.00521583

> <i_epik_Tot_Q>
0

> <i_epik_Tot_abs_Q>
0

> <r_epik_Metal_State_Penalty>
0.362116

> <b_epik_Metal_Only>
0

> <s_lp_Force_Field>
OPLS_2005

> <r_lp_Energy>
18.1406

> <b_lp_Chiralities_Consistent>
1

> <s_lp_Variant>
AV-unprocessed.smi:2855-7

> <Gold.Version>
5.8.1

> <Gold.Id.Protein>
6NUR|6NUR_protein|mol2

> <Gold.PLP.Fitness>
43.7245

> <Gold.PLP.PLP>
-40.0932

> <Gold.PLP.part.hbond>
-1.0000

> <Gold.PLP.part.metal>
0.0000

> <Gold.PLP.part.buried>
-4.9268

> <Gold.PLP.part.nonpolar>
-35.1058

> <Gold.PLP.part.repulsive>
0.3629

> <Gold.PLP.ligand.clash>
0.0000

> <Gold.PLP.ligand.torsion>
0.8033

> <Gold.PLP.Chemscore.Hbond>
0.7520

> <Gold.PLP.Chemscore.CHOScore>
0.9804

> <Gold.PLP.Chemscore.Metal>
0.0000

> <Gold.Chemscore.Hbonds>
donor molecule, donor type, donor heavy atom, donor atom, acceptor molecule, acceptor atom, score
      P1  H  7989  7998       L1    12  0.74
      L1  C    15    44       P1  7957  0.76

> <Gold.PLP.Chemscore.Internal.Correction>
0.0407

> <Gold.Rescore>
     Score         DG    S(hbond)    S(metal)    S(lipo)     H(rot)  DE(clash)    DE(int)     intcor
     12.55     -15.75       0.77        0.00     106.35       1.85       0.14       3.06       ----

> <Gold.Chemscore.Fitness>
12.5475

> <Gold.Chemscore.DG>
-15.7548

> <Gold.Chemscore.ZeroCoef>
-5.4800

> <Gold.Chemscore.Hbond>
0.7720

> <Gold.Chemscore.Metal>
0.0000

> <Gold.Chemscore.Lipo>
106.3459

> <Gold.Chemscore.Internal_Hbond>
0.0000

> <Gold.Chemscore.DEClash>
0.1429

> <Gold.Chemscore.DEInternal>
3.0644

> <Gold.Chemscore.Rot>
1.8539

> <Gold.Chemscore.Internal.Correction>
   9.000000E+99

> <Gold.Chemscore.Hbonds>
donor molecule, donor type, donor heavy atom, donor atom, acceptor molecule, acceptor atom, score
      P1  H  7989  7998       L1    12  0.72

> <Gold.Chemscore.Hbond.Weighted>
-2.5784

> <Gold.Chemscore.Metal.Weighted>
-0.0000

> <Gold.Chemscore.Lipo.Weighted>
-12.4425

> <Gold.Chemscore.Internal_Hbond.Weighted>
0.0000

> <Gold.Chemscore.DEClash.Weighted>
0.1429

> <Gold.Chemscore.DEInternal.Weighted>
3.0644

> <Gold.Chemscore.Rot.Weighted>
4.7460

> <Gold.Chemscore.Internal.Correction.Weighted>
   9.000000E+99

> <Gold.Protein.RotatedTorsions>
[ 6907 6896 6895 6894 ] final    9.52 input  -60.11 | X-H torsion
[ 7974 7965 7964 7962 ] final -103.65 input  175.53 | X-H torsion
[ 8008 7997 7996 7995 ] final -168.70 input   59.86 | X-H torsion
[ 10167 10162 10161 10158 ] final  -17.68 input  -65.29 | X-H torsion
[ 10718 10713 10712 10709 ] final  -49.09 input   66.30 | X-H torsion
[ 10763 10752 10751 10750 ] final  103.31 input  -60.55 | X-H torsion
[ 11005 11000 10999 10996 ] final   99.30 input  -57.11 | X-H torsion

> <Gold.Protein.ActiveResidues>
 VAL166  LYS551  ARG553  GLY616  TRP617  ASP618  TYR619  PRO620  LYS621  CYS622 
 ASP623  PHE694  ASN695  SER759  ASP760  ASP761  ALA762  ILE779  LEU786  VAL792 
 PHE793  MET794  SER795  GLU796  ALA797  LYS798  CYS799  TRP800  GLU811  SER814 

> <Gold.Protein.RotatedAtoms>
  151.7234  135.0889  160.0287 H   0  0  0  0  0  0  0  0  0  0  0  0  # atno 6907 bound_to 6896
  152.3587  133.6265  159.6007 H   0  0  0  0  0  0  0  0  0  0  0  0  # atno 6908 bound_to 6896
  150.7589  133.9374  159.3487 H   0  0  0  0  0  0  0  0  0  0  0  0  # atno 6909 bound_to 6896
  145.2532  140.9245  143.3083 H   0  0  0  0  0  0  0  0  0  0  0  0  # atno 7974 bound_to 7965
  155.8950  140.1031  157.1391 H   0  0  0  0  0  0  0  0  0  0  0  0  # atno 8008 bound_to 7997
  154.4019  140.1303  156.4427 H   0  0  0  0  0  0  0  0  0  0  0  0  # atno 8009 bound_to 7997
  155.7490  140.3465  155.5143 H   0  0  0  0  0  0  0  0  0  0  0  0  # atno 8010 bound_to 7997
  140.7250  143.4992  150.9891 H   0  0  0  0  0  0  0  0  0  0  0  0  # atno 10167 bound_to 10162
  156.1926  130.4153  149.9351 H   0  0  0  0  0  0  0  0  0  0  0  0  # atno 10718 bound_to 10713
  153.3510  135.3981  155.1646 H   0  0  0  0  0  0  0  0  0  0  0  0  # atno 10763 bound_to 10752
  154.8662  135.3656  154.5222 H   0  0  0  0  0  0  0  0  0  0  0  0  # atno 10764 bound_to 10752
  153.5673  135.7080  153.5580 H   0  0  0  0  0  0  0  0  0  0  0  0  # atno 10765 bound_to 10752
  139.8771  134.9089  156.4585 H   0  0  0  0  0  0  0  0  0  0  0  0  # atno 11005 bound_to 11000
  144.9484  139.4110  143.6414 LP  0  0  0  0  0  0  0  0  0  0  0  0  # atno 17320 bound_to 7965
  146.3296  139.8479  142.8878 LP  0  0  0  0  0  0  0  0  0  0  0  0  # atno 17321 bound_to 7965
  139.8700  143.7204  152.3167 LP  0  0  0  0  0  0  0  0  0  0  0  0  # atno 17342 bound_to 10162
  139.7450  144.7549  151.0594 LP  0  0  0  0  0  0  0  0  0  0  0  0  # atno 17343 bound_to 10162
  156.7086  130.8961  151.3607 LP  0  0  0  0  0  0  0  0  0  0  0  0  # atno 17370 bound_to 10713
  157.6938  130.9261  150.0587 LP  0  0  0  0  0  0  0  0  0  0  0  0  # atno 17371 bound_to 10713
  140.8881  133.7868  155.9541 LP  0  0  0  0  0  0  0  0  0  0  0  0  # atno 17394 bound_to 11000
  140.8783  134.2642  157.5157 LP  0  0  0  0  0  0  0  0  0  0  0  0  # atno 17395 bound_to 11000

$$$$
