AV-unprocessed.smi:3056|AV-procd|sdf|11655|dock3
  -GOLD-   2272017 53D 1   1.00000     0.00000
 Structure written by MMmdl.
 47 48  0  0  0  0  0  0  0  0  1 V2000
  143.7420  132.6310  150.4415 C   0  0  0  0  0  0  0  0  0  0  0  0
  144.9881  132.3696  151.2370 C   0  0  0  0  0  0  0  0  0  0  0  0
  145.4119  131.1426  151.8196 C   0  0  0  0  0  0  0  0  0  0  0  0
  146.5675  131.2477  152.4538 N   0  0  0  0  0  0  0  0  0  0  0  0
  146.9203  132.5447  152.3160 N   0  0  0  0  0  0  0  0  0  0  0  0
  148.1855  133.0014  152.8836 C   0  0  2  0  0  0  0  0  0  0  0  0
  148.9747  131.8299  153.5058 C   0  0  0  0  0  0  0  0  0  0  0  0
  147.9750  134.2034  153.8437 C   0  0  1  0  0  0  0  0  0  0  0  0
  146.9864  133.9179  154.9943 C   0  0  0  0  0  0  0  0  0  0  0  0
  149.2871  134.6454  154.3205 N   0  0  0  0  0  0  0  0  0  0  0  0
  149.3186  135.9547  154.9953 C   0  0  0  0  0  0  0  0  0  0  0  0
  150.7259  136.5665  155.1339 C   0  0  0  0  0  0  0  0  0  0  0  0
  151.6201  135.8920  155.6484 O   0  0  0  0  0  0  0  0  0  0  0  0
  150.9441  137.8249  154.6837 N   0  0  0  0  0  0  0  0  0  0  0  0
  152.2072  138.5398  154.8803 C   0  0  0  0  0  0  0  0  0  0  0  0
  151.9359  139.7353  155.8111 C   0  0  0  0  0  0  0  0  0  0  0  0
  150.9251  140.5687  155.2460 O   0  0  0  0  0  0  0  0  0  0  0  0
  149.6931  139.8891  155.0040 C   0  0  1  0  0  0  0  0  0  0  0  0
  148.6977  140.8951  154.4165 C   0  0  0  0  0  0  0  0  0  0  0  0
  149.9559  138.7044  154.0533 C   0  0  0  0  0  0  0  0  0  0  0  0
  145.9859  133.2403  151.5719 C   0  0  0  0  0  0  0  0  0  0  0  0
  143.3591  131.7211  149.9790 H   0  0  0  0  0  0  0  0  0  0  0  0
  143.9178  133.3485  149.6399 H   0  0  0  0  0  0  0  0  0  0  0  0
  142.9451  133.0345  151.0662 H   0  0  0  0  0  0  0  0  0  0  0  0
  144.9188  130.1818  151.7963 H   0  0  0  0  0  0  0  0  0  0  0  0
  148.7832  133.3582  152.0419 H   0  0  0  0  0  0  0  0  0  0  0  0
  149.9686  132.1440  153.8240 H   0  0  0  0  0  0  0  0  0  0  0  0
  149.1093  131.0252  152.7824 H   0  0  0  0  0  0  0  0  0  0  0  0
  148.4704  131.4098  154.3757 H   0  0  0  0  0  0  0  0  0  0  0  0
  147.5608  135.0169  153.2458 H   0  0  0  0  0  0  0  0  0  0  0  0
  146.0349  133.5424  154.6200 H   0  0  0  0  0  0  0  0  0  0  0  0
  146.7557  134.8219  155.5574 H   0  0  0  0  0  0  0  0  0  0  0  0
  147.3809  133.1818  155.6947 H   0  0  0  0  0  0  0  0  0  0  0  0
  149.7486  133.9262  154.8595 H   0  0  0  0  0  0  0  0  0  0  0  0
  148.7227  136.6503  154.4041 H   0  0  0  0  0  0  0  0  0  0  0  0
  148.8336  135.8717  155.9685 H   0  0  0  0  0  0  0  0  0  0  0  0
  152.9919  137.9128  155.3053 H   0  0  0  0  0  0  0  0  0  0  0  0
  152.5847  138.8870  153.9177 H   0  0  0  0  0  0  0  0  0  0  0  0
  151.6257  139.3945  156.8002 H   0  0  0  0  0  0  0  0  0  0  0  0
  152.8439  140.3232  155.9459 H   0  0  0  0  0  0  0  0  0  0  0  0
  149.2982  139.5197  155.9524 H   0  0  0  0  0  0  0  0  0  0  0  0
  147.7324  140.4259  154.2258 H   0  0  0  0  0  0  0  0  0  0  0  0
  149.0621  141.3073  153.4753 H   0  0  0  0  0  0  0  0  0  0  0  0
  148.5332  141.7259  155.1028 H   0  0  0  0  0  0  0  0  0  0  0  0
  150.3557  139.0672  153.1054 H   0  0  0  0  0  0  0  0  0  0  0  0
  149.0223  138.2055  153.7994 H   0  0  0  0  0  0  0  0  0  0  0  0
  146.1031  134.2884  151.3391 H   0  0  0  0  0  0  0  0  0  0  0  0
  1  2  1  0  0  0  0
  1 22  1  0  0  0  0
  1 23  1  0  0  0  0
  1 24  1  0  0  0  0
  2 21  2  0  0  0  0
  2  3  1  0  0  0  0
  3  4  2  0  0  0  0
  3 25  1  0  0  0  0
  4  5  1  0  0  0  0
  5  6  1  0  0  0  0
  5 21  1  0  0  0  0
  6  7  1  0  0  0  0
  6  8  1  0  0  0  0
  6 26  1  0  0  0  0
  7 27  1  0  0  0  0
  7 28  1  0  0  0  0
  7 29  1  0  0  0  0
  8  9  1  0  0  0  0
  8 10  1  0  0  0  0
  8 30  1  0  0  0  0
  9 31  1  0  0  0  0
  9 32  1  0  0  0  0
  9 33  1  0  0  0  0
 10 11  1  0  0  0  0
 10 34  1  0  0  0  0
 11 12  1  0  0  0  0
 11 35  1  0  0  0  0
 11 36  1  0  0  0  0
 12 13  2  0  0  0  0
 12 14  1  0  0  0  0
 14 20  1  0  0  0  0
 14 15  1  0  0  0  0
 15 16  1  0  0  0  0
 15 37  1  0  0  0  0
 15 38  1  0  0  0  0
 16 17  1  0  0  0  0
 16 39  1  0  0  0  0
 16 40  1  0  0  0  0
 17 18  1  0  0  0  0
 18 19  1  0  0  0  0
 18 20  1  0  0  0  0
 18 41  1  0  0  0  0
 19 42  1  0  0  0  0
 19 43  1  0  0  0  0
 19 44  1  0  0  0  0
 20 45  1  0  0  0  0
 20 46  1  0  0  0  0
 21 47  1  0  0  0  0
M  END
> <s_m_source_file>
AV-unprocessed.smi

> <i_m_source_file_index>
3056

> <i_lp_mmshare_version>
43012

> <i_f3d_flags>
0

> <s_epik_input>
W0NIM11jMVtjSF1ubihbY0hdMSlbQ0BIXShbQ0gzXSlbQ0BIXShbQ0gzXSlbTkhdW0NIMl1DKD1PKU4yW0NIMl1bQ0gyXU9bQ0BASF0oW0NIM10pW0NIMl0y

> <s_epik_cmdline>
J2VwaWtfcHl0aG9uJywgJy1waCcsICc3LjAnLCAnLXRuJywgJzgnLCAnLW1hJywgJzIwMCcsICctbWV0YWxfYmluZGluZycsICctaW1hZScsICc8aW5maWxlLm1hZT4nLCAnLW9tYWUnLCAnPG91dGZpbGUubWFlPic=

> <r_lp_tautomer_probability>
1

> <r_epik_Ionization_Penalty>
0.667689

> <r_epik_Ionization_Penalty_Charging>
0

> <r_epik_Ionization_Penalty_Neutral>
0.667689

> <r_epik_State_Penalty>
0.684601

> <r_epik_Charging_Adjusted_Penalty>
0.684601

> <i_epik_Tot_Q>
0

> <i_epik_Tot_abs_Q>
0

> <r_epik_Metal_State_Penalty>
0.681448

> <b_epik_Metal_Only>
0

> <s_lp_Force_Field>
OPLS_2005

> <r_lp_Energy>
33.6961

> <b_lp_Chiralities_Consistent>
1

> <s_lp_Variant>
AV-unprocessed.smi:3056-11

> <Gold.Version>
5.8.1

> <Gold.Id.Protein>
6NUR|6NUR_protein|mol2

> <Gold.PLP.Fitness>
47.1313

> <Gold.PLP.PLP>
-41.5763

> <Gold.PLP.part.hbond>
-3.0000

> <Gold.PLP.part.metal>
0.0000

> <Gold.PLP.part.buried>
-4.1054

> <Gold.PLP.part.nonpolar>
-35.4337

> <Gold.PLP.part.repulsive>
0.2401

> <Gold.PLP.ligand.clash>
0.0000

> <Gold.PLP.ligand.torsion>
0.2476

> <Gold.PLP.Chemscore.Hbond>
1.9440

> <Gold.PLP.Chemscore.CHOScore>
0.0000

> <Gold.PLP.Chemscore.Metal>
0.0000

> <Gold.Chemscore.Hbonds>
donor molecule, donor type, donor heavy atom, donor atom, acceptor molecule, acceptor atom, score
      P1  H  7989  7998       L1    17  0.94
      P1  H 10752 10765       L1    13  1.00

> <Gold.PLP.Chemscore.Internal.Correction>
0.2183

> <Gold.Rescore>
     Score         DG    S(hbond)    S(metal)    S(lipo)     H(rot)  DE(clash)    DE(int)     intcor
     15.33     -15.92       1.21        0.00      91.46       1.68       0.33       0.26       ----

> <Gold.Chemscore.Fitness>
15.3275

> <Gold.Chemscore.DG>
-15.9159

> <Gold.Chemscore.ZeroCoef>
-5.4800

> <Gold.Chemscore.Hbond>
1.2079

> <Gold.Chemscore.Metal>
0.0000

> <Gold.Chemscore.Lipo>
91.4590

> <Gold.Chemscore.Internal_Hbond>
0.0000

> <Gold.Chemscore.DEClash>
0.3293

> <Gold.Chemscore.DEInternal>
0.2591

> <Gold.Chemscore.Rot>
1.6793

> <Gold.Chemscore.Internal.Correction>
   9.000000E+99

> <Gold.Chemscore.Hbonds>
donor molecule, donor type, donor heavy atom, donor atom, acceptor molecule, acceptor atom, score
      P1  H  7989  7998       L1    17  0.12
      P1  H 10752 10765       L1    13  0.99

> <Gold.Chemscore.Hbond.Weighted>
-4.0342

> <Gold.Chemscore.Metal.Weighted>
-0.0000

> <Gold.Chemscore.Lipo.Weighted>
-10.7007

> <Gold.Chemscore.Internal_Hbond.Weighted>
0.0000

> <Gold.Chemscore.DEClash.Weighted>
0.3293

> <Gold.Chemscore.DEInternal.Weighted>
0.2591

> <Gold.Chemscore.Rot.Weighted>
4.2990

> <Gold.Chemscore.Internal.Correction.Weighted>
   9.000000E+99

> <Gold.Protein.RotatedTorsions>
[ 6907 6896 6895 6894 ] final   74.35 input  -60.11 | X-H torsion
[ 7974 7965 7964 7962 ] final  -59.86 input  175.53 | X-H torsion
[ 8008 7997 7996 7995 ] final  -74.71 input   59.86 | X-H torsion
[ 10167 10162 10161 10158 ] final  -14.98 input  -65.29 | X-H torsion
[ 10718 10713 10712 10709 ] final -170.33 input   66.30 | X-H torsion
[ 10763 10752 10751 10750 ] final -164.38 input  -60.55 | X-H torsion
[ 11005 11000 10999 10996 ] final  -82.92 input  -57.11 | X-H torsion

> <Gold.Protein.ActiveResidues>
 VAL166  LYS551  ARG553  GLY616  TRP617  ASP618  TYR619  PRO620  LYS621  CYS622 
 ASP623  PHE694  ASN695  SER759  ASP760  ASP761  ALA762  ILE779  LEU786  VAL792 
 PHE793  MET794  SER795  GLU796  ALA797  LYS798  CYS799  TRP800  GLU811  SER814 

> <Gold.Protein.RotatedAtoms>
  152.4971  134.4285  159.9504 H   0  0  0  0  0  0  0  0  0  0  0  0  # atno 6907 bound_to 6896
  151.4262  133.3677  159.2770 H   0  0  0  0  0  0  0  0  0  0  0  0  # atno 6908 bound_to 6896
  150.9187  134.8627  159.7534 H   0  0  0  0  0  0  0  0  0  0  0  0  # atno 6909 bound_to 6896
  145.8224  140.8532  143.0126 H   0  0  0  0  0  0  0  0  0  0  0  0  # atno 7974 bound_to 7965
  154.5354  140.0756  156.8418 H   0  0  0  0  0  0  0  0  0  0  0  0  # atno 8008 bound_to 7997
  155.3288  140.3400  155.4221 H   0  0  0  0  0  0  0  0  0  0  0  0  # atno 8009 bound_to 7997
  156.1823  140.1656  156.8237 H   0  0  0  0  0  0  0  0  0  0  0  0  # atno 8010 bound_to 7997
  140.7211  143.5265  150.9571 H   0  0  0  0  0  0  0  0  0  0  0  0  # atno 10167 bound_to 10162
  156.7246  130.9283  151.3100 H   0  0  0  0  0  0  0  0  0  0  0  0  # atno 10718 bound_to 10713
  154.7033  135.2992  154.9308 H   0  0  0  0  0  0  0  0  0  0  0  0  # atno 10763 bound_to 10752
  154.0233  135.6680  153.4778 H   0  0  0  0  0  0  0  0  0  0  0  0  # atno 10764 bound_to 10752
  153.0698  135.5067  154.8190 H   0  0  0  0  0  0  0  0  0  0  0  0  # atno 10765 bound_to 10752
  141.1660  133.7268  156.8644 H   0  0  0  0  0  0  0  0  0  0  0  0  # atno 11005 bound_to 11000
  144.6746  140.0553  143.7477 LP  0  0  0  0  0  0  0  0  0  0  0  0  # atno 17320 bound_to 7965
  145.9660  139.2835  143.1127 LP  0  0  0  0  0  0  0  0  0  0  0  0  # atno 17321 bound_to 7965
  139.8984  143.6866  152.3135 LP  0  0  0  0  0  0  0  0  0  0  0  0  # atno 17342 bound_to 10162
  139.7207  144.7603  151.0960 LP  0  0  0  0  0  0  0  0  0  0  0  0  # atno 17343 bound_to 10162
  157.6884  130.9208  150.0447 LP  0  0  0  0  0  0  0  0  0  0  0  0  # atno 17370 bound_to 10713
  156.1570  130.3643  149.9354 LP  0  0  0  0  0  0  0  0  0  0  0  0  # atno 17371 bound_to 10713
  140.1826  134.9022  157.2966 LP  0  0  0  0  0  0  0  0  0  0  0  0  # atno 17394 bound_to 11000
  140.2378  134.3831  155.7493 LP  0  0  0  0  0  0  0  0  0  0  0  0  # atno 17395 bound_to 11000

$$$$
