AV-unprocessed.smi:2884|AV-procd|sdf|11084|dock1
  -GOLD-   2272015553D 1   1.00000     0.00000
 Structure written by MMmdl.
 42 43  0  0  0  0  0  0  0  0  3 V2000
  146.7695  138.7896  151.5614 C   0  0  0  0  0  0  0  0  0  0  0  0
  146.0316  137.7726  152.4414 C   0  0  0  0  0  0  0  0  0  0  0  0
  145.6250  136.5083  151.6750 C   0  0  0  0  0  0  0  0  0  0  0  0
  145.7899  135.3912  152.5423 O   0  0  0  0  0  0  0  0  0  0  0  0
  145.4254  134.0791  152.0952 C   0  0  0  0  0  0  0  0  0  0  0  0
  145.6326  133.2269  153.3726 C   0  0  0  0  0  0  0  0  0  0  0  0
  146.9505  133.4262  153.9638 N   0  0  0  0  0  0  0  0  0  0  0  0
  147.4137  133.1067  155.2345 C   0  0  0  0  0  0  0  0  0  0  0  0
  146.5930  132.4853  156.2172 C   0  0  0  0  0  0  0  0  0  0  0  0
  147.0872  132.2037  157.4185 N   0  3  0  0  0  0  0  0  0  0  0  0
  148.3245  132.4652  157.7767 N   0  5  0  0  0  0  0  0  0  0  0  0
  149.2133  133.0574  156.9246 C   0  0  0  0  0  0  0  0  0  0  0  0
  150.3755  133.3129  157.2338 O   0  0  0  0  0  0  0  0  0  0  0  0
  148.7034  133.3868  155.5807 C   0  0  0  0  0  0  0  0  0  0  0  0
  149.7788  134.1478  154.4547 Cl  0  0  0  0  0  0  0  0  0  0  0  0
  143.9596  134.0104  151.5808 C   0  0  0  0  0  0  0  0  0  0  0  0
  143.5891  132.6145  151.0486 C   0  0  0  0  0  0  0  0  0  0  0  0
  144.5607  132.1668  149.9454 C   0  0  0  0  0  0  0  0  0  0  0  0
  146.0199  132.2123  150.4259 C   0  0  0  0  0  0  0  0  0  0  0  0
  146.3878  133.6039  150.9749 C   0  0  0  0  0  0  0  0  0  0  0  0
  146.4341  131.7541  158.0790 H   0  0  0  0  0  0  0  0  0  0  0  0
  147.0617  139.6651  152.1412 H   0  0  0  0  0  0  0  0  0  0  0  0
  146.1405  139.1314  150.7387 H   0  0  0  0  0  0  0  0  0  0  0  0
  147.6741  138.3568  151.1335 H   0  0  0  0  0  0  0  0  0  0  0  0
  146.6761  137.4930  153.2752 H   0  0  0  0  0  0  0  0  0  0  0  0
  145.1476  138.2374  152.8790 H   0  0  0  0  0  0  0  0  0  0  0  0
  144.5948  136.6153  151.3395 H   0  0  0  0  0  0  0  0  0  0  0  0
  146.2554  136.4115  150.7921 H   0  0  0  0  0  0  0  0  0  0  0  0
  144.8501  133.4188  154.1025 H   0  0  0  0  0  0  0  0  0  0  0  0
  145.5469  132.1695  153.1205 H   0  0  0  0  0  0  0  0  0  0  0  0
  147.5595  134.0102  153.4075 H   0  0  0  0  0  0  0  0  0  0  0  0
  145.5596  132.2180  156.0404 H   0  0  0  0  0  0  0  0  0  0  0  0
  143.2587  134.3135  152.3588 H   0  0  0  0  0  0  0  0  0  0  0  0
  143.8137  134.7088  150.7581 H   0  0  0  0  0  0  0  0  0  0  0  0
  143.5904  131.8870  151.8592 H   0  0  0  0  0  0  0  0  0  0  0  0
  142.5712  132.6293  150.6578 H   0  0  0  0  0  0  0  0  0  0  0  0
  144.3090  131.1591  149.6136 H   0  0  0  0  0  0  0  0  0  0  0  0
  144.4453  132.8151  149.0758 H   0  0  0  0  0  0  0  0  0  0  0  0
  146.1821  131.4492  151.1871 H   0  0  0  0  0  0  0  0  0  0  0  0
  146.6849  131.9574  149.6002 H   0  0  0  0  0  0  0  0  0  0  0  0
  146.3637  134.2977  150.1357 H   0  0  0  0  0  0  0  0  0  0  0  0
  147.4165  133.6010  151.3368 H   0  0  0  0  0  0  0  0  0  0  0  0
  1  2  1  0  0  0  0
  1 22  1  0  0  0  0
  1 23  1  0  0  0  0
  1 24  1  0  0  0  0
  2  3  1  0  0  0  0
  2 25  1  0  0  0  0
  2 26  1  0  0  0  0
  3  4  1  0  0  0  0
  3 27  1  0  0  0  0
  3 28  1  0  0  0  0
  4  5  1  0  0  0  0
  5 20  1  0  0  0  0
  5  6  1  0  0  0  0
  5 16  1  0  0  0  0
  6 29  1  0  0  0  0
  6 30  1  0  0  0  0
  6  7  1  0  0  0  0
  7  8  1  0  0  0  0
  7 31  1  0  0  0  0
  8 14  2  0  0  0  0
  8  9  1  0  0  0  0
  9 32  1  0  0  0  0
  9 10  2  0  0  0  0
 10 11  1  0  0  0  0
 10 21  1  0  0  0  0
 11 12  1  0  0  0  0
 12 13  2  0  0  0  0
 12 14  1  0  0  0  0
 14 15  1  0  0  0  0
 16 17  1  0  0  0  0
 16 33  1  0  0  0  0
 16 34  1  0  0  0  0
 17 18  1  0  0  0  0
 17 35  1  0  0  0  0
 17 36  1  0  0  0  0
 18 19  1  0  0  0  0
 18 37  1  0  0  0  0
 18 38  1  0  0  0  0
 19 20  1  0  0  0  0
 19 39  1  0  0  0  0
 19 40  1  0  0  0  0
 20 41  1  0  0  0  0
 20 42  1  0  0  0  0
M  CHG  1  10   1
M  CHG  1  11  -1
M  END
> <s_m_source_file>
AV-unprocessed.smi

> <i_m_source_file_index>
2884

> <i_lp_mmshare_version>
43012

> <i_f3d_flags>
0

> <s_epik_input>
W0NIMl0xW0NIMl1bQ0gyXVtDSDJdW0NIMl1DMShPW0NIMl1bQ0gyXVtDSDNdKVtDSDJdW05IXWMyW2NIXW5bbkhdYyg9TyljMkNs

> <s_epik_cmdline>
J2VwaWtfcHl0aG9uJywgJy1waCcsICc3LjAnLCAnLXRuJywgJzgnLCAnLW1hJywgJzIwMCcsICctbWV0YWxfYmluZGluZycsICctaW1hZScsICc8aW5maWxlLm1hZT4nLCAnLW9tYWUnLCAnPG91dGZpbGUubWFlPic=

> <r_lp_tautomer_probability>
0.0138196

> <r_epik_Ionization_Penalty>
2.73941

> <r_epik_Ionization_Penalty_Charging>
2.73941

> <r_epik_Ionization_Penalty_Neutral>
1.09968e-06

> <r_epik_State_Penalty>
2.7044

> <r_epik_Charging_Adjusted_Penalty>
5.44381

> <i_epik_Tot_Q>
0

> <i_epik_Tot_abs_Q>
2

> <r_epik_Metal_State_Penalty>
2.9982

> <b_epik_Metal_Only>
0

> <s_lp_Force_Field>
OPLS_2005

> <r_lp_Energy>
38.2513

> <b_lp_Chiralities_Consistent>
1

> <s_lp_Variant>
AV-unprocessed.smi:2884-2

> <Gold.Version>
5.8.1

> <Gold.Id.Protein>
6NUR|6NUR_protein|mol2

> <Gold.PLP.Fitness>
31.9953

> <Gold.PLP.PLP>
-29.8438

> <Gold.PLP.part.hbond>
-1.0000

> <Gold.PLP.part.metal>
0.0000

> <Gold.PLP.part.buried>
-2.8502

> <Gold.PLP.part.nonpolar>
-27.2700

> <Gold.PLP.part.repulsive>
0.1081

> <Gold.PLP.ligand.clash>
0.0000

> <Gold.PLP.ligand.torsion>
0.4445

> <Gold.PLP.Chemscore.Hbond>
1.0000

> <Gold.PLP.Chemscore.CHOScore>
0.0000

> <Gold.PLP.Chemscore.Metal>
0.0000

> <Gold.Chemscore.Hbonds>
donor molecule, donor type, donor heavy atom, donor atom, acceptor molecule, acceptor atom, score
      P1  H  6896  6908       L1    13  0.86

> <Gold.PLP.Chemscore.Internal.Correction>
0.0404

> <Gold.Rescore>
     Score         DG    S(hbond)    S(metal)    S(lipo)     H(rot)  DE(clash)    DE(int)     intcor
     13.70     -14.19       0.97        0.00      85.47       1.77       0.08       0.40       ----

> <Gold.Chemscore.Fitness>
13.7025

> <Gold.Chemscore.DG>
-14.1887

> <Gold.Chemscore.ZeroCoef>
-5.4800

> <Gold.Chemscore.Hbond>
0.9673

> <Gold.Chemscore.Metal>
0.0000

> <Gold.Chemscore.Lipo>
85.4665

> <Gold.Chemscore.Internal_Hbond>
0.0000

> <Gold.Chemscore.DEClash>
0.0823

> <Gold.Chemscore.DEInternal>
0.4039

> <Gold.Chemscore.Rot>
1.7663

> <Gold.Chemscore.Internal.Correction>
   9.000000E+99

> <Gold.Chemscore.Hbonds>
donor molecule, donor type, donor heavy atom, donor atom, acceptor molecule, acceptor atom, score
      P1  H  6896  6908       L1    13  0.78

> <Gold.Chemscore.Hbond.Weighted>
-3.2307

> <Gold.Chemscore.Metal.Weighted>
-0.0000

> <Gold.Chemscore.Lipo.Weighted>
-9.9996

> <Gold.Chemscore.Internal_Hbond.Weighted>
0.0000

> <Gold.Chemscore.DEClash.Weighted>
0.0823

> <Gold.Chemscore.DEInternal.Weighted>
0.4039

> <Gold.Chemscore.Rot.Weighted>
4.5216

> <Gold.Chemscore.Internal.Correction.Weighted>
   9.000000E+99

> <Gold.Protein.RotatedTorsions>
[ 6907 6896 6895 6894 ] final  110.74 input  -60.11 | X-H torsion
[ 7974 7965 7964 7962 ] final   23.85 input  175.53 | X-H torsion
[ 8008 7997 7996 7995 ] final  -65.21 input   59.86 | X-H torsion
[ 10167 10162 10161 10158 ] final -117.00 input  -65.29 | X-H torsion
[ 10718 10713 10712 10709 ] final   14.07 input   66.30 | X-H torsion
[ 10763 10752 10751 10750 ] final  -47.99 input  -60.55 | X-H torsion
[ 11005 11000 10999 10996 ] final  148.00 input  -57.11 | X-H torsion

> <Gold.Protein.ActiveResidues>
 VAL166  LYS551  ARG553  GLY616  TRP617  ASP618  TYR619  PRO620  LYS621  CYS622 
 ASP623  PHE694  ASN695  SER759  ASP760  ASP761  ALA762  ILE779  LEU786  VAL792 
 PHE793  MET794  SER795  GLU796  ALA797  LYS798  CYS799  TRP800  GLU811  SER814 

> <Gold.Protein.RotatedAtoms>
  152.5005  133.8757  159.7320 H   0  0  0  0  0  0  0  0  0  0  0  0  # atno 6907 bound_to 6896
  150.9232  133.6846  159.2834 H   0  0  0  0  0  0  0  0  0  0  0  0  # atno 6908 bound_to 6896
  151.4216  135.1003  159.9668 H   0  0  0  0  0  0  0  0  0  0  0  0  # atno 6909 bound_to 6896
  146.1965  139.7687  142.8793 H   0  0  0  0  0  0  0  0  0  0  0  0  # atno 7974 bound_to 7965
  154.4658  140.0938  156.7015 H   0  0  0  0  0  0  0  0  0  0  0  0  # atno 8008 bound_to 7997
  155.4864  140.3469  155.4329 H   0  0  0  0  0  0  0  0  0  0  0  0  # atno 8009 bound_to 7997
  156.0953  140.1408  156.9528 H   0  0  0  0  0  0  0  0  0  0  0  0  # atno 8010 bound_to 7997
  140.0731  143.4859  152.1969 H   0  0  0  0  0  0  0  0  0  0  0  0  # atno 10167 bound_to 10162
  157.0339  130.6204  149.5740 H   0  0  0  0  0  0  0  0  0  0  0  0  # atno 10718 bound_to 10713
  154.0704  135.6605  153.4823 H   0  0  0  0  0  0  0  0  0  0  0  0  # atno 10763 bound_to 10752
  153.0393  135.5156  154.7572 H   0  0  0  0  0  0  0  0  0  0  0  0  # atno 10764 bound_to 10752
  154.6636  135.3018  154.9802 H   0  0  0  0  0  0  0  0  0  0  0  0  # atno 10765 bound_to 10752
  140.0923  134.9034  157.1669 H   0  0  0  0  0  0  0  0  0  0  0  0  # atno 11005 bound_to 11000
  145.3626  141.0328  143.3276 LP  0  0  0  0  0  0  0  0  0  0  0  0  # atno 17320 bound_to 7965
  144.8592  139.5203  143.6820 LP  0  0  0  0  0  0  0  0  0  0  0  0  # atno 17321 bound_to 7965
  139.5824  144.7516  151.3605 LP  0  0  0  0  0  0  0  0  0  0  0  0  # atno 17342 bound_to 10162
  140.7116  143.7376  150.7577 LP  0  0  0  0  0  0  0  0  0  0  0  0  # atno 17343 bound_to 10162
  156.0060  130.5147  150.7832 LP  0  0  0  0  0  0  0  0  0  0  0  0  # atno 17370 bound_to 10713
  157.5157  131.0928  151.0143 LP  0  0  0  0  0  0  0  0  0  0  0  0  # atno 17371 bound_to 10713
  140.3335  134.2783  155.7224 LP  0  0  0  0  0  0  0  0  0  0  0  0  # atno 17394 bound_to 11000
  141.2081  133.7786  157.0077 LP  0  0  0  0  0  0  0  0  0  0  0  0  # atno 17395 bound_to 11000

$$$$
