AV-unprocessed.smi:2474|AV-procd|sdf|9752|dock6
  -GOLD-   2272013393D 1   1.00000     0.00000
 Structure written by MMmdl.
 40 41  0  0  0  0  0  0  0  0  1 V2000
  156.3583  132.0030  161.6918 C   0  0  0  0  0  0  0  0  0  0  0  0
  155.6776  133.2830  161.3441 C   0  0  0  0  0  0  0  0  0  0  0  0
  155.2088  133.6792  160.1160 C   0  0  0  0  0  0  0  0  0  0  0  0
  154.6114  134.9414  160.1200 N   0  0  0  0  0  0  0  0  0  0  0  0
  154.6279  135.5108  161.3287 C   0  0  0  0  0  0  0  0  0  0  0  0
  154.0364  136.8556  161.6256 C   0  0  1  0  0  0  0  0  0  0  0  0
  153.9260  137.1207  163.1338 C   0  0  0  0  0  0  0  0  0  0  0  0
  154.7261  138.0078  160.8601 C   0  0  0  0  0  0  0  0  0  0  0  0
  154.1756  139.3216  161.1834 N   0  0  0  0  0  0  0  0  0  0  0  0
  153.8933  140.2798  160.2907 C   0  0  0  0  0  0  0  0  0  0  0  0
  154.0313  140.1518  159.0741 O   0  0  0  0  0  0  0  0  0  0  0  0
  153.4649  141.4012  160.8863 N   0  0  0  0  0  0  0  0  0  0  0  0
  153.1298  142.6446  160.1989 C   0  0  2  0  0  0  0  0  0  0  0  0
  152.3749  143.5911  161.1556 C   0  0  0  0  0  0  0  0  0  0  0  0
  152.0374  144.9425  160.5051 C   0  0  0  0  0  0  0  0  0  0  0  0
  151.1352  144.7912  159.2723 C   0  0  0  0  0  0  0  0  0  0  0  0
  151.9500  143.8177  157.9776 S   0  0  0  0  0  0  0  0  0  0  0  0
  152.3012  142.3227  158.9433 C   0  0  0  0  0  0  0  0  0  0  0  0
  155.3851  134.5016  162.5567 S   0  0  0  0  0  0  0  0  0  0  0  0
  156.4670  131.3644  160.8150 H   0  0  0  0  0  0  0  0  0  0  0  0
  155.7877  131.4529  162.4404 H   0  0  0  0  0  0  0  0  0  0  0  0
  157.3531  132.1923  162.0956 H   0  0  0  0  0  0  0  0  0  0  0  0
  155.2558  133.1266  159.1893 H   0  0  0  0  0  0  0  0  0  0  0  0
  153.0095  136.8142  161.2605 H   0  0  0  0  0  0  0  0  0  0  0  0
  153.3378  136.3459  163.6263 H   0  0  0  0  0  0  0  0  0  0  0  0
  153.4418  138.0778  163.3297 H   0  0  0  0  0  0  0  0  0  0  0  0
  154.9089  137.1434  163.6055 H   0  0  0  0  0  0  0  0  0  0  0  0
  155.8021  137.9990  161.0402 H   0  0  0  0  0  0  0  0  0  0  0  0
  154.5926  137.8618  159.7878 H   0  0  0  0  0  0  0  0  0  0  0  0
  154.0300  139.5241  162.1617 H   0  0  0  0  0  0  0  0  0  0  0  0
  153.3865  141.4039  161.8926 H   0  0  0  0  0  0  0  0  0  0  0  0
  154.0545  143.1287  159.8780 H   0  0  0  0  0  0  0  0  0  0  0  0
  151.4581  143.1134  161.5038 H   0  0  0  0  0  0  0  0  0  0  0  0
  152.9790  143.7727  162.0456 H   0  0  0  0  0  0  0  0  0  0  0  0
  151.5395  145.5786  161.2375 H   0  0  0  0  0  0  0  0  0  0  0  0
  152.9575  145.4585  160.2276 H   0  0  0  0  0  0  0  0  0  0  0  0
  150.1966  144.3069  159.5440 H   0  0  0  0  0  0  0  0  0  0  0  0
  150.8838  145.7711  158.8663 H   0  0  0  0  0  0  0  0  0  0  0  0
  152.8375  141.6219  158.3029 H   0  0  0  0  0  0  0  0  0  0  0  0
  151.3573  141.8493  159.2163 H   0  0  0  0  0  0  0  0  0  0  0  0
  1  2  1  0  0  0  0
  1 20  1  0  0  0  0
  1 21  1  0  0  0  0
  1 22  1  0  0  0  0
  2 19  1  0  0  0  0
  2  3  2  0  0  0  0
  3  4  1  0  0  0  0
  3 23  1  0  0  0  0
  4  5  2  0  0  0  0
  5  6  1  0  0  0  0
  5 19  1  0  0  0  0
  6  7  1  0  0  0  0
  6  8  1  0  0  0  0
  6 24  1  0  0  0  0
  7 25  1  0  0  0  0
  7 26  1  0  0  0  0
  7 27  1  0  0  0  0
  8  9  1  0  0  0  0
  8 28  1  0  0  0  0
  8 29  1  0  0  0  0
  9 10  1  0  0  0  0
  9 30  1  0  0  0  0
 10 11  2  0  0  0  0
 10 12  1  0  0  0  0
 12 13  1  0  0  0  0
 12 31  1  0  0  0  0
 13 18  1  0  0  0  0
 13 14  1  0  0  0  0
 13 32  1  0  0  0  0
 14 15  1  0  0  0  0
 14 33  1  0  0  0  0
 14 34  1  0  0  0  0
 15 16  1  0  0  0  0
 15 35  1  0  0  0  0
 15 36  1  0  0  0  0
 16 17  1  0  0  0  0
 16 37  1  0  0  0  0
 16 38  1  0  0  0  0
 17 18  1  0  0  0  0
 18 39  1  0  0  0  0
 18 40  1  0  0  0  0
M  END
> <s_m_source_file>
AV-unprocessed.smi

> <i_m_source_file_index>
2474

> <i_lp_mmshare_version>
43012

> <i_f3d_flags>
0

> <s_epik_input>
W0NIM11jMVtjSF1uYyhzMSlbQ0BIXShbQ0gzXSlbQ0gyXVtOSF1DKD1PKVtOSF1bQ0BASF0yW0NIMl1bQ0gyXVtDSDJdU1tDSDJdMg==

> <s_epik_cmdline>
J2VwaWtfcHl0aG9uJywgJy1waCcsICc3LjAnLCAnLXRuJywgJzgnLCAnLW1hJywgJzIwMCcsICctbWV0YWxfYmluZGluZycsICctaW1hZScsICc8aW5maWxlLm1hZT4nLCAnLW9tYWUnLCAnPG91dGZpbGUubWFlPic=

> <r_epik_Ionization_Penalty>
0.000644338

> <r_epik_Ionization_Penalty_Charging>
0

> <r_epik_Ionization_Penalty_Neutral>
0.000644338

> <r_epik_State_Penalty>
0.000374131

> <r_epik_Charging_Adjusted_Penalty>
0.000374131

> <i_epik_Tot_Q>
0

> <i_epik_Tot_abs_Q>
0

> <r_epik_Metal_State_Penalty>
-0

> <b_epik_Metal_Only>
0

> <s_lp_Force_Field>
OPLS_2005

> <r_lp_Energy>
-6.48006

> <b_lp_Chiralities_Consistent>
1

> <s_lp_Variant>
AV-unprocessed.smi:2474-2

> <Gold.Version>
5.8.1

> <Gold.Id.Protein>
6NUR|6NUR_protein|mol2

> <Gold.PLP.Fitness>
43.4195

> <Gold.PLP.PLP>
-38.2604

> <Gold.PLP.part.hbond>
-1.9843

> <Gold.PLP.part.metal>
0.0000

> <Gold.PLP.part.buried>
-4.9336

> <Gold.PLP.part.nonpolar>
-31.5261

> <Gold.PLP.part.repulsive>
0.0634

> <Gold.PLP.ligand.clash>
0.0000

> <Gold.PLP.ligand.torsion>
0.4472

> <Gold.PLP.Chemscore.Hbond>
1.9760

> <Gold.PLP.Chemscore.CHOScore>
0.0000

> <Gold.PLP.Chemscore.Metal>
0.0000

> <Gold.Chemscore.Hbonds>
donor molecule, donor type, donor heavy atom, donor atom, acceptor molecule, acceptor atom, score
      P1  H  6896  6907       L1     4  0.80
      P1  H  7997  8009       L1    11  0.96

> <Gold.PLP.Chemscore.Internal.Correction>
0.1255

> <Gold.Rescore>
     Score         DG    S(hbond)    S(metal)    S(lipo)     H(rot)  DE(clash)    DE(int)     intcor
     18.02     -20.03       1.79        0.00     105.32       1.46       0.00       2.00       ----

> <Gold.Chemscore.Fitness>
18.0220

> <Gold.Chemscore.DG>
-20.0309

> <Gold.Chemscore.ZeroCoef>
-5.4800

> <Gold.Chemscore.Hbond>
1.7873

> <Gold.Chemscore.Metal>
0.0000

> <Gold.Chemscore.Lipo>
105.3237

> <Gold.Chemscore.Internal_Hbond>
0.0000

> <Gold.Chemscore.DEClash>
0.0042

> <Gold.Chemscore.DEInternal>
2.0047

> <Gold.Chemscore.Rot>
1.4616

> <Gold.Chemscore.Internal.Correction>
   9.000000E+99

> <Gold.Chemscore.Hbonds>
donor molecule, donor type, donor heavy atom, donor atom, acceptor molecule, acceptor atom, score
      P1  H  6896  6907       L1     4  0.06
      P1  H  7997  8009       L1    11  0.88

> <Gold.Chemscore.Hbond.Weighted>
-5.9697

> <Gold.Chemscore.Metal.Weighted>
-0.0000

> <Gold.Chemscore.Lipo.Weighted>
-12.3229

> <Gold.Chemscore.Internal_Hbond.Weighted>
0.0000

> <Gold.Chemscore.DEClash.Weighted>
0.0042

> <Gold.Chemscore.DEInternal.Weighted>
2.0047

> <Gold.Chemscore.Rot.Weighted>
3.7416

> <Gold.Chemscore.Internal.Correction.Weighted>
   9.000000E+99

> <Gold.Protein.RotatedTorsions>
[ 6907 6896 6895 6894 ] final   77.59 input  -60.11 | X-H torsion
[ 7974 7965 7964 7962 ] final  -32.42 input  175.53 | X-H torsion
[ 8008 7997 7996 7995 ] final  131.89 input   59.86 | X-H torsion
[ 10167 10162 10161 10158 ] final   84.05 input  -65.29 | X-H torsion
[ 10718 10713 10712 10709 ] final   10.47 input   66.30 | X-H torsion
[ 10763 10752 10751 10750 ] final -134.22 input  -60.55 | X-H torsion
[ 11005 11000 10999 10996 ] final -143.63 input  -57.11 | X-H torsion

> <Gold.Protein.ActiveResidues>
 VAL166  LYS551  ARG553  GLY616  TRP617  ASP618  TYR619  PRO620  LYS621  CYS622 
 ASP623  PHE694  ASN695  SER759  ASP760  ASP761  ALA762  ILE779  LEU786  VAL792 
 PHE793  MET794  SER795  GLU796  ALA797  LYS798  CYS799  TRP800  GLU811  SER814 

> <Gold.Protein.RotatedAtoms>
  152.5124  134.3793  159.9345 H   0  0  0  0  0  0  0  0  0  0  0  0  # atno 6907 bound_to 6896
  151.3749  133.3835  159.2711 H   0  0  0  0  0  0  0  0  0  0  0  0  # atno 6908 bound_to 6896
  150.9549  134.8964  159.7753 H   0  0  0  0  0  0  0  0  0  0  0  0  # atno 6909 bound_to 6896
  146.0991  140.5790  142.8829 H   0  0  0  0  0  0  0  0  0  0  0  0  # atno 7974 bound_to 7965
  156.2976  140.2560  156.2999 H   0  0  0  0  0  0  0  0  0  0  0  0  # atno 8008 bound_to 7997
  154.9428  140.0396  157.2124 H   0  0  0  0  0  0  0  0  0  0  0  0  # atno 8009 bound_to 7997
  154.8110  140.2844  155.5857 H   0  0  0  0  0  0  0  0  0  0  0  0  # atno 8010 bound_to 7997
  139.9121  144.6265  150.8527 H   0  0  0  0  0  0  0  0  0  0  0  0  # atno 10167 bound_to 10162
  156.9814  130.6007  149.5677 H   0  0  0  0  0  0  0  0  0  0  0  0  # atno 10718 bound_to 10713
  154.8722  135.3741  154.4699 H   0  0  0  0  0  0  0  0  0  0  0  0  # atno 10763 bound_to 10752
  153.5361  135.7027  153.5664 H   0  0  0  0  0  0  0  0  0  0  0  0  # atno 10764 bound_to 10752
  153.3847  135.3987  155.1846 H   0  0  0  0  0  0  0  0  0  0  0  0  # atno 10765 bound_to 10752
  140.8105  134.2749  157.4942 H   0  0  0  0  0  0  0  0  0  0  0  0  # atno 11005 bound_to 11000
  144.7418  140.4963  143.6863 LP  0  0  0  0  0  0  0  0  0  0  0  0  # atno 17320 bound_to 7965
  145.5890  139.1494  143.3193 LP  0  0  0  0  0  0  0  0  0  0  0  0  # atno 17321 bound_to 7965
  140.7683  143.3358  151.2312 LP  0  0  0  0  0  0  0  0  0  0  0  0  # atno 17342 bound_to 10162
  139.6934  143.9654  152.2870 LP  0  0  0  0  0  0  0  0  0  0  0  0  # atno 17343 bound_to 10162
  156.0243  130.5337  150.8363 LP  0  0  0  0  0  0  0  0  0  0  0  0  # atno 17370 bound_to 10713
  157.5524  131.0944  150.9677 LP  0  0  0  0  0  0  0  0  0  0  0  0  # atno 17371 bound_to 10713
  139.8714  134.9480  156.3985 LP  0  0  0  0  0  0  0  0  0  0  0  0  # atno 17394 bound_to 11000
  140.9202  133.7650  155.9897 LP  0  0  0  0  0  0  0  0  0  0  0  0  # atno 17395 bound_to 11000

$$$$
