AV-unprocessed.smi:3135|AV-procd|sdf|11946|dock3
  -GOLD-   2272017333D 1   1.00000     0.00000
 Structure written by MMmdl.
 38 39  0  0  0  0  0  0  0  0  2 V2000
  151.3608  141.6522  158.1648 C   0  0  0  0  0  0  0  0  0  0  0  0
  151.2248  140.9004  156.8722 C   0  0  0  0  0  0  0  0  0  0  0  0
  150.5705  141.3230  155.6801 C   0  0  0  0  0  0  0  0  0  0  0  0
  150.6302  140.4218  154.7132 N   0  0  0  0  0  0  0  0  0  0  0  0
  151.3230  139.3949  155.2508 N   0  0  0  0  0  0  0  0  0  0  0  0
  151.5941  138.2078  154.4567 C   0  0  0  0  0  0  0  0  0  0  0  0
  151.2084  136.9175  155.1882 C   0  0  0  0  0  0  0  0  0  0  0  0
  151.5958  136.7283  156.3409 O   0  0  0  0  0  0  0  0  0  0  0  0
  150.4642  136.0275  154.5112 N   0  0  0  0  0  0  0  0  0  0  0  0
  149.9901  134.7571  155.0455 C   0  0  0  0  0  0  0  0  0  0  0  0
  148.4573  134.6412  154.9491 C   0  0  0  0  0  0  0  0  0  0  0  0
  147.9865  134.2596  153.5932 N   0  3  2  0  0  0  0  0  0  0  0  0
  146.5073  134.2515  153.5232 C   0  0  0  0  0  0  0  0  0  0  0  0
  148.5614  132.9786  153.1159 C   0  0  0  0  0  0  0  0  0  0  0  0
  147.7147  131.7638  153.4275 C   0  0  0  0  0  0  0  0  0  0  0  0
  148.9659  132.0340  154.2277 C   0  0  0  0  0  0  0  0  0  0  0  0
  151.6899  139.6557  156.5546 C   0  0  0  0  0  0  0  0  0  0  0  0
  151.5027  142.7201  157.9975 H   0  0  0  0  0  0  0  0  0  0  0  0
  152.2129  141.3037  158.7491 H   0  0  0  0  0  0  0  0  0  0  0  0
  150.4744  141.5389  158.7890 H   0  0  0  0  0  0  0  0  0  0  0  0
  150.0571  142.2541  155.4898 H   0  0  0  0  0  0  0  0  0  0  0  0
  151.0375  138.2727  153.5211 H   0  0  0  0  0  0  0  0  0  0  0  0
  152.6542  138.1904  154.1986 H   0  0  0  0  0  0  0  0  0  0  0  0
  150.1880  136.2611  153.5682 H   0  0  0  0  0  0  0  0  0  0  0  0
  150.4730  133.9280  154.5251 H   0  0  0  0  0  0  0  0  0  0  0  0
  150.3138  134.7061  156.0847 H   0  0  0  0  0  0  0  0  0  0  0  0
  148.0842  133.9234  155.6814 H   0  0  0  0  0  0  0  0  0  0  0  0
  148.0179  135.6056  155.2087 H   0  0  0  0  0  0  0  0  0  0  0  0
  146.0904  133.5001  154.1952 H   0  0  0  0  0  0  0  0  0  0  0  0
  146.1611  134.0329  152.5129 H   0  0  0  0  0  0  0  0  0  0  0  0
  146.1006  135.2237  153.8034 H   0  0  0  0  0  0  0  0  0  0  0  0
  149.1572  133.0278  152.2059 H   0  0  0  0  0  0  0  0  0  0  0  0
  146.7606  131.9121  153.9299 H   0  0  0  0  0  0  0  0  0  0  0  0
  147.7438  130.9369  152.7208 H   0  0  0  0  0  0  0  0  0  0  0  0
  149.8202  131.3841  154.0488 H   0  0  0  0  0  0  0  0  0  0  0  0
  148.8335  132.3527  155.2601 H   0  0  0  0  0  0  0  0  0  0  0  0
  152.2496  138.9426  157.1418 H   0  0  0  0  0  0  0  0  0  0  0  0
  148.3000  134.9809  152.9593 H   0  0  0  0  0  0  0  0  0  0  0  0
  1  2  1  0  0  0  0
  1 18  1  0  0  0  0
  1 19  1  0  0  0  0
  1 20  1  0  0  0  0
  2 17  2  0  0  0  0
  2  3  1  0  0  0  0
  3  4  2  0  0  0  0
  3 21  1  0  0  0  0
  4  5  1  0  0  0  0
  5  6  1  0  0  0  0
  5 17  1  0  0  0  0
  6  7  1  0  0  0  0
  6 22  1  0  0  0  0
  6 23  1  0  0  0  0
  7  8  2  0  0  0  0
  7  9  1  0  0  0  0
  9 10  1  0  0  0  0
  9 24  1  0  0  0  0
 10 11  1  0  0  0  0
 10 25  1  0  0  0  0
 10 26  1  0  0  0  0
 11 12  1  0  0  0  0
 11 27  1  0  0  0  0
 11 28  1  0  0  0  0
 12 13  1  0  0  0  0
 12 14  1  0  0  0  0
 12 38  1  0  0  0  0
 13 29  1  0  0  0  0
 13 30  1  0  0  0  0
 13 31  1  0  0  0  0
 14 16  1  0  0  0  0
 14 15  1  0  0  0  0
 14 32  1  0  0  0  0
 15 16  1  0  0  0  0
 15 33  1  0  0  0  0
 15 34  1  0  0  0  0
 16 35  1  0  0  0  0
 16 36  1  0  0  0  0
 17 37  1  0  0  0  0
M  CHG  1  12   1
M  END
> <s_m_source_file>
AV-unprocessed.smi

> <i_m_source_file_index>
3135

> <i_lp_mmshare_version>
43012

> <i_f3d_flags>
0

> <s_epik_input>
W0NIM11jMVtjSF1ubihbY0hdMSlbQ0gyXUMoPU8pW05IXVtDSDJdW0NIMl1OKFtDSDNdKVtDSF0yW0NIMl1bQ0gyXTI=

> <s_epik_cmdline>
J2VwaWtfcHl0aG9uJywgJy1waCcsICc3LjAnLCAnLXRuJywgJzgnLCAnLW1hJywgJzIwMCcsICctbWV0YWxfYmluZGluZycsICctaW1hZScsICc8aW5maWxlLm1hZT4nLCAnLW9tYWUnLCAnPG91dGZpbGUubWFlPic=

> <r_lp_tautomer_probability>
1

> <r_epik_Ionization_Penalty>
0.174318

> <r_epik_Ionization_Penalty_Charging>
0.174302

> <r_epik_Ionization_Penalty_Neutral>
1.62778e-05

> <r_epik_State_Penalty>
0.163722

> <r_epik_Charging_Adjusted_Penalty>
0.338024

> <i_epik_Tot_Q>
1

> <i_epik_Tot_abs_Q>
1

> <r_epik_Metal_State_Penalty>
0.163727

> <b_epik_Metal_Only>
0

> <s_lp_Force_Field>
OPLS_2005

> <r_lp_Energy>
17.5594

> <b_lp_Chiralities_Consistent>
1

> <s_lp_Variant>
AV-unprocessed.smi:3135-2

> <Gold.Version>
5.8.1

> <Gold.Id.Protein>
6NUR|6NUR_protein|mol2

> <Gold.PLP.Fitness>
44.7979

> <Gold.PLP.PLP>
-32.7597

> <Gold.PLP.part.hbond>
-3.9076

> <Gold.PLP.part.metal>
0.0000

> <Gold.PLP.part.buried>
-2.8589

> <Gold.PLP.part.nonpolar>
-26.4754

> <Gold.PLP.part.repulsive>
0.1741

> <Gold.PLP.ligand.clash>
0.0000

> <Gold.PLP.ligand.torsion>
1.1602

> <Gold.PLP.Chemscore.Hbond>
3.3936

> <Gold.PLP.Chemscore.CHOScore>
0.9314

> <Gold.PLP.Chemscore.Metal>
0.0000

> <Gold.Chemscore.Hbonds>
donor molecule, donor type, donor heavy atom, donor atom, acceptor molecule, acceptor atom, score
      L1  H     9    24       P1  7948  0.47
      L1  H    12    38       P1  7948  2.00
      P1  H  7989  7998       L1     4  1.00
      L1  C     3    21       P1  8028  0.50

> <Gold.PLP.Chemscore.Internal.Correction>
1.3836

> <Gold.Rescore>
     Score         DG    S(hbond)    S(metal)    S(lipo)     H(rot)  DE(clash)    DE(int)     intcor
     12.33     -14.70       2.36        0.00      54.17       1.96       0.03       2.34       ----

> <Gold.Chemscore.Fitness>
12.3255

> <Gold.Chemscore.DG>
-14.6978

> <Gold.Chemscore.ZeroCoef>
-5.4800

> <Gold.Chemscore.Hbond>
2.3612

> <Gold.Chemscore.Metal>
0.0000

> <Gold.Chemscore.Lipo>
54.1654

> <Gold.Chemscore.Internal_Hbond>
0.0000

> <Gold.Chemscore.DEClash>
0.0297

> <Gold.Chemscore.DEInternal>
2.3425

> <Gold.Chemscore.Rot>
1.9555

> <Gold.Chemscore.Internal.Correction>
   9.000000E+99

> <Gold.Chemscore.Hbonds>
donor molecule, donor type, donor heavy atom, donor atom, acceptor molecule, acceptor atom, score
      L1  H     9    24       P1  7948  0.02
      L1  H    12    38       P1  7948  0.82
      P1  H  7989  7998       L1     4  0.28

> <Gold.Chemscore.Hbond.Weighted>
-7.8864

> <Gold.Chemscore.Metal.Weighted>
-0.0000

> <Gold.Chemscore.Lipo.Weighted>
-6.3374

> <Gold.Chemscore.Internal_Hbond.Weighted>
0.0000

> <Gold.Chemscore.DEClash.Weighted>
0.0297

> <Gold.Chemscore.DEInternal.Weighted>
2.3425

> <Gold.Chemscore.Rot.Weighted>
5.0060

> <Gold.Chemscore.Internal.Correction.Weighted>
   9.000000E+99

> <Gold.Protein.RotatedTorsions>
[ 6907 6896 6895 6894 ] final   74.73 input  -60.11 | X-H torsion
[ 7974 7965 7964 7962 ] final  -44.00 input  175.53 | X-H torsion
[ 8008 7997 7996 7995 ] final  168.17 input   59.86 | X-H torsion
[ 10167 10162 10161 10158 ] final -142.03 input  -65.29 | X-H torsion
[ 10718 10713 10712 10709 ] final  156.27 input   66.30 | X-H torsion
[ 10763 10752 10751 10750 ] final   69.04 input  -60.55 | X-H torsion
[ 11005 11000 10999 10996 ] final   46.58 input  -57.11 | X-H torsion

> <Gold.Protein.ActiveResidues>
 VAL166  LYS551  ARG553  GLY616  TRP617  ASP618  TYR619  PRO620  LYS621  CYS622 
 ASP623  PHE694  ASN695  SER759  ASP760  ASP761  ALA762  ILE779  LEU786  VAL792 
 PHE793  MET794  SER795  GLU796  ALA797  LYS798  CYS799  TRP800  GLU811  SER814 

> <Gold.Protein.RotatedAtoms>
  152.4991  134.4227  159.9485 H   0  0  0  0  0  0  0  0  0  0  0  0  # atno 6907 bound_to 6896
  151.4201  133.3695  159.2763 H   0  0  0  0  0  0  0  0  0  0  0  0  # atno 6908 bound_to 6896
  150.9229  134.8669  159.7560 H   0  0  0  0  0  0  0  0  0  0  0  0  # atno 6909 bound_to 6896
  145.9964  140.7124  142.9292 H   0  0  0  0  0  0  0  0  0  0  0  0  # atno 7974 bound_to 7965
  156.1570  140.1597  156.8675 H   0  0  0  0  0  0  0  0  0  0  0  0  # atno 8008 bound_to 7997
  154.5125  140.0797  156.8053 H   0  0  0  0  0  0  0  0  0  0  0  0  # atno 8009 bound_to 7997
  155.3782  140.3404  155.4248 H   0  0  0  0  0  0  0  0  0  0  0  0  # atno 8010 bound_to 7997
  139.8128  143.7680  152.2664 H   0  0  0  0  0  0  0  0  0  0  0  0  # atno 10167 bound_to 10162
  157.2071  131.0689  151.1991 H   0  0  0  0  0  0  0  0  0  0  0  0  # atno 10718 bound_to 10713
  153.0266  135.5225  154.7227 H   0  0  0  0  0  0  0  0  0  0  0  0  # atno 10763 bound_to 10752
  154.6278  135.2896  155.0254 H   0  0  0  0  0  0  0  0  0  0  0  0  # atno 10764 bound_to 10752
  154.1217  135.6606  153.4957 H   0  0  0  0  0  0  0  0  0  0  0  0  # atno 10765 bound_to 10752
  140.1356  134.4649  155.8488 H   0  0  0  0  0  0  0  0  0  0  0  0  # atno 11005 bound_to 11000
  144.6905  140.3157  143.7240 LP  0  0  0  0  0  0  0  0  0  0  0  0  # atno 17320 bound_to 7965
  145.7554  139.1807  143.2298 LP  0  0  0  0  0  0  0  0  0  0  0  0  # atno 17321 bound_to 7965
  139.7834  144.7436  151.0056 LP  0  0  0  0  0  0  0  0  0  0  0  0  # atno 17342 bound_to 10162
  140.7817  143.4518  151.0402 LP  0  0  0  0  0  0  0  0  0  0  0  0  # atno 17343 bound_to 10162
  157.3709  130.7180  149.6564 LP  0  0  0  0  0  0  0  0  0  0  0  0  # atno 17370 bound_to 10713
  155.9694  130.4199  150.4397 LP  0  0  0  0  0  0  0  0  0  0  0  0  # atno 17371 bound_to 10713
  141.2178  133.6813  156.7152 LP  0  0  0  0  0  0  0  0  0  0  0  0  # atno 17394 bound_to 11000
  140.2786  134.8335  157.3913 LP  0  0  0  0  0  0  0  0  0  0  0  0  # atno 17395 bound_to 11000

$$$$
