AV-unprocessed.smi:2336|AV-procd|sdf|9329|dock9
  -GOLD-   2272012553D 1   1.00000     0.00000
 Structure written by MMmdl.
 50 51  0  0  0  0  0  0  0  0  2 V2000
  142.9279  137.6125  152.3055 C   0  0  0  0  0  0  0  0  0  0  0  0
  143.0736  136.0812  152.2179 C   0  0  0  0  0  0  0  0  0  0  0  0
  142.2988  135.4420  153.3879 C   0  0  0  0  0  0  0  0  0  0  0  0
  144.5571  135.6090  152.1770 C   0  0  2  0  0  0  0  0  0  0  0  0
  145.4446  136.4944  151.2544 C   0  0  0  0  0  0  0  0  0  0  0  0
  146.6343  137.0140  151.9240 N   0  0  0  0  0  0  0  0  0  0  0  0
  146.7460  138.2194  152.5005 C   0  0  0  0  0  0  0  0  0  0  0  0
  145.8326  139.0433  152.5355 O   0  0  0  0  0  0  0  0  0  0  0  0
  147.9828  138.4067  152.9913 N   0  0  0  0  0  0  0  0  0  0  0  0
  148.5110  139.5441  153.6608 C   0  0  0  0  0  0  0  0  0  0  0  0
  147.9517  140.8427  153.5838 C   0  0  0  0  0  0  0  0  0  0  0  0
  148.5595  141.8831  154.3150 C   0  0  0  0  0  0  0  0  0  0  0  0
  149.6472  141.7077  155.0948 N   0  0  0  0  0  0  0  0  0  0  0  0
  150.1703  140.4659  155.1755 C   0  0  0  0  0  0  0  0  0  0  0  0
  149.6400  139.3568  154.4859 C   0  0  0  0  0  0  0  0  0  0  0  0
  150.2114  138.1345  154.6129 F   0  0  0  0  0  0  0  0  0  0  0  0
  144.6141  134.1467  151.8583 N   0  3  0  0  0  0  0  0  0  0  0  0
  145.9253  133.4916  152.0959 C   0  0  0  0  0  0  0  0  0  0  0  0
  145.7822  131.9593  151.9886 C   0  0  0  0  0  0  0  0  0  0  0  0
  145.2268  131.5455  150.6985 N   0  0  0  0  0  0  0  0  0  0  0  0
  146.1561  131.7277  149.5881 C   0  0  0  0  0  0  0  0  0  0  0  0
  143.9336  132.1968  150.4792 C   0  0  0  0  0  0  0  0  0  0  0  0
  144.0377  133.7338  150.5528 C   0  0  0  0  0  0  0  0  0  0  0  0
  143.4834  138.0177  153.1520 H   0  0  0  0  0  0  0  0  0  0  0  0
  141.8836  137.9007  152.4290 H   0  0  0  0  0  0  0  0  0  0  0  0
  143.2778  138.1091  151.4007 H   0  0  0  0  0  0  0  0  0  0  0  0
  142.5835  135.7706  151.2947 H   0  0  0  0  0  0  0  0  0  0  0  0
  142.7567  135.6871  154.3469 H   0  0  0  0  0  0  0  0  0  0  0  0
  142.2535  134.3560  153.3063 H   0  0  0  0  0  0  0  0  0  0  0  0
  141.2680  135.7965  153.4160 H   0  0  0  0  0  0  0  0  0  0  0  0
  144.9372  135.7292  153.1928 H   0  0  0  0  0  0  0  0  0  0  0  0
  145.6971  135.9522  150.3420 H   0  0  0  0  0  0  0  0  0  0  0  0
  144.8912  137.3748  150.9319 H   0  0  0  0  0  0  0  0  0  0  0  0
  147.4384  136.4038  151.9524 H   0  0  0  0  0  0  0  0  0  0  0  0
  148.6491  137.6696  152.8132 H   0  0  0  0  0  0  0  0  0  0  0  0
  147.0715  141.0589  152.9983 H   0  0  0  0  0  0  0  0  0  0  0  0
  148.1551  142.8839  154.2773 H   0  0  0  0  0  0  0  0  0  0  0  0
  151.0364  140.3525  155.8108 H   0  0  0  0  0  0  0  0  0  0  0  0
  146.6813  133.8479  151.3993 H   0  0  0  0  0  0  0  0  0  0  0  0
  146.2814  133.7421  153.0955 H   0  0  0  0  0  0  0  0  0  0  0  0
  146.7470  131.4751  152.1445 H   0  0  0  0  0  0  0  0  0  0  0  0
  145.1248  131.5983  152.7808 H   0  0  0  0  0  0  0  0  0  0  0  0
  145.7199  131.3440  148.6651 H   0  0  0  0  0  0  0  0  0  0  0  0
  147.0773  131.1740  149.7723 H   0  0  0  0  0  0  0  0  0  0  0  0
  146.4193  132.7723  149.4254 H   0  0  0  0  0  0  0  0  0  0  0  0
  143.5273  131.8890  149.5151 H   0  0  0  0  0  0  0  0  0  0  0  0
  143.2335  131.8423  151.2371 H   0  0  0  0  0  0  0  0  0  0  0  0
  143.0430  134.1627  150.4359 H   0  0  0  0  0  0  0  0  0  0  0  0
  144.6343  134.1086  149.7241 H   0  0  0  0  0  0  0  0  0  0  0  0
  144.0095  133.7278  152.5504 H   0  0  0  0  0  0  0  0  0  0  0  0
  1  2  1  0  0  0  0
  1 24  1  0  0  0  0
  1 25  1  0  0  0  0
  1 26  1  0  0  0  0
  2  3  1  0  0  0  0
  2  4  1  0  0  0  0
  2 27  1  0  0  0  0
  3 28  1  0  0  0  0
  3 29  1  0  0  0  0
  3 30  1  0  0  0  0
  4  5  1  0  0  0  0
  4 17  1  0  0  0  0
  4 31  1  0  0  0  0
  5  6  1  0  0  0  0
  5 32  1  0  0  0  0
  5 33  1  0  0  0  0
  6  7  1  0  0  0  0
  6 34  1  0  0  0  0
  7  8  2  0  0  0  0
  7  9  1  0  0  0  0
  9 10  1  0  0  0  0
  9 35  1  0  0  0  0
 10 15  1  0  0  0  0
 10 11  2  0  0  0  0
 11 12  1  0  0  0  0
 11 36  1  0  0  0  0
 12 13  2  0  0  0  0
 12 37  1  0  0  0  0
 13 14  1  0  0  0  0
 14 15  2  0  0  0  0
 14 38  1  0  0  0  0
 15 16  1  0  0  0  0
 17 23  1  0  0  0  0
 17 18  1  0  0  0  0
 17 50  1  0  0  0  0
 18 19  1  0  0  0  0
 18 39  1  0  0  0  0
 18 40  1  0  0  0  0
 19 20  1  0  0  0  0
 19 41  1  0  0  0  0
 19 42  1  0  0  0  0
 20 21  1  0  0  0  0
 20 22  1  0  0  0  0
 21 43  1  0  0  0  0
 21 44  1  0  0  0  0
 21 45  1  0  0  0  0
 22 23  1  0  0  0  0
 22 46  1  0  0  0  0
 22 47  1  0  0  0  0
 23 48  1  0  0  0  0
 23 49  1  0  0  0  0
M  CHG  1  17   1
M  END
> <s_m_source_file>
AV-unprocessed.smi

> <i_m_source_file_index>
2336

> <i_lp_mmshare_version>
43012

> <i_f3d_flags>
0

> <s_epik_input>
W0NIMl0xW0NIMl1OKFtDSDNdKVtDSDJdW0NIMl1OMVtDQEhdKFtDSF0oW0NIM10pW0NIM10pW0NIMl1bTkhdQyg9TylbTkhdYzJbY0hdW2NIXW5bY0hdYzJG

> <s_epik_cmdline>
J2VwaWtfcHl0aG9uJywgJy1waCcsICc3LjAnLCAnLXRuJywgJzgnLCAnLW1hJywgJzIwMCcsICctbWV0YWxfYmluZGluZycsICctaW1hZScsICc8aW5maWxlLm1hZT4nLCAnLW9tYWUnLCAnPG91dGZpbGUubWFlPic=

> <r_epik_Ionization_Penalty>
0.204575

> <r_epik_Ionization_Penalty_Charging>
0.20006

> <r_epik_Ionization_Penalty_Neutral>
0.00451444

> <r_epik_State_Penalty>
1.43207

> <r_epik_Charging_Adjusted_Penalty>
1.63213

> <i_epik_Tot_Q>
1

> <i_epik_Tot_abs_Q>
1

> <r_epik_Metal_State_Penalty>
1.43277

> <b_epik_Metal_Only>
0

> <s_lp_Force_Field>
OPLS_2005

> <r_lp_Energy>
38.6222

> <b_lp_Chiralities_Consistent>
1

> <s_lp_Variant>
AV-unprocessed.smi:2336-3

> <Gold.Version>
5.8.1

> <Gold.Id.Protein>
6NUR|6NUR_protein|mol2

> <Gold.PLP.Fitness>
45.0039

> <Gold.PLP.PLP>
-38.2138

> <Gold.PLP.part.hbond>
-3.0452

> <Gold.PLP.part.metal>
0.0000

> <Gold.PLP.part.buried>
-0.9336

> <Gold.PLP.part.nonpolar>
-38.6765

> <Gold.PLP.part.repulsive>
3.0682

> <Gold.PLP.ligand.clash>
0.0000

> <Gold.PLP.ligand.torsion>
1.2022

> <Gold.PLP.Chemscore.Hbond>
1.9920

> <Gold.PLP.Chemscore.CHOScore>
1.0000

> <Gold.PLP.Chemscore.Metal>
0.0000

> <Gold.Chemscore.Hbonds>
donor molecule, donor type, donor heavy atom, donor atom, acceptor molecule, acceptor atom, score
      L1  H     6    34       P1  7948  0.92
      L1  H     9    35       P1  7948  0.90
      L1  C    12    37       P1  8028  0.93

> <Gold.PLP.Chemscore.Internal.Correction>
0.2186

> <Gold.Rescore>
     Score         DG    S(hbond)    S(metal)    S(lipo)     H(rot)  DE(clash)    DE(int)     intcor
     14.80     -19.00       1.95        0.00      96.47       1.67       1.70       2.50       ----

> <Gold.Chemscore.Fitness>
14.8005

> <Gold.Chemscore.DG>
-18.9984

> <Gold.Chemscore.ZeroCoef>
-5.4800

> <Gold.Chemscore.Hbond>
1.9510

> <Gold.Chemscore.Metal>
0.0000

> <Gold.Chemscore.Lipo>
96.4732

> <Gold.Chemscore.Internal_Hbond>
0.0000

> <Gold.Chemscore.DEClash>
1.7019

> <Gold.Chemscore.DEInternal>
2.4960

> <Gold.Chemscore.Rot>
1.6739

> <Gold.Chemscore.Internal.Correction>
   9.000000E+99

> <Gold.Chemscore.Hbonds>
donor molecule, donor type, donor heavy atom, donor atom, acceptor molecule, acceptor atom, score
      L1  H     6    34       P1  7948  0.84
      L1  H     9    35       P1  7948  0.88

> <Gold.Chemscore.Hbond.Weighted>
-6.5162

> <Gold.Chemscore.Metal.Weighted>
-0.0000

> <Gold.Chemscore.Lipo.Weighted>
-11.2874

> <Gold.Chemscore.Internal_Hbond.Weighted>
0.0000

> <Gold.Chemscore.DEClash.Weighted>
1.7019

> <Gold.Chemscore.DEInternal.Weighted>
2.4960

> <Gold.Chemscore.Rot.Weighted>
4.2851

> <Gold.Chemscore.Internal.Correction.Weighted>
   9.000000E+99

> <Gold.Protein.RotatedTorsions>
[ 6907 6896 6895 6894 ] final   -0.06 input  -60.11 | X-H torsion
[ 7974 7965 7964 7962 ] final -130.63 input  175.53 | X-H torsion
[ 8008 7997 7996 7995 ] final   80.63 input   59.86 | X-H torsion
[ 10167 10162 10161 10158 ] final  115.75 input  -65.29 | X-H torsion
[ 10718 10713 10712 10709 ] final   20.68 input   66.30 | X-H torsion
[ 10763 10752 10751 10750 ] final  -84.24 input  -60.55 | X-H torsion
[ 11005 11000 10999 10996 ] final  178.50 input  -57.11 | X-H torsion

> <Gold.Protein.ActiveResidues>
 VAL166  LYS551  ARG553  GLY616  TRP617  ASP618  TYR619  PRO620  LYS621  CYS622 
 ASP623  PHE694  ASN695  SER759  ASP760  ASP761  ALA762  ILE779  LEU786  VAL792 
 PHE793  MET794  SER795  GLU796  ALA797  LYS798  CYS799  TRP800  GLU811  SER814 

> <Gold.Protein.RotatedAtoms>
  151.5683  135.1063  159.9988 H   0  0  0  0  0  0  0  0  0  0  0  0  # atno 6907 bound_to 6896
  152.4413  133.7449  159.6672 H   0  0  0  0  0  0  0  0  0  0  0  0  # atno 6908 bound_to 6896
  150.8319  133.8008  159.3118 H   0  0  0  0  0  0  0  0  0  0  0  0  # atno 6909 bound_to 6896
  144.9456  140.7288  143.4819 H   0  0  0  0  0  0  0  0  0  0  0  0  # atno 7974 bound_to 7965
  155.8861  140.3441  155.5922 H   0  0  0  0  0  0  0  0  0  0  0  0  # atno 8008 bound_to 7997
  155.7664  140.0839  157.2149 H   0  0  0  0  0  0  0  0  0  0  0  0  # atno 8009 bound_to 7997
  154.4029  140.1526  156.2879 H   0  0  0  0  0  0  0  0  0  0  0  0  # atno 8010 bound_to 7997
  139.6295  144.7113  151.2462 H   0  0  0  0  0  0  0  0  0  0  0  0  # atno 10167 bound_to 10162
  157.1279  130.6578  149.5943 H   0  0  0  0  0  0  0  0  0  0  0  0  # atno 10718 bound_to 10713
  154.5972  135.5527  153.7337 H   0  0  0  0  0  0  0  0  0  0  0  0  # atno 10763 bound_to 10752
  153.0140  135.6357  154.1766 H   0  0  0  0  0  0  0  0  0  0  0  0  # atno 10764 bound_to 10752
  154.1706  135.2892  155.3062 H   0  0  0  0  0  0  0  0  0  0  0  0  # atno 10765 bound_to 10752
  140.3958  134.6822  157.4534 H   0  0  0  0  0  0  0  0  0  0  0  0  # atno 11005 bound_to 11000
  145.2923  139.1879  143.4734 LP  0  0  0  0  0  0  0  0  0  0  0  0  # atno 17320 bound_to 7965
  146.3302  140.2902  142.8615 LP  0  0  0  0  0  0  0  0  0  0  0  0  # atno 17321 bound_to 7965
  140.7431  143.6506  150.8252 LP  0  0  0  0  0  0  0  0  0  0  0  0  # atno 17342 bound_to 10162
  140.0129  143.5623  152.2832 LP  0  0  0  0  0  0  0  0  0  0  0  0  # atno 17343 bound_to 10162
  155.9814  130.4821  150.6826 LP  0  0  0  0  0  0  0  0  0  0  0  0  # atno 17370 bound_to 10713
  157.4419  131.0862  151.0935 LP  0  0  0  0  0  0  0  0  0  0  0  0  # atno 17371 bound_to 10713
  140.0373  134.6319  155.9027 LP  0  0  0  0  0  0  0  0  0  0  0  0  # atno 17394 bound_to 11000
  141.1874  133.6560  156.5282 LP  0  0  0  0  0  0  0  0  0  0  0  0  # atno 17395 bound_to 11000

$$$$
