#       Name:                AV-unprocessed.smi:299
#       Creating user name   scv26
#       Creation time:       Thu Mar 26 22:15:25 2020


#       File generated by GOLD software.
#

@<TRIPOS>MOLECULE
AV-unprocessed.smi:299
    47    48     1
SMALL
NO_CHARGES


@<TRIPOS>ATOM
      1 ****        -1.6495   3.3603   1.4513 C.3            1 S1                 0.0000
      2 ****        -2.2009   2.6838   0.1790 C.3            1 S1                 0.0000
      3 ****        -3.7432   2.6587   0.2678 C.3            1 S1                 0.0000
      4 ****        -4.3805   2.0092  -0.9622 C.3            1 S1                 0.0000
      5 ****        -3.8025   0.6073  -1.1494 C.3            1 S1                 0.0000
      6 ****        -2.2712   0.6614  -1.2439 C.3            1 S1                 0.0000
      7 ****        -1.6558   1.3033  -0.0451 N.4            1 S1                 1.0000
      8 ****        -0.1646   1.2400  -0.0818 C.3            1 S1                 0.0000
      9 ****         0.3958  -0.1940  -0.0100 C.3            1 S1                 0.0000
     10 ****         1.9210  -0.2158   0.1859 C.3            1 S1                 0.0000
     11 ****         2.4319  -1.5800   0.2532 N.am           1 S1                 0.0000
     12 ****         2.7194  -2.3487  -0.8100 C.2            1 S1                 0.0000
     13 ****         2.5638  -1.9769  -1.9728 O.2            1 S1                 0.0000
     14 ****         3.2458  -3.7577  -0.5248 C.3            1 S1                 0.0000
     15 ****         4.4807  -3.7300   0.2381 N.pl3          1 S1                 0.0000
     16 ****         4.7099  -3.9045   1.5412 C.2            1 S1                 0.0000
     17 ****         5.9970  -3.7922   1.8310 N.2            1 S1                 0.0000
     18 ****         6.5751  -3.5329   0.5996 N.2            1 S1                 0.0000
     19 ****         5.6805  -3.4957  -0.3496 N.2            1 S1                 0.0000
     20 ****        -2.1948   4.2786   1.6714 H              1 S1                 0.0000
     21 ****        -0.6046   3.6514   1.3488 H              1 S1                 0.0000
     22 ****        -1.7427   2.7086   2.3208 H              1 S1                 0.0000
     23 ****        -1.9193   3.2981  -0.6782 H              1 S1                 0.0000
     24 ****        -4.0521   2.1183   1.1640 H              1 S1                 0.0000
     25 ****        -4.1288   3.6735   0.3747 H              1 S1                 0.0000
     26 ****        -5.4634   1.9589  -0.8447 H              1 S1                 0.0000
     27 ****        -4.1871   2.6156  -1.8480 H              1 S1                 0.0000
     28 ****        -4.0989  -0.0307  -0.3155 H              1 S1                 0.0000
     29 ****        -4.2158   0.1523  -2.0501 H              1 S1                 0.0000
     30 ****        -1.9183  -0.3613  -1.3609 H              1 S1                 0.0000
     31 ****        -1.9700   1.2030  -2.1420 H              1 S1                 0.0000
     32 ****         0.2060   1.7503  -0.9721 H              1 S1                 0.0000
     33 ****         0.2521   1.7679   0.7726 H              1 S1                 0.0000
     34 ****        -0.0793  -0.7318   0.8116 H              1 S1                 0.0000
     35 ****         0.1593  -0.7402  -0.9223 H              1 S1                 0.0000
     36 ****         2.4190   0.3338  -0.6150 H              1 S1                 0.0000
     37 ****         2.1851   0.2874   1.1164 H              1 S1                 0.0000
     38 ****         2.5872  -1.9644   1.1739 H              1 S1                 0.0000
     39 ****         2.4971  -4.3216   0.0328 H              1 S1                 0.0000
     40 ****         3.4206  -4.2917  -1.4601 H              1 S1                 0.0000
     41 ****         3.9404  -4.1096   2.2708 H              1 S1                 0.0000
     42 ****        -1.9436   0.7571   0.7542 H              1 S1                 0.0000
     43 ****         2.2072  -1.0619  -2.1617 LP             1 S1                 0.0000
     44 ****         2.7939  -2.5897  -2.7288 LP             1 S1                 0.0000
     45 ****         6.4430  -3.8746   2.7222 LP             1 S1                 0.0000
     46 ****         7.5546  -3.3919   0.4559 LP             1 S1                 0.0000
     47 ****         5.8470  -3.3272  -1.3212 LP             1 S1                 0.0000
@<TRIPOS>BOND
    1    1    2 1     
    2    1   20 1     
    3    1   21 1     
    4    1   22 1     
    5    2    7 1     
    6    2    3 1     
    7    2   23 1     
    8    3    4 1     
    9    3   24 1     
   10    3   25 1     
   11    4    5 1     
   12    4   26 1     
   13    4   27 1     
   14    5    6 1     
   15    5   28 1     
   16    5   29 1     
   17    6    7 1     
   18    6   30 1     
   19    6   31 1     
   20    7    8 1     
   21    7   42 1     
   22    8    9 1     
   23    8   32 1     
   24    8   33 1     
   25    9   10 1     
   26    9   34 1     
   27    9   35 1     
   28   10   11 1     
   29   10   36 1     
   30   10   37 1     
   31   11   12 am    
   32   11   38 1     
   33   12   13 2     
   34   12   14 1     
   35   14   15 1     
   36   14   39 1     
   37   14   40 1     
   38   15   19 1     
   39   15   16 1     
   40   16   17 2     
   41   16   41 1     
   42   17   18 1     
   43   18   19 2     
   44   13   43 1     
   45   13   44 1     
   46   17   45 1     
   47   18   46 1     
   48   19   47 1     
@<TRIPOS>SUBSTRUCTURE
      1 S1             1
@<TRIPOS>SET
LONE_PAIRS      STATIC     ATOMS    <user>   **** ""
5 43 44 45 46 47
DONOR_HYDROGENS      STATIC     ATOMS    <user>   **** ""
2 42 38
ATOM$BLUE        STATIC     ATOMS    COLORGROUP SYSTEM
5 43 44 45 46 47
ATOM$RED        STATIC     ATOMS    COLORGROUP SYSTEM
2 42 38
