AV-unprocessed.smi:1033|AV-procd|sdf|4495|dock8
  -GOLD-   22720 2483D 1   1.00000     0.00000
 Structure written by MMmdl.
 56 58  0  0  0  0  0  0  0  0  2 V2000
  153.3846  142.5724  161.6041 C   0  0  0  0  0  0  0  0  0  0  0  0
  152.7182  142.2613  160.2753 C   0  0  0  0  0  0  0  0  0  0  0  0
  153.1114  141.1055  159.5639 C   0  0  0  0  0  0  0  0  0  0  0  0
  152.5189  140.7819  158.3237 C   0  0  0  0  0  0  0  0  0  0  0  0
  152.7479  139.7179  157.4682 N   0  0  0  0  0  0  0  0  0  0  0  0
  151.8910  139.9753  156.4845 C   0  0  0  0  0  0  0  0  0  0  0  0
  151.1350  141.0845  156.5998 N   0  0  0  0  0  0  0  0  0  0  0  0
  150.1410  141.5691  155.6593 C   0  0  0  0  0  0  0  0  0  0  0  0
  148.7056  141.2265  156.1029 C   0  0  1  0  0  0  0  0  0  0  0  0
  148.0991  142.3420  156.7247 O   0  0  0  0  0  0  0  0  0  0  0  0
  147.7590  140.6766  155.0121 C   0  0  0  0  0  0  0  0  0  0  0  0
  148.3832  139.8972  153.9323 N   0  0  0  0  0  0  0  0  0  0  0  0
  149.4119  138.9472  154.3728 C   0  0  0  0  0  0  0  0  0  0  0  0
  148.8495  137.7222  155.1255 C   0  0  0  0  0  0  0  0  0  0  0  0
  147.8316  137.0235  154.2969 N   0  3  0  0  0  0  0  0  0  0  0  0
  147.2737  135.8052  154.9366 C   0  0  0  0  0  0  0  0  0  0  0  0
  148.1442  134.5539  154.7040 C   0  0  2  0  0  0  0  0  0  0  0  0
  149.6352  134.7956  154.9817 C   0  0  0  0  0  0  0  0  0  0  0  0
  148.0062  134.1605  153.3552 O   0  0  0  0  0  0  0  0  0  0  0  0
  146.7747  137.9729  153.8667 C   0  0  0  0  0  0  0  0  0  0  0  0
  147.4066  139.1660  153.1247 C   0  0  0  0  0  0  0  0  0  0  0  0
  151.5140  141.6533  157.8107 C   0  0  0  0  0  0  0  0  0  0  0  0
  151.1124  142.8049  158.5100 C   0  0  0  0  0  0  0  0  0  0  0  0
  151.7155  143.1140  159.7473 C   0  0  0  0  0  0  0  0  0  0  0  0
  151.2767  144.3610  160.4941 C   0  0  0  0  0  0  0  0  0  0  0  0
  154.1053  141.8013  161.8780 H   0  0  0  0  0  0  0  0  0  0  0  0
  152.6422  142.6331  162.4004 H   0  0  0  0  0  0  0  0  0  0  0  0
  153.9154  143.5232  161.5512 H   0  0  0  0  0  0  0  0  0  0  0  0
  153.8753  140.4558  159.9655 H   0  0  0  0  0  0  0  0  0  0  0  0
  151.8105  139.3221  155.6278 H   0  0  0  0  0  0  0  0  0  0  0  0
  150.2678  142.6477  155.5652 H   0  0  0  0  0  0  0  0  0  0  0  0
  150.3531  141.1298  154.6839 H   0  0  0  0  0  0  0  0  0  0  0  0
  148.7724  140.4542  156.8702 H   0  0  0  0  0  0  0  0  0  0  0  0
  148.2693  143.1086  156.1986 H   0  0  0  0  0  0  0  0  0  0  0  0
  146.9600  140.1043  155.4816 H   0  0  0  0  0  0  0  0  0  0  0  0
  147.2601  141.5446  154.5783 H   0  0  0  0  0  0  0  0  0  0  0  0
  149.9582  138.5943  153.4969 H   0  0  0  0  0  0  0  0  0  0  0  0
  150.1548  139.4357  154.9971 H   0  0  0  0  0  0  0  0  0  0  0  0
  149.6733  137.0479  155.3555 H   0  0  0  0  0  0  0  0  0  0  0  0
  148.4148  138.0155  156.0814 H   0  0  0  0  0  0  0  0  0  0  0  0
  147.1441  135.9897  156.0044 H   0  0  0  0  0  0  0  0  0  0  0  0
  146.2766  135.6110  154.5377 H   0  0  0  0  0  0  0  0  0  0  0  0
  147.7913  133.7217  155.3121 H   0  0  0  0  0  0  0  0  0  0  0  0
  149.8059  135.0600  156.0255 H   0  0  0  0  0  0  0  0  0  0  0  0
  150.0305  135.6036  154.3650 H   0  0  0  0  0  0  0  0  0  0  0  0
  150.2226  133.9007  154.7730 H   0  0  0  0  0  0  0  0  0  0  0  0
  148.2500  134.8848  152.7988 H   0  0  0  0  0  0  0  0  0  0  0  0
  146.0757  137.4661  153.2004 H   0  0  0  0  0  0  0  0  0  0  0  0
  146.2011  138.3110  154.7312 H   0  0  0  0  0  0  0  0  0  0  0  0
  146.6260  139.8455  152.7804 H   0  0  0  0  0  0  0  0  0  0  0  0
  147.8960  138.8006  152.2205 H   0  0  0  0  0  0  0  0  0  0  0  0
  150.3478  143.4456  158.0964 H   0  0  0  0  0  0  0  0  0  0  0  0
  150.5122  144.9074  159.9411 H   0  0  0  0  0  0  0  0  0  0  0  0
  152.1216  145.0324  160.6487 H   0  0  0  0  0  0  0  0  0  0  0  0
  150.8609  144.0966  161.4664 H   0  0  0  0  0  0  0  0  0  0  0  0
  148.2953  136.7203  153.4523 H   0  0  0  0  0  0  0  0  0  0  0  0
  1  2  1  0  0  0  0
  1 26  1  0  0  0  0
  1 27  1  0  0  0  0
  1 28  1  0  0  0  0
  2 24  1  0  0  0  0
  2  3  2  0  0  0  0
  3  4  1  0  0  0  0
  3 29  1  0  0  0  0
  4 22  2  0  0  0  0
  4  5  1  0  0  0  0
  5  6  2  0  0  0  0
  6  7  1  0  0  0  0
  6 30  1  0  0  0  0
  7  8  1  0  0  0  0
  7 22  1  0  0  0  0
  8  9  1  0  0  0  0
  8 31  1  0  0  0  0
  8 32  1  0  0  0  0
  9 10  1  0  0  0  0
  9 11  1  0  0  0  0
  9 33  1  0  0  0  0
 10 34  1  0  0  0  0
 11 12  1  0  0  0  0
 11 35  1  0  0  0  0
 11 36  1  0  0  0  0
 12 21  1  0  0  0  0
 12 13  1  0  0  0  0
 13 14  1  0  0  0  0
 13 37  1  0  0  0  0
 13 38  1  0  0  0  0
 14 15  1  0  0  0  0
 14 39  1  0  0  0  0
 14 40  1  0  0  0  0
 15 16  1  0  0  0  0
 15 20  1  0  0  0  0
 15 56  1  0  0  0  0
 16 17  1  0  0  0  0
 16 41  1  0  0  0  0
 16 42  1  0  0  0  0
 17 18  1  0  0  0  0
 17 19  1  0  0  0  0
 17 43  1  0  0  0  0
 18 44  1  0  0  0  0
 18 45  1  0  0  0  0
 18 46  1  0  0  0  0
 19 47  1  0  0  0  0
 20 21  1  0  0  0  0
 20 48  1  0  0  0  0
 20 49  1  0  0  0  0
 21 50  1  0  0  0  0
 21 51  1  0  0  0  0
 22 23  1  0  0  0  0
 23 24  2  0  0  0  0
 23 52  1  0  0  0  0
 24 25  1  0  0  0  0
 25 53  1  0  0  0  0
 25 54  1  0  0  0  0
 25 55  1  0  0  0  0
M  CHG  1  15   1
M  END
> <s_m_source_file>
AV-unprocessed.smi

> <i_m_source_file_index>
1033

> <i_lp_mmshare_version>
43012

> <i_f3d_flags>
0

> <s_epik_input>
W0NIM11jKFtjSF0xKWMoW0NIM10pW2NIXWMoYzEyKW4oW2NIXW4yKVtDSDJdW0NASF0oW09IXSlbQ0gyXU4zW0NIMl1bQ0gyXU4oW0NIMl1bQ0gyXTMpW0NIMl1bQ0BIXShbQ0gzXSlbT0hd

> <s_epik_cmdline>
J2VwaWtfcHl0aG9uJywgJy1waCcsICc3LjAnLCAnLXRuJywgJzgnLCAnLW1hJywgJzIwMCcsICctbWV0YWxfYmluZGluZycsICctaW1hZScsICc8aW5maWxlLm1hZT4nLCAnLW9tYWUnLCAnPG91dGZpbGUubWFlPic=

> <r_epik_Ionization_Penalty>
0.129152

> <r_epik_Ionization_Penalty_Charging>
0.00083231

> <r_epik_Ionization_Penalty_Neutral>
0.128319

> <r_epik_State_Penalty>
0.556973

> <r_epik_Charging_Adjusted_Penalty>
0.557805

> <i_epik_Tot_Q>
1

> <i_epik_Tot_abs_Q>
1

> <r_epik_Metal_State_Penalty>
0.490047

> <b_epik_Metal_Only>
0

> <s_lp_Force_Field>
OPLS_2005

> <r_lp_Energy>
40.305

> <b_lp_Chiralities_Consistent>
1

> <s_lp_Variant>
AV-unprocessed.smi:1033-6

> <Gold.Version>
5.8.1

> <Gold.Id.Protein>
6NUR|6NUR_protein|mol2

> <Gold.PLP.Fitness>
55.3266

> <Gold.PLP.PLP>
-43.4275

> <Gold.PLP.part.hbond>
-4.0000

> <Gold.PLP.part.metal>
0.0000

> <Gold.PLP.part.buried>
-5.6761

> <Gold.PLP.part.nonpolar>
-33.8062

> <Gold.PLP.part.repulsive>
0.7524

> <Gold.PLP.ligand.clash>
0.0000

> <Gold.PLP.ligand.torsion>
1.6890

> <Gold.PLP.Chemscore.Hbond>
5.0000

> <Gold.PLP.Chemscore.CHOScore>
0.0000

> <Gold.PLP.Chemscore.Metal>
0.0000

> <Gold.Chemscore.Hbonds>
donor molecule, donor type, donor heavy atom, donor atom, acceptor molecule, acceptor atom, score
      L1  H    10    34       P1  8028  1.00
      L1  H    15    56       P1  7948  2.00
      L1  H    19    47       P1  7948  1.00
      P1  H  7997  8008       L1     5  1.00

> <Gold.PLP.Chemscore.Internal.Correction>
0.2771

> <Gold.Rescore>
     Score         DG    S(hbond)    S(metal)    S(lipo)     H(rot)  DE(clash)    DE(int)     intcor
     21.18     -23.02       3.40        0.00     120.03       3.07       0.39       1.46       ----

> <Gold.Chemscore.Fitness>
21.1764

> <Gold.Chemscore.DG>
-23.0237

> <Gold.Chemscore.ZeroCoef>
-5.4800

> <Gold.Chemscore.Hbond>
3.3973

> <Gold.Chemscore.Metal>
0.0000

> <Gold.Chemscore.Lipo>
120.0274

> <Gold.Chemscore.Internal_Hbond>
0.0000

> <Gold.Chemscore.DEClash>
0.3865

> <Gold.Chemscore.DEInternal>
1.4607

> <Gold.Chemscore.Rot>
3.0650

> <Gold.Chemscore.Internal.Correction>
   9.000000E+99

> <Gold.Chemscore.Hbonds>
donor molecule, donor type, donor heavy atom, donor atom, acceptor molecule, acceptor atom, score
      L1  H    10    34       P1  8028  0.70
      L1  H    15    56       P1  7948  1.00
      L1  H    19    47       P1  7948  0.70
      P1  H  7997  8008       L1     5  0.22

> <Gold.Chemscore.Hbond.Weighted>
-11.3469

> <Gold.Chemscore.Metal.Weighted>
-0.0000

> <Gold.Chemscore.Lipo.Weighted>
-14.0432

> <Gold.Chemscore.Internal_Hbond.Weighted>
0.0000

> <Gold.Chemscore.DEClash.Weighted>
0.3865

> <Gold.Chemscore.DEInternal.Weighted>
1.4607

> <Gold.Chemscore.Rot.Weighted>
7.8465

> <Gold.Chemscore.Internal.Correction.Weighted>
   9.000000E+99

> <Gold.Protein.RotatedTorsions>
[ 6907 6896 6895 6894 ] final  -45.98 input  -60.11 | X-H torsion
[ 7974 7965 7964 7962 ] final  154.96 input  175.53 | X-H torsion
[ 8008 7997 7996 7995 ] final  -69.86 input   59.86 | X-H torsion
[ 10167 10162 10161 10158 ] final -146.89 input  -65.29 | X-H torsion
[ 10718 10713 10712 10709 ] final -145.43 input   66.30 | X-H torsion
[ 10763 10752 10751 10750 ] final  -99.35 input  -60.55 | X-H torsion
[ 11005 11000 10999 10996 ] final  155.91 input  -57.11 | X-H torsion

> <Gold.Protein.ActiveResidues>
 VAL166  LYS551  ARG553  GLY616  TRP617  ASP618  TYR619  PRO620  LYS621  CYS622 
 ASP623  PHE694  ASN695  SER759  ASP760  ASP761  ALA762  ILE779  LEU786  VAL792 
 PHE793  MET794  SER795  GLU796  ALA797  LYS798  CYS799  TRP800  GLU811  SER814 

> <Gold.Protein.RotatedAtoms>
  150.9161  134.8579  159.7457 H   0  0  0  0  0  0  0  0  0  0  0  0  # atno 6907 bound_to 6896
  152.4969  134.4287  159.9515 H   0  0  0  0  0  0  0  0  0  0  0  0  # atno 6908 bound_to 6896
  151.4325  133.3626  159.2806 H   0  0  0  0  0  0  0  0  0  0  0  0  # atno 6909 bound_to 6896
  144.8055  139.7004  143.6164 H   0  0  0  0  0  0  0  0  0  0  0  0  # atno 7974 bound_to 7965
  154.4969  140.0845  156.7715 H   0  0  0  0  0  0  0  0  0  0  0  0  # atno 8008 bound_to 7997
  155.4095  140.3441  155.4244 H   0  0  0  0  0  0  0  0  0  0  0  0  # atno 8009 bound_to 7997
  156.1405  140.1528  156.8915 H   0  0  0  0  0  0  0  0  0  0  0  0  # atno 8010 bound_to 7997
  139.7672  143.8291  152.2618 H   0  0  0  0  0  0  0  0  0  0  0  0  # atno 10167 bound_to 10162
  156.3823  130.7843  151.2037 H   0  0  0  0  0  0  0  0  0  0  0  0  # atno 10718 bound_to 10713
  154.7491  135.4975  153.9256 H   0  0  0  0  0  0  0  0  0  0  0  0  # atno 10763 bound_to 10752
  153.1124  135.6712  153.9486 H   0  0  0  0  0  0  0  0  0  0  0  0  # atno 10764 bound_to 10752
  153.9241  135.3085  155.3426 H   0  0  0  0  0  0  0  0  0  0  0  0  # atno 10765 bound_to 10752
  140.1625  134.8599  157.2592 H   0  0  0  0  0  0  0  0  0  0  0  0  # atno 11005 bound_to 11000
  146.2345  139.5879  142.9533 LP  0  0  0  0  0  0  0  0  0  0  0  0  # atno 17320 bound_to 7965
  145.5449  141.0418  143.2310 LP  0  0  0  0  0  0  0  0  0  0  0  0  # atno 17321 bound_to 7965
  139.8314  144.7252  150.9445 LP  0  0  0  0  0  0  0  0  0  0  0  0  # atno 17342 bound_to 10162
  140.7811  143.4066  151.1061 LP  0  0  0  0  0  0  0  0  0  0  0  0  # atno 17343 bound_to 10162
  157.7493  131.0340  150.4299 LP  0  0  0  0  0  0  0  0  0  0  0  0  # atno 17370 bound_to 10713
  156.4545  130.4018  149.6615 LP  0  0  0  0  0  0  0  0  0  0  0  0  # atno 17371 bound_to 10713
  140.2473  134.3725  155.7456 LP  0  0  0  0  0  0  0  0  0  0  0  0  # atno 17394 bound_to 11000
  141.2211  133.7297  156.8881 LP  0  0  0  0  0  0  0  0  0  0  0  0  # atno 17395 bound_to 11000

$$$$
