AV-unprocessed.smi:626|AV-procd|sdf|3110|dock3
  -GOLD-   22720 0 33D 1   1.00000     0.00000
 Structure written by MMmdl.
 34 36  0  0  0  0  0  0  0  0  1 V2000
  148.0667  138.9280  153.7836 C   0  0  0  0  0  0  0  0  0  0  0  0
  149.1597  138.5348  154.6592 N   0  0  0  0  0  0  0  0  0  0  0  0
  150.2531  139.2787  154.8837 C   0  0  0  0  0  0  0  0  0  0  0  0
  150.4378  140.3815  154.3687 O   0  0  0  0  0  0  0  0  0  0  0  0
  151.2962  138.6947  155.8386 C   0  0  0  0  0  0  0  0  0  0  0  0
  151.6554  139.6847  156.9002 C   0  0  0  0  0  0  0  0  0  0  0  0
  152.8242  139.6312  157.5277 N   0  0  0  0  0  0  0  0  0  0  0  0
  152.7533  140.6979  158.4347 O   0  0  0  0  0  0  0  0  0  0  0  0
  151.5550  141.2938  158.2203 C   0  0  0  0  0  0  0  0  0  0  0  0
  151.1512  142.4189  159.1281 C   0  0  1  0  0  0  0  0  0  0  0  0
  152.2744  142.9756  160.0322 C   0  0  0  0  0  0  0  0  0  0  0  0
  152.1964  144.4919  159.7680 C   0  0  1  0  0  0  0  0  0  0  0  0
  152.7495  144.7931  158.3615 C   0  0  0  0  0  0  0  0  0  0  0  0
  151.6320  144.2745  157.4362 C   0  0  0  0  0  0  0  0  0  0  0  0
  150.6104  143.6912  158.4338 C   0  0  2  0  0  0  0  0  0  0  0  0
  150.7000  144.7069  159.5690 C   0  0  0  0  0  0  0  0  0  0  0  0
  150.8123  140.6744  157.3031 N   0  0  0  0  0  0  0  0  0  0  0  0
  147.3034  138.1500  153.7693 H   0  0  0  0  0  0  0  0  0  0  0  0
  148.4210  139.0768  152.7628 H   0  0  0  0  0  0  0  0  0  0  0  0
  147.6047  139.8532  154.1309 H   0  0  0  0  0  0  0  0  0  0  0  0
  149.0849  137.6383  155.1180 H   0  0  0  0  0  0  0  0  0  0  0  0
  150.9040  137.7885  156.3027 H   0  0  0  0  0  0  0  0  0  0  0  0
  152.1890  138.4039  155.2830 H   0  0  0  0  0  0  0  0  0  0  0  0
  150.3637  142.0313  159.7767 H   0  0  0  0  0  0  0  0  0  0  0  0
  152.0703  142.7474  161.0789 H   0  0  0  0  0  0  0  0  0  0  0  0
  153.2638  142.5803  159.7991 H   0  0  0  0  0  0  0  0  0  0  0  0
  152.6497  145.0966  160.5539 H   0  0  0  0  0  0  0  0  0  0  0  0
  152.8971  145.8644  158.2198 H   0  0  0  0  0  0  0  0  0  0  0  0
  153.7034  144.2970  158.1786 H   0  0  0  0  0  0  0  0  0  0  0  0
  151.1883  145.1024  156.8817 H   0  0  0  0  0  0  0  0  0  0  0  0
  151.9879  143.5520  156.7032 H   0  0  0  0  0  0  0  0  0  0  0  0
  149.6149  143.5636  158.0075 H   0  0  0  0  0  0  0  0  0  0  0  0
  150.1042  144.4372  160.4431 H   0  0  0  0  0  0  0  0  0  0  0  0
  150.4454  145.7235  159.2635 H   0  0  0  0  0  0  0  0  0  0  0  0
  1  2  1  0  0  0  0
  1 18  1  0  0  0  0
  1 19  1  0  0  0  0
  1 20  1  0  0  0  0
  2  3  1  0  0  0  0
  2 21  1  0  0  0  0
  3  4  2  0  0  0  0
  3  5  1  0  0  0  0
  5  6  1  0  0  0  0
  5 22  1  0  0  0  0
  5 23  1  0  0  0  0
  6 17  1  0  0  0  0
  6  7  2  0  0  0  0
  7  8  1  0  0  0  0
  8  9  1  0  0  0  0
  9 10  1  0  0  0  0
  9 17  2  0  0  0  0
 10 15  1  0  0  0  0
 10 11  1  0  0  0  0
 10 24  1  0  0  0  0
 11 12  1  0  0  0  0
 11 25  1  0  0  0  0
 11 26  1  0  0  0  0
 12 16  1  0  0  0  0
 12 13  1  0  0  0  0
 12 27  1  0  0  0  0
 13 14  1  0  0  0  0
 13 28  1  0  0  0  0
 13 29  1  0  0  0  0
 14 15  1  0  0  0  0
 14 30  1  0  0  0  0
 14 31  1  0  0  0  0
 15 16  1  0  0  0  0
 15 32  1  0  0  0  0
 16 33  1  0  0  0  0
 16 34  1  0  0  0  0
M  END
> <s_m_source_file>
AV-unprocessed.smi

> <i_m_source_file_index>
626

> <i_lp_mmshare_version>
43012

> <i_f3d_flags>
0

> <s_epik_input>
W0NIM11bTkhdQyg9TylbQ0gyXWMxbm9jKG4xKVtDQEhdKFtDSDJdW0NAQEhdMjMpW0NAQEhdKFtDSDJdMylbQ0gyXVtDSDJdMg==

> <s_epik_cmdline>
J2VwaWtfcHl0aG9uJywgJy1waCcsICc3LjAnLCAnLXRuJywgJzgnLCAnLW1hJywgJzIwMCcsICctbWV0YWxfYmluZGluZycsICctaW1hZScsICc8aW5maWxlLm1hZT4nLCAnLW9tYWUnLCAnPG91dGZpbGUubWFlPic=

> <r_lp_tautomer_probability>
1

> <r_epik_Ionization_Penalty>
1.02916e-07

> <r_epik_Ionization_Penalty_Charging>
0

> <r_epik_Ionization_Penalty_Neutral>
1.02916e-07

> <r_epik_State_Penalty>
-0

> <r_epik_Charging_Adjusted_Penalty>
0

> <i_epik_Tot_Q>
0

> <i_epik_Tot_abs_Q>
0

> <r_epik_Metal_State_Penalty>
-0

> <b_epik_Metal_Only>
0

> <s_lp_Force_Field>
OPLS_2005

> <r_lp_Energy>
49.0627

> <b_lp_Chiralities_Consistent>
1

> <s_lp_Variant>
AV-unprocessed.smi:626-2

> <Gold.Version>
5.8.1

> <Gold.Id.Protein>
6NUR|6NUR_protein|mol2

> <Gold.PLP.Fitness>
39.9734

> <Gold.PLP.PLP>
-35.1525

> <Gold.PLP.part.hbond>
-2.6886

> <Gold.PLP.part.metal>
0.0000

> <Gold.PLP.part.buried>
-2.5880

> <Gold.PLP.part.nonpolar>
-29.7226

> <Gold.PLP.part.repulsive>
0.1609

> <Gold.PLP.ligand.clash>
0.0000

> <Gold.PLP.ligand.torsion>
0.5711

> <Gold.PLP.Chemscore.Hbond>
1.9600

> <Gold.PLP.Chemscore.CHOScore>
0.0000

> <Gold.PLP.Chemscore.Metal>
0.0000

> <Gold.Chemscore.Hbonds>
donor molecule, donor type, donor heavy atom, donor atom, acceptor molecule, acceptor atom, score
      P1  H  7989  7998       L1     4  1.00
      P1  H  7997  8008       L1     7  1.00

> <Gold.PLP.Chemscore.Internal.Correction>
0.0830

> <Gold.Rescore>
     Score         DG    S(hbond)    S(metal)    S(lipo)     H(rot)  DE(clash)    DE(int)     intcor
     15.32     -17.10       1.60        0.00      89.03       1.61       0.01       1.77       ----

> <Gold.Chemscore.Fitness>
15.3230

> <Gold.Chemscore.DG>
-17.0980

> <Gold.Chemscore.ZeroCoef>
-5.4800

> <Gold.Chemscore.Hbond>
1.5951

> <Gold.Chemscore.Metal>
0.0000

> <Gold.Chemscore.Lipo>
89.0332

> <Gold.Chemscore.Internal_Hbond>
0.0000

> <Gold.Chemscore.DEClash>
0.0053

> <Gold.Chemscore.DEInternal>
1.7697

> <Gold.Chemscore.Rot>
1.6119

> <Gold.Chemscore.Internal.Correction>
   9.000000E+99

> <Gold.Chemscore.Hbonds>
donor molecule, donor type, donor heavy atom, donor atom, acceptor molecule, acceptor atom, score
      P1  H  7989  7998       L1     4  0.92
      P1  H  7997  8008       L1     7  0.25

> <Gold.Chemscore.Hbond.Weighted>
-5.3277

> <Gold.Chemscore.Metal.Weighted>
-0.0000

> <Gold.Chemscore.Lipo.Weighted>
-10.4169

> <Gold.Chemscore.Internal_Hbond.Weighted>
0.0000

> <Gold.Chemscore.DEClash.Weighted>
0.0053

> <Gold.Chemscore.DEInternal.Weighted>
1.7697

> <Gold.Chemscore.Rot.Weighted>
4.1266

> <Gold.Chemscore.Internal.Correction.Weighted>
   9.000000E+99

> <Gold.Protein.RotatedTorsions>
[ 6907 6896 6895 6894 ] final -131.88 input  -60.11 | X-H torsion
[ 7974 7965 7964 7962 ] final  106.92 input  175.53 | X-H torsion
[ 8008 7997 7996 7995 ] final  -57.74 input   59.86 | X-H torsion
[ 10167 10162 10161 10158 ] final   68.33 input  -65.29 | X-H torsion
[ 10718 10713 10712 10709 ] final  115.38 input   66.30 | X-H torsion
[ 10763 10752 10751 10750 ] final   20.24 input  -60.55 | X-H torsion
[ 11005 11000 10999 10996 ] final -166.42 input  -57.11 | X-H torsion

> <Gold.Protein.ActiveResidues>
 VAL166  LYS551  ARG553  GLY616  TRP617  ASP618  TYR619  PRO620  LYS621  CYS622 
 ASP623  PHE694  ASN695  SER759  ASP760  ASP761  ALA762  ILE779  LEU786  VAL792 
 PHE793  MET794  SER795  GLU796  ALA797  LYS798  CYS799  TRP800  GLU811  SER814 

> <Gold.Protein.RotatedAtoms>
  150.9560  133.6497  159.2762 H   0  0  0  0  0  0  0  0  0  0  0  0  # atno 6907 bound_to 6896
  151.3836  135.0943  159.9513 H   0  0  0  0  0  0  0  0  0  0  0  0  # atno 6908 bound_to 6896
  152.5129  133.9089  159.7533 H   0  0  0  0  0  0  0  0  0  0  0  0  # atno 6909 bound_to 6896
  145.3004  139.2571  143.3817 H   0  0  0  0  0  0  0  0  0  0  0  0  # atno 7974 bound_to 7965
  154.4280  140.1100  156.5846 H   0  0  0  0  0  0  0  0  0  0  0  0  # atno 8008 bound_to 7997
  155.6077  140.3494  155.4594 H   0  0  0  0  0  0  0  0  0  0  0  0  # atno 8009 bound_to 7997
  156.0124  140.1222  157.0430 H   0  0  0  0  0  0  0  0  0  0  0  0  # atno 8010 bound_to 7997
  140.0798  144.5080  150.7169 H   0  0  0  0  0  0  0  0  0  0  0  0  # atno 10167 bound_to 10162
  157.6225  131.1012  150.7322 H   0  0  0  0  0  0  0  0  0  0  0  0  # atno 10718 bound_to 10713
  153.1094  135.6693  153.9528 H   0  0  0  0  0  0  0  0  0  0  0  0  # atno 10763 bound_to 10752
  153.9075  135.3029  155.3450 H   0  0  0  0  0  0  0  0  0  0  0  0  # atno 10764 bound_to 10752
  154.7514  135.5033  153.9373 H   0  0  0  0  0  0  0  0  0  0  0  0  # atno 10765 bound_to 10752
  140.5647  134.5298  157.5150 H   0  0  0  0  0  0  0  0  0  0  0  0  # atno 11005 bound_to 11000
  146.3154  140.3516  142.8656 LP  0  0  0  0  0  0  0  0  0  0  0  0  # atno 17320 bound_to 7965
  144.9098  140.7744  143.5814 LP  0  0  0  0  0  0  0  0  0  0  0  0  # atno 17321 bound_to 7965
  140.7083  143.2485  151.4658 LP  0  0  0  0  0  0  0  0  0  0  0  0  # atno 17342 bound_to 10162
  139.5786  144.1761  152.1937 LP  0  0  0  0  0  0  0  0  0  0  0  0  # atno 17343 bound_to 10162
  156.7676  130.4818  149.5424 LP  0  0  0  0  0  0  0  0  0  0  0  0  # atno 17370 bound_to 10713
  156.1378  130.6223  151.0425 LP  0  0  0  0  0  0  0  0  0  0  0  0  # atno 17371 bound_to 10713
  139.9391  134.7821  156.0726 LP  0  0  0  0  0  0  0  0  0  0  0  0  # atno 17394 bound_to 11000
  141.1093  133.6649  156.2940 LP  0  0  0  0  0  0  0  0  0  0  0  0  # atno 17395 bound_to 11000

$$$$
