#       Name:                AV-unprocessed.smi:153
#       Creating user name   scv26
#       Creation time:       Thu Mar 26 18:49:16 2020


#       File generated by GOLD software.
#

@<TRIPOS>MOLECULE
AV-unprocessed.smi:153
    71    74     1
SMALL
NO_CHARGES


@<TRIPOS>ATOM
      1 ****        -6.9205  -1.0578   1.2723 C.3            1 S1                 0.0000
      2 ****        -5.8472  -2.1533   1.3814 C.3            1 S1                 0.0000
      3 ****        -6.1100  -3.1287   0.3748 O.3            1 S1                 0.0000
      4 ****        -4.8812  -3.6469  -0.1028 C.3            1 S1                 0.0000
      5 ****        -3.9946  -2.4134  -0.1262 C.3            1 S1                 0.0000
      6 ****        -4.3739  -1.7036   1.1734 C.3            1 S1                 0.0000
      7 ****        -4.2528  -0.3063   0.9692 O.3            1 S1                 0.0000
      8 ****        -3.4934  -2.1007   2.3894 C.3            1 S1                 0.0000
      9 ****        -2.0685  -1.8669   2.2028 N.pl3          1 S1                 0.0000
     10 ****        -1.1330  -2.7900   1.7983 C.2            1 S1                 0.0000
     11 ****         0.0842  -2.3349   1.6924 N.2            1 S1                 0.0000
     12 ****        -0.0050  -1.0002   2.0758 C.ar           1 S1                 0.0000
     13 ****         0.9248   0.0807   2.1842 C.ar           1 S1                 0.0000
     14 ****         2.2561   0.0075   1.8984 N.pl3          1 S1                 0.0000
     15 ****         2.8905  -1.2933   1.7209 C.3            1 S1                 0.0000
     16 ****         2.9333   1.1837   1.3471 C.3            1 S1                 0.0000
     17 ****         2.6952   1.3485  -0.1681 C.3            1 S1                 0.0000
     18 ****         1.4903   2.0651  -0.3560 O.3            1 S1                 0.0000
     19 ****         3.8254   2.1610  -0.8317 C.3            1 S1                 0.0000
     20 ****         3.6449   2.3055  -2.2993 N.4            1 S1                 1.0000
     21 ****         4.3921   3.4609  -2.8509 C.3            1 S1                 0.0000
     22 ****         4.1194   3.6089  -4.3573 C.3            1 S1                 0.0000
     23 ****         4.4687   2.4032  -5.0255 O.3            1 S1                 0.0000
     24 ****         3.6988   1.2991  -4.5670 C.3            1 S1                 0.0000
     25 ****         3.9569   1.0743  -3.0673 C.3            1 S1                 0.0000
     26 ****         0.4280   1.2764   2.5998 N.ar           1 S1                 0.0000
     27 ****        -0.8670   1.4179   2.8918 C.ar           1 S1                 0.0000
     28 ****        -1.8373   0.5072   2.8304 N.ar           1 S1                 0.0000
     29 ****        -1.3583  -0.6968   2.4089 C.ar           1 S1                 0.0000
     30 ****        -6.7821  -0.2909   2.0348 H              1 S1                 0.0000
     31 ****        -7.9173  -1.4784   1.4064 H              1 S1                 0.0000
     32 ****        -6.8961  -0.5738   0.2953 H              1 S1                 0.0000
     33 ****        -5.9534  -2.6461   2.3491 H              1 S1                 0.0000
     34 ****        -4.4975  -4.3968   0.5905 H              1 S1                 0.0000
     35 ****        -4.9927  -4.1056  -1.0854 H              1 S1                 0.0000
     36 ****        -2.9373  -2.6519  -0.2291 H              1 S1                 0.0000
     37 ****        -4.2729  -1.8052  -0.9888 H              1 S1                 0.0000
     38 ****        -3.3373  -0.0953   0.8677 H              1 S1                 0.0000
     39 ****        -3.8147  -1.5563   3.2786 H              1 S1                 0.0000
     40 ****        -3.6283  -3.1584   2.6196 H              1 S1                 0.0000
     41 ****        -1.3859  -3.8150   1.5679 H              1 S1                 0.0000
     42 ****         2.6360  -1.9658   2.5406 H              1 S1                 0.0000
     43 ****         3.9762  -1.1966   1.7061 H              1 S1                 0.0000
     44 ****         2.5826  -1.7495   0.7797 H              1 S1                 0.0000
     45 ****         2.6868   2.0972   1.8897 H              1 S1                 0.0000
     46 ****         3.9998   1.0377   1.5209 H              1 S1                 0.0000
     47 ****         2.6099   0.3678  -0.6349 H              1 S1                 0.0000
     48 ****         0.7982   1.6146   0.1048 H              1 S1                 0.0000
     49 ****         3.8583   3.1494  -0.3696 H              1 S1                 0.0000
     50 ****         4.7952   1.7011  -0.6345 H              1 S1                 0.0000
     51 ****         4.0963   4.3754  -2.3353 H              1 S1                 0.0000
     52 ****         5.4604   3.3237  -2.6755 H              1 S1                 0.0000
     53 ****         3.0721   3.8528  -4.5427 H              1 S1                 0.0000
     54 ****         4.7138   4.4252  -4.7680 H              1 S1                 0.0000
     55 ****         2.6387   1.4745  -4.7578 H              1 S1                 0.0000
     56 ****         3.9812   0.4118  -5.1338 H              1 S1                 0.0000
     57 ****         5.0000   0.7961  -2.9076 H              1 S1                 0.0000
     58 ****         3.3476   0.2401  -2.7221 H              1 S1                 0.0000
     59 ****        -1.1693   2.4026   3.2168 H              1 S1                 0.0000
     60 ****         2.6653   2.5065  -2.4441 H              1 S1                 0.0000
     61 ****        -6.6101  -2.7042  -0.3800 LP             1 S1                 0.0000
     62 ****        -6.6578  -3.8701   0.7623 LP             1 S1                 0.0000
     63 ****        -4.6261   0.1831   1.7573 LP             1 S1                 0.0000
     64 ****        -4.7531  -0.0415   0.1449 LP             1 S1                 0.0000
     65 ****         0.9002  -2.8339   1.4006 LP             1 S1                 0.0000
     66 ****         1.2729   2.1098  -1.3310 LP             1 S1                 0.0000
     67 ****         1.5891   2.9920   0.0063 LP             1 S1                 0.0000
     68 ****         5.4366   2.2122  -4.8622 LP             1 S1                 0.0000
     69 ****         4.3129   2.5206  -6.0063 LP             1 S1                 0.0000
     70 ****         1.0416   2.0611   2.6880 LP             1 S1                 0.0000
     71 ****        -2.7935   0.6843   3.0635 LP             1 S1                 0.0000
@<TRIPOS>BOND
    1    1    2 1     
    2    1   30 1     
    3    1   31 1     
    4    1   32 1     
    5    2    6 1     
    6    2    3 1     
    7    2   33 1     
    8    3    4 1     
    9    4    5 1     
   10    4   34 1     
   11    4   35 1     
   12    5    6 1     
   13    5   36 1     
   14    5   37 1     
   15    6    7 1     
   16    6    8 1     
   17    7   38 1     
   18    8    9 1     
   19    8   39 1     
   20    8   40 1     
   21    9   29 1     
   22    9   10 1     
   23   10   11 2     
   24   10   41 1     
   25   11   12 1     
   26   12   29 ar    
   27   12   13 ar    
   28   13   14 1     
   29   13   26 ar    
   30   14   15 1     
   31   14   16 1     
   32   15   42 1     
   33   15   43 1     
   34   15   44 1     
   35   16   17 1     
   36   16   45 1     
   37   16   46 1     
   38   17   18 1     
   39   17   19 1     
   40   17   47 1     
   41   18   48 1     
   42   19   20 1     
   43   19   49 1     
   44   19   50 1     
   45   20   25 1     
   46   20   21 1     
   47   20   60 1     
   48   21   22 1     
   49   21   51 1     
   50   21   52 1     
   51   22   23 1     
   52   22   53 1     
   53   22   54 1     
   54   23   24 1     
   55   24   25 1     
   56   24   55 1     
   57   24   56 1     
   58   25   57 1     
   59   25   58 1     
   60   26   27 ar    
   61   27   28 ar    
   62   27   59 1     
   63   28   29 ar    
   64    3   61 1     
   65    3   62 1     
   66    7   63 1     
   67    7   64 1     
   68   11   65 1     
   69   18   66 1     
   70   18   67 1     
   71   23   68 1     
   72   23   69 1     
   73   26   70 1     
   74   28   71 1     
@<TRIPOS>SUBSTRUCTURE
      1 S1             1
@<TRIPOS>SET
LONE_PAIRS      STATIC     ATOMS    <user>   **** ""
11 61 62 63 64 65 66 67 68 69 70 71
DONOR_HYDROGENS      STATIC     ATOMS    <user>   **** ""
3 38 48 60
ATOM$BLUE        STATIC     ATOMS    COLORGROUP SYSTEM
11 61 62 63 64 65 66 67 68 69 70 71
ATOM$RED        STATIC     ATOMS    COLORGROUP SYSTEM
3 38 48 60
