#       Name:                AV-unprocessed.smi:2973
#       Creating user name   scv26
#       Creation time:       Fri Mar 27 16:24:58 2020


#       File generated by GOLD software.
#

@<TRIPOS>MOLECULE
AV-unprocessed.smi:2973
    56    58     1
SMALL
NO_CHARGES


@<TRIPOS>ATOM
      1 ****        -4.5940   0.7782  -1.9631 C.3            1 S1                 0.0000
      2 ****        -3.4766   1.8354  -1.8309 C.3            1 S1                 0.0000
      3 ****        -4.0272   3.1025  -1.1407 C.3            1 S1                 0.0000
      4 ****        -2.9689   4.2121  -1.0403 C.3            1 S1                 0.0000
      5 ****        -1.7083   3.7173  -0.3176 C.3            1 S1                 0.0000
      6 ****        -1.1372   2.4674  -1.0055 C.3            1 S1                 0.0000
      7 ****        -2.1856   1.3338  -1.1115 C.3            1 S1                 0.0000
      8 ****        -2.4697   0.7653   0.1959 N.am           1 S1                 0.0000
      9 ****        -2.1032  -0.5184   0.2981 C.2            1 S1                 0.0000
     10 ****        -2.2281  -1.2133   1.3049 O.2            1 S1                 0.0000
     11 ****        -1.5741  -0.9026  -0.8782 N.am           1 S1                 0.0000
     12 ****        -1.0404  -2.2464  -1.1482 C.3            1 S1                 0.0000
     13 ****         0.4328  -2.4561  -0.7566 C.2            1 S1                 0.0000
     14 ****         0.9487  -3.5564  -0.9492 O.2            1 S1                 0.0000
     15 ****         1.1027  -1.4270  -0.2099 N.am           1 S1                 0.0000
     16 ****         2.4868  -1.4686   0.2459 C.3            1 S1                 0.0000
     17 ****         2.6048  -2.1385   1.6253 C.3            1 S1                 0.0000
     18 ****         4.0294  -2.1427   2.1460 C.ar           1 S1                 0.0000
     19 ****         4.8396  -3.2912   2.0186 C.ar           1 S1                 0.0000
     20 ****         6.1551  -3.2432   2.5196 C.ar           1 S1                 0.0000
     21 ****         6.6078  -2.0544   3.1239 C.ar           1 S1                 0.0000
     22 ****         5.7221  -0.9610   3.1980 C.ar           1 S1                 0.0000
     23 ****         4.4590  -0.9963   2.7207 N.ar           1 S1                 0.0000
     24 ****        -1.5721   0.1018  -1.7656 C.2            1 S1                 0.0000
     25 ****        -1.1483   0.0725  -2.9211 O.2            1 S1                 0.0000
     26 ****        -4.9475   0.4412  -0.9884 H              1 S1                 0.0000
     27 ****        -4.2619  -0.0986  -2.5191 H              1 S1                 0.0000
     28 ****        -5.4525   1.1866  -2.4967 H              1 S1                 0.0000
     29 ****        -3.1949   2.1227  -2.8455 H              1 S1                 0.0000
     30 ****        -4.8904   3.4797  -1.6904 H              1 S1                 0.0000
     31 ****        -4.3878   2.8539  -0.1417 H              1 S1                 0.0000
     32 ****        -2.7053   4.5575  -2.0406 H              1 S1                 0.0000
     33 ****        -3.3835   5.0731  -0.5154 H              1 S1                 0.0000
     34 ****        -0.9568   4.5072  -0.3007 H              1 S1                 0.0000
     35 ****        -1.9437   3.4942   0.7237 H              1 S1                 0.0000
     36 ****        -0.7921   2.7433  -2.0034 H              1 S1                 0.0000
     37 ****        -0.2533   2.1252  -0.4642 H              1 S1                 0.0000
     38 ****        -2.8921   1.2979   0.9424 H              1 S1                 0.0000
     39 ****        -1.6413  -2.9898  -0.6218 H              1 S1                 0.0000
     40 ****        -1.1493  -2.4838  -2.2078 H              1 S1                 0.0000
     41 ****         0.6101  -0.5542  -0.0879 H              1 S1                 0.0000
     42 ****         3.1092  -1.9852  -0.4868 H              1 S1                 0.0000
     43 ****         2.8521  -0.4425   0.2973 H              1 S1                 0.0000
     44 ****         1.9677  -1.6239   2.3459 H              1 S1                 0.0000
     45 ****         2.2426  -3.1664   1.5784 H              1 S1                 0.0000
     46 ****         4.4632  -4.1881   1.5485 H              1 S1                 0.0000
     47 ****         6.8047  -4.1025   2.4422 H              1 S1                 0.0000
     48 ****         7.6097  -1.9819   3.5204 H              1 S1                 0.0000
     49 ****         6.0360  -0.0338   3.6539 H              1 S1                 0.0000
     50 ****        -2.6310  -0.8250   2.1336 LP             1 S1                 0.0000
     51 ****        -1.9267  -2.1668   1.2949 LP             1 S1                 0.0000
     52 ****         0.4117  -4.2965  -1.3541 LP             1 S1                 0.0000
     53 ****         1.9050  -3.7107  -0.7008 LP             1 S1                 0.0000
     54 ****         3.8597  -0.1989   2.7902 LP             1 S1                 0.0000
     55 ****        -1.1953   0.8922  -3.4919 LP             1 S1                 0.0000
     56 ****        -0.7569  -0.7711  -3.2889 LP             1 S1                 0.0000
@<TRIPOS>BOND
    1    1    2 1     
    2    1   26 1     
    3    1   27 1     
    4    1   28 1     
    5    2    7 1     
    6    2    3 1     
    7    2   29 1     
    8    3    4 1     
    9    3   30 1     
   10    3   31 1     
   11    4    5 1     
   12    4   32 1     
   13    4   33 1     
   14    5    6 1     
   15    5   34 1     
   16    5   35 1     
   17    6    7 1     
   18    6   36 1     
   19    6   37 1     
   20    7   24 1     
   21    7    8 1     
   22    8    9 am    
   23    8   38 1     
   24    9   10 2     
   25    9   11 am    
   26   11   12 1     
   27   11   24 am    
   28   12   13 1     
   29   12   39 1     
   30   12   40 1     
   31   13   14 2     
   32   13   15 am    
   33   15   16 1     
   34   15   41 1     
   35   16   17 1     
   36   16   42 1     
   37   16   43 1     
   38   17   18 1     
   39   17   44 1     
   40   17   45 1     
   41   18   23 ar    
   42   18   19 ar    
   43   19   20 ar    
   44   19   46 1     
   45   20   21 ar    
   46   20   47 1     
   47   21   22 ar    
   48   21   48 1     
   49   22   23 ar    
   50   22   49 1     
   51   24   25 2     
   52   10   50 1     
   53   10   51 1     
   54   14   52 1     
   55   14   53 1     
   56   23   54 1     
   57   25   55 1     
   58   25   56 1     
@<TRIPOS>SUBSTRUCTURE
      1 S1             1
@<TRIPOS>SET
LONE_PAIRS      STATIC     ATOMS    <user>   **** ""
7 50 51 52 53 54 55 56
DONOR_HYDROGENS      STATIC     ATOMS    <user>   **** ""
2 38 41
ATOM$BLUE        STATIC     ATOMS    COLORGROUP SYSTEM
7 50 51 52 53 54 55 56
ATOM$RED        STATIC     ATOMS    COLORGROUP SYSTEM
2 38 41
