AV-unprocessed.smi:1654|AV-procd|sdf|6642|dock8
  -GOLD-   22720 7343D 1   1.00000     0.00000
 Structure written by MMmdl.
 40 41  0  0  0  0  0  0  0  0  1 V2000
  152.6920  139.9362  154.9726 O   0  0  0  0  0  0  0  0  0  0  0  0
  151.6664  139.0783  155.5858 S   0  0  0  0  0  0  0  0  0  0  0  0
  151.7477  137.6126  155.4902 O   0  0  0  0  0  0  0  0  0  0  0  0
  151.5425  139.5150  157.2480 N   0  0  0  0  0  0  0  0  0  0  0  0
  151.3770  140.9267  157.5813 C   0  0  0  0  0  0  0  0  0  0  0  0
  151.8622  141.1956  159.0111 C   0  0  0  0  0  0  0  0  0  0  0  0
  151.8593  142.6745  159.3438 C   0  0  0  0  0  0  0  0  0  0  0  0
  151.6002  143.6397  158.3489 C   0  0  0  0  0  0  0  0  0  0  0  0
  151.6153  145.0020  158.7056 C   0  0  0  0  0  0  0  0  0  0  0  0
  151.8901  145.3416  160.0454 C   0  0  0  0  0  0  0  0  0  0  0  0
  152.1397  144.4258  161.0062 N   0  0  0  0  0  0  0  0  0  0  0  0
  152.1236  143.1217  160.6559 C   0  0  0  0  0  0  0  0  0  0  0  0
  150.0972  139.5836  155.0463 N   0  0  0  0  0  0  0  0  0  0  0  0
  149.3940  138.7269  154.0720 C   0  0  0  0  0  0  0  0  0  0  0  0
  147.9314  138.5072  154.4872 C   0  0  0  0  0  0  0  0  0  0  0  0
  146.9459  139.5644  153.9597 C   0  0  0  0  0  0  0  0  0  0  0  0
  147.4671  141.0114  153.9283 C   0  0  0  0  0  0  0  0  0  0  0  0
  148.3541  141.4008  155.1205 C   0  0  0  0  0  0  0  0  0  0  0  0
  149.8383  141.0305  154.9334 C   0  0  0  0  0  0  0  0  0  0  0  0
  150.8881  138.9142  157.7487 H   0  0  0  0  0  0  0  0  0  0  0  0
  151.9386  141.5292  156.8664 H   0  0  0  0  0  0  0  0  0  0  0  0
  150.3250  141.1955  157.4786 H   0  0  0  0  0  0  0  0  0  0  0  0
  151.2289  140.6702  159.7275 H   0  0  0  0  0  0  0  0  0  0  0  0
  152.8712  140.8029  159.1452 H   0  0  0  0  0  0  0  0  0  0  0  0
  151.3960  143.3432  157.3305 H   0  0  0  0  0  0  0  0  0  0  0  0
  151.4221  145.7687  157.9699 H   0  0  0  0  0  0  0  0  0  0  0  0
  151.9109  146.3765  160.3535 H   0  0  0  0  0  0  0  0  0  0  0  0
  152.3298  142.4149  161.4462 H   0  0  0  0  0  0  0  0  0  0  0  0
  149.4776  139.1422  153.0669 H   0  0  0  0  0  0  0  0  0  0  0  0
  149.8878  137.7560  154.0312 H   0  0  0  0  0  0  0  0  0  0  0  0
  147.6014  137.5316  154.1284 H   0  0  0  0  0  0  0  0  0  0  0  0
  147.8680  138.4487  155.5749 H   0  0  0  0  0  0  0  0  0  0  0  0
  146.6339  139.2933  152.9504 H   0  0  0  0  0  0  0  0  0  0  0  0
  146.0419  139.5200  154.5679 H   0  0  0  0  0  0  0  0  0  0  0  0
  148.0130  141.1878  153.0006 H   0  0  0  0  0  0  0  0  0  0  0  0
  146.6066  141.6803  153.8880 H   0  0  0  0  0  0  0  0  0  0  0  0
  148.3018  142.4843  155.2324 H   0  0  0  0  0  0  0  0  0  0  0  0
  147.9612  140.9901  156.0516 H   0  0  0  0  0  0  0  0  0  0  0  0
  150.4097  141.5529  155.7003 H   0  0  0  0  0  0  0  0  0  0  0  0
  150.2161  141.3927  153.9765 H   0  0  0  0  0  0  0  0  0  0  0  0
  1  2  2  0  0  0  0
  2  3  2  0  0  0  0
  2  4  1  0  0  0  0
  2 13  1  0  0  0  0
  4  5  1  0  0  0  0
  4 20  1  0  0  0  0
  5  6  1  0  0  0  0
  5 21  1  0  0  0  0
  5 22  1  0  0  0  0
  6  7  1  0  0  0  0
  6 23  1  0  0  0  0
  6 24  1  0  0  0  0
  7 12  1  0  0  0  0
  7  8  2  0  0  0  0
  8  9  1  0  0  0  0
  8 25  1  0  0  0  0
  9 10  2  0  0  0  0
  9 26  1  0  0  0  0
 10 11  1  0  0  0  0
 10 27  1  0  0  0  0
 11 12  2  0  0  0  0
 12 28  1  0  0  0  0
 13 19  1  0  0  0  0
 13 14  1  0  0  0  0
 14 15  1  0  0  0  0
 14 29  1  0  0  0  0
 14 30  1  0  0  0  0
 15 16  1  0  0  0  0
 15 31  1  0  0  0  0
 15 32  1  0  0  0  0
 16 17  1  0  0  0  0
 16 33  1  0  0  0  0
 16 34  1  0  0  0  0
 17 18  1  0  0  0  0
 17 35  1  0  0  0  0
 17 36  1  0  0  0  0
 18 19  1  0  0  0  0
 18 37  1  0  0  0  0
 18 38  1  0  0  0  0
 19 39  1  0  0  0  0
 19 40  1  0  0  0  0
M  END
> <s_m_source_file>
AV-unprocessed.smi

> <i_m_source_file_index>
1654

> <i_lp_mmshare_version>
43012

> <i_f3d_flags>
0

> <s_epik_input>
W0NIMl0xW0NIMl1bQ0gyXVtDSDJdW0NIMl1bQ0gyXU4xUyg9TykoPU8pW05IXVtDSDJdW0NIMl1jMltjSF1bY0hdW2NIXW5bY0hdMg==

> <s_epik_cmdline>
J2VwaWtfcHl0aG9uJywgJy1waCcsICc3LjAnLCAnLXRuJywgJzgnLCAnLW1hJywgJzIwMCcsICctbWV0YWxfYmluZGluZycsICctaW1hZScsICc8aW5maWxlLm1hZT4nLCAnLW9tYWUnLCAnPG91dGZpbGUubWFlPic=

> <r_lp_tautomer_probability>
1

> <r_epik_Ionization_Penalty>
0.00688973

> <r_epik_Ionization_Penalty_Charging>
0

> <r_epik_Ionization_Penalty_Neutral>
0.00688973

> <r_epik_State_Penalty>
-0

> <r_epik_Charging_Adjusted_Penalty>
0

> <i_epik_Tot_Q>
0

> <i_epik_Tot_abs_Q>
0

> <r_epik_Metal_State_Penalty>
0.361675

> <b_epik_Metal_Only>
0

> <s_lp_Force_Field>
OPLS_2005

> <r_lp_Energy>
15.461

> <b_lp_Chiralities_Consistent>
1

> <s_lp_Variant>
AV-unprocessed.smi:1654-1

> <Gold.Version>
5.8.1

> <Gold.Id.Protein>
6NUR|6NUR_protein|mol2

> <Gold.PLP.Fitness>
44.6937

> <Gold.PLP.PLP>
-40.7113

> <Gold.PLP.part.hbond>
-2.0000

> <Gold.PLP.part.metal>
0.0000

> <Gold.PLP.part.buried>
-4.0180

> <Gold.PLP.part.nonpolar>
-35.2418

> <Gold.PLP.part.repulsive>
0.2038

> <Gold.PLP.ligand.clash>
0.0000

> <Gold.PLP.ligand.torsion>
1.3214

> <Gold.PLP.Chemscore.Hbond>
1.5075

> <Gold.PLP.Chemscore.CHOScore>
0.0000

> <Gold.PLP.Chemscore.Metal>
0.0000

> <Gold.Chemscore.Hbonds>
donor molecule, donor type, donor heavy atom, donor atom, acceptor molecule, acceptor atom, score
      P1  H  7989  7998       L1     1  0.50
      P1  H  7997  8010       L1     1  1.00

> <Gold.PLP.Chemscore.Internal.Correction>
2.1026

> <Gold.Rescore>
     Score         DG    S(hbond)    S(metal)    S(lipo)     H(rot)  DE(clash)    DE(int)     intcor
     16.69     -18.04       1.20        0.00     105.24       1.47       0.06       1.29       ----

> <Gold.Chemscore.Fitness>
16.6918

> <Gold.Chemscore.DG>
-18.0362

> <Gold.Chemscore.ZeroCoef>
-5.4800

> <Gold.Chemscore.Hbond>
1.2015

> <Gold.Chemscore.Metal>
0.0000

> <Gold.Chemscore.Lipo>
105.2395

> <Gold.Chemscore.Internal_Hbond>
0.0000

> <Gold.Chemscore.DEClash>
0.0557

> <Gold.Chemscore.DEInternal>
1.2887

> <Gold.Chemscore.Rot>
1.4725

> <Gold.Chemscore.Internal.Correction>
   9.000000E+99

> <Gold.Chemscore.Hbonds>
donor molecule, donor type, donor heavy atom, donor atom, acceptor molecule, acceptor atom, score
      P1  H  7989  7998       L1     1  0.19
      P1  H  7997  8010       L1     1  0.93

> <Gold.Chemscore.Hbond.Weighted>
-4.0129

> <Gold.Chemscore.Metal.Weighted>
-0.0000

> <Gold.Chemscore.Lipo.Weighted>
-12.3130

> <Gold.Chemscore.Internal_Hbond.Weighted>
0.0000

> <Gold.Chemscore.DEClash.Weighted>
0.0557

> <Gold.Chemscore.DEInternal.Weighted>
1.2887

> <Gold.Chemscore.Rot.Weighted>
3.7697

> <Gold.Chemscore.Internal.Correction.Weighted>
   9.000000E+99

> <Gold.Protein.RotatedTorsions>
[ 6907 6896 6895 6894 ] final  135.71 input  -60.11 | X-H torsion
[ 7974 7965 7964 7962 ] final  -18.04 input  175.53 | X-H torsion
[ 8008 7997 7996 7995 ] final  114.02 input   59.86 | X-H torsion
[ 10167 10162 10161 10158 ] final  -23.66 input  -65.29 | X-H torsion
[ 10718 10713 10712 10709 ] final  -75.37 input   66.30 | X-H torsion
[ 10763 10752 10751 10750 ] final  -84.46 input  -60.55 | X-H torsion
[ 11005 11000 10999 10996 ] final  -22.14 input  -57.11 | X-H torsion

> <Gold.Protein.ActiveResidues>
 VAL166  LYS551  ARG553  GLY616  TRP617  ASP618  TYR619  PRO620  LYS621  CYS622 
 ASP623  PHE694  ASN695  SER759  ASP760  ASP761  ALA762  ILE779  LEU786  VAL792 
 PHE793  MET794  SER795  GLU796  ALA797  LYS798  CYS799  TRP800  GLU811  SER814 

> <Gold.Protein.RotatedAtoms>
  152.2974  133.5621  159.5596 H   0  0  0  0  0  0  0  0  0  0  0  0  # atno 6907 bound_to 6896
  150.7262  134.0341  159.3752 H   0  0  0  0  0  0  0  0  0  0  0  0  # atno 6908 bound_to 6896
  151.8243  135.0642  160.0480 H   0  0  0  0  0  0  0  0  0  0  0  0  # atno 6909 bound_to 6896
  146.1912  140.3865  142.8457 H   0  0  0  0  0  0  0  0  0  0  0  0  # atno 7974 bound_to 7965
  156.2295  140.2967  156.0151 H   0  0  0  0  0  0  0  0  0  0  0  0  # atno 8008 bound_to 7997
  155.2265  140.0417  157.2973 H   0  0  0  0  0  0  0  0  0  0  0  0  # atno 8009 bound_to 7997
  154.5971  140.2417  155.7849 H   0  0  0  0  0  0  0  0  0  0  0  0  # atno 8010 bound_to 7997
  140.7288  143.4423  151.0639 H   0  0  0  0  0  0  0  0  0  0  0  0  # atno 10167 bound_to 10162
  156.0210  130.4439  150.3032 H   0  0  0  0  0  0  0  0  0  0  0  0  # atno 10718 bound_to 10713
  154.5997  135.5520  153.7362 H   0  0  0  0  0  0  0  0  0  0  0  0  # atno 10763 bound_to 10752
  153.0150  135.6363  154.1732 H   0  0  0  0  0  0  0  0  0  0  0  0  # atno 10764 bound_to 10752
  154.1672  135.2894  155.3071 H   0  0  0  0  0  0  0  0  0  0  0  0  # atno 10765 bound_to 10752
  140.8629  133.7775  156.0095 H   0  0  0  0  0  0  0  0  0  0  0  0  # atno 11005 bound_to 11000
  144.8490  140.6972  143.6180 LP  0  0  0  0  0  0  0  0  0  0  0  0  # atno 17320 bound_to 7965
  145.3787  139.1642  143.4292 LP  0  0  0  0  0  0  0  0  0  0  0  0  # atno 17321 bound_to 7965
  139.8091  143.7976  152.3170 LP  0  0  0  0  0  0  0  0  0  0  0  0  # atno 17342 bound_to 10162
  139.8019  144.7370  150.9813 LP  0  0  0  0  0  0  0  0  0  0  0  0  # atno 17343 bound_to 10162
  157.1135  131.0228  151.3038 LP  0  0  0  0  0  0  0  0  0  0  0  0  # atno 17370 bound_to 10713
  157.4685  130.7695  149.7301 LP  0  0  0  0  0  0  0  0  0  0  0  0  # atno 17371 bound_to 10713
  140.8662  134.2781  157.5212 LP  0  0  0  0  0  0  0  0  0  0  0  0  # atno 17394 bound_to 11000
  139.8708  134.9544  156.4174 LP  0  0  0  0  0  0  0  0  0  0  0  0  # atno 17395 bound_to 11000

$$$$
