AV-unprocessed.smi:516|AV-procd|sdf|2787|dock1
  -GOLD-   2262023263D 1   1.00000     0.00000
 Structure written by MMmdl.
 44 46  0  0  0  0  0  0  0  0  3 V2000
  148.9817  128.0169  153.5649 C   0  0  0  0  0  0  0  0  0  0  0  0
  149.9966  128.3933  154.4778 O   0  0  0  0  0  0  0  0  0  0  0  0
  150.2734  129.7835  154.4457 C   0  0  0  0  0  0  0  0  0  0  0  0
  148.9700  130.5840  154.5864 C   0  0  0  0  0  0  0  0  0  0  0  0
  149.2080  132.0247  154.6243 N   0  0  0  0  0  0  0  0  0  0  0  0
  148.6574  132.9675  153.8144 C   0  0  0  0  0  0  0  0  0  0  0  0
  147.6835  132.6579  152.7128 C   0  0  0  0  0  0  0  0  0  0  0  0
  147.1243  133.9779  152.3268 N   0  3  0  0  0  0  0  0  0  0  0  0
  146.2588  133.8949  151.1275 C   0  0  0  0  0  0  0  0  0  0  0  0
  145.7620  135.2940  150.7256 C   0  0  0  0  0  0  0  0  0  0  0  0
  145.0754  135.8895  151.8195 O   0  0  0  0  0  0  0  0  0  0  0  0
  145.9203  136.0553  152.9516 C   0  0  0  0  0  0  0  0  0  0  0  0
  146.4202  134.6819  153.4286 C   0  0  0  0  0  0  0  0  0  0  0  0
  149.0534  134.2154  154.0784 N   0  0  0  0  0  0  0  0  0  0  0  0
  149.9298  134.0524  155.1401 C   0  0  0  0  0  0  0  0  0  0  0  0
  150.0450  132.7424  155.4854 C   0  0  0  0  0  0  0  0  0  0  0  0
  150.9187  132.2546  156.5767 C   0  0  0  0  0  0  0  0  0  0  0  0
  151.0060  131.0565  156.8354 O   0  0  0  0  0  0  0  0  0  0  0  0
  151.5715  133.2784  157.2125 N   0  5  0  0  0  0  0  0  0  0  0  0
  151.4763  134.6178  156.9016 C   0  0  0  0  0  0  0  0  0  0  0  0
  152.0952  135.4771  157.5302 O   0  0  0  0  0  0  0  0  0  0  0  0
  150.6724  135.0210  155.8681 N   0  0  0  0  0  0  0  0  0  0  0  0
  150.5555  136.4379  155.5112 C   0  0  0  0  0  0  0  0  0  0  0  0
  148.8144  126.9417  153.6276 H   0  0  0  0  0  0  0  0  0  0  0  0
  149.2667  128.2536  152.5391 H   0  0  0  0  0  0  0  0  0  0  0  0
  148.0403  128.5185  153.7922 H   0  0  0  0  0  0  0  0  0  0  0  0
  150.9579  130.0399  155.2556 H   0  0  0  0  0  0  0  0  0  0  0  0
  150.7661  130.0452  153.5082 H   0  0  0  0  0  0  0  0  0  0  0  0
  148.2950  130.3529  153.7633 H   0  0  0  0  0  0  0  0  0  0  0  0
  148.4298  130.2762  155.4790 H   0  0  0  0  0  0  0  0  0  0  0  0
  148.2352  132.2116  151.8844 H   0  0  0  0  0  0  0  0  0  0  0  0
  146.9056  131.9551  153.0084 H   0  0  0  0  0  0  0  0  0  0  0  0
  146.8152  133.4521  150.3004 H   0  0  0  0  0  0  0  0  0  0  0  0
  145.4105  133.2400  151.3325 H   0  0  0  0  0  0  0  0  0  0  0  0
  146.5932  135.9282  150.4129 H   0  0  0  0  0  0  0  0  0  0  0  0
  145.0805  135.2216  149.8778 H   0  0  0  0  0  0  0  0  0  0  0  0
  146.7579  136.7098  152.7046 H   0  0  0  0  0  0  0  0  0  0  0  0
  145.3556  136.5456  153.7448 H   0  0  0  0  0  0  0  0  0  0  0  0
  145.5793  134.0771  153.7717 H   0  0  0  0  0  0  0  0  0  0  0  0
  147.0836  134.8197  154.2826 H   0  0  0  0  0  0  0  0  0  0  0  0
  151.5372  136.8634  155.2989 H   0  0  0  0  0  0  0  0  0  0  0  0
  150.1111  137.0009  156.3326 H   0  0  0  0  0  0  0  0  0  0  0  0
  149.9369  136.6004  154.6291 H   0  0  0  0  0  0  0  0  0  0  0  0
  147.9150  134.5517  152.0680 H   0  0  0  0  0  0  0  0  0  0  0  0
  1  2  1  0  0  0  0
  1 24  1  0  0  0  0
  1 25  1  0  0  0  0
  1 26  1  0  0  0  0
  2  3  1  0  0  0  0
  3  4  1  0  0  0  0
  3 27  1  0  0  0  0
  3 28  1  0  0  0  0
  4  5  1  0  0  0  0
  4 29  1  0  0  0  0
  4 30  1  0  0  0  0
  5 16  1  0  0  0  0
  5  6  1  0  0  0  0
  6  7  1  0  0  0  0
  6 14  2  0  0  0  0
  7  8  1  0  0  0  0
  7 31  1  0  0  0  0
  7 32  1  0  0  0  0
  8 13  1  0  0  0  0
  8  9  1  0  0  0  0
  8 44  1  0  0  0  0
  9 10  1  0  0  0  0
  9 33  1  0  0  0  0
  9 34  1  0  0  0  0
 10 11  1  0  0  0  0
 10 35  1  0  0  0  0
 10 36  1  0  0  0  0
 11 12  1  0  0  0  0
 12 13  1  0  0  0  0
 12 37  1  0  0  0  0
 12 38  1  0  0  0  0
 13 39  1  0  0  0  0
 13 40  1  0  0  0  0
 14 15  1  0  0  0  0
 15 22  1  0  0  0  0
 15 16  2  0  0  0  0
 16 17  1  0  0  0  0
 17 18  2  0  0  0  0
 17 19  1  0  0  0  0
 19 20  1  0  0  0  0
 20 21  2  0  0  0  0
 20 22  1  0  0  0  0
 22 23  1  0  0  0  0
 23 41  1  0  0  0  0
 23 42  1  0  0  0  0
 23 43  1  0  0  0  0
M  CHG  1   8   1
M  CHG  1  19  -1
M  END
> <s_m_source_file>
AV-unprocessed.smi

> <i_m_source_file_index>
516

> <i_lp_mmshare_version>
43012

> <i_f3d_flags>
0

> <s_epik_input>
W0NIM11uMWMoPU8pW25IXWMoPU8pYyhjMTIpbihbQ0gyXVtDSDJdT1tDSDNdKWMobjIpW0NIMl1OM1tDSDJdW0NIMl1PW0NIMl1bQ0gyXTM=

> <s_epik_cmdline>
J2VwaWtfcHl0aG9uJywgJy1waCcsICc3LjAnLCAnLXRuJywgJzgnLCAnLW1hJywgJzIwMCcsICctbWV0YWxfYmluZGluZycsICctaW1hZScsICc8aW5maWxlLm1hZT4nLCAnLW9tYWUnLCAnPG91dGZpbGUubWFlPic=

> <r_epik_Ionization_Penalty>
5.20946

> <r_epik_Ionization_Penalty_Charging>
1.12908

> <r_epik_Ionization_Penalty_Neutral>
4.08038

> <r_epik_State_Penalty>
5.2587

> <r_epik_Charging_Adjusted_Penalty>
6.38778

> <i_epik_Tot_Q>
0

> <i_epik_Tot_abs_Q>
2

> <r_epik_Metal_State_Penalty>
1.732

> <b_epik_Metal_Only>
1

> <s_lp_Force_Field>
OPLS_2005

> <r_lp_Energy>
35.9619

> <b_lp_Chiralities_Consistent>
1

> <s_lp_Variant>
AV-unprocessed.smi:516-4

> <Gold.Version>
5.8.1

> <Gold.Id.Protein>
6NUR|6NUR_protein|mol2

> <Gold.PLP.Fitness>
42.3396

> <Gold.PLP.PLP>
-32.8049

> <Gold.PLP.part.hbond>
-3.0000

> <Gold.PLP.part.metal>
0.0000

> <Gold.PLP.part.buried>
-3.8293

> <Gold.PLP.part.nonpolar>
-28.1365

> <Gold.PLP.part.repulsive>
1.3007

> <Gold.PLP.ligand.clash>
0.0000

> <Gold.PLP.ligand.torsion>
0.2060

> <Gold.PLP.Chemscore.Hbond>
3.2792

> <Gold.PLP.Chemscore.CHOScore>
0.0000

> <Gold.PLP.Chemscore.Metal>
0.0000

> <Gold.Chemscore.Hbonds>
donor molecule, donor type, donor heavy atom, donor atom, acceptor molecule, acceptor atom, score
      L1  H     8    44       P1  7948  2.00
      P1  H  6896  6909       L1    19  1.31

> <Gold.PLP.Chemscore.Internal.Correction>
0.1090

> <Gold.Rescore>
     Score         DG    S(hbond)    S(metal)    S(lipo)     H(rot)  DE(clash)    DE(int)     intcor
      5.72      -8.30       0.85        0.00      45.21       2.07       0.36       2.22       ----

> <Gold.Chemscore.Fitness>
5.7172

> <Gold.Chemscore.DG>
-8.3015

> <Gold.Chemscore.ZeroCoef>
-5.4800

> <Gold.Chemscore.Hbond>
0.8473

> <Gold.Chemscore.Metal>
0.0000

> <Gold.Chemscore.Lipo>
45.2068

> <Gold.Chemscore.Internal_Hbond>
0.0000

> <Gold.Chemscore.DEClash>
0.3630

> <Gold.Chemscore.DEInternal>
2.2214

> <Gold.Chemscore.Rot>
2.0693

> <Gold.Chemscore.Internal.Correction>
   9.000000E+99

> <Gold.Chemscore.Hbonds>
donor molecule, donor type, donor heavy atom, donor atom, acceptor molecule, acceptor atom, score
      L1  H     8    44       P1  7948  0.30
      P1  H  6896  6909       L1    19  0.18

> <Gold.Chemscore.Hbond.Weighted>
-2.8299

> <Gold.Chemscore.Metal.Weighted>
-0.0000

> <Gold.Chemscore.Lipo.Weighted>
-5.2892

> <Gold.Chemscore.Internal_Hbond.Weighted>
0.0000

> <Gold.Chemscore.DEClash.Weighted>
0.3630

> <Gold.Chemscore.DEInternal.Weighted>
2.2214

> <Gold.Chemscore.Rot.Weighted>
5.2975

> <Gold.Chemscore.Internal.Correction.Weighted>
   9.000000E+99

> <Gold.Protein.RotatedTorsions>
[ 6907 6896 6895 6894 ] final  -52.51 input  -60.11 | X-H torsion
[ 7974 7965 7964 7962 ] final -119.77 input  175.53 | X-H torsion
[ 8008 7997 7996 7995 ] final  102.94 input   59.86 | X-H torsion
[ 10167 10162 10161 10158 ] final   38.43 input  -65.29 | X-H torsion
[ 10718 10713 10712 10709 ] final  -53.01 input   66.30 | X-H torsion
[ 10763 10752 10751 10750 ] final  117.86 input  -60.55 | X-H torsion
[ 11005 11000 10999 10996 ] final -178.84 input  -57.11 | X-H torsion

> <Gold.Protein.ActiveResidues>
 VAL166  LYS551  ARG553  GLY616  TRP617  ASP618  TYR619  PRO620  LYS621  CYS622 
 ASP623  PHE694  ASN695  SER759  ASP760  ASP761  ALA762  ILE779  LEU786  VAL792 
 PHE793  MET794  SER795  GLU796  ALA797  LYS798  CYS799  TRP800  GLU811  SER814 

> <Gold.Protein.RotatedAtoms>
  150.8512  134.7837  159.7009 H   0  0  0  0  0  0  0  0  0  0  0  0  # atno 6907 bound_to 6896
  152.4576  134.5254  159.9805 H   0  0  0  0  0  0  0  0  0  0  0  0  # atno 6908 bound_to 6896
  151.5375  133.3400  159.2965 H   0  0  0  0  0  0  0  0  0  0  0  0  # atno 6909 bound_to 6896
  145.0588  140.8274  143.4165 H   0  0  0  0  0  0  0  0  0  0  0  0  # atno 7974 bound_to 7965
  156.1439  140.3173  155.8538 H   0  0  0  0  0  0  0  0  0  0  0  0  # atno 8008 bound_to 7997
  155.4102  140.0505  157.3049 H   0  0  0  0  0  0  0  0  0  0  0  0  # atno 8009 bound_to 7997
  154.4999  140.2125  155.9380 H   0  0  0  0  0  0  0  0  0  0  0  0  # atno 8010 bound_to 7997
  140.3937  144.1818  150.6131 H   0  0  0  0  0  0  0  0  0  0  0  0  # atno 10167 bound_to 10162
  156.1572  130.4150  149.9851 H   0  0  0  0  0  0  0  0  0  0  0  0  # atno 10718 bound_to 10713
  153.5587  135.3525  155.2790 H   0  0  0  0  0  0  0  0  0  0  0  0  # atno 10763 bound_to 10752
  154.8697  135.4131  154.2855 H   0  0  0  0  0  0  0  0  0  0  0  0  # atno 10764 bound_to 10752
  153.3596  135.7059  153.6792 H   0  0  0  0  0  0  0  0  0  0  0  0  # atno 10765 bound_to 10752
  140.4253  134.6568  157.4685 H   0  0  0  0  0  0  0  0  0  0  0  0  # atno 11005 bound_to 11000
  145.1435  139.2558  143.5478 LP  0  0  0  0  0  0  0  0  0  0  0  0  # atno 17320 bound_to 7965
  146.3523  140.1118  142.8603 LP  0  0  0  0  0  0  0  0  0  0  0  0  # atno 17321 bound_to 7965
  140.4813  143.2378  151.8951 LP  0  0  0  0  0  0  0  0  0  0  0  0  # atno 17342 bound_to 10162
  139.4788  144.5266  151.8726 LP  0  0  0  0  0  0  0  0  0  0  0  0  # atno 17343 bound_to 10162
  156.7691  130.9179  151.3644 LP  0  0  0  0  0  0  0  0  0  0  0  0  # atno 17370 bound_to 10713
  157.6704  130.9046  150.0027 LP  0  0  0  0  0  0  0  0  0  0  0  0  # atno 17371 bound_to 10713
  140.0172  134.6602  155.9293 LP  0  0  0  0  0  0  0  0  0  0  0  0  # atno 17394 bound_to 11000
  141.1767  133.6541  156.4859 LP  0  0  0  0  0  0  0  0  0  0  0  0  # atno 17395 bound_to 11000

$$$$
