#       Name:                AV-unprocessed.smi:3090
#       Creating user name   scv26
#       Creation time:       Fri Mar 27 17:15:40 2020


#       File generated by GOLD software.
#

@<TRIPOS>MOLECULE
AV-unprocessed.smi:3090
    25    25     1
SMALL
NO_CHARGES


@<TRIPOS>ATOM
      1 ****        -3.6658  -0.9920   0.3698 C.3            1 S1                 0.0000
      2 ****        -2.4082  -0.2761   0.3782 N.pl3          1 S1                 0.0000
      3 ****        -1.1280  -0.7857   0.3859 C.2            1 S1                 0.0000
      4 ****        -0.2626   0.2737   0.3933 C.2            1 S1                 0.0000
      5 ****         1.2434   0.2768   0.3958 C.3            1 S1                 0.0000
      6 ****         1.7605  -0.8539   1.0694 O.3            1 S1                 0.0000
      7 ****         1.7882   0.2777  -1.0433 C.3            1 S1                 0.0000
      8 ****         3.2557   0.4054  -1.0736 N.4            1 S1                 1.0000
      9 ****        -1.1300   1.4038   0.3876 C.2            1 S1                 0.0000
     10 ****        -2.4104   1.0722   0.3784 N.2            1 S1                 0.0000
     11 ****        -3.4847  -2.0673   0.3680 H              1 S1                 0.0000
     12 ****        -4.2358  -0.7276  -0.5214 H              1 S1                 0.0000
     13 ****        -4.2447  -0.7321   1.2565 H              1 S1                 0.0000
     14 ****        -0.9393  -1.8494   0.3847 H              1 S1                 0.0000
     15 ****         1.6125   1.1611   0.9170 H              1 S1                 0.0000
     16 ****         1.4801  -0.8203   1.9719 H              1 S1                 0.0000
     17 ****         1.4971  -0.6327  -1.5692 H              1 S1                 0.0000
     18 ****         1.3684   1.1156  -1.6012 H              1 S1                 0.0000
     19 ****         3.5759   0.4075  -2.0315 H              1 S1                 0.0000
     20 ****         3.6662  -0.3757  -0.5817 H              1 S1                 0.0000
     21 ****        -0.8665   2.4514   0.3884 H              1 S1                 0.0000
     22 ****         3.5289   1.2670  -0.6232 H              1 S1                 0.0000
     23 ****         2.7595  -0.8445   1.0261 LP             1 S1                 0.0000
     24 ****         1.4161  -1.6888   0.6402 LP             1 S1                 0.0000
     25 ****        -3.2017   1.6837   0.3729 LP             1 S1                 0.0000
@<TRIPOS>BOND
    1    1    2 1     
    2    1   11 1     
    3    1   12 1     
    4    1   13 1     
    5    2   10 1     
    6    2    3 1     
    7    3    4 2     
    8    3   14 1     
    9    4    5 1     
   10    4    9 1     
   11    5    6 1     
   12    5    7 1     
   13    5   15 1     
   14    6   16 1     
   15    7    8 1     
   16    7   17 1     
   17    7   18 1     
   18    8   19 1     
   19    8   20 1     
   20    8   22 1     
   21    9   10 2     
   22    9   21 1     
   23    6   23 1     
   24    6   24 1     
   25   10   25 1     
@<TRIPOS>SUBSTRUCTURE
      1 S1             1
@<TRIPOS>SET
LONE_PAIRS      STATIC     ATOMS    <user>   **** ""
3 23 24 25
DONOR_HYDROGENS      STATIC     ATOMS    <user>   **** ""
4 16 19 20 22
ATOM$BLUE        STATIC     ATOMS    COLORGROUP SYSTEM
3 23 24 25
ATOM$RED        STATIC     ATOMS    COLORGROUP SYSTEM
4 16 19 20 22
