AV-unprocessed.smi:114|AV-procd|sdf|1117|dock10
  -GOLD-   2262018243D 1   1.00000     0.00000
 Structure written by MMmdl.
 32 34  0  0  0  0  0  0  0  0  1 V2000
  142.7618  137.3281  155.2289 N   0  0  0  0  0  0  0  0  0  0  0  0
  142.8751  136.3860  154.2819 C   0  0  0  0  0  0  0  0  0  0  0  0
  141.8184  135.5718  154.0548 N   0  0  0  0  0  0  0  0  0  0  0  0
  141.8889  134.6196  153.1173 C   0  0  0  0  0  0  0  0  0  0  0  0
  140.7872  133.8493  152.9577 F   0  0  0  0  0  0  0  0  0  0  0  0
  142.9268  134.3416  152.3214 N   0  0  0  0  0  0  0  0  0  0  0  0
  143.9963  135.1587  152.5449 C   0  0  0  0  0  0  0  0  0  0  0  0
  144.0471  136.2031  153.5075 C   0  0  0  0  0  0  0  0  0  0  0  0
  145.2846  136.8291  153.4634 N   0  0  0  0  0  0  0  0  0  0  0  0
  145.9246  136.1898  152.5215 C   0  0  0  0  0  0  0  0  0  0  0  0
  145.2287  135.1641  151.9189 N   0  0  0  0  0  0  0  0  0  0  0  0
  145.7084  134.2867  150.8033 C   0  0  2  0  0  0  0  0  0  0  0  0
  144.6557  134.1142  149.9009 O   0  0  0  0  0  0  0  0  0  0  0  0
  144.2662  132.7431  149.8325 C   0  0  1  0  0  0  0  0  0  0  0  0
  143.6882  132.4001  148.4479 C   0  0  0  0  0  0  0  0  0  0  0  0
  143.8444  133.4961  147.5719 O   0  0  0  0  0  0  0  0  0  0  0  0
  145.5428  131.9886  150.2257 C   0  0  1  0  0  0  0  0  0  0  0  0
  146.4038  131.8481  149.1059 O   0  0  0  0  0  0  0  0  0  0  0  0
  146.1295  132.8961  151.3026 C   0  0  1  0  0  0  0  0  0  0  0  0
  147.5315  132.7365  151.4156 O   0  0  0  0  0  0  0  0  0  0  0  0
  146.5139  134.8430  150.3218 H   0  0  0  0  0  0  0  0  0  0  0  0
  143.5151  132.5471  150.5976 H   0  0  0  0  0  0  0  0  0  0  0  0
  145.3225  130.9935  150.6138 H   0  0  0  0  0  0  0  0  0  0  0  0
  145.6577  132.6806  152.2613 H   0  0  0  0  0  0  0  0  0  0  0  0
  143.5361  137.9486  155.4167 H   0  0  0  0  0  0  0  0  0  0  0  0
  141.9002  137.4202  155.7476 H   0  0  0  0  0  0  0  0  0  0  0  0
  146.9331  136.4531  152.2371 H   0  0  0  0  0  0  0  0  0  0  0  0
  144.1596  131.5110  148.0279 H   0  0  0  0  0  0  0  0  0  0  0  0
  142.6197  132.1973  148.5266 H   0  0  0  0  0  0  0  0  0  0  0  0
  143.0400  133.6126  147.0899 H   0  0  0  0  0  0  0  0  0  0  0  0
  147.1390  131.3125  149.3634 H   0  0  0  0  0  0  0  0  0  0  0  0
  147.7892  131.9874  150.9000 H   0  0  0  0  0  0  0  0  0  0  0  0
  1  2  1  0  0  0  0
  1 25  1  0  0  0  0
  1 26  1  0  0  0  0
  2  8  1  0  0  0  0
  2  3  2  0  0  0  0
  3  4  1  0  0  0  0
  4  5  1  0  0  0  0
  4  6  2  0  0  0  0
  6  7  1  0  0  0  0
  7 11  1  0  0  0  0
  7  8  2  0  0  0  0
  8  9  1  0  0  0  0
  9 10  2  0  0  0  0
 10 11  1  0  0  0  0
 10 27  1  0  0  0  0
 11 12  1  0  0  0  0
 12 21  1  0  0  0  0
 12 19  1  0  0  0  0
 12 13  1  0  0  0  0
 13 14  1  0  0  0  0
 14 22  1  0  0  0  0
 14 15  1  0  0  0  0
 14 17  1  0  0  0  0
 15 16  1  0  0  0  0
 15 28  1  0  0  0  0
 15 29  1  0  0  0  0
 16 30  1  0  0  0  0
 17 23  1  0  0  0  0
 17 18  1  0  0  0  0
 17 19  1  0  0  0  0
 18 31  1  0  0  0  0
 19 24  1  0  0  0  0
 19 20  1  0  0  0  0
 20 32  1  0  0  0  0
M  END
> <s_m_source_file>
AV-unprocessed.smi

> <i_m_source_file_index>
114

> <i_lp_mmshare_version>
43012

> <i_f3d_flags>
0

> <s_epik_input>
RmMobjEpbmMoW05IMl0pYyhjMTIpbltjSF1uMltDQEBIXTNPW0NASF0oW0NIMl1bT0hdKVtDQEBIXShbT0hdKVtDQEBIXTNbT0hd

> <s_epik_cmdline>
J2VwaWtfcHl0aG9uJywgJy1waCcsICc3LjAnLCAnLXRuJywgJzgnLCAnLW1hJywgJzIwMCcsICctbWV0YWxfYmluZGluZycsICctaW1hZScsICc8aW5maWxlLm1hZT4nLCAnLW9tYWUnLCAnPG91dGZpbGUubWFlPic=

> <r_lp_tautomer_probability>
1

> <r_epik_Ionization_Penalty>
1.13199e-05

> <r_epik_Ionization_Penalty_Charging>
0

> <r_epik_Ionization_Penalty_Neutral>
1.13199e-05

> <r_epik_State_Penalty>
-0

> <r_epik_Charging_Adjusted_Penalty>
0

> <i_epik_Tot_Q>
0

> <i_epik_Tot_abs_Q>
0

> <r_epik_Metal_State_Penalty>
-0

> <b_epik_Metal_Only>
0

> <s_epik_Chemistry_Notes>
This compound contains an acetal/aminal-like group ( X-CH(R)-Y where X, Y are N, S, or O) that may be acid/base labile, releasing an aldehyde.

> <s_lp_Force_Field>
OPLS_2005

> <r_lp_Energy>
42.9568

> <b_lp_Chiralities_Consistent>
1

> <s_lp_Variant>
AV-unprocessed.smi:114-11

> <Gold.Version>
5.8.1

> <Gold.Id.Protein>
6NUR|6NUR_protein|mol2

> <Gold.PLP.Fitness>
41.3334

> <Gold.PLP.PLP>
-29.6489

> <Gold.PLP.part.hbond>
-5.2981

> <Gold.PLP.part.metal>
0.0000

> <Gold.PLP.part.buried>
-0.9600

> <Gold.PLP.part.nonpolar>
-25.3129

> <Gold.PLP.part.repulsive>
2.7006

> <Gold.PLP.ligand.clash>
0.0000

> <Gold.PLP.ligand.torsion>
1.2262

> <Gold.PLP.Chemscore.Hbond>
3.7098

> <Gold.PLP.Chemscore.CHOScore>
1.0000

> <Gold.PLP.Chemscore.Metal>
0.0000

> <Gold.Chemscore.Hbonds>
donor molecule, donor type, donor heavy atom, donor atom, acceptor molecule, acceptor atom, score
      L1  H    16    30       P1 10195  1.00
      L1  H    18    31       P1 10747  0.89
      L1  H    20    32       P1 10747  1.00
      P1  H  7918  7932       L1    16  0.82
      L1  C    10    27       P1  7948  1.00

> <Gold.PLP.Chemscore.Internal.Correction>
0.0076

> <Gold.Rescore>
     Score         DG    S(hbond)    S(metal)    S(lipo)     H(rot)  DE(clash)    DE(int)     intcor
      6.34     -10.66       3.02        0.00      46.08       4.03       2.04       2.28       ----

> <Gold.Chemscore.Fitness>
6.3440

> <Gold.Chemscore.DG>
-10.6627

> <Gold.Chemscore.ZeroCoef>
-5.4800

> <Gold.Chemscore.Hbond>
3.0246

> <Gold.Chemscore.Metal>
0.0000

> <Gold.Chemscore.Lipo>
46.0809

> <Gold.Chemscore.Internal_Hbond>
0.0000

> <Gold.Chemscore.DEClash>
2.0418

> <Gold.Chemscore.DEInternal>
2.2768

> <Gold.Chemscore.Rot>
4.0277

> <Gold.Chemscore.Internal.Correction>
   9.000000E+99

> <Gold.Chemscore.Hbonds>
donor molecule, donor type, donor heavy atom, donor atom, acceptor molecule, acceptor atom, score
      L1  H    16    30       P1 10195  0.90
      L1  H    18    31       P1 10747  0.86
      L1  H    20    32       P1 10747  0.96
      P1  H  7918  7932       L1    16  0.22

> <Gold.Chemscore.Hbond.Weighted>
-10.1022

> <Gold.Chemscore.Metal.Weighted>
-0.0000

> <Gold.Chemscore.Lipo.Weighted>
-5.3915

> <Gold.Chemscore.Internal_Hbond.Weighted>
0.0000

> <Gold.Chemscore.DEClash.Weighted>
2.0418

> <Gold.Chemscore.DEInternal.Weighted>
2.2768

> <Gold.Chemscore.Rot.Weighted>
10.3110

> <Gold.Chemscore.Internal.Correction.Weighted>
   9.000000E+99

> <Gold.Protein.RotatedTorsions>
[ 6907 6896 6895 6894 ] final -169.22 input  -60.11 | X-H torsion
[ 7974 7965 7964 7962 ] final -137.41 input  175.53 | X-H torsion
[ 8008 7997 7996 7995 ] final  163.25 input   59.86 | X-H torsion
[ 10167 10162 10161 10158 ] final  151.62 input  -65.29 | X-H torsion
[ 10718 10713 10712 10709 ] final  -59.36 input   66.30 | X-H torsion
[ 10763 10752 10751 10750 ] final    8.33 input  -60.55 | X-H torsion
[ 11005 11000 10999 10996 ] final -136.02 input  -57.11 | X-H torsion

> <Gold.Protein.ActiveResidues>
 VAL166  LYS551  ARG553  GLY616  TRP617  ASP618  TYR619  PRO620  LYS621  CYS622 
 ASP623  PHE694  ASN695  SER759  ASP760  ASP761  ALA762  ILE779  LEU786  VAL792 
 PHE793  MET794  SER795  GLU796  ALA797  LYS798  CYS799  TRP800  GLU811  SER814 

> <Gold.Protein.RotatedAtoms>
  151.4881  133.3531  159.2848 H   0  0  0  0  0  0  0  0  0  0  0  0  # atno 6907 bound_to 6896
  150.8852  134.8251  159.7265 H   0  0  0  0  0  0  0  0  0  0  0  0  # atno 6908 bound_to 6896
  152.4788  134.4784  159.9709 H   0  0  0  0  0  0  0  0  0  0  0  0  # atno 6909 bound_to 6896
  144.8844  140.6554  143.5185 H   0  0  0  0  0  0  0  0  0  0  0  0  # atno 7974 bound_to 7965
  156.1971  140.1728  156.7975 H   0  0  0  0  0  0  0  0  0  0  0  0  # atno 8008 bound_to 7997
  154.5544  140.0711  156.8751 H   0  0  0  0  0  0  0  0  0  0  0  0  # atno 8009 bound_to 7997
  155.2967  140.3359  155.4252 H   0  0  0  0  0  0  0  0  0  0  0  0  # atno 8010 bound_to 7997
  139.4839  144.5426  151.7539 H   0  0  0  0  0  0  0  0  0  0  0  0  # atno 10167 bound_to 10162
  156.1067  130.4179  150.0704 H   0  0  0  0  0  0  0  0  0  0  0  0  # atno 10718 bound_to 10713
  153.2263  135.6887  153.7941 H   0  0  0  0  0  0  0  0  0  0  0  0  # atno 10763 bound_to 10752
  153.7122  135.3280  155.3249 H   0  0  0  0  0  0  0  0  0  0  0  0  # atno 10764 bound_to 10752
  154.8293  135.4593  154.1130 H   0  0  0  0  0  0  0  0  0  0  0  0  # atno 10765 bound_to 10752
  140.8844  134.1891  157.4570 H   0  0  0  0  0  0  0  0  0  0  0  0  # atno 11005 bound_to 11000
  145.3895  139.1619  143.4237 LP  0  0  0  0  0  0  0  0  0  0  0  0  # atno 17320 bound_to 7965
  146.3015  140.3983  142.8702 LP  0  0  0  0  0  0  0  0  0  0  0  0  # atno 17321 bound_to 7965
  140.4968  144.1229  150.5962 LP  0  0  0  0  0  0  0  0  0  0  0  0  # atno 17342 bound_to 10162
  140.4108  143.2657  151.9834 LP  0  0  0  0  0  0  0  0  0  0  0  0  # atno 17343 bound_to 10162
  156.8678  130.9514  151.3612 LP  0  0  0  0  0  0  0  0  0  0  0  0  # atno 17370 bound_to 10713
  157.6245  130.8681  149.9165 LP  0  0  0  0  0  0  0  0  0  0  0  0  # atno 17371 bound_to 10713
  139.8723  134.9831  156.5185 LP  0  0  0  0  0  0  0  0  0  0  0  0  # atno 17394 bound_to 11000
  140.8423  133.8196  155.9087 LP  0  0  0  0  0  0  0  0  0  0  0  0  # atno 17395 bound_to 11000

$$$$
