AV-unprocessed.smi:777|AV-procd|sdf|3702|dock5
  -GOLD-   22720 1123D 1   1.00000     0.00000
 Structure written by MMmdl.
 37 38  0  0  0  0  0  0  0  0  2 V2000
  146.6530  137.2143  157.9627 C   0  0  0  0  0  0  0  0  0  0  0  0
  147.6796  136.5529  158.9057 C   0  0  1  0  0  0  0  0  0  0  0  0
  149.0210  137.3028  158.9653 C   0  0  0  0  0  0  0  0  0  0  0  0
  149.4659  137.6950  160.0436 O   0  0  0  0  0  0  0  0  0  0  0  0
  149.6279  137.4793  157.7765 N   0  0  0  0  0  0  0  0  0  0  0  0
  150.9647  137.9741  157.4089 C   0  0  0  0  0  0  0  0  0  0  0  0
  151.9704  137.0333  158.1167 C   0  0  0  0  0  0  0  0  0  0  0  0
  151.9054  136.9341  159.3625 O   0  0  0  0  0  0  0  0  0  0  0  0
  152.8241  136.4518  157.4089 O   0  5  0  0  0  0  0  0  0  0  0  0
  151.2762  138.0474  155.8779 C   0  0  0  0  0  0  0  0  0  0  0  0
  150.4793  139.1347  155.1285 C   0  0  0  0  0  0  0  0  0  0  0  0
  150.6568  140.5110  155.7792 C   0  0  0  0  0  0  0  0  0  0  0  0
  150.2774  140.4607  157.2632 C   0  0  0  0  0  0  0  0  0  0  0  0
  151.1062  139.4021  158.0117 C   0  0  0  0  0  0  0  0  0  0  0  0
  147.1477  136.3674  160.2523 N   0  0  0  0  0  0  0  0  0  0  0  0
  146.9199  135.1790  160.9170 C   0  0  0  0  0  0  0  0  0  0  0  0
  146.4716  135.4873  162.1691 C   0  0  0  0  0  0  0  0  0  0  0  0
  146.4696  136.9094  162.1859 C   0  0  0  0  0  0  0  0  0  0  0  0
  146.8800  137.4329  161.0429 N   0  0  0  0  0  0  0  0  0  0  0  0
  147.0392  137.2807  156.9450 H   0  0  0  0  0  0  0  0  0  0  0  0
  146.3928  138.2239  158.2838 H   0  0  0  0  0  0  0  0  0  0  0  0
  145.7314  136.6331  157.9232 H   0  0  0  0  0  0  0  0  0  0  0  0
  147.8913  135.5601  158.5052 H   0  0  0  0  0  0  0  0  0  0  0  0
  149.0982  137.1499  156.9833 H   0  0  0  0  0  0  0  0  0  0  0  0
  152.3357  138.2746  155.7479 H   0  0  0  0  0  0  0  0  0  0  0  0
  151.1384  137.0827  155.3901 H   0  0  0  0  0  0  0  0  0  0  0  0
  150.8031  139.1743  154.0883 H   0  0  0  0  0  0  0  0  0  0  0  0
  149.4193  138.8842  155.1049 H   0  0  0  0  0  0  0  0  0  0  0  0
  151.6925  140.8369  155.6751 H   0  0  0  0  0  0  0  0  0  0  0  0
  150.0439  141.2494  155.2615 H   0  0  0  0  0  0  0  0  0  0  0  0
  150.4344  141.4395  157.7167 H   0  0  0  0  0  0  0  0  0  0  0  0
  149.2136  140.2412  157.3653 H   0  0  0  0  0  0  0  0  0  0  0  0
  150.8109  139.4097  159.0624 H   0  0  0  0  0  0  0  0  0  0  0  0
  152.1538  139.7083  157.9928 H   0  0  0  0  0  0  0  0  0  0  0  0
  147.0987  134.2222  160.4490 H   0  0  0  0  0  0  0  0  0  0  0  0
  146.1951  134.8012  162.9557 H   0  0  0  0  0  0  0  0  0  0  0  0
  146.1892  137.5723  162.9910 H   0  0  0  0  0  0  0  0  0  0  0  0
  1  2  1  0  0  0  0
  1 20  1  0  0  0  0
  1 21  1  0  0  0  0
  1 22  1  0  0  0  0
  2  3  1  0  0  0  0
  2 15  1  0  0  0  0
  2 23  1  0  0  0  0
  3  4  2  0  0  0  0
  3  5  1  0  0  0  0
  5  6  1  0  0  0  0
  5 24  1  0  0  0  0
  6 14  1  0  0  0  0
  6  7  1  0  0  0  0
  6 10  1  0  0  0  0
  7  8  2  0  0  0  0
  7  9  1  0  0  0  0
 10 11  1  0  0  0  0
 10 25  1  0  0  0  0
 10 26  1  0  0  0  0
 11 12  1  0  0  0  0
 11 27  1  0  0  0  0
 11 28  1  0  0  0  0
 12 13  1  0  0  0  0
 12 29  1  0  0  0  0
 12 30  1  0  0  0  0
 13 14  1  0  0  0  0
 13 31  1  0  0  0  0
 13 32  1  0  0  0  0
 14 33  1  0  0  0  0
 14 34  1  0  0  0  0
 15 19  1  0  0  0  0
 15 16  1  0  0  0  0
 16 17  2  0  0  0  0
 16 35  1  0  0  0  0
 17 18  1  0  0  0  0
 17 36  1  0  0  0  0
 18 19  2  0  0  0  0
 18 37  1  0  0  0  0
M  CHG  1   9  -1
M  END
> <s_m_source_file>
AV-unprocessed.smi

> <i_m_source_file_index>
777

> <i_lp_mmshare_version>
43012

> <i_f3d_flags>
0

> <s_epik_input>
bjFbY0hdW2NIXVtjSF1uMVtDQEhdKFtDSDNdKUMoPU8pW05IXUMyKEMoPU8pW09IXSlbQ0gyXVtDSDJdW0NIMl1bQ0gyXVtDSDJdMg==

> <s_epik_cmdline>
J2VwaWtfcHl0aG9uJywgJy1waCcsICc3LjAnLCAnLXRuJywgJzgnLCAnLW1hJywgJzIwMCcsICctbWV0YWxfYmluZGluZycsICctaW1hZScsICc8aW5maWxlLm1hZT4nLCAnLW9tYWUnLCAnPG91dGZpbGUubWFlPic=

> <r_lp_tautomer_probability>
1

> <r_epik_Ionization_Penalty>
0.000371068

> <r_epik_Ionization_Penalty_Charging>
0.000323848

> <r_epik_Ionization_Penalty_Neutral>
4.72198e-05

> <r_epik_State_Penalty>
0.000195685

> <r_epik_Charging_Adjusted_Penalty>
0.000519533

> <i_epik_Tot_Q>
-1

> <i_epik_Tot_abs_Q>
1

> <r_epik_Metal_State_Penalty>
-0

> <b_epik_Metal_Only>
0

> <s_lp_Force_Field>
OPLS_2005

> <r_lp_Energy>
12.5044

> <b_lp_Chiralities_Consistent>
1

> <s_lp_Variant>
AV-unprocessed.smi:777-2

> <Gold.Version>
5.8.1

> <Gold.Id.Protein>
6NUR|6NUR_protein|mol2

> <Gold.PLP.Fitness>
48.1162

> <Gold.PLP.PLP>
-31.0512

> <Gold.PLP.part.hbond>
-5.0000

> <Gold.PLP.part.metal>
0.0000

> <Gold.PLP.part.buried>
-3.8647

> <Gold.PLP.part.nonpolar>
-22.4857

> <Gold.PLP.part.repulsive>
0.0685

> <Gold.PLP.ligand.clash>
0.0000

> <Gold.PLP.ligand.torsion>
0.0969

> <Gold.PLP.Chemscore.Hbond>
5.6944

> <Gold.PLP.Chemscore.CHOScore>
0.0000

> <Gold.PLP.Chemscore.Metal>
0.0000

> <Gold.Chemscore.Hbonds>
donor molecule, donor type, donor heavy atom, donor atom, acceptor molecule, acceptor atom, score
      P1  H  6896  6909       L1     8  2.00
      P1  H  6931  6943       L1     4  0.14
      P1  H  6934  6947       L1    19  1.00

> <Gold.PLP.Chemscore.Internal.Correction>
0.1755

> <Gold.Rescore>
     Score         DG    S(hbond)    S(metal)    S(lipo)     H(rot)  DE(clash)    DE(int)     intcor
     13.92     -18.18       3.21        0.00      60.16       1.98       0.01       4.25       ----

> <Gold.Chemscore.Fitness>
13.9194

> <Gold.Chemscore.DG>
-18.1841

> <Gold.Chemscore.ZeroCoef>
-5.4800

> <Gold.Chemscore.Hbond>
3.2119

> <Gold.Chemscore.Metal>
0.0000

> <Gold.Chemscore.Lipo>
60.1583

> <Gold.Chemscore.Internal_Hbond>
0.0000

> <Gold.Chemscore.DEClash>
0.0130

> <Gold.Chemscore.DEInternal>
4.2518

> <Gold.Chemscore.Rot>
1.9774

> <Gold.Chemscore.Internal.Correction>
   9.000000E+99

> <Gold.Chemscore.Hbonds>
donor molecule, donor type, donor heavy atom, donor atom, acceptor molecule, acceptor atom, score
      P1  H  6896  6909       L1     8  0.88
      P1  H  6931  6943       L1     4  0.15
      P1  H  6934  6947       L1    19  0.97
      P1  H 10752 10764       L1     9  0.02

> <Gold.Chemscore.Hbond.Weighted>
-10.7276

> <Gold.Chemscore.Metal.Weighted>
-0.0000

> <Gold.Chemscore.Lipo.Weighted>
-7.0385

> <Gold.Chemscore.Internal_Hbond.Weighted>
0.0000

> <Gold.Chemscore.DEClash.Weighted>
0.0130

> <Gold.Chemscore.DEInternal.Weighted>
4.2518

> <Gold.Chemscore.Rot.Weighted>
5.0620

> <Gold.Chemscore.Internal.Correction.Weighted>
   9.000000E+99

> <Gold.Protein.RotatedTorsions>
[ 6907 6896 6895 6894 ] final  133.97 input  -60.11 | X-H torsion
[ 7974 7965 7964 7962 ] final  -56.48 input  175.53 | X-H torsion
[ 8008 7997 7996 7995 ] final  -86.76 input   59.86 | X-H torsion
[ 10167 10162 10161 10158 ] final   93.35 input  -65.29 | X-H torsion
[ 10718 10713 10712 10709 ] final -116.37 input   66.30 | X-H torsion
[ 10763 10752 10751 10750 ] final   14.05 input  -60.55 | X-H torsion
[ 11005 11000 10999 10996 ] final  107.19 input  -57.11 | X-H torsion

> <Gold.Protein.ActiveResidues>
 VAL166  LYS551  ARG553  GLY616  TRP617  ASP618  TYR619  PRO620  LYS621  CYS622 
 ASP623  PHE694  ASN695  SER759  ASP760  ASP761  ALA762  ILE779  LEU786  VAL792 
 PHE793  MET794  SER795  GLU796  ALA797  LYS798  CYS799  TRP800  GLU811  SER814 

> <Gold.Protein.RotatedAtoms>
  152.3163  133.5806  159.5714 H   0  0  0  0  0  0  0  0  0  0  0  0  # atno 6907 bound_to 6896
  150.7348  134.0077  159.3668 H   0  0  0  0  0  0  0  0  0  0  0  0  # atno 6908 bound_to 6896
  151.7966  135.0721  160.0445 H   0  0  0  0  0  0  0  0  0  0  0  0  # atno 6909 bound_to 6896
  145.8622  140.8277  142.9931 H   0  0  0  0  0  0  0  0  0  0  0  0  # atno 7974 bound_to 7965
  154.6555  140.0574  157.0004 H   0  0  0  0  0  0  0  0  0  0  0  0  # atno 8008 bound_to 7997
  155.1306  140.3256  155.4456 H   0  0  0  0  0  0  0  0  0  0  0  0  # atno 8009 bound_to 7997
  156.2595  140.1981  156.6426 H   0  0  0  0  0  0  0  0  0  0  0  0  # atno 8010 bound_to 7997
  139.8188  144.6740  150.9545 H   0  0  0  0  0  0  0  0  0  0  0  0  # atno 10167 bound_to 10162
  156.0959  130.6132  150.9027 H   0  0  0  0  0  0  0  0  0  0  0  0  # atno 10718 bound_to 10713
  153.1661  135.6804  153.8674 H   0  0  0  0  0  0  0  0  0  0  0  0  # atno 10763 bound_to 10752
  153.8053  135.3150  155.3396 H   0  0  0  0  0  0  0  0  0  0  0  0  # atno 10764 bound_to 10752
  154.7966  135.4803  154.0266 H   0  0  0  0  0  0  0  0  0  0  0  0  # atno 10765 bound_to 10752
  139.8824  134.9393  156.5781 H   0  0  0  0  0  0  0  0  0  0  0  0  # atno 11005 bound_to 11000
  144.6726  140.1113  143.7455 LP  0  0  0  0  0  0  0  0  0  0  0  0  # atno 17320 bound_to 7965
  145.9235  139.2560  143.1367 LP  0  0  0  0  0  0  0  0  0  0  0  0  # atno 17321 bound_to 7965
  140.7814  143.4112  151.0990 LP  0  0  0  0  0  0  0  0  0  0  0  0  # atno 17342 bound_to 10162
  139.7774  143.8405  152.3131 LP  0  0  0  0  0  0  0  0  0  0  0  0  # atno 17343 bound_to 10162
  157.6120  131.0936  150.8778 LP  0  0  0  0  0  0  0  0  0  0  0  0  # atno 17370 bound_to 10713
  156.8916  130.5215  149.5286 LP  0  0  0  0  0  0  0  0  0  0  0  0  # atno 17371 bound_to 10713
  140.8047  133.8477  155.8758 LP  0  0  0  0  0  0  0  0  0  0  0  0  # atno 17394 bound_to 11000
  140.9560  134.1717  157.4691 LP  0  0  0  0  0  0  0  0  0  0  0  0  # atno 17395 bound_to 11000

$$$$
