AV-unprocessed.smi:113|AV-procd|sdf|1094|dock9
  -GOLD-   2262018203D 1   1.00000     0.00000
 Structure written by MMmdl.
 52 55  0  0  0  0  0  0  0  0  1 V2000
  148.0108  138.8457  158.3006 C   0  0  0  0  0  0  0  0  0  0  0  0
  147.7874  137.5068  158.9725 C   0  0  0  0  0  0  0  0  0  0  0  0
  147.7122  136.3247  158.2145 C   0  0  0  0  0  0  0  0  0  0  0  0
  147.4963  135.0957  158.8793 C   0  0  0  0  0  0  0  0  0  0  0  0
  147.4056  133.7781  158.1009 C   0  0  0  0  0  0  0  0  0  0  0  0
  147.4512  133.8701  156.6485 N   0  0  0  0  0  0  0  0  0  0  0  0
  148.6303  133.4346  155.9947 C   0  0  0  0  0  0  0  0  0  0  0  0
  149.5808  132.9645  156.6236 O   0  0  0  0  0  0  0  0  0  0  0  0
  148.6365  133.6090  154.5398 C   0  0  0  0  0  0  0  0  0  0  0  0
  149.8734  133.1727  153.7706 C   0  0  0  0  0  0  0  0  0  0  0  0
  147.5619  134.1571  153.9235 C   0  0  0  0  0  0  0  0  0  0  0  0
  146.4204  134.5693  154.5896 N   0  0  0  0  0  0  0  0  0  0  0  0
  145.2739  135.2053  153.8437 C   0  0  1  0  0  0  0  0  0  0  0  0
  145.7285  136.4707  153.1290 C   0  0  0  0  0  0  0  0  0  0  0  0
  144.7380  136.5398  151.9831 C   0  0  2  0  0  0  0  0  0  0  0  0
  143.6038  137.2962  152.3610 O   0  0  0  0  0  0  0  0  0  0  0  0
  144.3432  135.0689  151.7381 C   0  0  1  0  0  0  0  0  0  0  0  0
  144.9798  134.4636  150.4769 C   0  0  0  0  0  0  0  0  0  0  0  0
  144.3055  134.9127  149.3208 O   0  0  0  0  0  0  0  0  0  0  0  0
  144.8292  134.3297  152.8582 O   0  0  0  0  0  0  0  0  0  0  0  0
  146.3447  134.4535  155.9917 C   0  0  0  0  0  0  0  0  0  0  0  0
  145.3620  134.8673  156.6118 O   0  0  0  0  0  0  0  0  0  0  0  0
  147.3627  135.1195  160.2938 C   0  0  0  0  0  0  0  0  0  0  0  0
  147.1410  133.9340  161.0357 C   0  0  0  0  0  0  0  0  0  0  0  0
  147.0106  133.9789  162.4350 C   0  0  0  0  0  0  0  0  0  0  0  0
  147.1015  135.2083  163.1078 C   0  0  0  0  0  0  0  0  0  0  0  0
  147.3215  136.3906  162.3785 C   0  0  0  0  0  0  0  0  0  0  0  0
  147.4541  136.3700  160.9736 C   0  0  0  0  0  0  0  0  0  0  0  0
  147.6619  137.5306  160.3135 N   0  0  0  0  0  0  0  0  0  0  0  0
  148.3745  138.7184  157.2805 H   0  0  0  0  0  0  0  0  0  0  0  0
  148.7457  139.4358  158.8492 H   0  0  0  0  0  0  0  0  0  0  0  0
  147.0775  139.4082  158.2631 H   0  0  0  0  0  0  0  0  0  0  0  0
  147.8186  136.3770  157.1415 H   0  0  0  0  0  0  0  0  0  0  0  0
  148.2051  133.1024  158.4086 H   0  0  0  0  0  0  0  0  0  0  0  0
  146.4885  133.2484  158.3641 H   0  0  0  0  0  0  0  0  0  0  0  0
  149.7688  133.3490  152.6997 H   0  0  0  0  0  0  0  0  0  0  0  0
  150.0564  132.1074  153.9165 H   0  0  0  0  0  0  0  0  0  0  0  0
  150.7506  133.7217  154.1148 H   0  0  0  0  0  0  0  0  0  0  0  0
  147.6061  134.2882  152.8518 H   0  0  0  0  0  0  0  0  0  0  0  0
  144.4596  135.3704  154.5514 H   0  0  0  0  0  0  0  0  0  0  0  0
  145.7229  137.3344  153.7952 H   0  0  0  0  0  0  0  0  0  0  0  0
  146.7381  136.3247  152.7416 H   0  0  0  0  0  0  0  0  0  0  0  0
  145.1808  137.0092  151.1039 H   0  0  0  0  0  0  0  0  0  0  0  0
  143.4494  137.9591  151.7054 H   0  0  0  0  0  0  0  0  0  0  0  0
  143.2589  134.9522  151.6925 H   0  0  0  0  0  0  0  0  0  0  0  0
  146.0377  134.7203  150.4107 H   0  0  0  0  0  0  0  0  0  0  0  0
  144.9129  133.3757  150.5083 H   0  0  0  0  0  0  0  0  0  0  0  0
  143.3751  134.8250  149.4610 H   0  0  0  0  0  0  0  0  0  0  0  0
  147.0661  132.9731  160.5502 H   0  0  0  0  0  0  0  0  0  0  0  0
  146.8407  133.0689  162.9916 H   0  0  0  0  0  0  0  0  0  0  0  0
  147.0022  135.2461  164.1827 H   0  0  0  0  0  0  0  0  0  0  0  0
  147.3887  137.3303  162.9070 H   0  0  0  0  0  0  0  0  0  0  0  0
  1  2  1  0  0  0  0
  1 30  1  0  0  0  0
  1 31  1  0  0  0  0
  1 32  1  0  0  0  0
  2 29  1  0  0  0  0
  2  3  2  0  0  0  0
  3  4  1  0  0  0  0
  3 33  1  0  0  0  0
  4  5  1  0  0  0  0
  4 23  2  0  0  0  0
  5  6  1  0  0  0  0
  5 34  1  0  0  0  0
  5 35  1  0  0  0  0
  6 21  1  0  0  0  0
  6  7  1  0  0  0  0
  7  8  2  0  0  0  0
  7  9  1  0  0  0  0
  9 10  1  0  0  0  0
  9 11  2  0  0  0  0
 10 36  1  0  0  0  0
 10 37  1  0  0  0  0
 10 38  1  0  0  0  0
 11 12  1  0  0  0  0
 11 39  1  0  0  0  0
 12 13  1  0  0  0  0
 12 21  1  0  0  0  0
 13 20  1  0  0  0  0
 13 14  1  0  0  0  0
 13 40  1  0  0  0  0
 14 15  1  0  0  0  0
 14 41  1  0  0  0  0
 14 42  1  0  0  0  0
 15 16  1  0  0  0  0
 15 17  1  0  0  0  0
 15 43  1  0  0  0  0
 16 44  1  0  0  0  0
 17 18  1  0  0  0  0
 17 20  1  0  0  0  0
 17 45  1  0  0  0  0
 18 19  1  0  0  0  0
 18 46  1  0  0  0  0
 18 47  1  0  0  0  0
 19 48  1  0  0  0  0
 21 22  2  0  0  0  0
 23 28  1  0  0  0  0
 23 24  1  0  0  0  0
 24 25  2  0  0  0  0
 24 49  1  0  0  0  0
 25 26  1  0  0  0  0
 25 50  1  0  0  0  0
 26 27  2  0  0  0  0
 26 51  1  0  0  0  0
 27 28  1  0  0  0  0
 27 52  1  0  0  0  0
 28 29  2  0  0  0  0
M  END
> <s_m_source_file>
AV-unprocessed.smi

> <i_m_source_file_index>
113

> <i_lp_mmshare_version>
43012

> <i_f3d_flags>
0

> <s_epik_input>
W2NIXTFbY0hdW2NIXVtjSF1jKGMxMiluYyhbQ0gzXSlbY0hdYzJbQ0gyXW4zYyg9TyljKFtDSDNdKVtjSF1uKGMzPU8pW0NAQEhdNFtDSDJdW0NAQEhdKFtPSF0pW0NASF0oTzQpW0NIMl1bT0hd

> <s_epik_cmdline>
J2VwaWtfcHl0aG9uJywgJy1waCcsICc3LjAnLCAnLXRuJywgJzgnLCAnLW1hJywgJzIwMCcsICctbWV0YWxfYmluZGluZycsICctaW1hZScsICc8aW5maWxlLm1hZT4nLCAnLW9tYWUnLCAnPG91dGZpbGUubWFlPic=

> <r_lp_tautomer_probability>
1

> <r_epik_Ionization_Penalty>
0.214728

> <r_epik_Ionization_Penalty_Charging>
3.04883e-08

> <r_epik_Ionization_Penalty_Neutral>
0.214728

> <r_epik_State_Penalty>
0.204913

> <r_epik_Charging_Adjusted_Penalty>
0.204913

> <i_epik_Tot_Q>
0

> <i_epik_Tot_abs_Q>
0

> <r_epik_Metal_State_Penalty>
0.000244761

> <b_epik_Metal_Only>
0

> <s_epik_Chemistry_Notes>
This compound contains an acetal/aminal-like group ( X-CH(R)-Y where X, Y are N, S, or O) that may be acid/base labile, releasing an aldehyde.

> <s_lp_Force_Field>
OPLS_2005

> <r_lp_Energy>
39.8803

> <b_lp_Chiralities_Consistent>
1

> <s_lp_Variant>
AV-unprocessed.smi:113-4

> <Gold.Version>
5.8.1

> <Gold.Id.Protein>
6NUR|6NUR_protein|mol2

> <Gold.PLP.Fitness>
48.2497

> <Gold.PLP.PLP>
-40.5392

> <Gold.PLP.part.hbond>
-6.0000

> <Gold.PLP.part.metal>
0.0000

> <Gold.PLP.part.buried>
-6.5405

> <Gold.PLP.part.nonpolar>
-29.7305

> <Gold.PLP.part.repulsive>
0.0998

> <Gold.PLP.ligand.clash>
0.0000

> <Gold.PLP.ligand.torsion>
0.2713

> <Gold.PLP.Chemscore.Hbond>
2.7387

> <Gold.PLP.Chemscore.CHOScore>
0.0000

> <Gold.PLP.Chemscore.Metal>
0.0000

> <Gold.Chemscore.Hbonds>
donor molecule, donor type, donor heavy atom, donor atom, acceptor molecule, acceptor atom, score
      L1  H    16    44       P1 10171  0.94
      L1  H    19    48       P1 10186  0.10
      P1  H  6931  6943       L1    29  0.19
      P1  H  6934  6947       L1    29  0.85
      L1  C    11    39       P1  7948  0.81

> <Gold.PLP.Chemscore.Internal.Correction>
0.0368

> <Gold.Rescore>
     Score         DG    S(hbond)    S(metal)    S(lipo)     H(rot)  DE(clash)    DE(int)     intcor
     14.12     -14.46       2.00        0.00      84.19       2.95       0.00       0.34       ----

> <Gold.Chemscore.Fitness>
14.1153

> <Gold.Chemscore.DG>
-14.4642

> <Gold.Chemscore.ZeroCoef>
-5.4800

> <Gold.Chemscore.Hbond>
1.9993

> <Gold.Chemscore.Metal>
0.0000

> <Gold.Chemscore.Lipo>
84.1926

> <Gold.Chemscore.Internal_Hbond>
0.0000

> <Gold.Chemscore.DEClash>
0.0048

> <Gold.Chemscore.DEInternal>
0.3441

> <Gold.Chemscore.Rot>
2.9469

> <Gold.Chemscore.Internal.Correction>
   9.000000E+99

> <Gold.Chemscore.Hbonds>
donor molecule, donor type, donor heavy atom, donor atom, acceptor molecule, acceptor atom, score
      L1  H    16    44       P1 10171  0.76
      L1  H    19    48       P1 10186  0.12
      P1  H  6931  6943       L1    29  0.01
      P1  H  6934  6947       L1    29  0.72

> <Gold.Chemscore.Hbond.Weighted>
-6.6776

> <Gold.Chemscore.Metal.Weighted>
-0.0000

> <Gold.Chemscore.Lipo.Weighted>
-9.8505

> <Gold.Chemscore.Internal_Hbond.Weighted>
0.0000

> <Gold.Chemscore.DEClash.Weighted>
0.0048

> <Gold.Chemscore.DEInternal.Weighted>
0.3441

> <Gold.Chemscore.Rot.Weighted>
7.5439

> <Gold.Chemscore.Internal.Correction.Weighted>
   9.000000E+99

> <Gold.Protein.RotatedTorsions>
[ 6907 6896 6895 6894 ] final  135.42 input  -60.11 | X-H torsion
[ 7974 7965 7964 7962 ] final  -53.96 input  175.53 | X-H torsion
[ 8008 7997 7996 7995 ] final -132.68 input   59.86 | X-H torsion
[ 10167 10162 10161 10158 ] final -153.23 input  -65.29 | X-H torsion
[ 10718 10713 10712 10709 ] final   75.70 input   66.30 | X-H torsion
[ 10763 10752 10751 10750 ] final   83.92 input  -60.55 | X-H torsion
[ 11005 11000 10999 10996 ] final   -3.48 input  -57.11 | X-H torsion

> <Gold.Protein.ActiveResidues>
 VAL166  LYS551  ARG553  GLY616  TRP617  ASP618  TYR619  PRO620  LYS621  CYS622 
 ASP623  PHE694  ASN695  SER759  ASP760  ASP761  ALA762  ILE779  LEU786  VAL792 
 PHE793  MET794  SER795  GLU796  ALA797  LYS798  CYS799  TRP800  GLU811  SER814 

> <Gold.Protein.RotatedAtoms>
  152.3006  133.5652  159.5616 H   0  0  0  0  0  0  0  0  0  0  0  0  # atno 6907 bound_to 6896
  150.7276  134.0296  159.3738 H   0  0  0  0  0  0  0  0  0  0  0  0  # atno 6908 bound_to 6896
  151.8196  135.0656  160.0474 H   0  0  0  0  0  0  0  0  0  0  0  0  # atno 6909 bound_to 6896
  145.8910  140.8071  142.9791 H   0  0  0  0  0  0  0  0  0  0  0  0  # atno 7974 bound_to 7965
  155.3330  140.0468  157.3043 H   0  0  0  0  0  0  0  0  0  0  0  0  # atno 8008 bound_to 7997
  154.5318  140.2259  155.8757 H   0  0  0  0  0  0  0  0  0  0  0  0  # atno 8009 bound_to 7997
  156.1796  140.3077  155.9130 H   0  0  0  0  0  0  0  0  0  0  0  0  # atno 8010 bound_to 7997
  139.7114  143.9103  152.2469 H   0  0  0  0  0  0  0  0  0  0  0  0  # atno 10167 bound_to 10162
  157.6645  130.9739  150.1392 H   0  0  0  0  0  0  0  0  0  0  0  0  # atno 10718 bound_to 10713
  153.1334  135.4673  154.9385 H   0  0  0  0  0  0  0  0  0  0  0  0  # atno 10763 bound_to 10752
  154.7684  135.3151  154.8241 H   0  0  0  0  0  0  0  0  0  0  0  0  # atno 10764 bound_to 10752
  153.8778  135.6897  153.4823 H   0  0  0  0  0  0  0  0  0  0  0  0  # atno 10765 bound_to 10752
  140.6697  133.9247  155.8487 H   0  0  0  0  0  0  0  0  0  0  0  0  # atno 11005 bound_to 11000
  144.6730  140.1529  143.7428 LP  0  0  0  0  0  0  0  0  0  0  0  0  # atno 17320 bound_to 7965
  145.8909  139.2375  143.1550 LP  0  0  0  0  0  0  0  0  0  0  0  0  # atno 17321 bound_to 7965
  139.8973  144.6932  150.8704 LP  0  0  0  0  0  0  0  0  0  0  0  0  # atno 17342 bound_to 10162
  140.7734  143.3540  151.1957 LP  0  0  0  0  0  0  0  0  0  0  0  0  # atno 17343 bound_to 10162
  156.2219  130.3674  149.8546 LP  0  0  0  0  0  0  0  0  0  0  0  0  # atno 17370 bound_to 10713
  156.6397  130.8699  151.3511 LP  0  0  0  0  0  0  0  0  0  0  0  0  # atno 17371 bound_to 10713
  141.0401  134.0633  157.3912 LP  0  0  0  0  0  0  0  0  0  0  0  0  # atno 17394 bound_to 11000
  139.8985  135.0155  156.7153 LP  0  0  0  0  0  0  0  0  0  0  0  0  # atno 17395 bound_to 11000

$$$$
