AV-unprocessed.smi:1805|AV-procd|sdf|7297|dock8
  -GOLD-   22720 8553D 1   1.00000     0.00000
 Structure written by MMmdl.
 29 30  0  0  0  0  0  0  0  0  1 V2000
  150.5426  140.7861  155.1990 O   0  0  0  0  0  0  0  0  0  0  0  0
  149.8285  141.6944  155.6243 C   0  0  0  0  0  0  0  0  0  0  0  0
  150.2496  142.6287  156.4880 N   0  0  0  0  0  0  0  0  0  0  0  0
  151.5908  142.7023  157.0567 C   0  0  0  0  0  0  0  0  0  0  0  0
  151.5482  142.7769  158.5916 C   0  0  2  0  0  0  0  0  0  0  0  0
  151.3012  144.1842  159.1334 C   0  0  0  0  0  0  0  0  0  0  0  0
  151.9397  144.1581  160.5143 C   0  0  0  0  0  0  0  0  0  0  0  0
  152.7785  142.8772  160.5153 C   0  0  0  0  0  0  0  0  0  0  0  0
  152.8081  142.4564  159.1596 O   0  0  0  0  0  0  0  0  0  0  0  0
  148.5410  141.8837  155.2920 N   0  0  0  0  0  0  0  0  0  0  0  0
  147.7587  141.1071  154.4001 C   0  0  0  0  0  0  0  0  0  0  0  0
  148.2537  140.0279  153.6188 C   0  0  0  0  0  0  0  0  0  0  0  0
  147.2958  139.4863  152.8800 N   0  0  0  0  0  0  0  0  0  0  0  0
  146.1941  140.2097  153.1824 N   0  0  0  0  0  0  0  0  0  0  0  0
  146.4285  141.2072  154.1030 C   0  0  0  0  0  0  0  0  0  0  0  0
  145.2993  140.0127  152.7572 H   0  0  0  0  0  0  0  0  0  0  0  0
  149.5925  143.3365  156.7813 H   0  0  0  0  0  0  0  0  0  0  0  0
  152.2028  141.8614  156.7257 H   0  0  0  0  0  0  0  0  0  0  0  0
  152.0645  143.6017  156.6626 H   0  0  0  0  0  0  0  0  0  0  0  0
  150.7945  142.0926  158.9865 H   0  0  0  0  0  0  0  0  0  0  0  0
  151.8107  144.9227  158.5127 H   0  0  0  0  0  0  0  0  0  0  0  0
  150.2423  144.4425  159.1600 H   0  0  0  0  0  0  0  0  0  0  0  0
  152.5588  145.0421  160.6697 H   0  0  0  0  0  0  0  0  0  0  0  0
  151.1899  144.1297  161.3057 H   0  0  0  0  0  0  0  0  0  0  0  0
  153.7859  143.0350  160.9013 H   0  0  0  0  0  0  0  0  0  0  0  0
  152.2990  142.1053  161.1190 H   0  0  0  0  0  0  0  0  0  0  0  0
  148.0716  142.6690  155.7186 H   0  0  0  0  0  0  0  0  0  0  0  0
  149.2554  139.6274  153.5645 H   0  0  0  0  0  0  0  0  0  0  0  0
  145.6495  141.8712  154.4473 H   0  0  0  0  0  0  0  0  0  0  0  0
  1  2  2  0  0  0  0
  2  3  1  0  0  0  0
  2 10  1  0  0  0  0
  3  4  1  0  0  0  0
  3 17  1  0  0  0  0
  4  5  1  0  0  0  0
  4 18  1  0  0  0  0
  4 19  1  0  0  0  0
  5  9  1  0  0  0  0
  5  6  1  0  0  0  0
  5 20  1  0  0  0  0
  6  7  1  0  0  0  0
  6 21  1  0  0  0  0
  6 22  1  0  0  0  0
  7  8  1  0  0  0  0
  7 23  1  0  0  0  0
  7 24  1  0  0  0  0
  8  9  1  0  0  0  0
  8 25  1  0  0  0  0
  8 26  1  0  0  0  0
 10 11  1  0  0  0  0
 10 27  1  0  0  0  0
 11 15  2  0  0  0  0
 11 12  1  0  0  0  0
 12 13  2  0  0  0  0
 12 28  1  0  0  0  0
 13 14  1  0  0  0  0
 14 16  1  0  0  0  0
 14 15  1  0  0  0  0
 15 29  1  0  0  0  0
M  END
> <s_m_source_file>
AV-unprocessed.smi

> <i_m_source_file_index>
1805

> <i_lp_mmshare_version>
43012

> <i_f3d_flags>
0

> <s_epik_input>
W2NIXTFbbkhdbltjSF1jMVtOSF1DKD1PKVtOSF1bQ0gyXVtDQEBIXTJbQ0gyXVtDSDJdW0NIMl1PMg==

> <s_epik_cmdline>
J2VwaWtfcHl0aG9uJywgJy1waCcsICc3LjAnLCAnLXRuJywgJzgnLCAnLW1hJywgJzIwMCcsICctbWV0YWxfYmluZGluZycsICctaW1hZScsICc8aW5maWxlLm1hZT4nLCAnLW9tYWUnLCAnPG91dGZpbGUubWFlPic=

> <r_lp_tautomer_probability>
1

> <r_epik_Ionization_Penalty>
4.81496e-05

> <r_epik_Ionization_Penalty_Charging>
0

> <r_epik_Ionization_Penalty_Neutral>
4.81496e-05

> <r_epik_State_Penalty>
-0

> <r_epik_Charging_Adjusted_Penalty>
0

> <i_epik_Tot_Q>
0

> <i_epik_Tot_abs_Q>
0

> <r_epik_Metal_State_Penalty>
-0

> <b_epik_Metal_Only>
0

> <s_lp_Force_Field>
OPLS_2005

> <r_lp_Energy>
19.369

> <b_lp_Chiralities_Consistent>
1

> <s_lp_Variant>
AV-unprocessed.smi:1805-1

> <Gold.Version>
5.8.1

> <Gold.Id.Protein>
6NUR|6NUR_protein|mol2

> <Gold.PLP.Fitness>
39.2436

> <Gold.PLP.PLP>
-28.1438

> <Gold.PLP.part.hbond>
-4.0000

> <Gold.PLP.part.metal>
0.0000

> <Gold.PLP.part.buried>
-3.5753

> <Gold.PLP.part.nonpolar>
-20.6506

> <Gold.PLP.part.repulsive>
2.5271

> <Gold.PLP.ligand.clash>
0.0000

> <Gold.PLP.ligand.torsion>
0.2164

> <Gold.PLP.Chemscore.Hbond>
3.8125

> <Gold.PLP.Chemscore.CHOScore>
0.0293

> <Gold.PLP.Chemscore.Metal>
0.0000

> <Gold.Chemscore.Hbonds>
donor molecule, donor type, donor heavy atom, donor atom, acceptor molecule, acceptor atom, score
      L1  H     3    17       P1  8028  0.51
      L1  H    10    27       P1  8028  0.28
      L1  H    14    16       P1 10175  0.98
      P1  H  7989  7998       L1     1  0.85
      L1  C    12    28       P1  7957  0.34

> <Gold.PLP.Chemscore.Internal.Correction>
0.0072

> <Gold.Rescore>
     Score         DG    S(hbond)    S(metal)    S(lipo)     H(rot)  DE(clash)    DE(int)     intcor
     18.10     -21.22       2.98        0.00      78.48       1.33       1.77       1.35       ----

> <Gold.Chemscore.Fitness>
18.0972

> <Gold.Chemscore.DG>
-21.2172

> <Gold.Chemscore.ZeroCoef>
-5.4800

> <Gold.Chemscore.Hbond>
2.9824

> <Gold.Chemscore.Metal>
0.0000

> <Gold.Chemscore.Lipo>
78.4803

> <Gold.Chemscore.Internal_Hbond>
0.0000

> <Gold.Chemscore.DEClash>
1.7747

> <Gold.Chemscore.DEInternal>
1.3454

> <Gold.Chemscore.Rot>
1.3306

> <Gold.Chemscore.Internal.Correction>
   9.000000E+99

> <Gold.Chemscore.Hbonds>
donor molecule, donor type, donor heavy atom, donor atom, acceptor molecule, acceptor atom, score
      L1  H     3    17       P1  8028  0.52
      L1  H    10    27       P1  8028  0.25
      L1  H    14    16       P1 10175  0.93
      P1  H  7989  7998       L1     1  0.79

> <Gold.Chemscore.Hbond.Weighted>
-9.9613

> <Gold.Chemscore.Metal.Weighted>
-0.0000

> <Gold.Chemscore.Lipo.Weighted>
-9.1822

> <Gold.Chemscore.Internal_Hbond.Weighted>
0.0000

> <Gold.Chemscore.DEClash.Weighted>
1.7747

> <Gold.Chemscore.DEInternal.Weighted>
1.3454

> <Gold.Chemscore.Rot.Weighted>
3.4063

> <Gold.Chemscore.Internal.Correction.Weighted>
   9.000000E+99

> <Gold.Protein.RotatedTorsions>
[ 6907 6896 6895 6894 ] final  144.03 input  -60.11 | X-H torsion
[ 7974 7965 7964 7962 ] final  -91.26 input  175.53 | X-H torsion
[ 8008 7997 7996 7995 ] final    1.75 input   59.86 | X-H torsion
[ 10167 10162 10161 10158 ] final   18.30 input  -65.29 | X-H torsion
[ 10718 10713 10712 10709 ] final   26.58 input   66.30 | X-H torsion
[ 10763 10752 10751 10750 ] final  -50.78 input  -60.55 | X-H torsion
[ 11005 11000 10999 10996 ] final   -0.49 input  -57.11 | X-H torsion

> <Gold.Protein.ActiveResidues>
 VAL166  LYS551  ARG553  GLY616  TRP617  ASP618  TYR619  PRO620  LYS621  CYS622 
 ASP623  PHE694  ASN695  SER759  ASP760  ASP761  ALA762  ILE779  LEU786  VAL792 
 PHE793  MET794  SER795  GLU796  ALA797  LYS798  CYS799  TRP800  GLU811  SER814 

> <Gold.Protein.RotatedAtoms>
  152.1988  133.4826  159.5047 H   0  0  0  0  0  0  0  0  0  0  0  0  # atno 6907 bound_to 6896
  150.6965  134.1617  159.4188 H   0  0  0  0  0  0  0  0  0  0  0  0  # atno 6908 bound_to 6896
  151.9534  135.0158  160.0594 H   0  0  0  0  0  0  0  0  0  0  0  0  # atno 6909 bound_to 6896
  145.4154  140.9548  143.2210 H   0  0  0  0  0  0  0  0  0  0  0  0  # atno 7974 bound_to 7965
  154.6834  140.2637  155.6885 H   0  0  0  0  0  0  0  0  0  0  0  0  # atno 8008 bound_to 7997
  156.2705  140.2805  156.1309 H   0  0  0  0  0  0  0  0  0  0  0  0  # atno 8009 bound_to 7997
  155.0999  140.0374  157.2684 H   0  0  0  0  0  0  0  0  0  0  0  0  # atno 8010 bound_to 7997
  140.5663  143.9244  150.6679 H   0  0  0  0  0  0  0  0  0  0  0  0  # atno 10167 bound_to 10162
  157.2087  130.6924  149.6219 H   0  0  0  0  0  0  0  0  0  0  0  0  # atno 10718 bound_to 10713
  154.1158  135.6542  153.4893 H   0  0  0  0  0  0  0  0  0  0  0  0  # atno 10763 bound_to 10752
  153.0241  135.5258  154.7146 H   0  0  0  0  0  0  0  0  0  0  0  0  # atno 10764 bound_to 10752
  154.6339  135.2979  155.0154 H   0  0  0  0  0  0  0  0  0  0  0  0  # atno 10765 bound_to 10752
  140.6369  133.9525  155.8304 H   0  0  0  0  0  0  0  0  0  0  0  0  # atno 11005 bound_to 11000
  144.8280  139.5676  143.6956 LP  0  0  0  0  0  0  0  0  0  0  0  0  # atno 17320 bound_to 7965
  146.2683  139.6574  142.9313 LP  0  0  0  0  0  0  0  0  0  0  0  0  # atno 17321 bound_to 7965
  140.2708  143.3457  152.1239 LP  0  0  0  0  0  0  0  0  0  0  0  0  # atno 17342 bound_to 10162
  139.5094  144.6867  151.5867 LP  0  0  0  0  0  0  0  0  0  0  0  0  # atno 17343 bound_to 10162
  155.9693  130.4558  150.5902 LP  0  0  0  0  0  0  0  0  0  0  0  0  # atno 17370 bound_to 10713
  157.3694  131.0763  151.1570 LP  0  0  0  0  0  0  0  0  0  0  0  0  # atno 17371 bound_to 10713
  141.0635  134.0311  157.3626 LP  0  0  0  0  0  0  0  0  0  0  0  0  # atno 17394 bound_to 11000
  139.9095  135.0187  156.7630 LP  0  0  0  0  0  0  0  0  0  0  0  0  # atno 17395 bound_to 11000

$$$$
