AV-unprocessed.smi:3028|AV-procd|sdf|11521|dock7
  -GOLD-   2272016463D 1   1.00000     0.00000
 Structure written by MMmdl.
 47 48  0  0  0  0  0  0  0  0  1 V2000
  151.1866  142.1497  159.0326 C   0  0  0  0  0  0  0  0  0  0  0  0
  150.8696  141.6364  157.6578 C   0  0  0  0  0  0  0  0  0  0  0  0
  151.6179  140.7133  156.8739 C   0  0  0  0  0  0  0  0  0  0  0  0
  151.0643  140.4698  155.6976 N   0  0  0  0  0  0  0  0  0  0  0  0
  149.9443  141.2250  155.6854 N   0  0  0  0  0  0  0  0  0  0  0  0
  149.0710  141.2095  154.5179 C   0  0  2  0  0  0  0  0  0  0  0  0
  147.9050  142.1923  154.7367 C   0  0  0  0  0  0  0  0  0  0  0  0
  148.5904  139.7739  154.1722 C   0  0  2  0  0  0  0  0  0  0  0  0
  149.7556  138.7898  153.9264 C   0  0  0  0  0  0  0  0  0  0  0  0
  147.7602  139.8513  152.9724 N   0  0  0  0  0  0  0  0  0  0  0  0
  146.5024  139.0967  153.0754 C   0  0  0  0  0  0  0  0  0  0  0  0
  146.4092  137.9492  152.0570 C   0  0  0  0  0  0  0  0  0  0  0  0
  146.6449  138.1535  150.8667 O   0  0  0  0  0  0  0  0  0  0  0  0
  146.0746  136.7203  152.4860 N   0  0  0  0  0  0  0  0  0  0  0  0
  145.9323  135.5040  151.6884 C   0  0  0  0  0  0  0  0  0  0  0  0
  144.6290  135.5669  150.8775 C   0  0  0  0  0  0  0  0  0  0  0  0
  144.3764  134.2366  150.1490 C   0  0  0  0  0  0  0  0  0  0  0  0
  144.3521  133.1649  151.0858 O   0  0  0  0  0  0  0  0  0  0  0  0
  145.5882  133.0000  151.7726 C   0  0  0  0  0  0  0  0  0  0  0  0
  145.9061  134.2604  152.5932 C   0  0  0  0  0  0  0  0  0  0  0  0
  149.8042  141.9396  156.8583 C   0  0  0  0  0  0  0  0  0  0  0  0
  152.0055  141.5968  159.4933 H   0  0  0  0  0  0  0  0  0  0  0  0
  150.3289  142.0688  159.7007 H   0  0  0  0  0  0  0  0  0  0  0  0
  151.4801  143.1994  159.0107 H   0  0  0  0  0  0  0  0  0  0  0  0
  152.5438  140.2162  157.1237 H   0  0  0  0  0  0  0  0  0  0  0  0
  149.6560  141.5803  153.6734 H   0  0  0  0  0  0  0  0  0  0  0  0
  147.2936  142.2959  153.8402 H   0  0  0  0  0  0  0  0  0  0  0  0
  148.2754  143.1859  154.9906 H   0  0  0  0  0  0  0  0  0  0  0  0
  147.2518  141.8641  155.5458 H   0  0  0  0  0  0  0  0  0  0  0  0
  147.9900  139.4075  155.0065 H   0  0  0  0  0  0  0  0  0  0  0  0
  150.3912  138.6899  154.8061 H   0  0  0  0  0  0  0  0  0  0  0  0
  150.3863  139.1228  153.1014 H   0  0  0  0  0  0  0  0  0  0  0  0
  149.4032  137.7864  153.6909 H   0  0  0  0  0  0  0  0  0  0  0  0
  148.2990  139.5792  152.1624 H   0  0  0  0  0  0  0  0  0  0  0  0
  146.4070  138.6734  154.0746 H   0  0  0  0  0  0  0  0  0  0  0  0
  145.6635  139.7754  152.9196 H   0  0  0  0  0  0  0  0  0  0  0  0
  145.9006  136.6196  153.4756 H   0  0  0  0  0  0  0  0  0  0  0  0
  146.7570  135.4123  150.9807 H   0  0  0  0  0  0  0  0  0  0  0  0
  143.7878  135.7761  151.5401 H   0  0  0  0  0  0  0  0  0  0  0  0
  144.6705  136.3850  150.1577 H   0  0  0  0  0  0  0  0  0  0  0  0
  143.4190  134.2709  149.6287 H   0  0  0  0  0  0  0  0  0  0  0  0
  145.1422  134.0552  149.3931 H   0  0  0  0  0  0  0  0  0  0  0  0
  145.5127  132.1341  152.4303 H   0  0  0  0  0  0  0  0  0  0  0  0
  146.3871  132.7891  151.0599 H   0  0  0  0  0  0  0  0  0  0  0  0
  146.8597  134.1377  153.1071 H   0  0  0  0  0  0  0  0  0  0  0  0
  145.1488  134.3820  153.3690 H   0  0  0  0  0  0  0  0  0  0  0  0
  148.9653  142.5994  157.0250 H   0  0  0  0  0  0  0  0  0  0  0  0
  1  2  1  0  0  0  0
  1 22  1  0  0  0  0
  1 23  1  0  0  0  0
  1 24  1  0  0  0  0
  2 21  2  0  0  0  0
  2  3  1  0  0  0  0
  3  4  2  0  0  0  0
  3 25  1  0  0  0  0
  4  5  1  0  0  0  0
  5  6  1  0  0  0  0
  5 21  1  0  0  0  0
  6  7  1  0  0  0  0
  6  8  1  0  0  0  0
  6 26  1  0  0  0  0
  7 27  1  0  0  0  0
  7 28  1  0  0  0  0
  7 29  1  0  0  0  0
  8  9  1  0  0  0  0
  8 10  1  0  0  0  0
  8 30  1  0  0  0  0
  9 31  1  0  0  0  0
  9 32  1  0  0  0  0
  9 33  1  0  0  0  0
 10 11  1  0  0  0  0
 10 34  1  0  0  0  0
 11 12  1  0  0  0  0
 11 35  1  0  0  0  0
 11 36  1  0  0  0  0
 12 13  2  0  0  0  0
 12 14  1  0  0  0  0
 14 15  1  0  0  0  0
 14 37  1  0  0  0  0
 15 20  1  0  0  0  0
 15 16  1  0  0  0  0
 15 38  1  0  0  0  0
 16 17  1  0  0  0  0
 16 39  1  0  0  0  0
 16 40  1  0  0  0  0
 17 18  1  0  0  0  0
 17 41  1  0  0  0  0
 17 42  1  0  0  0  0
 18 19  1  0  0  0  0
 19 20  1  0  0  0  0
 19 43  1  0  0  0  0
 19 44  1  0  0  0  0
 20 45  1  0  0  0  0
 20 46  1  0  0  0  0
 21 47  1  0  0  0  0
M  END
> <s_m_source_file>
AV-unprocessed.smi

> <i_m_source_file_index>
3028

> <i_lp_mmshare_version>
43012

> <i_f3d_flags>
0

> <s_epik_input>
W0NIM11jMVtjSF1ubihbY0hdMSlbQ0BIXShbQ0gzXSlbQ0BIXShbQ0gzXSlbTkhdW0NIMl1DKD1PKVtOSF1bQ0hdMltDSDJdW0NIMl1PW0NIMl1bQ0gyXTI=

> <s_epik_cmdline>
J2VwaWtfcHl0aG9uJywgJy1waCcsICc3LjAnLCAnLXRuJywgJzgnLCAnLW1hJywgJzIwMCcsICctbWV0YWxfYmluZGluZycsICctaW1hZScsICc8aW5maWxlLm1hZT4nLCAnLW9tYWUnLCAnPG91dGZpbGUubWFlPic=

> <r_lp_tautomer_probability>
1

> <r_epik_Ionization_Penalty>
0.88617

> <r_epik_Ionization_Penalty_Charging>
0

> <r_epik_Ionization_Penalty_Neutral>
0.88617

> <r_epik_State_Penalty>
0.921066

> <r_epik_Charging_Adjusted_Penalty>
0.921066

> <i_epik_Tot_Q>
0

> <i_epik_Tot_abs_Q>
0

> <r_epik_Metal_State_Penalty>
0.917309

> <b_epik_Metal_Only>
0

> <s_lp_Force_Field>
OPLS_2005

> <r_lp_Energy>
19.247

> <b_lp_Chiralities_Consistent>
1

> <s_lp_Variant>
AV-unprocessed.smi:3028-5

> <Gold.Version>
5.8.1

> <Gold.Id.Protein>
6NUR|6NUR_protein|mol2

> <Gold.PLP.Fitness>
41.6430

> <Gold.PLP.PLP>
-34.0141

> <Gold.PLP.part.hbond>
-3.8745

> <Gold.PLP.part.metal>
0.0000

> <Gold.PLP.part.buried>
4.9527

> <Gold.PLP.part.nonpolar>
-35.1809

> <Gold.PLP.part.repulsive>
1.5400

> <Gold.PLP.ligand.clash>
0.0000

> <Gold.PLP.ligand.torsion>
1.3071

> <Gold.PLP.Chemscore.Hbond>
2.5778

> <Gold.PLP.Chemscore.CHOScore>
0.8106

> <Gold.PLP.Chemscore.Metal>
0.0000

> <Gold.Chemscore.Hbonds>
donor molecule, donor type, donor heavy atom, donor atom, acceptor molecule, acceptor atom, score
      L1  H    10    34       P1  7957  0.90
      P1  H  7954  7966       L1    13  1.00
      P1  H  7989  7998       L1     4  0.24
      L1  C    21    47       P1  8028  0.75

> <Gold.PLP.Chemscore.Internal.Correction>
0.0779

> <Gold.Rescore>
     Score         DG    S(hbond)    S(metal)    S(lipo)     H(rot)  DE(clash)    DE(int)     intcor
     12.72     -17.50       1.93        0.00      89.69       1.92       1.85       2.94       ----

> <Gold.Chemscore.Fitness>
12.7192

> <Gold.Chemscore.DG>
-17.5010

> <Gold.Chemscore.ZeroCoef>
-5.4800

> <Gold.Chemscore.Hbond>
1.9315

> <Gold.Chemscore.Metal>
0.0000

> <Gold.Chemscore.Lipo>
89.6871

> <Gold.Chemscore.Internal_Hbond>
0.0000

> <Gold.Chemscore.DEClash>
1.8460

> <Gold.Chemscore.DEInternal>
2.9358

> <Gold.Chemscore.Rot>
1.9233

> <Gold.Chemscore.Internal.Correction>
   9.000000E+99

> <Gold.Chemscore.Hbonds>
donor molecule, donor type, donor heavy atom, donor atom, acceptor molecule, acceptor atom, score
      L1  H    10    34       P1  7957  0.88
      P1  H  7954  7966       L1    13  0.98
      P1  H  7989  7998       L1     4  0.03

> <Gold.Chemscore.Hbond.Weighted>
-6.4512

> <Gold.Chemscore.Metal.Weighted>
-0.0000

> <Gold.Chemscore.Lipo.Weighted>
-10.4934

> <Gold.Chemscore.Internal_Hbond.Weighted>
0.0000

> <Gold.Chemscore.DEClash.Weighted>
1.8460

> <Gold.Chemscore.DEInternal.Weighted>
2.9358

> <Gold.Chemscore.Rot.Weighted>
4.9235

> <Gold.Chemscore.Internal.Correction.Weighted>
   9.000000E+99

> <Gold.Protein.RotatedTorsions>
[ 6907 6896 6895 6894 ] final   16.68 input  -60.11 | X-H torsion
[ 7974 7965 7964 7962 ] final  169.54 input  175.53 | X-H torsion
[ 8008 7997 7996 7995 ] final   21.10 input   59.86 | X-H torsion
[ 10167 10162 10161 10158 ] final   87.54 input  -65.29 | X-H torsion
[ 10718 10713 10712 10709 ] final  -85.04 input   66.30 | X-H torsion
[ 10763 10752 10751 10750 ] final   -4.37 input  -60.55 | X-H torsion
[ 11005 11000 10999 10996 ] final  -65.95 input  -57.11 | X-H torsion

> <Gold.Protein.ActiveResidues>
 VAL166  LYS551  ARG553  GLY616  TRP617  ASP618  TYR619  PRO620  LYS621  CYS622 
 ASP623  PHE694  ASN695  SER759  ASP760  ASP761  ALA762  ILE779  LEU786  VAL792 
 PHE793  MET794  SER795  GLU796  ALA797  LYS798  CYS799  TRP800  GLU811  SER814 

> <Gold.Protein.RotatedAtoms>
  151.8377  135.0601  160.0444 H   0  0  0  0  0  0  0  0  0  0  0  0  # atno 6907 bound_to 6896
  152.2833  133.5486  159.5519 H   0  0  0  0  0  0  0  0  0  0  0  0  # atno 6908 bound_to 6896
  150.7198  134.0449  159.3820 H   0  0  0  0  0  0  0  0  0  0  0  0  # atno 6909 bound_to 6896
  144.7352  139.9069  143.6413 H   0  0  0  0  0  0  0  0  0  0  0  0  # atno 7974 bound_to 7965
  154.9455  140.3058  155.5100 H   0  0  0  0  0  0  0  0  0  0  0  0  # atno 8008 bound_to 7997
  156.2992  140.2328  156.4465 H   0  0  0  0  0  0  0  0  0  0  0  0  # atno 8009 bound_to 7997
  154.8105  140.0429  157.1327 H   0  0  0  0  0  0  0  0  0  0  0  0  # atno 8010 bound_to 7997
  139.8763  144.6465  150.8892 H   0  0  0  0  0  0  0  0  0  0  0  0  # atno 10167 bound_to 10162
  156.0000  130.4718  150.4502 H   0  0  0  0  0  0  0  0  0  0  0  0  # atno 10718 bound_to 10713
  153.3839  135.6999  153.6544 H   0  0  0  0  0  0  0  0  0  0  0  0  # atno 10763 bound_to 10752
  153.5144  135.3625  155.2603 H   0  0  0  0  0  0  0  0  0  0  0  0  # atno 10764 bound_to 10752
  154.8695  135.4143  154.3143 H   0  0  0  0  0  0  0  0  0  0  0  0  # atno 10765 bound_to 10752
  141.1469  133.6690  156.6065 H   0  0  0  0  0  0  0  0  0  0  0  0  # atno 11005 bound_to 11000
  146.1030  139.4027  143.0335 LP  0  0  0  0  0  0  0  0  0  0  0  0  # atno 17320 bound_to 7965
  145.7551  140.9957  143.1229 LP  0  0  0  0  0  0  0  0  0  0  0  0  # atno 17321 bound_to 7965
  140.7752  143.3622  151.1807 LP  0  0  0  0  0  0  0  0  0  0  0  0  # atno 17342 bound_to 10162
  139.7237  143.9183  152.2995 LP  0  0  0  0  0  0  0  0  0  0  0  0  # atno 17343 bound_to 10162
  157.2536  131.0551  151.2364 LP  0  0  0  0  0  0  0  0  0  0  0  0  # atno 17370 bound_to 10713
  157.3504  130.7079  149.6437 LP  0  0  0  0  0  0  0  0  0  0  0  0  # atno 17371 bound_to 10713
  140.3648  134.7657  157.4558 LP  0  0  0  0  0  0  0  0  0  0  0  0  # atno 17394 bound_to 11000
  140.0757  134.5801  155.8594 LP  0  0  0  0  0  0  0  0  0  0  0  0  # atno 17395 bound_to 11000

$$$$
