AV-unprocessed.smi:531|AV-procd|sdf|2846|dock2
  -GOLD-   2262023333D 1   1.00000     0.00000
 Structure written by MMmdl.
 46 48  0  0  0  0  0  0  0  0  1 V2000
  147.5620  140.2760  154.7106 C   0  0  0  0  0  0  0  0  0  0  0  0
  148.8806  140.1248  155.4721 C   0  0  0  0  0  0  0  0  0  0  0  0
  148.7021  140.5973  156.7965 O   0  0  0  0  0  0  0  0  0  0  0  0
  149.6587  140.0690  157.6988 C   0  0  0  0  0  0  0  0  0  0  0  0
  150.9756  140.8337  157.5255 C   0  0  0  0  0  0  0  0  0  0  0  0
  151.9783  140.3955  158.4924 N   0  0  0  0  0  0  0  0  0  0  0  0
  152.6503  141.1363  159.4175 C   0  0  0  0  0  0  0  0  0  0  0  0
  152.4651  142.5138  159.5547 N   0  0  0  0  0  0  0  0  0  0  0  0
  152.2694  143.4802  158.4732 C   0  0  0  0  0  0  0  0  0  0  0  0
  151.0297  144.3602  158.7175 C   0  0  0  0  0  0  0  0  0  0  0  0
  151.1547  145.1008  160.0560 C   0  0  0  0  0  0  0  0  0  0  0  0
  151.4784  144.1057  161.1792 C   0  0  0  0  0  0  0  0  0  0  0  0
  152.6926  143.2362  160.8055 C   0  0  0  0  0  0  0  0  0  0  0  0
  153.4549  140.4293  160.2160 N   0  0  0  0  0  0  0  0  0  0  0  0
  153.3010  139.1326  159.7521 C   0  0  0  0  0  0  0  0  0  0  0  0
  152.4080  139.0877  158.7308 C   0  0  0  0  0  0  0  0  0  0  0  0
  152.0124  137.8254  158.0893 C   0  0  0  0  0  0  0  0  0  0  0  0
  151.1874  137.7522  157.1815 O   0  0  0  0  0  0  0  0  0  0  0  0
  152.6414  136.7437  158.6100 N   0  0  0  0  0  0  0  0  0  0  0  0
  153.5542  136.7221  159.6282 C   0  0  0  0  0  0  0  0  0  0  0  0
  154.0363  135.6520  159.9991 O   0  0  0  0  0  0  0  0  0  0  0  0
  153.8945  137.9194  160.2037 N   0  0  0  0  0  0  0  0  0  0  0  0
  154.8634  137.9583  161.3008 C   0  0  0  0  0  0  0  0  0  0  0  0
  152.4040  135.8503  158.2041 H   0  0  0  0  0  0  0  0  0  0  0  0
  147.6627  139.9240  153.6837 H   0  0  0  0  0  0  0  0  0  0  0  0
  147.2461  141.3192  154.6777 H   0  0  0  0  0  0  0  0  0  0  0  0
  146.7680  139.6993  155.1858 H   0  0  0  0  0  0  0  0  0  0  0  0
  149.1845  139.0771  155.4830 H   0  0  0  0  0  0  0  0  0  0  0  0
  149.6668  140.6928  154.9728 H   0  0  0  0  0  0  0  0  0  0  0  0
  149.2975  140.1712  158.7235 H   0  0  0  0  0  0  0  0  0  0  0  0
  149.8127  139.0060  157.5065 H   0  0  0  0  0  0  0  0  0  0  0  0
  151.3581  140.7104  156.5143 H   0  0  0  0  0  0  0  0  0  0  0  0
  150.8037  141.9009  157.6230 H   0  0  0  0  0  0  0  0  0  0  0  0
  153.1569  144.1109  158.4055 H   0  0  0  0  0  0  0  0  0  0  0  0
  152.2033  142.9715  157.5124 H   0  0  0  0  0  0  0  0  0  0  0  0
  150.9127  145.0768  157.9042 H   0  0  0  0  0  0  0  0  0  0  0  0
  150.1291  143.7453  158.7217 H   0  0  0  0  0  0  0  0  0  0  0  0
  151.9494  145.8448  159.9882 H   0  0  0  0  0  0  0  0  0  0  0  0
  150.2355  145.6430  160.2792 H   0  0  0  0  0  0  0  0  0  0  0  0
  151.6730  144.6413  162.1087 H   0  0  0  0  0  0  0  0  0  0  0  0
  150.6144  143.4659  161.3639 H   0  0  0  0  0  0  0  0  0  0  0  0
  152.8898  142.5254  161.6087 H   0  0  0  0  0  0  0  0  0  0  0  0
  153.5876  143.8526  160.7109 H   0  0  0  0  0  0  0  0  0  0  0  0
  155.7635  137.3957  161.0485 H   0  0  0  0  0  0  0  0  0  0  0  0
  154.4304  137.5238  162.2026 H   0  0  0  0  0  0  0  0  0  0  0  0
  155.1801  138.9733  161.5407 H   0  0  0  0  0  0  0  0  0  0  0  0
  1  2  1  0  0  0  0
  1 25  1  0  0  0  0
  1 26  1  0  0  0  0
  1 27  1  0  0  0  0
  2  3  1  0  0  0  0
  2 28  1  0  0  0  0
  2 29  1  0  0  0  0
  3  4  1  0  0  0  0
  4  5  1  0  0  0  0
  4 30  1  0  0  0  0
  4 31  1  0  0  0  0
  5  6  1  0  0  0  0
  5 32  1  0  0  0  0
  5 33  1  0  0  0  0
  6 16  1  0  0  0  0
  6  7  1  0  0  0  0
  7  8  1  0  0  0  0
  7 14  2  0  0  0  0
  8 13  1  0  0  0  0
  8  9  1  0  0  0  0
  9 10  1  0  0  0  0
  9 34  1  0  0  0  0
  9 35  1  0  0  0  0
 10 11  1  0  0  0  0
 10 36  1  0  0  0  0
 10 37  1  0  0  0  0
 11 12  1  0  0  0  0
 11 38  1  0  0  0  0
 11 39  1  0  0  0  0
 12 13  1  0  0  0  0
 12 40  1  0  0  0  0
 12 41  1  0  0  0  0
 13 42  1  0  0  0  0
 13 43  1  0  0  0  0
 14 15  1  0  0  0  0
 15 22  1  0  0  0  0
 15 16  2  0  0  0  0
 16 17  1  0  0  0  0
 17 18  2  0  0  0  0
 17 19  1  0  0  0  0
 19 24  1  0  0  0  0
 19 20  1  0  0  0  0
 20 21  2  0  0  0  0
 20 22  1  0  0  0  0
 22 23  1  0  0  0  0
 23 44  1  0  0  0  0
 23 45  1  0  0  0  0
 23 46  1  0  0  0  0
M  END
> <s_m_source_file>
AV-unprocessed.smi

> <i_m_source_file_index>
531

> <i_lp_mmshare_version>
43012

> <i_f3d_flags>
0

> <s_epik_input>
W0NIM11uMWMoPU8pW25IXWMoPU8pYyhjMTIpbihbQ0gyXVtDSDJdT1tDSDJdW0NIM10pYyhuMilOM1tDSDJdW0NIMl1bQ0gyXVtDSDJdW0NIMl0z

> <s_epik_cmdline>
J2VwaWtfcHl0aG9uJywgJy1waCcsICc3LjAnLCAnLXRuJywgJzgnLCAnLW1hJywgJzIwMCcsICctbWV0YWxfYmluZGluZycsICctaW1hZScsICc8aW5maWxlLm1hZT4nLCAnLW9tYWUnLCAnPG91dGZpbGUubWFlPic=

> <r_lp_tautomer_probability>
1

> <r_epik_Ionization_Penalty>
0.000274134

> <r_epik_Ionization_Penalty_Charging>
0.000122674

> <r_epik_Ionization_Penalty_Neutral>
0.00015146

> <r_epik_State_Penalty>
-0

> <r_epik_Charging_Adjusted_Penalty>
0.000122674

> <i_epik_Tot_Q>
0

> <i_epik_Tot_abs_Q>
0

> <r_epik_Metal_State_Penalty>
0.0938197

> <b_epik_Metal_Only>
0

> <s_lp_Force_Field>
OPLS_2005

> <r_lp_Energy>
38.5132

> <b_lp_Chiralities_Consistent>
1

> <s_lp_Variant>
AV-unprocessed.smi:531-1

> <Gold.Version>
5.8.1

> <Gold.Id.Protein>
6NUR|6NUR_protein|mol2

> <Gold.PLP.Fitness>
48.5605

> <Gold.PLP.PLP>
-46.3290

> <Gold.PLP.part.hbond>
-1.0000

> <Gold.PLP.part.metal>
0.0000

> <Gold.PLP.part.buried>
-5.8384

> <Gold.PLP.part.nonpolar>
-39.5639

> <Gold.PLP.part.repulsive>
0.6068

> <Gold.PLP.ligand.clash>
0.0000

> <Gold.PLP.ligand.torsion>
0.6301

> <Gold.PLP.Chemscore.Hbond>
0.9920

> <Gold.PLP.Chemscore.CHOScore>
0.0000

> <Gold.PLP.Chemscore.Metal>
0.0000

> <Gold.Chemscore.Hbonds>
donor molecule, donor type, donor heavy atom, donor atom, acceptor molecule, acceptor atom, score
      P1  H  6896  6909       L1    21  0.75

> <Gold.PLP.Chemscore.Internal.Correction>
0.5157

> <Gold.Rescore>
     Score         DG    S(hbond)    S(metal)    S(lipo)     H(rot)  DE(clash)    DE(int)     intcor
     14.98     -16.52       0.96        0.00     102.48       1.62       0.08       1.46       ----

> <Gold.Chemscore.Fitness>
14.9814

> <Gold.Chemscore.DG>
-16.5194

> <Gold.Chemscore.ZeroCoef>
-5.4800

> <Gold.Chemscore.Hbond>
0.9574

> <Gold.Chemscore.Metal>
0.0000

> <Gold.Chemscore.Lipo>
102.4774

> <Gold.Chemscore.Internal_Hbond>
0.0000

> <Gold.Chemscore.DEClash>
0.0793

> <Gold.Chemscore.DEInternal>
1.4587

> <Gold.Chemscore.Rot>
1.6204

> <Gold.Chemscore.Internal.Correction>
   9.000000E+99

> <Gold.Chemscore.Hbonds>
donor molecule, donor type, donor heavy atom, donor atom, acceptor molecule, acceptor atom, score
      P1  H  6896  6909       L1    21  0.09

> <Gold.Chemscore.Hbond.Weighted>
-3.1977

> <Gold.Chemscore.Metal.Weighted>
-0.0000

> <Gold.Chemscore.Lipo.Weighted>
-11.9899

> <Gold.Chemscore.Internal_Hbond.Weighted>
0.0000

> <Gold.Chemscore.DEClash.Weighted>
0.0793

> <Gold.Chemscore.DEInternal.Weighted>
1.4587

> <Gold.Chemscore.Rot.Weighted>
4.1481

> <Gold.Chemscore.Internal.Correction.Weighted>
   9.000000E+99

> <Gold.Protein.RotatedTorsions>
[ 6907 6896 6895 6894 ] final  174.05 input  -60.11 | X-H torsion
[ 7974 7965 7964 7962 ] final -114.73 input  175.53 | X-H torsion
[ 8008 7997 7996 7995 ] final  177.40 input   59.86 | X-H torsion
[ 10167 10162 10161 10158 ] final  142.72 input  -65.29 | X-H torsion
[ 10718 10713 10712 10709 ] final   64.03 input   66.30 | X-H torsion
[ 10763 10752 10751 10750 ] final -114.61 input  -60.55 | X-H torsion
[ 11005 11000 10999 10996 ] final -153.60 input  -57.11 | X-H torsion

> <Gold.Protein.ActiveResidues>
 VAL166  LYS551  ARG553  GLY616  TRP617  ASP618  TYR619  PRO620  LYS621  CYS622 
 ASP623  PHE694  ASN695  SER759  ASP760  ASP761  ALA762  ILE779  LEU786  VAL792 
 PHE793  MET794  SER795  GLU796  ALA797  LYS798  CYS799  TRP800  GLU811  SER814 

> <Gold.Protein.RotatedAtoms>
  151.7585  133.3332  159.3410 H   0  0  0  0  0  0  0  0  0  0  0  0  # atno 6907 bound_to 6896
  150.7507  134.6127  159.6104 H   0  0  0  0  0  0  0  0  0  0  0  0  # atno 6908 bound_to 6896
  152.3421  134.7122  160.0312 H   0  0  0  0  0  0  0  0  0  0  0  0  # atno 6909 bound_to 6896
  145.1167  140.8644  143.3838 H   0  0  0  0  0  0  0  0  0  0  0  0  # atno 7974 bound_to 7965
  156.0661  140.1359  156.9885 H   0  0  0  0  0  0  0  0  0  0  0  0  # atno 8008 bound_to 7997
  154.4506  140.0981  156.6660 H   0  0  0  0  0  0  0  0  0  0  0  0  # atno 8009 bound_to 7997
  155.5302  140.3458  155.4427 H   0  0  0  0  0  0  0  0  0  0  0  0  # atno 8010 bound_to 7997
  139.4987  144.6088  151.6317 H   0  0  0  0  0  0  0  0  0  0  0  0  # atno 10167 bound_to 10162
  157.6011  130.9137  149.9792 H   0  0  0  0  0  0  0  0  0  0  0  0  # atno 10718 bound_to 10713
  154.8447  135.4412  154.1532 H   0  0  0  0  0  0  0  0  0  0  0  0  # atno 10763 bound_to 10752
  153.2688  135.6943  153.7508 H   0  0  0  0  0  0  0  0  0  0  0  0  # atno 10764 bound_to 10752
  153.6757  135.3411  155.3140 H   0  0  0  0  0  0  0  0  0  0  0  0  # atno 10765 bound_to 10752
  140.7064  134.3881  157.5203 H   0  0  0  0  0  0  0  0  0  0  0  0  # atno 11005 bound_to 11000
  145.0786  139.2977  143.5795 LP  0  0  0  0  0  0  0  0  0  0  0  0  # atno 17320 bound_to 7965
  146.3523  140.0285  142.8652 LP  0  0  0  0  0  0  0  0  0  0  0  0  # atno 17321 bound_to 7965
  140.5757  144.0032  150.6240 LP  0  0  0  0  0  0  0  0  0  0  0  0  # atno 17342 bound_to 10162
  140.3164  143.3165  152.0827 LP  0  0  0  0  0  0  0  0  0  0  0  0  # atno 17343 bound_to 10162
  156.1085  130.3651  150.0091 LP  0  0  0  0  0  0  0  0  0  0  0  0  # atno 17370 bound_to 10713
  156.8193  130.9353  151.3642 LP  0  0  0  0  0  0  0  0  0  0  0  0  # atno 17371 bound_to 10713
  139.8883  134.8860  156.2482 LP  0  0  0  0  0  0  0  0  0  0  0  0  # atno 17394 bound_to 11000
  141.0121  133.7090  156.1128 LP  0  0  0  0  0  0  0  0  0  0  0  0  # atno 17395 bound_to 11000

$$$$
