AV-unprocessed.smi:1856|AV-procd|sdf|7538|dock4
  -GOLD-   22720 9253D 1   1.00000     0.00000
 Structure written by MMmdl.
 45 46  0  0  0  0  0  0  0  0  2 V2000
  144.9869  144.2025  154.0911 C   0  0  0  0  0  0  0  0  0  0  0  0
  145.1052  143.8562  155.5791 C   0  0  0  0  0  0  0  0  0  0  0  0
  145.0248  142.3403  155.8388 C   0  0  0  0  0  0  0  0  0  0  0  0
  146.2686  141.5699  155.3834 C   0  0  0  0  0  0  0  0  0  0  0  0
  146.2193  140.7877  154.4333 O   0  0  0  0  0  0  0  0  0  0  0  0
  147.3890  141.7952  156.0878 N   0  0  0  0  0  0  0  0  0  0  0  0
  148.6863  141.1755  155.8257 C   0  0  1  0  0  0  0  0  0  0  0  0
  149.0980  141.4300  154.3701 C   0  0  0  0  0  0  0  0  0  0  0  0
  149.7562  141.6543  156.7653 C   0  0  0  0  0  0  0  0  0  0  0  0
  149.9525  142.9429  157.1694 N   0  3  0  0  0  0  0  0  0  0  0  0
  151.0313  143.0053  158.0509 C   0  0  0  0  0  0  0  0  0  0  0  0
  151.5949  144.0827  158.7270 C   0  0  0  0  0  0  0  0  0  0  0  0
  152.6974  143.7999  159.5601 C   0  0  0  0  0  0  0  0  0  0  0  0
  153.1992  142.4890  159.6941 C   0  0  0  0  0  0  0  0  0  0  0  0
  152.6201  141.4052  159.0013 C   0  0  0  0  0  0  0  0  0  0  0  0
  151.5291  141.6935  158.1818 C   0  0  0  0  0  0  0  0  0  0  0  0
  150.7192  140.8957  157.3662 N   0  0  0  0  0  0  0  0  0  0  0  0
  150.9995  139.4541  157.2764 C   0  0  0  0  0  0  0  0  0  0  0  0
  151.4428  139.0143  155.8680 C   0  0  2  0  0  0  0  0  0  0  0  0
  151.3943  137.4911  155.6989 C   0  0  0  0  0  0  0  0  0  0  0  0
  152.7624  139.4512  155.6154 O   0  0  0  0  0  0  0  0  0  0  0  0
  145.0454  145.2804  153.9382 H   0  0  0  0  0  0  0  0  0  0  0  0
  144.0367  143.8595  153.6811 H   0  0  0  0  0  0  0  0  0  0  0  0
  145.7888  143.7408  153.5146 H   0  0  0  0  0  0  0  0  0  0  0  0
  146.0490  144.2497  155.9594 H   0  0  0  0  0  0  0  0  0  0  0  0
  144.3125  144.3684  156.1265 H   0  0  0  0  0  0  0  0  0  0  0  0
  144.8756  142.1585  156.9039 H   0  0  0  0  0  0  0  0  0  0  0  0
  144.1569  141.9256  155.3246 H   0  0  0  0  0  0  0  0  0  0  0  0
  147.3448  142.4556  156.8504 H   0  0  0  0  0  0  0  0  0  0  0  0
  148.5657  140.0995  155.9584 H   0  0  0  0  0  0  0  0  0  0  0  0
  150.0326  140.9201  154.1338 H   0  0  0  0  0  0  0  0  0  0  0  0
  149.2411  142.4935  154.1755 H   0  0  0  0  0  0  0  0  0  0  0  0
  148.3402  141.0628  153.6772 H   0  0  0  0  0  0  0  0  0  0  0  0
  151.2119  145.0876  158.6262 H   0  0  0  0  0  0  0  0  0  0  0  0
  153.1675  144.6043  160.1077 H   0  0  0  0  0  0  0  0  0  0  0  0
  154.0453  142.3106  160.3419 H   0  0  0  0  0  0  0  0  0  0  0  0
  153.0105  140.4042  159.1123 H   0  0  0  0  0  0  0  0  0  0  0  0
  151.7690  139.2146  158.0109 H   0  0  0  0  0  0  0  0  0  0  0  0
  150.1069  138.9109  157.5887 H   0  0  0  0  0  0  0  0  0  0  0  0
  150.7932  139.4707  155.1207 H   0  0  0  0  0  0  0  0  0  0  0  0
  150.3850  137.1121  155.8616 H   0  0  0  0  0  0  0  0  0  0  0  0
  152.0556  136.9907  156.4073 H   0  0  0  0  0  0  0  0  0  0  0  0
  151.6987  137.1964  154.6939 H   0  0  0  0  0  0  0  0  0  0  0  0
  153.0564  139.0752  154.7995 H   0  0  0  0  0  0  0  0  0  0  0  0
  149.3770  143.7193  156.8700 H   0  0  0  0  0  0  0  0  0  0  0  0
  1  2  1  0  0  0  0
  1 22  1  0  0  0  0
  1 23  1  0  0  0  0
  1 24  1  0  0  0  0
  2  3  1  0  0  0  0
  2 25  1  0  0  0  0
  2 26  1  0  0  0  0
  3  4  1  0  0  0  0
  3 27  1  0  0  0  0
  3 28  1  0  0  0  0
  4  5  2  0  0  0  0
  4  6  1  0  0  0  0
  6  7  1  0  0  0  0
  6 29  1  0  0  0  0
  7  8  1  0  0  0  0
  7  9  1  0  0  0  0
  7 30  1  0  0  0  0
  8 31  1  0  0  0  0
  8 32  1  0  0  0  0
  8 33  1  0  0  0  0
  9 17  1  0  0  0  0
  9 10  2  0  0  0  0
 10 11  1  0  0  0  0
 10 45  1  0  0  0  0
 11 16  2  0  0  0  0
 11 12  1  0  0  0  0
 12 13  2  0  0  0  0
 12 34  1  0  0  0  0
 13 14  1  0  0  0  0
 13 35  1  0  0  0  0
 14 15  2  0  0  0  0
 14 36  1  0  0  0  0
 15 16  1  0  0  0  0
 15 37  1  0  0  0  0
 16 17  1  0  0  0  0
 17 18  1  0  0  0  0
 18 19  1  0  0  0  0
 18 38  1  0  0  0  0
 18 39  1  0  0  0  0
 19 20  1  0  0  0  0
 19 21  1  0  0  0  0
 19 40  1  0  0  0  0
 20 41  1  0  0  0  0
 20 42  1  0  0  0  0
 20 43  1  0  0  0  0
 21 44  1  0  0  0  0
M  CHG  1  10   1
M  END
> <s_m_source_file>
AV-unprocessed.smi

> <i_m_source_file_index>
1856

> <i_lp_mmshare_version>
43012

> <i_f3d_flags>
0

> <s_epik_input>
W0NIM11bQ0gyXVtDSDJdQyg9TylbTkhdW0NASF0oW0NIM10pYyhuMSluKFtDSDJdW0NASF0oW0NIM10pW09IXSljKGMxMilbY0hdW2NIXVtjSF1bY0hdMg==

> <s_epik_cmdline>
J2VwaWtfcHl0aG9uJywgJy1waCcsICc3LjAnLCAnLXRuJywgJzgnLCAnLW1hJywgJzIwMCcsICctbWV0YWxfYmluZGluZycsICctaW1hZScsICc8aW5maWxlLm1hZT4nLCAnLW9tYWUnLCAnPG91dGZpbGUubWFlPic=

> <r_epik_Ionization_Penalty>
0.945588

> <r_epik_Ionization_Penalty_Charging>
0.945588

> <r_epik_Ionization_Penalty_Neutral>
8.64698e-08

> <r_epik_State_Penalty>
0.989378

> <r_epik_Charging_Adjusted_Penalty>
1.93497

> <i_epik_Tot_Q>
1

> <i_epik_Tot_abs_Q>
1

> <r_epik_Metal_State_Penalty>
1.10045

> <b_epik_Metal_Only>
0

> <s_lp_Force_Field>
OPLS_2005

> <r_lp_Energy>
6.55933

> <b_lp_Chiralities_Consistent>
1

> <s_lp_Variant>
AV-unprocessed.smi:1856-6

> <Gold.Version>
5.8.1

> <Gold.Id.Protein>
6NUR|6NUR_protein|mol2

> <Gold.PLP.Fitness>
47.8030

> <Gold.PLP.PLP>
-40.3046

> <Gold.PLP.part.hbond>
-2.0223

> <Gold.PLP.part.metal>
0.0000

> <Gold.PLP.part.buried>
-5.8934

> <Gold.PLP.part.nonpolar>
-33.0594

> <Gold.PLP.part.repulsive>
0.1315

> <Gold.PLP.ligand.clash>
0.0000

> <Gold.PLP.ligand.torsion>
0.7856

> <Gold.PLP.Chemscore.Hbond>
3.0000

> <Gold.PLP.Chemscore.CHOScore>
0.0000

> <Gold.PLP.Chemscore.Metal>
0.0000

> <Gold.Chemscore.Hbonds>
donor molecule, donor type, donor heavy atom, donor atom, acceptor molecule, acceptor atom, score
      L1  H    10    45       P1  8028  1.98
      P1  H  7997  8010       L1    21  1.00

> <Gold.PLP.Chemscore.Internal.Correction>
0.0696

> <Gold.Rescore>
     Score         DG    S(hbond)    S(metal)    S(lipo)     H(rot)  DE(clash)    DE(int)     intcor
     16.62     -17.75       1.85        0.00     106.95       2.52       0.15       0.98       ----

> <Gold.Chemscore.Fitness>
16.6177

> <Gold.Chemscore.DG>
-17.7452

> <Gold.Chemscore.ZeroCoef>
-5.4800

> <Gold.Chemscore.Hbond>
1.8542

> <Gold.Chemscore.Metal>
0.0000

> <Gold.Chemscore.Lipo>
106.9517

> <Gold.Chemscore.Internal_Hbond>
0.0000

> <Gold.Chemscore.DEClash>
0.1509

> <Gold.Chemscore.DEInternal>
0.9766

> <Gold.Chemscore.Rot>
2.5161

> <Gold.Chemscore.Internal.Correction>
   9.000000E+99

> <Gold.Chemscore.Hbonds>
donor molecule, donor type, donor heavy atom, donor atom, acceptor molecule, acceptor atom, score
      L1  H    10    45       P1  8028  0.83
      P1  H  7997  8010       L1    21  0.39

> <Gold.Chemscore.Hbond.Weighted>
-6.1930

> <Gold.Chemscore.Metal.Weighted>
-0.0000

> <Gold.Chemscore.Lipo.Weighted>
-12.5134

> <Gold.Chemscore.Internal_Hbond.Weighted>
0.0000

> <Gold.Chemscore.DEClash.Weighted>
0.1509

> <Gold.Chemscore.DEInternal.Weighted>
0.9766

> <Gold.Chemscore.Rot.Weighted>
6.4412

> <Gold.Chemscore.Internal.Correction.Weighted>
   9.000000E+99

> <Gold.Protein.RotatedTorsions>
[ 6907 6896 6895 6894 ] final -178.33 input  -60.11 | X-H torsion
[ 7974 7965 7964 7962 ] final -120.42 input  175.53 | X-H torsion
[ 8008 7997 7996 7995 ] final   73.12 input   59.86 | X-H torsion
[ 10167 10162 10161 10158 ] final -157.62 input  -65.29 | X-H torsion
[ 10718 10713 10712 10709 ] final   93.89 input   66.30 | X-H torsion
[ 10763 10752 10751 10750 ] final  -42.48 input  -60.55 | X-H torsion
[ 11005 11000 10999 10996 ] final -159.55 input  -57.11 | X-H torsion

> <Gold.Protein.ActiveResidues>
 VAL166  LYS551  ARG553  GLY616  TRP617  ASP618  TYR619  PRO620  LYS621  CYS622 
 ASP623  PHE694  ASN695  SER759  ASP760  ASP761  ALA762  ILE779  LEU786  VAL792 
 PHE793  MET794  SER795  GLU796  ALA797  LYS798  CYS799  TRP800  GLU811  SER814 

> <Gold.Protein.RotatedAtoms>
  151.6356  133.3329  159.3118 H   0  0  0  0  0  0  0  0  0  0  0  0  # atno 6907 bound_to 6896
  150.8034  134.7147  159.6633 H   0  0  0  0  0  0  0  0  0  0  0  0  # atno 6908 bound_to 6896
  152.4128  134.6099  160.0074 H   0  0  0  0  0  0  0  0  0  0  0  0  # atno 6909 bound_to 6896
  145.0516  140.8223  143.4206 H   0  0  0  0  0  0  0  0  0  0  0  0  # atno 7974 bound_to 7965
  155.7789  140.3482  155.5287 H   0  0  0  0  0  0  0  0  0  0  0  0  # atno 8008 bound_to 7997
  155.8748  140.0992  157.1546 H   0  0  0  0  0  0  0  0  0  0  0  0  # atno 8009 bound_to 7997
  154.4020  140.1333  156.4110 H   0  0  0  0  0  0  0  0  0  0  0  0  # atno 8010 bound_to 7997
  139.6756  143.9669  152.2308 H   0  0  0  0  0  0  0  0  0  0  0  0  # atno 10167 bound_to 10162
  157.6952  131.0493  150.4102 H   0  0  0  0  0  0  0  0  0  0  0  0  # atno 10718 bound_to 10713
  153.9797  135.6718  153.4749 H   0  0  0  0  0  0  0  0  0  0  0  0  # atno 10763 bound_to 10752
  153.0754  135.4951  154.8390 H   0  0  0  0  0  0  0  0  0  0  0  0  # atno 10764 bound_to 10752
  154.7171  135.3109  154.9067 H   0  0  0  0  0  0  0  0  0  0  0  0  # atno 10765 bound_to 10752
  140.6413  134.4548  157.5233 H   0  0  0  0  0  0  0  0  0  0  0  0  # atno 11005 bound_to 11000
  145.1520  139.2509  143.5436 LP  0  0  0  0  0  0  0  0  0  0  0  0  # atno 17320 bound_to 7965
  146.3518  140.1225  142.8600 LP  0  0  0  0  0  0  0  0  0  0  0  0  # atno 17321 bound_to 7965
  139.9446  144.6660  150.8232 LP  0  0  0  0  0  0  0  0  0  0  0  0  # atno 17342 bound_to 10162
  140.7634  143.3222  151.2596 LP  0  0  0  0  0  0  0  0  0  0  0  0  # atno 17343 bound_to 10162
  156.4487  130.4007  149.6650 LP  0  0  0  0  0  0  0  0  0  0  0  0  # atno 17370 bound_to 10713
  156.3807  130.7577  151.2570 LP  0  0  0  0  0  0  0  0  0  0  0  0  # atno 17371 bound_to 10713
  139.9079  134.8409  156.1637 LP  0  0  0  0  0  0  0  0  0  0  0  0  # atno 17394 bound_to 11000
  141.0604  133.6844  156.1942 LP  0  0  0  0  0  0  0  0  0  0  0  0  # atno 17395 bound_to 11000

$$$$
