AV-unprocessed.smi:3331|AV-procd|sdf|12826|dock7
  -GOLD-   2272019203D 1   1.00000     0.00000
 Structure written by MMmdl.
 46 47  0  0  0  0  0  0  0  0  1 V2000
  147.3142  140.6750  153.3616 C   0  0  0  0  0  0  0  0  0  0  0  0
  148.0798  140.0916  154.5571 C   0  0  2  0  0  0  0  0  0  0  0  0
  147.1344  139.7963  155.7436 C   0  0  0  0  0  0  0  0  0  0  0  0
  147.8869  139.3366  157.0126 C   0  0  1  0  0  0  0  0  0  0  0  0
  148.3401  137.8688  156.9192 C   0  0  0  0  0  0  0  0  0  0  0  0
  149.0534  140.3032  157.3145 C   0  0  0  0  0  0  0  0  0  0  0  0
  149.9307  140.4082  156.1381 N   0  0  0  0  0  0  0  0  0  0  0  0
  151.1990  139.9329  156.0351 C   0  0  0  0  0  0  0  0  0  0  0  0
  151.8505  140.0456  154.9949 O   0  0  0  0  0  0  0  0  0  0  0  0
  151.8584  139.2397  157.2469 C   0  0  1  0  0  0  0  0  0  0  0  0
  152.5748  137.9344  156.8342 C   0  0  0  0  0  0  0  0  0  0  0  0
  152.7844  140.1732  157.9092 N   0  0  0  0  0  0  0  0  0  0  0  0
  152.1077  141.1073  158.8007 C   0  0  0  0  0  0  0  0  0  0  0  0
  153.0567  142.2533  159.1896 C   0  0  0  0  0  0  0  0  0  0  0  0
  152.3853  143.5410  159.2198 N   0  0  0  0  0  0  0  0  0  0  0  0
  152.4429  144.5133  160.1961 C   0  0  0  0  0  0  0  0  0  0  0  0
  151.6490  145.5467  159.7882 C   0  0  0  0  0  0  0  0  0  0  0  0
  151.1382  145.1058  158.5355 C   0  0  0  0  0  0  0  0  0  0  0  0
  151.5784  143.9041  158.1992 N   0  0  0  0  0  0  0  0  0  0  0  0
  149.2247  141.0234  155.0058 C   0  0  0  0  0  0  0  0  0  0  0  0
  146.8469  141.6266  153.6163 H   0  0  0  0  0  0  0  0  0  0  0  0
  146.5289  139.9955  153.0295 H   0  0  0  0  0  0  0  0  0  0  0  0
  147.9802  140.8471  152.5156 H   0  0  0  0  0  0  0  0  0  0  0  0
  148.5223  139.1496  154.2300 H   0  0  0  0  0  0  0  0  0  0  0  0
  146.5803  140.7049  155.9834 H   0  0  0  0  0  0  0  0  0  0  0  0
  146.3856  139.0564  155.4581 H   0  0  0  0  0  0  0  0  0  0  0  0
  147.1872  139.3933  157.8475 H   0  0  0  0  0  0  0  0  0  0  0  0
  149.0464  137.7097  156.1044 H   0  0  0  0  0  0  0  0  0  0  0  0
  147.4897  137.2076  156.7511 H   0  0  0  0  0  0  0  0  0  0  0  0
  148.8237  137.5508  157.8431 H   0  0  0  0  0  0  0  0  0  0  0  0
  148.6547  141.2942  157.5368 H   0  0  0  0  0  0  0  0  0  0  0  0
  149.5644  140.0017  158.2264 H   0  0  0  0  0  0  0  0  0  0  0  0
  151.0648  138.9565  157.9379 H   0  0  0  0  0  0  0  0  0  0  0  0
  151.9243  137.2976  156.2331 H   0  0  0  0  0  0  0  0  0  0  0  0
  152.8688  137.3430  157.7007 H   0  0  0  0  0  0  0  0  0  0  0  0
  153.4741  138.1366  156.2507 H   0  0  0  0  0  0  0  0  0  0  0  0
  153.3056  140.7085  157.2293 H   0  0  0  0  0  0  0  0  0  0  0  0
  151.2360  141.5217  158.2925 H   0  0  0  0  0  0  0  0  0  0  0  0
  151.7498  140.6052  159.6989 H   0  0  0  0  0  0  0  0  0  0  0  0
  153.5193  142.0590  160.1590 H   0  0  0  0  0  0  0  0  0  0  0  0
  153.8700  142.3184  158.4662 H   0  0  0  0  0  0  0  0  0  0  0  0
  153.0400  144.3910  161.0879 H   0  0  0  0  0  0  0  0  0  0  0  0
  151.4616  146.4757  160.3056 H   0  0  0  0  0  0  0  0  0  0  0  0
  150.4640  145.6190  157.8658 H   0  0  0  0  0  0  0  0  0  0  0  0
  149.8833  141.2344  154.1623 H   0  0  0  0  0  0  0  0  0  0  0  0
  148.8256  141.9915  155.3128 H   0  0  0  0  0  0  0  0  0  0  0  0
  1  2  1  0  0  0  0
  1 21  1  0  0  0  0
  1 22  1  0  0  0  0
  1 23  1  0  0  0  0
  2 20  1  0  0  0  0
  2  3  1  0  0  0  0
  2 24  1  0  0  0  0
  3  4  1  0  0  0  0
  3 25  1  0  0  0  0
  3 26  1  0  0  0  0
  4  5  1  0  0  0  0
  4  6  1  0  0  0  0
  4 27  1  0  0  0  0
  5 28  1  0  0  0  0
  5 29  1  0  0  0  0
  5 30  1  0  0  0  0
  6  7  1  0  0  0  0
  6 31  1  0  0  0  0
  6 32  1  0  0  0  0
  7  8  1  0  0  0  0
  7 20  1  0  0  0  0
  8  9  2  0  0  0  0
  8 10  1  0  0  0  0
 10 11  1  0  0  0  0
 10 12  1  0  0  0  0
 10 33  1  0  0  0  0
 11 34  1  0  0  0  0
 11 35  1  0  0  0  0
 11 36  1  0  0  0  0
 12 13  1  0  0  0  0
 12 37  1  0  0  0  0
 13 14  1  0  0  0  0
 13 38  1  0  0  0  0
 13 39  1  0  0  0  0
 14 15  1  0  0  0  0
 14 40  1  0  0  0  0
 14 41  1  0  0  0  0
 15 19  1  0  0  0  0
 15 16  1  0  0  0  0
 16 17  2  0  0  0  0
 16 42  1  0  0  0  0
 17 18  1  0  0  0  0
 17 43  1  0  0  0  0
 18 19  2  0  0  0  0
 18 44  1  0  0  0  0
 20 45  1  0  0  0  0
 20 46  1  0  0  0  0
M  END
> <s_m_source_file>
AV-unprocessed.smi

> <i_m_source_file_index>
3331

> <i_lp_mmshare_version>
43012

> <i_f3d_flags>
0

> <s_epik_input>
W0NIM11bQ0BASF0xW0NIMl1bQ0BASF0oW0NIM10pW0NIMl1OKFtDSDJdMSlDKD1PKVtDQEhdKFtDSDNdKVtOSF1bQ0gyXVtDSDJdbjJbY0hdW2NIXVtjSF1uMg==

> <s_epik_cmdline>
J2VwaWtfcHl0aG9uJywgJy1waCcsICc3LjAnLCAnLXRuJywgJzgnLCAnLW1hJywgJzIwMCcsICctbWV0YWxfYmluZGluZycsICctaW1hZScsICc8aW5maWxlLm1hZT4nLCAnLW9tYWUnLCAnPG91dGZpbGUubWFlPic=

> <r_lp_tautomer_probability>
1

> <r_epik_Ionization_Penalty>
0.767994

> <r_epik_Ionization_Penalty_Charging>
0

> <r_epik_Ionization_Penalty_Neutral>
0.767994

> <r_epik_State_Penalty>
0.795453

> <r_epik_Charging_Adjusted_Penalty>
0.795453

> <i_epik_Tot_Q>
0

> <i_epik_Tot_abs_Q>
0

> <r_epik_Metal_State_Penalty>
0.794784

> <b_epik_Metal_Only>
0

> <s_lp_Force_Field>
OPLS_2005

> <r_lp_Energy>
31.6007

> <b_lp_Chiralities_Consistent>
1

> <s_lp_Variant>
AV-unprocessed.smi:3331-10

> <Gold.Version>
5.8.1

> <Gold.Id.Protein>
6NUR|6NUR_protein|mol2

> <Gold.PLP.Fitness>
40.0740

> <Gold.PLP.PLP>
-36.8620

> <Gold.PLP.part.hbond>
-1.9326

> <Gold.PLP.part.metal>
0.0000

> <Gold.PLP.part.buried>
-5.1771

> <Gold.PLP.part.nonpolar>
-30.5119

> <Gold.PLP.part.repulsive>
0.1452

> <Gold.PLP.ligand.clash>
0.0000

> <Gold.PLP.ligand.torsion>
1.1416

> <Gold.PLP.Chemscore.Hbond>
0.8320

> <Gold.PLP.Chemscore.CHOScore>
0.9852

> <Gold.PLP.Chemscore.Metal>
0.0000

> <Gold.Chemscore.Hbonds>
donor molecule, donor type, donor heavy atom, donor atom, acceptor molecule, acceptor atom, score
      P1  H  7989  7998       L1     9  0.91
      L1  C    18    44       P1  8028  0.09
      L1  C    18    44       P1  8029  0.49

> <Gold.PLP.Chemscore.Internal.Correction>
0.0437

> <Gold.Rescore>
     Score         DG    S(hbond)    S(metal)    S(lipo)     H(rot)  DE(clash)    DE(int)     intcor
     13.35     -14.73       0.94        0.00      88.65       1.66       0.04       1.34       ----

> <Gold.Chemscore.Fitness>
13.3518

> <Gold.Chemscore.DG>
-14.7290

> <Gold.Chemscore.ZeroCoef>
-5.4800

> <Gold.Chemscore.Hbond>
0.9399

> <Gold.Chemscore.Metal>
0.0000

> <Gold.Chemscore.Lipo>
88.6475

> <Gold.Chemscore.Internal_Hbond>
0.0000

> <Gold.Chemscore.DEClash>
0.0363

> <Gold.Chemscore.DEInternal>
1.3408

> <Gold.Chemscore.Rot>
1.6649

> <Gold.Chemscore.Internal.Correction>
   9.000000E+99

> <Gold.Chemscore.Hbonds>
donor molecule, donor type, donor heavy atom, donor atom, acceptor molecule, acceptor atom, score
      P1  H  7989  7998       L1     9  0.90

> <Gold.Chemscore.Hbond.Weighted>
-3.1393

> <Gold.Chemscore.Metal.Weighted>
-0.0000

> <Gold.Chemscore.Lipo.Weighted>
-10.3718

> <Gold.Chemscore.Internal_Hbond.Weighted>
0.0000

> <Gold.Chemscore.DEClash.Weighted>
0.0363

> <Gold.Chemscore.DEInternal.Weighted>
1.3408

> <Gold.Chemscore.Rot.Weighted>
4.2621

> <Gold.Chemscore.Internal.Correction.Weighted>
   9.000000E+99

> <Gold.Protein.RotatedTorsions>
[ 6907 6896 6895 6894 ] final  116.26 input  -60.11 | X-H torsion
[ 7974 7965 7964 7962 ] final   22.14 input  175.53 | X-H torsion
[ 8008 7997 7996 7995 ] final   20.46 input   59.86 | X-H torsion
[ 10167 10162 10161 10158 ] final  -23.85 input  -65.29 | X-H torsion
[ 10718 10713 10712 10709 ] final  155.53 input   66.30 | X-H torsion
[ 10763 10752 10751 10750 ] final  -22.59 input  -60.55 | X-H torsion
[ 11005 11000 10999 10996 ] final   51.25 input  -57.11 | X-H torsion

> <Gold.Protein.ActiveResidues>
 VAL166  LYS551  ARG553  GLY616  TRP617  ASP618  TYR619  PRO620  LYS621  CYS622 
 ASP623  PHE694  ASN695  SER759  ASP760  ASP761  ALA762  ILE779  LEU786  VAL792 
 PHE793  MET794  SER795  GLU796  ALA797  LYS798  CYS799  TRP800  GLU811  SER814 

> <Gold.Protein.RotatedAtoms>
  152.4689  133.7985  159.6940 H   0  0  0  0  0  0  0  0  0  0  0  0  # atno 6907 bound_to 6896
  150.8668  133.7553  159.2980 H   0  0  0  0  0  0  0  0  0  0  0  0  # atno 6908 bound_to 6896
  151.5101  135.1068  159.9903 H   0  0  0  0  0  0  0  0  0  0  0  0  # atno 6909 bound_to 6896
  146.2041  139.7927  142.8739 H   0  0  0  0  0  0  0  0  0  0  0  0  # atno 7974 bound_to 7965
  154.9359  140.3046  155.5144 H   0  0  0  0  0  0  0  0  0  0  0  0  # atno 8008 bound_to 7997
  156.3000  140.2345  156.4360 H   0  0  0  0  0  0  0  0  0  0  0  0  # atno 8009 bound_to 7997
  154.8192  140.0424  157.1387 H   0  0  0  0  0  0  0  0  0  0  0  0  # atno 8010 bound_to 7997
  140.7288  143.4405  151.0664 H   0  0  0  0  0  0  0  0  0  0  0  0  # atno 10167 bound_to 10162
  157.2172  131.0710  151.1934 H   0  0  0  0  0  0  0  0  0  0  0  0  # atno 10718 bound_to 10713
  153.6544  135.6979  153.5198 H   0  0  0  0  0  0  0  0  0  0  0  0  # atno 10763 bound_to 10752
  153.2681  135.4223  155.0960 H   0  0  0  0  0  0  0  0  0  0  0  0  # atno 10764 bound_to 10752
  154.8468  135.3571  154.6089 H   0  0  0  0  0  0  0  0  0  0  0  0  # atno 10765 bound_to 10752
  140.0948  134.5160  155.8817 H   0  0  0  0  0  0  0  0  0  0  0  0  # atno 11005 bound_to 11000
  145.3380  141.0281  143.3408 LP  0  0  0  0  0  0  0  0  0  0  0  0  # atno 17320 bound_to 7965
  144.8752  139.4981  143.6749 LP  0  0  0  0  0  0  0  0  0  0  0  0  # atno 17321 bound_to 7965
  139.8072  143.8001  152.3168 LP  0  0  0  0  0  0  0  0  0  0  0  0  # atno 17342 bound_to 10162
  139.8038  144.7363  150.9789 LP  0  0  0  0  0  0  0  0  0  0  0  0  # atno 17343 bound_to 10162
  157.3613  130.7133  149.6503 LP  0  0  0  0  0  0  0  0  0  0  0  0  # atno 17370 bound_to 10713
  155.9685  130.4225  150.4517 LP  0  0  0  0  0  0  0  0  0  0  0  0  # atno 17371 bound_to 10713
  141.2089  133.6678  156.6401 LP  0  0  0  0  0  0  0  0  0  0  0  0  # atno 17394 bound_to 11000
  140.3301  134.7936  157.4319 LP  0  0  0  0  0  0  0  0  0  0  0  0  # atno 17395 bound_to 11000

$$$$
