AV-unprocessed.smi:527|AV-procd|sdf|2825|dock3
  -GOLD-   2262023313D 1   1.00000     0.00000
 Structure written by MMmdl.
 43 44  0  0  0  0  0  0  0  0  2 V2000
  152.7247  142.7667  161.5993 C   0  0  0  0  0  0  0  0  0  0  0  0
  152.7909  142.9659  160.0736 C   0  0  2  0  0  0  0  0  0  0  0  0
  152.4729  144.4355  159.7328 C   0  0  0  0  0  0  0  0  0  0  0  0
  152.5591  144.7032  158.2265 C   0  0  0  0  0  0  0  0  0  0  0  0
  151.6125  143.7756  157.4597 C   0  0  0  0  0  0  0  0  0  0  0  0
  151.9070  142.2941  157.7646 C   0  0  2  0  0  0  0  0  0  0  0  0
  150.9448  141.4568  157.0495 N   0  0  0  0  0  0  0  0  0  0  0  0
  151.2525  140.4944  156.1673 C   0  0  0  0  0  0  0  0  0  0  0  0
  152.3841  140.0204  156.0465 O   0  0  0  0  0  0  0  0  0  0  0  0
  150.1690  140.1329  155.4532 N   0  0  0  0  0  0  0  0  0  0  0  0
  149.9822  138.9900  154.7625 C   0  0  0  0  0  0  0  0  0  0  0  0
  150.8038  138.0736  154.6760 O   0  0  0  0  0  0  0  0  0  0  0  0
  148.6254  138.8835  154.0541 C   0  0  0  0  0  0  0  0  0  0  0  0
  147.8240  140.1100  154.1540 N   0  0  0  0  0  0  0  0  0  0  0  0
  148.0909  141.3267  153.5790 C   0  0  0  0  0  0  0  0  0  0  0  0
  147.0731  142.1667  153.9514 C   0  0  0  0  0  0  0  0  0  0  0  0
  146.2296  141.4291  154.7381 N   0  3  0  0  0  0  0  0  0  0  0  0
  146.6879  140.1789  154.8610 C   0  0  0  0  0  0  0  0  0  0  0  0
  151.8627  141.9955  159.2883 C   0  0  1  0  0  0  0  0  0  0  0  0
  152.2013  140.5153  159.5720 C   0  0  0  0  0  0  0  0  0  0  0  0
  151.7024  142.8573  161.9674 H   0  0  0  0  0  0  0  0  0  0  0  0
  153.3289  143.5125  162.1169 H   0  0  0  0  0  0  0  0  0  0  0  0
  153.1074  141.7923  161.9006 H   0  0  0  0  0  0  0  0  0  0  0  0
  153.8193  142.7729  159.7644 H   0  0  0  0  0  0  0  0  0  0  0  0
  151.4742  144.6907  160.0904 H   0  0  0  0  0  0  0  0  0  0  0  0
  153.1642  145.0983  160.2545 H   0  0  0  0  0  0  0  0  0  0  0  0
  152.3087  145.7439  158.0184 H   0  0  0  0  0  0  0  0  0  0  0  0
  153.5831  144.5542  157.8817 H   0  0  0  0  0  0  0  0  0  0  0  0
  150.5812  144.0116  157.7261 H   0  0  0  0  0  0  0  0  0  0  0  0
  151.7064  143.9663  156.3898 H   0  0  0  0  0  0  0  0  0  0  0  0
  152.9136  142.0630  157.4099 H   0  0  0  0  0  0  0  0  0  0  0  0
  149.9698  141.6220  157.2515 H   0  0  0  0  0  0  0  0  0  0  0  0
  149.4078  140.7953  155.4344 H   0  0  0  0  0  0  0  0  0  0  0  0
  148.7802  138.6678  152.9962 H   0  0  0  0  0  0  0  0  0  0  0  0
  148.0483  138.0593  154.4763 H   0  0  0  0  0  0  0  0  0  0  0  0
  148.9635  141.5006  152.9662 H   0  0  0  0  0  0  0  0  0  0  0  0
  146.8920  143.2068  153.7229 H   0  0  0  0  0  0  0  0  0  0  0  0
  146.2311  139.3836  155.4228 H   0  0  0  0  0  0  0  0  0  0  0  0
  150.8408  142.1679  159.6305 H   0  0  0  0  0  0  0  0  0  0  0  0
  153.2325  140.2878  159.3007 H   0  0  0  0  0  0  0  0  0  0  0  0
  151.5572  139.8354  159.0146 H   0  0  0  0  0  0  0  0  0  0  0  0
  152.0683  140.2628  160.6231 H   0  0  0  0  0  0  0  0  0  0  0  0
  145.3815  141.7775  155.1675 H   0  0  0  0  0  0  0  0  0  0  0  0
  1  2  1  0  0  0  0
  1 21  1  0  0  0  0
  1 22  1  0  0  0  0
  1 23  1  0  0  0  0
  2 19  1  0  0  0  0
  2  3  1  0  0  0  0
  2 24  1  0  0  0  0
  3  4  1  0  0  0  0
  3 25  1  0  0  0  0
  3 26  1  0  0  0  0
  4  5  1  0  0  0  0
  4 27  1  0  0  0  0
  4 28  1  0  0  0  0
  5  6  1  0  0  0  0
  5 29  1  0  0  0  0
  5 30  1  0  0  0  0
  6  7  1  0  0  0  0
  6 19  1  0  0  0  0
  6 31  1  0  0  0  0
  7  8  1  0  0  0  0
  7 32  1  0  0  0  0
  8  9  2  0  0  0  0
  8 10  1  0  0  0  0
 10 11  1  0  0  0  0
 10 33  1  0  0  0  0
 11 12  2  0  0  0  0
 11 13  1  0  0  0  0
 13 14  1  0  0  0  0
 13 34  1  0  0  0  0
 13 35  1  0  0  0  0
 14 18  1  0  0  0  0
 14 15  1  0  0  0  0
 15 16  2  0  0  0  0
 15 36  1  0  0  0  0
 16 17  1  0  0  0  0
 16 37  1  0  0  0  0
 17 18  2  0  0  0  0
 17 43  1  0  0  0  0
 18 38  1  0  0  0  0
 19 20  1  0  0  0  0
 19 39  1  0  0  0  0
 20 40  1  0  0  0  0
 20 41  1  0  0  0  0
 20 42  1  0  0  0  0
M  CHG  1  17   1
M  END
> <s_m_source_file>
AV-unprocessed.smi

> <i_m_source_file_index>
527

> <i_lp_mmshare_version>
43012

> <i_f3d_flags>
0

> <s_epik_input>
W0NIM11bQ0BASF0xW0NIMl1bQ0gyXVtDSDJdW0NASF0oW0NASF0xW0NIM10pW05IXUMoPU8pW05IXUMoPU8pW0NIMl1uMltjSF1bY0hdbltjSF0y

> <s_epik_cmdline>
J2VwaWtfcHl0aG9uJywgJy1waCcsICc3LjAnLCAnLXRuJywgJzgnLCAnLW1hJywgJzIwMCcsICctbWV0YWxfYmluZGluZycsICctaW1hZScsICc8aW5maWxlLm1hZT4nLCAnLW9tYWUnLCAnPG91dGZpbGUubWFlPic=

> <r_lp_tautomer_probability>
1

> <r_epik_Ionization_Penalty>
0.816441

> <r_epik_Ionization_Penalty_Charging>
0

> <r_epik_Ionization_Penalty_Neutral>
0.816441

> <r_epik_State_Penalty>
0.849034

> <r_epik_Charging_Adjusted_Penalty>
0.849034

> <i_epik_Tot_Q>
1

> <i_epik_Tot_abs_Q>
1

> <r_epik_Metal_State_Penalty>
0.984327

> <b_epik_Metal_Only>
0

> <s_lp_Force_Field>
OPLS_2005

> <r_lp_Energy>
16.8338

> <b_lp_Chiralities_Consistent>
1

> <s_lp_Variant>
AV-unprocessed.smi:527-11

> <Gold.Version>
5.8.1

> <Gold.Id.Protein>
6NUR|6NUR_protein|mol2

> <Gold.PLP.Fitness>
47.6513

> <Gold.PLP.PLP>
-42.5120

> <Gold.PLP.part.hbond>
-1.0000

> <Gold.PLP.part.metal>
0.0000

> <Gold.PLP.part.buried>
-4.9909

> <Gold.PLP.part.nonpolar>
-35.9280

> <Gold.PLP.part.repulsive>
0.3356

> <Gold.PLP.ligand.clash>
0.0000

> <Gold.PLP.ligand.torsion>
0.2462

> <Gold.PLP.Chemscore.Hbond>
1.0000

> <Gold.PLP.Chemscore.CHOScore>
0.8716

> <Gold.PLP.Chemscore.Metal>
0.0000

> <Gold.Chemscore.Hbonds>
donor molecule, donor type, donor heavy atom, donor atom, acceptor molecule, acceptor atom, score
      P1  H  7997  8009       L1     9  1.00
      L1  C    15    36       P1  7957  0.87

> <Gold.PLP.Chemscore.Internal.Correction>
0.0171

> <Gold.Rescore>
     Score         DG    S(hbond)    S(metal)    S(lipo)     H(rot)  DE(clash)    DE(int)     intcor
     15.38     -17.02       1.00        0.00     107.47       1.71       0.04       1.60       ----

> <Gold.Chemscore.Fitness>
15.3781

> <Gold.Chemscore.DG>
-17.0173

> <Gold.Chemscore.ZeroCoef>
-5.4800

> <Gold.Chemscore.Hbond>
0.9967

> <Gold.Chemscore.Metal>
0.0000

> <Gold.Chemscore.Lipo>
107.4674

> <Gold.Chemscore.Internal_Hbond>
0.0000

> <Gold.Chemscore.DEClash>
0.0354

> <Gold.Chemscore.DEInternal>
1.6038

> <Gold.Chemscore.Rot>
1.7052

> <Gold.Chemscore.Internal.Correction>
   9.000000E+99

> <Gold.Chemscore.Hbonds>
donor molecule, donor type, donor heavy atom, donor atom, acceptor molecule, acceptor atom, score
      P1  H  7997  8009       L1     9  0.95

> <Gold.Chemscore.Hbond.Weighted>
-3.3289

> <Gold.Chemscore.Metal.Weighted>
-0.0000

> <Gold.Chemscore.Lipo.Weighted>
-12.5737

> <Gold.Chemscore.Internal_Hbond.Weighted>
0.0000

> <Gold.Chemscore.DEClash.Weighted>
0.0354

> <Gold.Chemscore.DEInternal.Weighted>
1.6038

> <Gold.Chemscore.Rot.Weighted>
4.3653

> <Gold.Chemscore.Internal.Correction.Weighted>
   9.000000E+99

> <Gold.Protein.RotatedTorsions>
[ 6907 6896 6895 6894 ] final -107.04 input  -60.11 | X-H torsion
[ 7974 7965 7964 7962 ] final  151.74 input  175.53 | X-H torsion
[ 8008 7997 7996 7995 ] final -145.92 input   59.86 | X-H torsion
[ 10167 10162 10161 10158 ] final -173.00 input  -65.29 | X-H torsion
[ 10718 10713 10712 10709 ] final  -97.75 input   66.30 | X-H torsion
[ 10763 10752 10751 10750 ] final   53.16 input  -60.55 | X-H torsion
[ 11005 11000 10999 10996 ] final  107.97 input  -57.11 | X-H torsion

> <Gold.Protein.ActiveResidues>
 VAL166  LYS551  ARG553  GLY616  TRP617  ASP618  TYR619  PRO620  LYS621  CYS622 
 ASP623  PHE694  ASN695  SER759  ASP760  ASP761  ALA762  ILE779  LEU786  VAL792 
 PHE793  MET794  SER795  GLU796  ALA797  LYS798  CYS799  TRP800  GLU811  SER814 

> <Gold.Protein.RotatedAtoms>
  150.7422  133.9886  159.3599 H   0  0  0  0  0  0  0  0  0  0  0  0  # atno 6907 bound_to 6896
  151.7832  135.0754  160.0386 H   0  0  0  0  0  0  0  0  0  0  0  0  # atno 6908 bound_to 6896
  152.3259  133.5868  159.5813 H   0  0  0  0  0  0  0  0  0  0  0  0  # atno 6909 bound_to 6896
  144.8271  139.6577  143.6075 H   0  0  0  0  0  0  0  0  0  0  0  0  # atno 7974 bound_to 7965
  155.5510  140.0616  157.2850 H   0  0  0  0  0  0  0  0  0  0  0  0  # atno 8008 bound_to 7997
  154.4420  140.1902  156.0731 H   0  0  0  0  0  0  0  0  0  0  0  0  # atno 8009 bound_to 7997
  156.0516  140.3283  155.7361 H   0  0  0  0  0  0  0  0  0  0  0  0  # atno 8010 bound_to 7997
  139.5713  144.1636  152.1387 H   0  0  0  0  0  0  0  0  0  0  0  0  # atno 10167 bound_to 10162
  156.0091  130.5208  150.6421 H   0  0  0  0  0  0  0  0  0  0  0  0  # atno 10718 bound_to 10713
  152.9793  135.5788  154.4696 H   0  0  0  0  0  0  0  0  0  0  0  0  # atno 10763 bound_to 10752
  154.4260  135.2772  155.1946 H   0  0  0  0  0  0  0  0  0  0  0  0  # atno 10764 bound_to 10752
  154.3674  135.6175  153.5776 H   0  0  0  0  0  0  0  0  0  0  0  0  # atno 10765 bound_to 10752
  139.8836  134.9417  156.5901 H   0  0  0  0  0  0  0  0  0  0  0  0  # atno 11005 bound_to 11000
  146.2576  139.6337  142.9384 LP  0  0  0  0  0  0  0  0  0  0  0  0  # atno 17320 bound_to 7965
  145.4976  141.0438  143.2558 LP  0  0  0  0  0  0  0  0  0  0  0  0  # atno 17321 bound_to 7965
  140.1170  144.5407  150.6888 LP  0  0  0  0  0  0  0  0  0  0  0  0  # atno 17342 bound_to 10162
  140.6997  143.2426  151.4900 LP  0  0  0  0  0  0  0  0  0  0  0  0  # atno 17343 bound_to 10162
  157.4199  131.0835  151.1141 LP  0  0  0  0  0  0  0  0  0  0  0  0  # atno 17370 bound_to 10713
  157.1746  130.6282  149.5651 LP  0  0  0  0  0  0  0  0  0  0  0  0  # atno 17371 bound_to 10713
  140.7962  133.8542  155.8688 LP  0  0  0  0  0  0  0  0  0  0  0  0  # atno 17394 bound_to 11000
  140.9633  134.1627  157.4636 LP  0  0  0  0  0  0  0  0  0  0  0  0  # atno 17395 bound_to 11000

$$$$
