AV-unprocessed.smi:3329|AV-procd|sdf|12798|dock10
  -GOLD-   2272019153D 1   1.00000     0.00000
 Structure written by MMmdl.
 41 42  0  0  0  0  0  0  0  0  1 V2000
  144.1290  132.3520  149.6269 C   0  0  0  0  0  0  0  0  0  0  0  0
  144.0671  133.4746  150.6223 C   0  0  0  0  0  0  0  0  0  0  0  0
  143.7024  133.4062  151.9974 C   0  0  0  0  0  0  0  0  0  0  0  0
  143.7522  134.5820  152.6021 N   0  0  0  0  0  0  0  0  0  0  0  0
  144.1478  135.4399  151.6381 N   0  0  0  0  0  0  0  0  0  0  0  0
  144.3206  136.8477  151.9495 C   0  0  0  0  0  0  0  0  0  0  0  0
  145.7127  137.1576  152.5265 C   0  0  0  0  0  0  0  0  0  0  0  0
  146.5789  137.6949  151.4870 N   0  0  0  0  0  0  0  0  0  0  0  0
  146.7434  139.1433  151.6429 C   0  0  0  0  0  0  0  0  0  0  0  0
  147.4334  139.4912  152.9608 C   0  0  0  0  0  0  0  0  0  0  0  0
  146.9366  140.3335  153.7066 O   0  0  0  0  0  0  0  0  0  0  0  0
  148.5767  138.8352  153.2263 N   0  0  0  0  0  0  0  0  0  0  0  0
  149.4254  138.9405  154.4158 C   0  0  2  0  0  0  0  0  0  0  0  0
  150.5838  137.9276  154.3203 C   0  0  0  0  0  0  0  0  0  0  0  0
  148.5989  138.5600  155.5765 C   0  0  0  0  0  0  0  0  0  0  0  0
  147.9510  138.2637  156.4888 N   0  0  0  0  0  0  0  0  0  0  0  0
  149.9890  140.3494  154.6318 C   0  0  0  0  0  0  0  0  0  0  0  0
  150.5493  140.8064  155.9606 C   0  0  0  0  0  0  0  0  0  0  0  0
  149.2619  141.4040  155.4355 C   0  0  0  0  0  0  0  0  0  0  0  0
  144.3419  134.7992  150.4326 C   0  0  0  0  0  0  0  0  0  0  0  0
  144.1692  131.3784  150.1160 H   0  0  0  0  0  0  0  0  0  0  0  0
  145.0102  132.4267  148.9894 H   0  0  0  0  0  0  0  0  0  0  0  0
  143.2571  132.3476  148.9725 H   0  0  0  0  0  0  0  0  0  0  0  0
  143.4051  132.5408  152.5710 H   0  0  0  0  0  0  0  0  0  0  0  0
  144.1411  137.4329  151.0463 H   0  0  0  0  0  0  0  0  0  0  0  0
  143.5500  137.1371  152.6653 H   0  0  0  0  0  0  0  0  0  0  0  0
  145.6175  137.8847  153.3339 H   0  0  0  0  0  0  0  0  0  0  0  0
  146.1535  136.2555  152.9540 H   0  0  0  0  0  0  0  0  0  0  0  0
  147.4698  137.2206  151.5325 H   0  0  0  0  0  0  0  0  0  0  0  0
  147.3378  139.5420  150.8195 H   0  0  0  0  0  0  0  0  0  0  0  0
  145.7680  139.6313  151.6059 H   0  0  0  0  0  0  0  0  0  0  0  0
  148.8825  138.1682  152.5323 H   0  0  0  0  0  0  0  0  0  0  0  0
  151.1708  137.9202  155.2395 H   0  0  0  0  0  0  0  0  0  0  0  0
  151.2685  138.1608  153.5048 H   0  0  0  0  0  0  0  0  0  0  0  0
  150.2123  136.9142  154.1625 H   0  0  0  0  0  0  0  0  0  0  0  0
  150.5372  140.7258  153.7706 H   0  0  0  0  0  0  0  0  0  0  0  0
  150.4810  140.1324  156.8117 H   0  0  0  0  0  0  0  0  0  0  0  0
  151.4389  141.4327  155.9380 H   0  0  0  0  0  0  0  0  0  0  0  0
  149.2967  142.4260  155.0637 H   0  0  0  0  0  0  0  0  0  0  0  0
  148.3369  141.1257  155.9358 H   0  0  0  0  0  0  0  0  0  0  0  0
  144.6610  135.3337  149.5499 H   0  0  0  0  0  0  0  0  0  0  0  0
  1  2  1  0  0  0  0
  1 21  1  0  0  0  0
  1 22  1  0  0  0  0
  1 23  1  0  0  0  0
  2 20  2  0  0  0  0
  2  3  1  0  0  0  0
  3  4  2  0  0  0  0
  3 24  1  0  0  0  0
  4  5  1  0  0  0  0
  5  6  1  0  0  0  0
  5 20  1  0  0  0  0
  6  7  1  0  0  0  0
  6 25  1  0  0  0  0
  6 26  1  0  0  0  0
  7  8  1  0  0  0  0
  7 27  1  0  0  0  0
  7 28  1  0  0  0  0
  8  9  1  0  0  0  0
  8 29  1  0  0  0  0
  9 10  1  0  0  0  0
  9 30  1  0  0  0  0
  9 31  1  0  0  0  0
 10 11  2  0  0  0  0
 10 12  1  0  0  0  0
 12 13  1  0  0  0  0
 12 32  1  0  0  0  0
 13 14  1  0  0  0  0
 13 15  1  0  0  0  0
 13 17  1  0  0  0  0
 14 33  1  0  0  0  0
 14 34  1  0  0  0  0
 14 35  1  0  0  0  0
 15 16  3  0  0  0  0
 17 19  1  0  0  0  0
 17 18  1  0  0  0  0
 17 36  1  0  0  0  0
 18 19  1  0  0  0  0
 18 37  1  0  0  0  0
 18 38  1  0  0  0  0
 19 39  1  0  0  0  0
 19 40  1  0  0  0  0
 20 41  1  0  0  0  0
M  END
> <s_m_source_file>
AV-unprocessed.smi

> <i_m_source_file_index>
3329

> <i_lp_mmshare_version>
43012

> <i_f3d_flags>
0

> <s_epik_input>
W0NIM11jMVtjSF1ubihbY0hdMSlbQ0gyXVtDSDJdW05IXVtDSDJdQyg9TylbTkhdW0NAQF0oW0NIM10pKEMjTilbQ0hdMltDSDJdW0NIMl0y

> <s_epik_cmdline>
J2VwaWtfcHl0aG9uJywgJy1waCcsICc3LjAnLCAnLXRuJywgJzgnLCAnLW1hJywgJzIwMCcsICctbWV0YWxfYmluZGluZycsICctaW1hZScsICc8aW5maWxlLm1hZT4nLCAnLW9tYWUnLCAnPG91dGZpbGUubWFlPic=

> <r_lp_tautomer_probability>
1

> <r_epik_Ionization_Penalty>
0.481866

> <r_epik_Ionization_Penalty_Charging>
0

> <r_epik_Ionization_Penalty_Neutral>
0.481866

> <r_epik_State_Penalty>
0.48398

> <r_epik_Charging_Adjusted_Penalty>
0.48398

> <i_epik_Tot_Q>
0

> <i_epik_Tot_abs_Q>
0

> <r_epik_Metal_State_Penalty>
0.5042

> <b_epik_Metal_Only>
0

> <s_lp_Force_Field>
OPLS_2005

> <r_lp_Energy>
14.7625

> <b_lp_Chiralities_Consistent>
1

> <s_lp_Variant>
AV-unprocessed.smi:3329-4

> <Gold.Version>
5.8.1

> <Gold.Id.Protein>
6NUR|6NUR_protein|mol2

> <Gold.PLP.Fitness>
44.9790

> <Gold.PLP.PLP>
-36.6590

> <Gold.PLP.part.hbond>
-3.3162

> <Gold.PLP.part.metal>
0.0000

> <Gold.PLP.part.buried>
2.6148

> <Gold.PLP.part.nonpolar>
-36.4338

> <Gold.PLP.part.repulsive>
0.3364

> <Gold.PLP.ligand.clash>
0.0000

> <Gold.PLP.ligand.torsion>
1.8217

> <Gold.PLP.Chemscore.Hbond>
1.9280

> <Gold.PLP.Chemscore.CHOScore>
1.5201

> <Gold.PLP.Chemscore.Metal>
0.0000

> <Gold.Chemscore.Hbonds>
donor molecule, donor type, donor heavy atom, donor atom, acceptor molecule, acceptor atom, score
      L1  H     8    29       P1  7948  1.00
      L1  H    12    32       P1  7948  1.00
      L1  C     3    24       P1 10957  0.56
      L1  C    20    41       P1  7921  1.00

> <Gold.PLP.Chemscore.Internal.Correction>
1.6191

> <Gold.Rescore>
     Score         DG    S(hbond)    S(metal)    S(lipo)     H(rot)  DE(clash)    DE(int)     intcor
     11.97     -14.29       1.48        0.00      83.55       2.31       0.07       2.24       ----

> <Gold.Chemscore.Fitness>
11.9747

> <Gold.Chemscore.DG>
-14.2905

> <Gold.Chemscore.ZeroCoef>
-5.4800

> <Gold.Chemscore.Hbond>
1.4838

> <Gold.Chemscore.Metal>
0.0000

> <Gold.Chemscore.Lipo>
83.5541

> <Gold.Chemscore.Internal_Hbond>
0.0000

> <Gold.Chemscore.DEClash>
0.0738

> <Gold.Chemscore.DEInternal>
2.2420

> <Gold.Chemscore.Rot>
2.3129

> <Gold.Chemscore.Internal.Correction>
   9.000000E+99

> <Gold.Chemscore.Hbonds>
donor molecule, donor type, donor heavy atom, donor atom, acceptor molecule, acceptor atom, score
      L1  H     8    29       P1  7948  1.00
      L1  H    12    32       P1  7948  0.90

> <Gold.Chemscore.Hbond.Weighted>
-4.9558

> <Gold.Chemscore.Metal.Weighted>
-0.0000

> <Gold.Chemscore.Lipo.Weighted>
-9.7758

> <Gold.Chemscore.Internal_Hbond.Weighted>
0.0000

> <Gold.Chemscore.DEClash.Weighted>
0.0738

> <Gold.Chemscore.DEInternal.Weighted>
2.2420

> <Gold.Chemscore.Rot.Weighted>
5.9211

> <Gold.Chemscore.Internal.Correction.Weighted>
   9.000000E+99

> <Gold.Protein.RotatedTorsions>
[ 6907 6896 6895 6894 ] final   78.85 input  -60.11 | X-H torsion
[ 7974 7965 7964 7962 ] final -113.49 input  175.53 | X-H torsion
[ 8008 7997 7996 7995 ] final   79.02 input   59.86 | X-H torsion
[ 10167 10162 10161 10158 ] final -152.88 input  -65.29 | X-H torsion
[ 10718 10713 10712 10709 ] final -132.65 input   66.30 | X-H torsion
[ 10763 10752 10751 10750 ] final -144.79 input  -60.55 | X-H torsion
[ 11005 11000 10999 10996 ] final -170.17 input  -57.11 | X-H torsion

> <Gold.Protein.ActiveResidues>
 VAL166  LYS551  ARG553  GLY616  TRP617  ASP618  TYR619  PRO620  LYS621  CYS622 
 ASP623  PHE694  ASN695  SER759  ASP760  ASP761  ALA762  ILE779  LEU786  VAL792 
 PHE793  MET794  SER795  GLU796  ALA797  LYS798  CYS799  TRP800  GLU811  SER814 

> <Gold.Protein.RotatedAtoms>
  152.5176  134.3600  159.9281 H   0  0  0  0  0  0  0  0  0  0  0  0  # atno 6907 bound_to 6896
  151.3552  133.3904  159.2692 H   0  0  0  0  0  0  0  0  0  0  0  0  # atno 6908 bound_to 6896
  150.9695  134.9089  159.7837 H   0  0  0  0  0  0  0  0  0  0  0  0  # atno 6909 bound_to 6896
  145.1314  140.8726  143.3756 H   0  0  0  0  0  0  0  0  0  0  0  0  # atno 7974 bound_to 7965
  155.8639  140.3452  155.5775 H   0  0  0  0  0  0  0  0  0  0  0  0  # atno 8008 bound_to 7997
  155.7903  140.0870  157.2032 H   0  0  0  0  0  0  0  0  0  0  0  0  # atno 8009 bound_to 7997
  154.4013  140.1484  156.3142 H   0  0  0  0  0  0  0  0  0  0  0  0  # atno 8010 bound_to 7997
  139.7144  143.9057  152.2480 H   0  0  0  0  0  0  0  0  0  0  0  0  # atno 10167 bound_to 10162
  156.2367  130.7071  151.0915 H   0  0  0  0  0  0  0  0  0  0  0  0  # atno 10718 bound_to 10713
  154.8412  135.3430  154.6402 H   0  0  0  0  0  0  0  0  0  0  0  0  # atno 10763 bound_to 10752
  153.7013  135.6969  153.5067 H   0  0  0  0  0  0  0  0  0  0  0  0  # atno 10764 bound_to 10752
  153.2520  135.4350  155.0762 H   0  0  0  0  0  0  0  0  0  0  0  0  # atno 10765 bound_to 10752
  140.5225  134.5695  157.5052 H   0  0  0  0  0  0  0  0  0  0  0  0  # atno 11005 bound_to 11000
  145.0631  139.3089  143.5870 LP  0  0  0  0  0  0  0  0  0  0  0  0  # atno 17320 bound_to 7965
  146.3513  140.0080  142.8670 LP  0  0  0  0  0  0  0  0  0  0  0  0  # atno 17321 bound_to 7965
  139.8935  144.6952  150.8743 LP  0  0  0  0  0  0  0  0  0  0  0  0  # atno 17342 bound_to 10162
  140.7740  143.3568  151.1906 LP  0  0  0  0  0  0  0  0  0  0  0  0  # atno 17343 bound_to 10162
  157.7157  131.0710  150.6334 LP  0  0  0  0  0  0  0  0  0  0  0  0  # atno 17370 bound_to 10713
  156.6404  130.4457  149.5754 LP  0  0  0  0  0  0  0  0  0  0  0  0  # atno 17371 bound_to 10713
  139.9598  134.7472  156.0262 LP  0  0  0  0  0  0  0  0  0  0  0  0  # atno 17394 bound_to 11000
  141.1326  133.6582  156.3506 LP  0  0  0  0  0  0  0  0  0  0  0  0  # atno 17395 bound_to 11000

$$$$
