#       Name:                AV-unprocessed.smi:2147
#       Creating user name   scv26
#       Creation time:       Fri Mar 27 11:52:11 2020


#       File generated by GOLD software.
#

@<TRIPOS>MOLECULE
AV-unprocessed.smi:2147
    48    50     1
SMALL
NO_CHARGES


@<TRIPOS>ATOM
      1 ****        -4.2830   5.9552  -0.2442 C.3            1 S1                 0.0000
      2 ****        -2.7556   5.9675  -0.2727 C.2            1 S1                 0.0000
      3 ****        -2.1734   7.0516  -0.2617 O.2            1 S1                 0.0000
      4 ****        -2.0499   4.6548  -0.3093 C.ar           1 S1                 0.0000
      5 ****        -2.7544   3.4291  -0.3427 C.ar           1 S1                 0.0000
      6 ****        -2.0575   2.2059  -0.3735 C.ar           1 S1                 0.0000
      7 ****        -0.6491   2.1734  -0.3709 C.ar           1 S1                 0.0000
      8 ****        -0.0501   0.9321  -0.3944 O.3            1 S1                 0.0000
      9 ****         1.3692   0.8700  -0.3485 C.3            1 S1                 0.0000
     10 ****         1.8026  -0.6027  -0.3088 C.3            1 S1                 0.0000
     11 ****         3.2061  -0.6623  -0.4716 O.3            1 S1                 0.0000
     12 ****         1.4032  -1.2964   1.0092 C.3            1 S1                 0.0000
     13 ****         1.8523  -2.6929   1.0794 N.pl3          1 S1                 0.0000
     14 ****         2.9428  -3.2301   1.6907 C.2            1 S1                 0.0000
     15 ****         2.9202  -4.5732   1.4653 N.pl3          1 S1                 1.0000
     16 ****         1.7999  -4.8980   0.6971 C.ar           1 S1                 0.0000
     17 ****         1.3497  -6.1227   0.2138 C.ar           1 S1                 0.0000
     18 ****         0.1611  -6.1050  -0.5456 C.ar           1 S1                 0.0000
     19 ****        -0.5315  -4.9027  -0.7988 C.ar           1 S1                 0.0000
     20 ****        -0.0659  -3.6664  -0.3037 C.ar           1 S1                 0.0000
     21 ****         1.1092  -3.6936   0.4459 C.ar           1 S1                 0.0000
     22 ****         0.0578   3.4006  -0.3434 C.ar           1 S1                 0.0000
     23 ****        -0.6374   4.6248  -0.3127 C.ar           1 S1                 0.0000
     24 ****        -4.6449   5.4138   0.6300 H              1 S1                 0.0000
     25 ****        -4.6776   5.4795  -1.1421 H              1 S1                 0.0000
     26 ****        -4.6715   6.9730  -0.1993 H              1 S1                 0.0000
     27 ****        -3.8337   3.4012  -0.3443 H              1 S1                 0.0000
     28 ****        -2.6130   1.2798  -0.3966 H              1 S1                 0.0000
     29 ****         1.7795   1.3517  -1.2378 H              1 S1                 0.0000
     30 ****         1.7540   1.3942   0.5282 H              1 S1                 0.0000
     31 ****         1.3537  -1.1277  -1.1526 H              1 S1                 0.0000
     32 ****         3.4302  -0.2552  -1.2947 H              1 S1                 0.0000
     33 ****         1.8405  -0.7711   1.8595 H              1 S1                 0.0000
     34 ****         0.3224  -1.2734   1.1546 H              1 S1                 0.0000
     35 ****         3.6921  -2.6876   2.2489 H              1 S1                 0.0000
     36 ****         1.8786  -7.0448   0.4054 H              1 S1                 0.0000
     37 ****        -0.2268  -7.0321  -0.9420 H              1 S1                 0.0000
     38 ****        -1.4385  -4.9294  -1.3853 H              1 S1                 0.0000
     39 ****        -0.6014  -2.7501  -0.5036 H              1 S1                 0.0000
     40 ****         1.1366   3.4319  -0.3447 H              1 S1                 0.0000
     41 ****        -0.0688   5.5435  -0.2905 H              1 S1                 0.0000
     42 ****         3.6207  -5.2173   1.8094 H              1 S1                 0.0000
     43 ****        -2.6996   7.9015  -0.2346 LP             1 S1                 0.0000
     44 ****        -1.1740   7.0827  -0.2799 LP             1 S1                 0.0000
     45 ****        -0.3395   0.4792  -1.2377 LP             1 S1                 0.0000
     46 ****        -0.3948   0.4217   0.3933 LP             1 S1                 0.0000
     47 ****         3.5051  -1.6165  -0.4749 LP             1 S1                 0.0000
     48 ****         3.6537  -0.1753   0.2784 LP             1 S1                 0.0000
@<TRIPOS>BOND
    1    1    2 1     
    2    1   24 1     
    3    1   25 1     
    4    1   26 1     
    5    2    3 2     
    6    2    4 1     
    7    4   23 ar    
    8    4    5 ar    
    9    5    6 ar    
   10    5   27 1     
   11    6    7 ar    
   12    6   28 1     
   13    7    8 1     
   14    7   22 ar    
   15    8    9 1     
   16    9   10 1     
   17    9   29 1     
   18    9   30 1     
   19   10   11 1     
   20   10   12 1     
   21   10   31 1     
   22   11   32 1     
   23   12   13 1     
   24   12   33 1     
   25   12   34 1     
   26   13   21 1     
   27   13   14 1     
   28   14   15 2     
   29   14   35 1     
   30   15   16 1     
   31   15   42 1     
   32   16   21 ar    
   33   16   17 ar    
   34   17   18 ar    
   35   17   36 1     
   36   18   19 ar    
   37   18   37 1     
   38   19   20 ar    
   39   19   38 1     
   40   20   21 ar    
   41   20   39 1     
   42   22   23 ar    
   43   22   40 1     
   44   23   41 1     
   45    3   43 1     
   46    3   44 1     
   47    8   45 1     
   48    8   46 1     
   49   11   47 1     
   50   11   48 1     
@<TRIPOS>SUBSTRUCTURE
      1 S1             1
@<TRIPOS>SET
LONE_PAIRS      STATIC     ATOMS    <user>   **** ""
6 43 44 45 46 47 48
DONOR_HYDROGENS      STATIC     ATOMS    <user>   **** ""
2 32 42
ATOM$BLUE        STATIC     ATOMS    COLORGROUP SYSTEM
6 43 44 45 46 47 48
ATOM$RED        STATIC     ATOMS    COLORGROUP SYSTEM
2 32 42
