#       Name:                AV-unprocessed.smi:2510
#       Creating user name   scv26
#       Creation time:       Fri Mar 27 13:50:50 2020


#       File generated by GOLD software.
#

@<TRIPOS>MOLECULE
AV-unprocessed.smi:2510
    53    54     1
SMALL
NO_CHARGES


@<TRIPOS>ATOM
      1 ****        -2.7904   1.1085  -2.3056 C.3            1 S1                 0.0000
      2 ****        -2.2030  -0.2963  -2.5244 C.3            1 S1                 0.0000
      3 ****        -1.6139  -1.0110  -1.2839 C.3            1 S1                 0.0000
      4 ****        -0.7489  -2.1921  -1.8105 C.3            1 S1                 0.0000
      5 ****        -1.4543  -3.1963  -2.7419 C.3            1 S1                 0.0000
      6 ****        -0.9350  -0.1152  -0.2050 C.3            1 S1                 0.0000
      7 ****         0.5243  -0.1322  -0.2427 N.am           1 S1                 0.0000
      8 ****         1.3184   0.6772   0.4724 C.2            1 S1                 0.0000
      9 ****         0.8829   1.5418   1.2347 O.2            1 S1                 0.0000
     10 ****         2.8255   0.4585   0.2867 C.3            1 S1                 0.0000
     11 ****         3.6495   1.4535   1.0631 C.2            1 S1                 0.0000
     12 ****         4.0578   2.7590   0.6583 C.2            1 S1                 0.0000
     13 ****         4.7777   3.2321   1.7187 C.2            1 S1                 0.0000
     14 ****         5.4747   4.5315   1.9366 C.3            1 S1                 0.0000
     15 ****         4.7713   2.2328   2.6642 N.pl3          1 S1                 0.0000
     16 ****         4.0901   1.1397   2.2740 N.2            1 S1                 0.0000
     17 ****        -1.5187  -1.0119   0.8946 C.3            1 S1                 0.0000
     18 ****        -1.8940  -0.3836   2.2314 C.3            1 S1                 0.0000
     19 ****        -2.6132  -1.3343  -0.1358 C.3            1 S1                 0.0000
     20 ****        -3.0554  -2.6829  -0.1283 O.3            1 S1                 0.0000
     21 ****        -3.9760  -2.9710   0.9094 C.3            1 S1                 0.0000
     22 ****         5.2221   2.2819   3.5668 H              1 S1                 0.0000
     23 ****        -3.2650   1.4654  -3.2198 H              1 S1                 0.0000
     24 ****        -2.0175   1.8327  -2.0481 H              1 S1                 0.0000
     25 ****        -3.5478   1.1215  -1.5229 H              1 S1                 0.0000
     26 ****        -2.9978  -0.9112  -2.9475 H              1 S1                 0.0000
     27 ****        -1.4463  -0.2145  -3.3058 H              1 S1                 0.0000
     28 ****         0.1189  -1.8033  -2.3446 H              1 S1                 0.0000
     29 ****        -0.3350  -2.7580  -0.9759 H              1 S1                 0.0000
     30 ****        -0.7845  -4.0225  -2.9809 H              1 S1                 0.0000
     31 ****        -1.7427  -2.7400  -3.6885 H              1 S1                 0.0000
     32 ****        -2.3475  -3.6261  -2.2918 H              1 S1                 0.0000
     33 ****        -1.3549   0.8892  -0.1367 H              1 S1                 0.0000
     34 ****         0.9582  -0.8150  -0.8470 H              1 S1                 0.0000
     35 ****         3.0720  -0.5607   0.5875 H              1 S1                 0.0000
     36 ****         3.0613   0.5325  -0.7754 H              1 S1                 0.0000
     37 ****         3.8491   3.2698  -0.2701 H              1 S1                 0.0000
     38 ****         5.4010   5.1660   1.0531 H              1 S1                 0.0000
     39 ****         6.5318   4.3730   2.1501 H              1 S1                 0.0000
     40 ****         5.0351   5.0703   2.7761 H              1 S1                 0.0000
     41 ****        -0.8853  -1.8879   1.0467 H              1 S1                 0.0000
     42 ****        -2.5860   0.4486   2.1007 H              1 S1                 0.0000
     43 ****        -1.0128   0.0002   2.7453 H              1 S1                 0.0000
     44 ****        -2.3673  -1.1060   2.8951 H              1 S1                 0.0000
     45 ****        -3.4434  -0.6269  -0.0945 H              1 S1                 0.0000
     46 ****        -4.3180  -4.0015   0.8151 H              1 S1                 0.0000
     47 ****        -4.8503  -2.3210   0.8566 H              1 S1                 0.0000
     48 ****        -3.5157  -2.8639   1.8910 H              1 S1                 0.0000
     49 ****        -0.1040   1.6636   1.3410 LP             1 S1                 0.0000
     50 ****         1.5163   2.1217   1.7471 LP             1 S1                 0.0000
     51 ****         3.9489   0.2886   2.7796 LP             1 S1                 0.0000
     52 ****        -2.2583  -3.2766  -0.0179 LP             1 S1                 0.0000
     53 ****        -3.4961  -2.8762  -1.0049 LP             1 S1                 0.0000
@<TRIPOS>BOND
    1    1    2 1     
    2    1   23 1     
    3    1   24 1     
    4    1   25 1     
    5    2    3 1     
    6    2   26 1     
    7    2   27 1     
    8    3   19 1     
    9    3    4 1     
   10    3    6 1     
   11    4    5 1     
   12    4   28 1     
   13    4   29 1     
   14    5   30 1     
   15    5   31 1     
   16    5   32 1     
   17    6    7 1     
   18    6   17 1     
   19    6   33 1     
   20    7    8 am    
   21    7   34 1     
   22    8    9 2     
   23    8   10 1     
   24   10   11 1     
   25   10   35 1     
   26   10   36 1     
   27   11   16 2     
   28   11   12 1     
   29   12   13 2     
   30   12   37 1     
   31   13   14 1     
   32   13   15 1     
   33   14   38 1     
   34   14   39 1     
   35   14   40 1     
   36   15   22 1     
   37   15   16 1     
   38   17   18 1     
   39   17   19 1     
   40   17   41 1     
   41   18   42 1     
   42   18   43 1     
   43   18   44 1     
   44   19   20 1     
   45   19   45 1     
   46   20   21 1     
   47   21   46 1     
   48   21   47 1     
   49   21   48 1     
   50    9   49 1     
   51    9   50 1     
   52   16   51 1     
   53   20   52 1     
   54   20   53 1     
@<TRIPOS>SUBSTRUCTURE
      1 S1             1
@<TRIPOS>SET
LONE_PAIRS      STATIC     ATOMS    <user>   **** ""
5 49 50 51 52 53
DONOR_HYDROGENS      STATIC     ATOMS    <user>   **** ""
2 34 22
ATOM$BLUE        STATIC     ATOMS    COLORGROUP SYSTEM
5 49 50 51 52 53
ATOM$RED        STATIC     ATOMS    COLORGROUP SYSTEM
2 34 22
