AV-unprocessed.smi:2603|AV-procd|sdf|10186|dock3
  -GOLD-   2272014203D 1   1.00000     0.00000
 Structure written by MMmdl.
 35 36  0  0  0  0  0  0  0  0  1 V2000
  151.8192  145.4055  160.0468 C   0  0  0  0  0  0  0  0  0  0  0  0
  152.1152  144.8266  158.6614 C   0  0  0  0  0  0  0  0  0  0  0  0
  152.2184  143.4178  158.7641 O   0  0  0  0  0  0  0  0  0  0  0  0
  153.3302  143.0169  159.5492 C   0  0  1  0  0  0  0  0  0  0  0  0
  152.9690  142.6076  160.9497 C   0  0  0  0  0  0  0  0  0  0  0  0
  153.3115  141.5483  159.9168 C   0  0  1  0  0  0  0  0  0  0  0  0
  152.2458  140.7473  159.4088 N   0  0  0  0  0  0  0  0  0  0  0  0
  152.3770  139.6848  158.6022 C   0  0  0  0  0  0  0  0  0  0  0  0
  153.4619  139.2364  158.2321 O   0  0  0  0  0  0  0  0  0  0  0  0
  151.0774  139.0358  158.1264 C   0  0  0  0  0  0  0  0  0  0  0  0
  150.9756  139.1532  156.6267 C   0  0  0  0  0  0  0  0  0  0  0  0
  150.8493  140.3336  155.8365 C   0  0  0  0  0  0  0  0  0  0  0  0
  150.7838  141.7674  156.2788 C   0  0  0  0  0  0  0  0  0  0  0  0
  150.7892  140.0581  154.5448 N   0  0  0  0  0  0  0  0  0  0  0  0
  150.8796  138.6667  154.4440 O   0  0  0  0  0  0  0  0  0  0  0  0
  150.9924  138.1522  155.6945 C   0  0  0  0  0  0  0  0  0  0  0  0
  151.1081  136.6691  155.7972 C   0  0  0  0  0  0  0  0  0  0  0  0
  151.7331  146.4914  160.0046 H   0  0  0  0  0  0  0  0  0  0  0  0
  152.6136  145.1602  160.7520 H   0  0  0  0  0  0  0  0  0  0  0  0
  150.8838  145.0112  160.4446 H   0  0  0  0  0  0  0  0  0  0  0  0
  151.3180  145.0944  157.9664 H   0  0  0  0  0  0  0  0  0  0  0  0
  153.0459  145.2439  158.2741 H   0  0  0  0  0  0  0  0  0  0  0  0
  154.2792  143.5038  159.3309 H   0  0  0  0  0  0  0  0  0  0  0  0
  153.7007  142.7986  161.7321 H   0  0  0  0  0  0  0  0  0  0  0  0
  151.9282  142.7077  161.2530 H   0  0  0  0  0  0  0  0  0  0  0  0
  154.2851  141.0724  160.0253 H   0  0  0  0  0  0  0  0  0  0  0  0
  151.3104  141.0410  159.6502 H   0  0  0  0  0  0  0  0  0  0  0  0
  151.0639  137.9928  158.4445 H   0  0  0  0  0  0  0  0  0  0  0  0
  150.2321  139.5116  158.6249 H   0  0  0  0  0  0  0  0  0  0  0  0
  151.0089  141.8730  157.3395 H   0  0  0  0  0  0  0  0  0  0  0  0
  149.7911  142.1844  156.1084 H   0  0  0  0  0  0  0  0  0  0  0  0
  151.5003  142.3790  155.7305 H   0  0  0  0  0  0  0  0  0  0  0  0
  151.5732  136.3780  156.7392 H   0  0  0  0  0  0  0  0  0  0  0  0
  151.7167  136.2694  154.9859 H   0  0  0  0  0  0  0  0  0  0  0  0
  150.1249  136.2018  155.7468 H   0  0  0  0  0  0  0  0  0  0  0  0
  1  2  1  0  0  0  0
  1 18  1  0  0  0  0
  1 19  1  0  0  0  0
  1 20  1  0  0  0  0
  2  3  1  0  0  0  0
  2 21  1  0  0  0  0
  2 22  1  0  0  0  0
  3  4  1  0  0  0  0
  4  6  1  0  0  0  0
  4  5  1  0  0  0  0
  4 23  1  0  0  0  0
  5  6  1  0  0  0  0
  5 24  1  0  0  0  0
  5 25  1  0  0  0  0
  6  7  1  0  0  0  0
  6 26  1  0  0  0  0
  7  8  1  0  0  0  0
  7 27  1  0  0  0  0
  8  9  2  0  0  0  0
  8 10  1  0  0  0  0
 10 11  1  0  0  0  0
 10 28  1  0  0  0  0
 10 29  1  0  0  0  0
 11 16  2  0  0  0  0
 11 12  1  0  0  0  0
 12 13  1  0  0  0  0
 12 14  2  0  0  0  0
 13 30  1  0  0  0  0
 13 31  1  0  0  0  0
 13 32  1  0  0  0  0
 14 15  1  0  0  0  0
 15 16  1  0  0  0  0
 16 17  1  0  0  0  0
 17 33  1  0  0  0  0
 17 34  1  0  0  0  0
 17 35  1  0  0  0  0
M  END
> <s_m_source_file>
AV-unprocessed.smi

> <i_m_source_file_index>
2603

> <i_lp_mmshare_version>
43012

> <i_f3d_flags>
0

> <s_epik_input>
W0NIM11bQ0gyXU9bQ0BASF0xW0NIMl1bQ0BIXTFbTkhdQyg9TylbQ0gyXWMyYyhbQ0gzXSlub2MyW0NIM10=

> <s_epik_cmdline>
J2VwaWtfcHl0aG9uJywgJy1waCcsICc3LjAnLCAnLXRuJywgJzgnLCAnLW1hJywgJzIwMCcsICctbWV0YWxfYmluZGluZycsICctaW1hZScsICc8aW5maWxlLm1hZT4nLCAnLW9tYWUnLCAnPG91dGZpbGUubWFlPic=

> <r_lp_tautomer_probability>
1

> <r_epik_Ionization_Penalty>
2.37325e-08

> <r_epik_Ionization_Penalty_Charging>
0

> <r_epik_Ionization_Penalty_Neutral>
2.37325e-08

> <r_epik_State_Penalty>
-0

> <r_epik_Charging_Adjusted_Penalty>
0

> <i_epik_Tot_Q>
0

> <i_epik_Tot_abs_Q>
0

> <r_epik_Metal_State_Penalty>
-0

> <b_epik_Metal_Only>
0

> <s_lp_Force_Field>
OPLS_2005

> <r_lp_Energy>
11.0439

> <b_lp_Chiralities_Consistent>
1

> <s_lp_Variant>
AV-unprocessed.smi:2603-2

> <Gold.Version>
5.8.1

> <Gold.Id.Protein>
6NUR|6NUR_protein|mol2

> <Gold.PLP.Fitness>
43.4152

> <Gold.PLP.PLP>
-37.6052

> <Gold.PLP.part.hbond>
-1.9094

> <Gold.PLP.part.metal>
0.0000

> <Gold.PLP.part.buried>
-7.1457

> <Gold.PLP.part.nonpolar>
-29.6349

> <Gold.PLP.part.repulsive>
0.4241

> <Gold.PLP.ligand.clash>
0.0000

> <Gold.PLP.ligand.torsion>
0.3988

> <Gold.PLP.Chemscore.Hbond>
1.9750

> <Gold.PLP.Chemscore.CHOScore>
0.0000

> <Gold.PLP.Chemscore.Metal>
0.0000

> <Gold.Chemscore.Hbonds>
donor molecule, donor type, donor heavy atom, donor atom, acceptor molecule, acceptor atom, score
      P1  H  7989  7998       L1    14  1.00
      P1  H  7997  8010       L1     9  0.98

> <Gold.PLP.Chemscore.Internal.Correction>
0.6826

> <Gold.Rescore>
     Score         DG    S(hbond)    S(metal)    S(lipo)     H(rot)  DE(clash)    DE(int)     intcor
     18.13     -18.56       1.90        0.00      94.45       1.69       0.00       0.43       ----

> <Gold.Chemscore.Fitness>
18.1270

> <Gold.Chemscore.DG>
-18.5585

> <Gold.Chemscore.ZeroCoef>
-5.4800

> <Gold.Chemscore.Hbond>
1.9048

> <Gold.Chemscore.Metal>
0.0000

> <Gold.Chemscore.Lipo>
94.4550

> <Gold.Chemscore.Internal_Hbond>
0.0000

> <Gold.Chemscore.DEClash>
0.0034

> <Gold.Chemscore.DEInternal>
0.4281

> <Gold.Chemscore.Rot>
1.6933

> <Gold.Chemscore.Internal.Correction>
   9.000000E+99

> <Gold.Chemscore.Hbonds>
donor molecule, donor type, donor heavy atom, donor atom, acceptor molecule, acceptor atom, score
      P1  H  7989  7998       L1    14  0.89
      P1  H  7997  8010       L1     9  0.90

> <Gold.Chemscore.Hbond.Weighted>
-6.3620

> <Gold.Chemscore.Metal.Weighted>
-0.0000

> <Gold.Chemscore.Lipo.Weighted>
-11.0512

> <Gold.Chemscore.Internal_Hbond.Weighted>
0.0000

> <Gold.Chemscore.DEClash.Weighted>
0.0034

> <Gold.Chemscore.DEInternal.Weighted>
0.4281

> <Gold.Chemscore.Rot.Weighted>
4.3348

> <Gold.Chemscore.Internal.Correction.Weighted>
   9.000000E+99

> <Gold.Protein.RotatedTorsions>
[ 6907 6896 6895 6894 ] final  112.51 input  -60.11 | X-H torsion
[ 7974 7965 7964 7962 ] final  155.79 input  175.53 | X-H torsion
[ 8008 7997 7996 7995 ] final   52.58 input   59.86 | X-H torsion
[ 10167 10162 10161 10158 ] final  109.60 input  -65.29 | X-H torsion
[ 10718 10713 10712 10709 ] final  168.22 input   66.30 | X-H torsion
[ 10763 10752 10751 10750 ] final  -33.74 input  -60.55 | X-H torsion
[ 11005 11000 10999 10996 ] final    0.62 input  -57.11 | X-H torsion

> <Gold.Protein.ActiveResidues>
 VAL166  LYS551  ARG553  GLY616  TRP617  ASP618  TYR619  PRO620  LYS621  CYS622 
 ASP623  PHE694  ASN695  SER759  ASP760  ASP761  ALA762  ILE779  LEU786  VAL792 
 PHE793  MET794  SER795  GLU796  ALA797  LYS798  CYS799  TRP800  GLU811  SER814 

> <Gold.Protein.RotatedAtoms>
  152.4912  133.8506  159.7199 H   0  0  0  0  0  0  0  0  0  0  0  0  # atno 6907 bound_to 6896
  150.9044  133.7068  159.2877 H   0  0  0  0  0  0  0  0  0  0  0  0  # atno 6908 bound_to 6896
  151.4498  135.1033  159.9747 H   0  0  0  0  0  0  0  0  0  0  0  0  # atno 6909 bound_to 6896
  144.8003  139.7115  143.6184 H   0  0  0  0  0  0  0  0  0  0  0  0  # atno 7974 bound_to 7965
  155.4542  140.3459  155.4304 H   0  0  0  0  0  0  0  0  0  0  0  0  # atno 8008 bound_to 7997
  156.1201  140.1485  156.9246 H   0  0  0  0  0  0  0  0  0  0  0  0  # atno 8009 bound_to 7997
  154.4817  140.0867  156.7372 H   0  0  0  0  0  0  0  0  0  0  0  0  # atno 8010 bound_to 7997
  139.6754  144.7122  151.1612 H   0  0  0  0  0  0  0  0  0  0  0  0  # atno 10167 bound_to 10162
  157.0402  131.0284  151.2716 H   0  0  0  0  0  0  0  0  0  0  0  0  # atno 10718 bound_to 10713
  153.8352  135.6862  153.4809 H   0  0  0  0  0  0  0  0  0  0  0  0  # atno 10763 bound_to 10752
  153.1487  135.4627  154.9602 H   0  0  0  0  0  0  0  0  0  0  0  0  # atno 10764 bound_to 10752
  154.7869  135.3288  154.7811 H   0  0  0  0  0  0  0  0  0  0  0  0  # atno 10765 bound_to 10752
  140.6245  133.9631  155.8242 H   0  0  0  0  0  0  0  0  0  0  0  0  # atno 11005 bound_to 11000
  146.2283  139.5764  142.9572 LP  0  0  0  0  0  0  0  0  0  0  0  0  # atno 17320 bound_to 7965
  145.5570  141.0408  143.2247 LP  0  0  0  0  0  0  0  0  0  0  0  0  # atno 17321 bound_to 7965
  140.7633  143.5780  150.8924 LP  0  0  0  0  0  0  0  0  0  0  0  0  # atno 17342 bound_to 10162
  139.9449  143.6339  152.3044 LP  0  0  0  0  0  0  0  0  0  0  0  0  # atno 17343 bound_to 10162
  157.5110  130.7939  149.7705 LP  0  0  0  0  0  0  0  0  0  0  0  0  # atno 17370 bound_to 10713
  156.0040  130.3865  150.2497 LP  0  0  0  0  0  0  0  0  0  0  0  0  # atno 17371 bound_to 10713
  141.0719  134.0193  157.3514 LP  0  0  0  0  0  0  0  0  0  0  0  0  # atno 17394 bound_to 11000
  139.9140  135.0194  156.7807 LP  0  0  0  0  0  0  0  0  0  0  0  0  # atno 17395 bound_to 11000

$$$$
