AV-unprocessed.smi:2202|AV-procd|sdf|8929|dock4
  -GOLD-   2272012143D 1   1.00000     0.00000
 Structure written by MMmdl.
 42 44  0  0  0  0  0  0  0  0  1 V2000
  147.1647  139.0140  151.3378 O   0  0  0  0  0  0  0  0  0  0  0  0
  146.6990  138.6236  152.4096 C   0  0  0  0  0  0  0  0  0  0  0  0
  146.8401  139.4632  153.6878 C   0  0  0  0  0  0  0  0  0  0  0  0
  148.2275  139.5771  154.1611 N   0  0  0  0  0  0  0  0  0  0  0  0
  148.9629  138.5414  154.5856 C   0  0  0  0  0  0  0  0  0  0  0  0
  148.5857  137.3712  154.6578 O   0  0  0  0  0  0  0  0  0  0  0  0
  150.3780  138.9792  154.9703 C   0  0  2  0  0  0  0  0  0  0  0  0
  150.7293  138.5655  156.4237 C   0  0  0  0  0  0  0  0  0  0  0  0
  150.1965  139.5396  157.4540 C   0  0  0  0  0  0  0  0  0  0  0  0
  150.1685  140.8569  157.2128 C   0  0  0  0  0  0  0  0  0  0  0  0
  150.6685  141.4242  155.9003 C   0  0  0  0  0  0  0  0  0  0  0  0
  150.3467  140.5082  154.6900 C   0  0  2  0  0  0  0  0  0  0  0  0
  148.9186  140.7240  154.1840 C   0  0  0  0  0  0  0  0  0  0  0  0
  148.4954  141.8272  153.8373 O   0  0  0  0  0  0  0  0  0  0  0  0
  146.0520  137.4562  152.5439 N   0  0  0  0  0  0  0  0  0  0  0  0
  145.8160  136.5062  151.4628 C   0  0  0  0  0  0  0  0  0  0  0  0
  144.5684  135.6467  151.7280 C   0  0  0  0  0  0  0  0  0  0  0  0
  144.7232  134.2328  151.2017 C   0  0  0  0  0  0  0  0  0  0  0  0
  143.6420  133.3262  151.2378 C   0  0  0  0  0  0  0  0  0  0  0  0
  143.8390  132.0276  150.7292 C   0  0  0  0  0  0  0  0  0  0  0  0
  145.1016  131.6880  150.2061 C   0  0  0  0  0  0  0  0  0  0  0  0
  146.1157  132.6665  150.2144 C   0  0  0  0  0  0  0  0  0  0  0  0
  145.9372  133.9143  150.6986 N   0  0  0  0  0  0  0  0  0  0  0  0
  146.4259  140.4564  153.5048 H   0  0  0  0  0  0  0  0  0  0  0  0
  146.2134  139.0221  154.4647 H   0  0  0  0  0  0  0  0  0  0  0  0
  151.0678  138.4881  154.2824 H   0  0  0  0  0  0  0  0  0  0  0  0
  150.3478  137.5690  156.6502 H   0  0  0  0  0  0  0  0  0  0  0  0
  151.8116  138.5080  156.5436 H   0  0  0  0  0  0  0  0  0  0  0  0
  149.8886  139.1458  158.4116 H   0  0  0  0  0  0  0  0  0  0  0  0
  149.8378  141.5514  157.9712 H   0  0  0  0  0  0  0  0  0  0  0  0
  150.2436  142.4193  155.7623 H   0  0  0  0  0  0  0  0  0  0  0  0
  151.7464  141.5661  155.9843 H   0  0  0  0  0  0  0  0  0  0  0  0
  151.0218  140.7512  153.8683 H   0  0  0  0  0  0  0  0  0  0  0  0
  145.6992  137.2085  153.4572 H   0  0  0  0  0  0  0  0  0  0  0  0
  145.6898  137.0674  150.5365 H   0  0  0  0  0  0  0  0  0  0  0  0
  146.6953  135.8742  151.3251 H   0  0  0  0  0  0  0  0  0  0  0  0
  144.3616  135.5987  152.7983 H   0  0  0  0  0  0  0  0  0  0  0  0
  143.6932  136.1081  151.2685 H   0  0  0  0  0  0  0  0  0  0  0  0
  142.6844  133.6172  151.6440 H   0  0  0  0  0  0  0  0  0  0  0  0
  143.0362  131.3051  150.7400 H   0  0  0  0  0  0  0  0  0  0  0  0
  145.2890  130.7017  149.8080 H   0  0  0  0  0  0  0  0  0  0  0  0
  147.0961  132.4416  149.8214 H   0  0  0  0  0  0  0  0  0  0  0  0
  1  2  2  0  0  0  0
  2  3  1  0  0  0  0
  2 15  1  0  0  0  0
  3  4  1  0  0  0  0
  3 24  1  0  0  0  0
  3 25  1  0  0  0  0
  4 13  1  0  0  0  0
  4  5  1  0  0  0  0
  5  6  2  0  0  0  0
  5  7  1  0  0  0  0
  7 12  1  0  0  0  0
  7  8  1  0  0  0  0
  7 26  1  0  0  0  0
  8  9  1  0  0  0  0
  8 27  1  0  0  0  0
  8 28  1  0  0  0  0
  9 10  2  0  0  0  0
  9 29  1  0  0  0  0
 10 11  1  0  0  0  0
 10 30  1  0  0  0  0
 11 12  1  0  0  0  0
 11 31  1  0  0  0  0
 11 32  1  0  0  0  0
 12 13  1  0  0  0  0
 12 33  1  0  0  0  0
 13 14  2  0  0  0  0
 15 16  1  0  0  0  0
 15 34  1  0  0  0  0
 16 17  1  0  0  0  0
 16 35  1  0  0  0  0
 16 36  1  0  0  0  0
 17 18  1  0  0  0  0
 17 37  1  0  0  0  0
 17 38  1  0  0  0  0
 18 23  1  0  0  0  0
 18 19  2  0  0  0  0
 19 20  1  0  0  0  0
 19 39  1  0  0  0  0
 20 21  2  0  0  0  0
 20 40  1  0  0  0  0
 21 22  1  0  0  0  0
 21 41  1  0  0  0  0
 22 23  2  0  0  0  0
 22 42  1  0  0  0  0
M  END
> <s_m_source_file>
AV-unprocessed.smi

> <i_m_source_file_index>
2202

> <i_lp_mmshare_version>
43012

> <i_f3d_flags>
0

> <s_epik_input>
W0NIMl0xW0NIXT1bQ0hdW0NIMl1bQ0BIXShbQ0BIXTEyKUMoPU8pTihDMj1PKVtDSDJdQyg9TylbTkhdW0NIMl1bQ0gyXWMzW2NIXVtjSF1bY0hdW2NIXW4z

> <s_epik_cmdline>
J2VwaWtfcHl0aG9uJywgJy1waCcsICc3LjAnLCAnLXRuJywgJzgnLCAnLW1hJywgJzIwMCcsICctbWV0YWxfYmluZGluZycsICctaW1hZScsICc8aW5maWxlLm1hZT4nLCAnLW9tYWUnLCAnPG91dGZpbGUubWFlPic=

> <r_lp_tautomer_probability>
1

> <r_epik_Ionization_Penalty>
0.0244696

> <r_epik_Ionization_Penalty_Charging>
0

> <r_epik_Ionization_Penalty_Neutral>
0.0244696

> <r_epik_State_Penalty>
0.0198648

> <r_epik_Charging_Adjusted_Penalty>
0.0198648

> <i_epik_Tot_Q>
0

> <i_epik_Tot_abs_Q>
0

> <r_epik_Metal_State_Penalty>
0.0190699

> <b_epik_Metal_Only>
0

> <s_lp_Force_Field>
OPLS_2005

> <r_lp_Energy>
13.8656

> <b_lp_Chiralities_Consistent>
1

> <s_lp_Variant>
AV-unprocessed.smi:2202-1

> <Gold.Version>
5.8.1

> <Gold.Id.Protein>
6NUR|6NUR_protein|mol2

> <Gold.PLP.Fitness>
42.3045

> <Gold.PLP.PLP>
-36.3302

> <Gold.PLP.part.hbond>
-2.4352

> <Gold.PLP.part.metal>
0.0000

> <Gold.PLP.part.buried>
-1.3409

> <Gold.PLP.part.nonpolar>
-36.4801

> <Gold.PLP.part.repulsive>
4.8829

> <Gold.PLP.ligand.clash>
0.0000

> <Gold.PLP.ligand.torsion>
0.5216

> <Gold.PLP.Chemscore.Hbond>
1.3226

> <Gold.PLP.Chemscore.CHOScore>
1.0000

> <Gold.PLP.Chemscore.Metal>
0.0000

> <Gold.Chemscore.Hbonds>
donor molecule, donor type, donor heavy atom, donor atom, acceptor molecule, acceptor atom, score
      P1  H  7954  7966       L1     1  0.73
      P1  H  8011  8017       L1    14  0.47
      L1  C    22    42       P1 10747  1.00

> <Gold.PLP.Chemscore.Internal.Correction>
0.0496

> <Gold.Rescore>
     Score         DG    S(hbond)    S(metal)    S(lipo)     H(rot)  DE(clash)    DE(int)     intcor
     12.58     -16.11       1.59        0.00      85.97       1.85       2.98       0.55       ----

> <Gold.Chemscore.Fitness>
12.5822

> <Gold.Chemscore.DG>
-16.1126

> <Gold.Chemscore.ZeroCoef>
-5.4800

> <Gold.Chemscore.Hbond>
1.5931

> <Gold.Chemscore.Metal>
0.0000

> <Gold.Chemscore.Lipo>
85.9655

> <Gold.Chemscore.Internal_Hbond>
0.0000

> <Gold.Chemscore.DEClash>
2.9803

> <Gold.Chemscore.DEInternal>
0.5501

> <Gold.Chemscore.Rot>
1.8540

> <Gold.Chemscore.Internal.Correction>
   9.000000E+99

> <Gold.Chemscore.Hbonds>
donor molecule, donor type, donor heavy atom, donor atom, acceptor molecule, acceptor atom, score
      P1  H  7954  7966       L1     1  0.71
      P1  H  8011  8017       L1    14  0.23

> <Gold.Chemscore.Hbond.Weighted>
-5.3209

> <Gold.Chemscore.Metal.Weighted>
-0.0000

> <Gold.Chemscore.Lipo.Weighted>
-10.0580

> <Gold.Chemscore.Internal_Hbond.Weighted>
0.0000

> <Gold.Chemscore.DEClash.Weighted>
2.9803

> <Gold.Chemscore.DEInternal.Weighted>
0.5501

> <Gold.Chemscore.Rot.Weighted>
4.7462

> <Gold.Chemscore.Internal.Correction.Weighted>
   9.000000E+99

> <Gold.Protein.RotatedTorsions>
[ 6907 6896 6895 6894 ] final  -57.02 input  -60.11 | X-H torsion
[ 7974 7965 7964 7962 ] final -142.35 input  175.53 | X-H torsion
[ 8008 7997 7996 7995 ] final  -85.57 input   59.86 | X-H torsion
[ 10167 10162 10161 10158 ] final  -43.92 input  -65.29 | X-H torsion
[ 10718 10713 10712 10709 ] final   73.36 input   66.30 | X-H torsion
[ 10763 10752 10751 10750 ] final  -45.44 input  -60.55 | X-H torsion
[ 11005 11000 10999 10996 ] final   66.33 input  -57.11 | X-H torsion

> <Gold.Protein.ActiveResidues>
 VAL166  LYS551  ARG553  GLY616  TRP617  ASP618  TYR619  PRO620  LYS621  CYS622 
 ASP623  PHE694  ASN695  SER759  ASP760  ASP761  ALA762  ILE779  LEU786  VAL792 
 PHE793  MET794  SER795  GLU796  ALA797  LYS798  CYS799  TRP800  GLU811  SER814 

> <Gold.Protein.RotatedAtoms>
  150.8120  134.7280  159.6696 H   0  0  0  0  0  0  0  0  0  0  0  0  # atno 6907 bound_to 6896
  152.4240  134.5900  159.9981 H   0  0  0  0  0  0  0  0  0  0  0  0  # atno 6908 bound_to 6896
  151.6107  133.3310  159.3103 H   0  0  0  0  0  0  0  0  0  0  0  0  # atno 6909 bound_to 6896
  144.8450  140.5968  143.5427 H   0  0  0  0  0  0  0  0  0  0  0  0  # atno 7974 bound_to 7965
  154.6423  140.0590  156.9859 H   0  0  0  0  0  0  0  0  0  0  0  0  # atno 8008 bound_to 7997
  155.1499  140.3273  155.4415 H   0  0  0  0  0  0  0  0  0  0  0  0  # atno 8009 bound_to 7997
  156.2537  140.1949  156.6611 H   0  0  0  0  0  0  0  0  0  0  0  0  # atno 8010 bound_to 7997
  140.6916  143.2957  151.3421 H   0  0  0  0  0  0  0  0  0  0  0  0  # atno 10167 bound_to 10162
  157.6544  130.9625  150.1058 H   0  0  0  0  0  0  0  0  0  0  0  0  # atno 10718 bound_to 10713
  154.0286  135.6659  153.4779 H   0  0  0  0  0  0  0  0  0  0  0  0  # atno 10763 bound_to 10752
  153.0550  135.5062  154.7954 H   0  0  0  0  0  0  0  0  0  0  0  0  # atno 10764 bound_to 10752
  154.6892  135.3058  154.9469 H   0  0  0  0  0  0  0  0  0  0  0  0  # atno 10765 bound_to 10752
  139.9838  134.6700  156.0213 H   0  0  0  0  0  0  0  0  0  0  0  0  # atno 11005 bound_to 11000
  145.4616  139.1512  143.3863 LP  0  0  0  0  0  0  0  0  0  0  0  0  # atno 17320 bound_to 7965
  146.2736  140.4746  142.8804 LP  0  0  0  0  0  0  0  0  0  0  0  0  # atno 17321 bound_to 7965
  139.6325  144.0693  152.2488 LP  0  0  0  0  0  0  0  0  0  0  0  0  # atno 17342 bound_to 10162
  140.0172  144.6180  150.7597 LP  0  0  0  0  0  0  0  0  0  0  0  0  # atno 17343 bound_to 10162
  156.1968  130.3658  149.8838 LP  0  0  0  0  0  0  0  0  0  0  0  0  # atno 17370 bound_to 10713
  156.6752  130.8836  151.3568 LP  0  0  0  0  0  0  0  0  0  0  0  0  # atno 17371 bound_to 10713
  141.1506  133.6549  156.4003 LP  0  0  0  0  0  0  0  0  0  0  0  0  # atno 17394 bound_to 11000
  140.5043  134.6456  157.5260 LP  0  0  0  0  0  0  0  0  0  0  0  0  # atno 17395 bound_to 11000

$$$$
