AV-unprocessed.smi:2212|AV-procd|sdf|8951|dock10
  -GOLD-   2272012163D 1   1.00000     0.00000
 Structure written by MMmdl.
 31 32  0  0  0  0  0  0  0  0  1 V2000
  152.7669  142.9478  160.9890 C   0  0  0  0  0  0  0  0  0  0  0  0
  151.8144  143.8035  160.3712 O   0  0  0  0  0  0  0  0  0  0  0  0
  151.7145  143.7056  158.9500 C   0  0  0  0  0  0  0  0  0  0  0  0
  151.1952  142.3311  158.5059 C   0  0  0  0  0  0  0  0  0  0  0  0
  150.3208  142.4588  157.3478 N   0  0  0  0  0  0  0  0  0  0  0  0
  149.8787  141.4277  156.6169 C   0  0  0  0  0  0  0  0  0  0  0  0
  150.1750  140.2547  156.8466 O   0  0  0  0  0  0  0  0  0  0  0  0
  149.0822  141.8390  155.6186 N   0  0  0  0  0  0  0  0  0  0  0  0
  148.4454  141.0154  154.6618 C   0  0  0  0  0  0  0  0  0  0  0  0
  148.8894  139.8010  154.3491 N   0  0  0  0  0  0  0  0  0  0  0  0
  147.9960  139.3444  153.3898 C   0  0  0  0  0  0  0  0  0  0  0  0
  147.0557  140.3205  153.1783 C   0  0  0  0  0  0  0  0  0  0  0  0
  147.3283  141.3940  153.9830 O   0  0  0  0  0  0  0  0  0  0  0  0
  150.9686  144.9525  158.4382 C   0  0  0  0  0  0  0  0  0  0  0  0
  152.0383  145.1011  157.3549 C   0  0  0  0  0  0  0  0  0  0  0  0
  152.9647  144.2856  158.2583 C   0  0  0  0  0  0  0  0  0  0  0  0
  152.8277  143.1886  162.0501 H   0  0  0  0  0  0  0  0  0  0  0  0
  153.7633  143.0717  160.5644 H   0  0  0  0  0  0  0  0  0  0  0  0
  152.4798  141.8994  160.9115 H   0  0  0  0  0  0  0  0  0  0  0  0
  152.0297  141.6796  158.2421 H   0  0  0  0  0  0  0  0  0  0  0  0
  150.6657  141.8273  159.3152 H   0  0  0  0  0  0  0  0  0  0  0  0
  150.0284  143.3921  157.0971 H   0  0  0  0  0  0  0  0  0  0  0  0
  148.9139  142.8305  155.5347 H   0  0  0  0  0  0  0  0  0  0  0  0
  148.0978  138.3696  152.9361 H   0  0  0  0  0  0  0  0  0  0  0  0
  146.1907  140.4026  152.5369 H   0  0  0  0  0  0  0  0  0  0  0  0
  149.9644  144.7650  158.0567 H   0  0  0  0  0  0  0  0  0  0  0  0
  150.9764  145.7816  159.1483 H   0  0  0  0  0  0  0  0  0  0  0  0
  151.7815  144.5825  156.4298 H   0  0  0  0  0  0  0  0  0  0  0  0
  152.3640  146.1252  157.1707 H   0  0  0  0  0  0  0  0  0  0  0  0
  153.5675  144.9187  158.9120 H   0  0  0  0  0  0  0  0  0  0  0  0
  153.5785  143.5532  157.7331 H   0  0  0  0  0  0  0  0  0  0  0  0
  1  2  1  0  0  0  0
  1 17  1  0  0  0  0
  1 18  1  0  0  0  0
  1 19  1  0  0  0  0
  2  3  1  0  0  0  0
  3 16  1  0  0  0  0
  3  4  1  0  0  0  0
  3 14  1  0  0  0  0
  4  5  1  0  0  0  0
  4 20  1  0  0  0  0
  4 21  1  0  0  0  0
  5  6  1  0  0  0  0
  5 22  1  0  0  0  0
  6  7  2  0  0  0  0
  6  8  1  0  0  0  0
  8  9  1  0  0  0  0
  8 23  1  0  0  0  0
  9 13  1  0  0  0  0
  9 10  2  0  0  0  0
 10 11  1  0  0  0  0
 11 12  2  0  0  0  0
 11 24  1  0  0  0  0
 12 13  1  0  0  0  0
 12 25  1  0  0  0  0
 14 15  1  0  0  0  0
 14 26  1  0  0  0  0
 14 27  1  0  0  0  0
 15 16  1  0  0  0  0
 15 28  1  0  0  0  0
 15 29  1  0  0  0  0
 16 30  1  0  0  0  0
 16 31  1  0  0  0  0
M  END
> <s_m_source_file>
AV-unprocessed.smi

> <i_m_source_file_index>
2212

> <i_lp_mmshare_version>
43012

> <i_f3d_flags>
0

> <s_epik_input>
W0NIMl0xW0NIMl1bQ0gyXUMxKE9bQ0gzXSlbQ0gyXVtOSF1DKD1PKVtOSF1jMm5bY0hdW2NIXW8y

> <s_epik_cmdline>
J2VwaWtfcHl0aG9uJywgJy1waCcsICc3LjAnLCAnLXRuJywgJzgnLCAnLW1hJywgJzIwMCcsICctbWV0YWxfYmluZGluZycsICctaW1hZScsICc8aW5maWxlLm1hZT4nLCAnLW9tYWUnLCAnPG91dGZpbGUubWFlPic=

> <r_lp_tautomer_probability>
0.785861

> <r_epik_Ionization_Penalty>
4.58897e-05

> <r_epik_Ionization_Penalty_Charging>
0

> <r_epik_Ionization_Penalty_Neutral>
4.58897e-05

> <r_epik_State_Penalty>
0.0380021

> <r_epik_Charging_Adjusted_Penalty>
0.0380021

> <i_epik_Tot_Q>
0

> <i_epik_Tot_abs_Q>
0

> <r_epik_Metal_State_Penalty>
0.0585611

> <b_epik_Metal_Only>
0

> <s_lp_Force_Field>
OPLS_2005

> <r_lp_Energy>
14.4029

> <b_lp_Chiralities_Consistent>
1

> <s_lp_Variant>
AV-unprocessed.smi:2212-1

> <Gold.Version>
5.8.1

> <Gold.Id.Protein>
6NUR|6NUR_protein|mol2

> <Gold.PLP.Fitness>
37.2740

> <Gold.PLP.PLP>
-28.6014

> <Gold.PLP.part.hbond>
-1.6067

> <Gold.PLP.part.metal>
0.0000

> <Gold.PLP.part.buried>
-3.7049

> <Gold.PLP.part.nonpolar>
-24.3178

> <Gold.PLP.part.repulsive>
0.5169

> <Gold.PLP.ligand.clash>
0.0000

> <Gold.PLP.ligand.torsion>
0.9569

> <Gold.PLP.Chemscore.Hbond>
1.4599

> <Gold.PLP.Chemscore.CHOScore>
1.9806

> <Gold.PLP.Chemscore.Metal>
0.0000

> <Gold.Chemscore.Hbonds>
donor molecule, donor type, donor heavy atom, donor atom, acceptor molecule, acceptor atom, score
      L1  H     5    22       P1  8028  0.43
      L1  H     8    23       P1  8028  1.00
      L1  C    11    24       P1  7948  1.00
      L1  C    12    25       P1 10175  1.00

> <Gold.PLP.Chemscore.Internal.Correction>
0.2646

> <Gold.Rescore>
     Score         DG    S(hbond)    S(metal)    S(lipo)     H(rot)  DE(clash)    DE(int)     intcor
     13.25     -17.83       1.89        0.00      87.36       1.64       2.34       2.24       ----

> <Gold.Chemscore.Fitness>
13.2502

> <Gold.Chemscore.DG>
-17.8285

> <Gold.Chemscore.ZeroCoef>
-5.4800

> <Gold.Chemscore.Hbond>
1.8948

> <Gold.Chemscore.Metal>
0.0000

> <Gold.Chemscore.Lipo>
87.3577

> <Gold.Chemscore.Internal_Hbond>
0.0000

> <Gold.Chemscore.DEClash>
2.3393

> <Gold.Chemscore.DEInternal>
2.2390

> <Gold.Chemscore.Rot>
1.6411

> <Gold.Chemscore.Internal.Correction>
   9.000000E+99

> <Gold.Chemscore.Hbonds>
donor molecule, donor type, donor heavy atom, donor atom, acceptor molecule, acceptor atom, score
      L1  H     5    22       P1  8028  0.40
      L1  H     8    23       P1  8028  1.00

> <Gold.Chemscore.Hbond.Weighted>
-6.3288

> <Gold.Chemscore.Metal.Weighted>
-0.0000

> <Gold.Chemscore.Lipo.Weighted>
-10.2209

> <Gold.Chemscore.Internal_Hbond.Weighted>
0.0000

> <Gold.Chemscore.DEClash.Weighted>
2.3393

> <Gold.Chemscore.DEInternal.Weighted>
2.2390

> <Gold.Chemscore.Rot.Weighted>
4.2011

> <Gold.Chemscore.Internal.Correction.Weighted>
   9.000000E+99

> <Gold.Protein.RotatedTorsions>
[ 6907 6896 6895 6894 ] final   -3.57 input  -60.11 | X-H torsion
[ 7974 7965 7964 7962 ] final  -52.64 input  175.53 | X-H torsion
[ 8008 7997 7996 7995 ] final  -14.54 input   59.86 | X-H torsion
[ 10167 10162 10161 10158 ] final  -95.48 input  -65.29 | X-H torsion
[ 10718 10713 10712 10709 ] final  -60.33 input   66.30 | X-H torsion
[ 10763 10752 10751 10750 ] final   85.21 input  -60.55 | X-H torsion
[ 11005 11000 10999 10996 ] final   98.06 input  -57.11 | X-H torsion

> <Gold.Protein.ActiveResidues>
 VAL166  LYS551  ARG553  GLY616  TRP617  ASP618  TYR619  PRO620  LYS621  CYS622 
 ASP623  PHE694  ASN695  SER759  ASP760  ASP761  ALA762  ILE779  LEU786  VAL792 
 PHE793  MET794  SER795  GLU796  ALA797  LYS798  CYS799  TRP800  GLU811  SER814 

> <Gold.Protein.RotatedAtoms>
  151.5116  135.1065  159.9855 H   0  0  0  0  0  0  0  0  0  0  0  0  # atno 6907 bound_to 6896
  152.4659  133.7918  159.6916 H   0  0  0  0  0  0  0  0  0  0  0  0  # atno 6908 bound_to 6896
  150.8643  133.7534  159.3007 H   0  0  0  0  0  0  0  0  0  0  0  0  # atno 6909 bound_to 6896
  145.9057  140.7957  142.9720 H   0  0  0  0  0  0  0  0  0  0  0  0  # atno 7974 bound_to 7965
  154.5202  140.2220  155.8990 H   0  0  0  0  0  0  0  0  0  0  0  0  # atno 8008 bound_to 7997
  156.1653  140.3133  155.8843 H   0  0  0  0  0  0  0  0  0  0  0  0  # atno 8009 bound_to 7997
  155.3668  140.0464  157.3036 H   0  0  0  0  0  0  0  0  0  0  0  0  # atno 8010 bound_to 7997
  140.3037  143.3147  152.0221 H   0  0  0  0  0  0  0  0  0  0  0  0  # atno 10167 bound_to 10162
  156.0998  130.4188  150.0840 H   0  0  0  0  0  0  0  0  0  0  0  0  # atno 10718 bound_to 10713
  153.1453  135.4626  154.9557 H   0  0  0  0  0  0  0  0  0  0  0  0  # atno 10763 bound_to 10752
  154.7781  135.3179  154.8051 H   0  0  0  0  0  0  0  0  0  0  0  0  # atno 10764 bound_to 10752
  153.8566  135.6916  153.4841 H   0  0  0  0  0  0  0  0  0  0  0  0  # atno 10765 bound_to 10752
  139.8773  134.9031  156.4400 H   0  0  0  0  0  0  0  0  0  0  0  0  # atno 11005 bound_to 11000
  144.6739  140.1747  143.7411 LP  0  0  0  0  0  0  0  0  0  0  0  0  # atno 17320 bound_to 7965
  145.8735  139.2284  143.1647 LP  0  0  0  0  0  0  0  0  0  0  0  0  # atno 17321 bound_to 7965
  139.4909  144.6437  151.6824 LP  0  0  0  0  0  0  0  0  0  0  0  0  # atno 17342 bound_to 10162
  140.5629  144.0239  150.6178 LP  0  0  0  0  0  0  0  0  0  0  0  0  # atno 17343 bound_to 10162
  156.8830  130.9563  151.3597 LP  0  0  0  0  0  0  0  0  0  0  0  0  # atno 17370 bound_to 10713
  157.6166  130.8623  149.9038 LP  0  0  0  0  0  0  0  0  0  0  0  0  # atno 17371 bound_to 10713
  140.9006  133.7782  155.9676 LP  0  0  0  0  0  0  0  0  0  0  0  0  # atno 17394 bound_to 11000
  140.8655  134.2789  157.5215 LP  0  0  0  0  0  0  0  0  0  0  0  0  # atno 17395 bound_to 11000

$$$$
