#       Name:                AV-unprocessed.smi:290
#       Creating user name   scv26
#       Creation time:       Thu Mar 26 22:13:02 2020


#       File generated by GOLD software.
#

@<TRIPOS>MOLECULE
AV-unprocessed.smi:290
    69    72     1
SMALL
NO_CHARGES


@<TRIPOS>ATOM
      1 ****        -6.0125  -4.0488   0.2323 C.3            1 S1                 0.0000
      2 ****        -5.3698  -3.5427  -1.0688 C.3            1 S1                 0.0000
      3 ****        -6.1590  -2.4492  -1.5330 O.3            1 S1                 0.0000
      4 ****        -5.3184  -1.5131  -2.1838 C.3            1 S1                 0.0000
      5 ****        -4.0754  -1.5240  -1.3077 C.3            1 S1                 0.0000
      6 ****        -3.9156  -3.0017  -0.9635 C.3            1 S1                 0.0000
      7 ****        -3.1555  -3.6062  -1.9971 O.3            1 S1                 0.0000
      8 ****        -3.1798  -3.2560   0.3787 C.3            1 S1                 0.0000
      9 ****        -1.8383  -2.6935   0.4193 N.pl3          1 S1                 0.0000
     10 ****        -0.6780  -3.3021  -0.0027 C.2            1 S1                 0.0000
     11 ****         0.4061  -2.5893   0.1351 N.2            1 S1                 0.0000
     12 ****        -0.0371  -1.4003   0.7029 C.ar           1 S1                 0.0000
     13 ****         0.6069  -0.1984   1.1160 C.ar           1 S1                 0.0000
     14 ****         1.9453   0.0008   0.9783 N.3            1 S1                 0.0000
     15 ****         2.5102  -0.2746  -0.3423 C.3            1 S1                 0.0000
     16 ****         3.4125   0.9178  -0.6879 C.3            1 S1                 0.0000
     17 ****         2.9581   2.0081   0.2928 C.3            1 S1                 0.0000
     18 ****         3.9346   3.1110   0.5237 N.4            1 S1                 1.0000
     19 ****         3.4619   4.1115   1.5132 C.3            1 S1                 0.0000
     20 ****         4.4846   3.7392  -0.7127 C.3            1 S1                 0.0000
     21 ****         3.4855   4.5952  -1.5237 C.3            1 S1                 0.0000
     22 ****         2.6207   3.7950  -2.3006 O.3            1 S1                 0.0000
     23 ****         2.6118   1.1743   1.5412 C.3            1 S1                 0.0000
     24 ****         3.8327   0.7262   2.3729 C.3            1 S1                 0.0000
     25 ****        -0.1775   0.7697   1.6601 N.ar           1 S1                 0.0000
     26 ****        -1.4946   0.5847   1.7876 C.ar           1 S1                 0.0000
     27 ****        -2.2245  -0.4764   1.4412 N.ar           1 S1                 0.0000
     28 ****        -1.4467  -1.4550   0.8974 C.ar           1 S1                 0.0000
     29 ****         2.0312   2.4438  -0.0844 H              1 S1                 0.0000
     30 ****         1.9638   1.7524   2.1986 H              1 S1                 0.0000
     31 ****        -5.4684  -4.8999   0.6418 H              1 S1                 0.0000
     32 ****        -7.0375  -4.3743   0.0529 H              1 S1                 0.0000
     33 ****        -6.0476  -3.2666   0.9911 H              1 S1                 0.0000
     34 ****        -5.4289  -4.3378  -1.8146 H              1 S1                 0.0000
     35 ****        -5.0926  -1.8573  -3.1943 H              1 S1                 0.0000
     36 ****        -5.7830  -0.5291  -2.2470 H              1 S1                 0.0000
     37 ****        -3.2023  -1.0838  -1.7913 H              1 S1                 0.0000
     38 ****        -4.2812  -0.9487  -0.4044 H              1 S1                 0.0000
     39 ****        -2.3103  -3.1850  -2.0314 H              1 S1                 0.0000
     40 ****        -3.7420  -2.8322   1.2111 H              1 S1                 0.0000
     41 ****        -3.1026  -4.3268   0.5721 H              1 S1                 0.0000
     42 ****        -0.6621  -4.2970  -0.4238 H              1 S1                 0.0000
     43 ****         3.0703  -1.2103  -0.3353 H              1 S1                 0.0000
     44 ****         1.7212  -0.3632  -1.0907 H              1 S1                 0.0000
     45 ****         4.4563   0.6540  -0.5137 H              1 S1                 0.0000
     46 ****         3.3151   1.2109  -1.7330 H              1 S1                 0.0000
     47 ****         2.5094   4.5498   1.2152 H              1 S1                 0.0000
     48 ****         4.1885   4.9162   1.6303 H              1 S1                 0.0000
     49 ****         3.3224   3.6623   2.4957 H              1 S1                 0.0000
     50 ****         5.3046   4.3858  -0.3981 H              1 S1                 0.0000
     51 ****         4.9512   2.9896  -1.3523 H              1 S1                 0.0000
     52 ****         2.9053   5.2706  -0.8963 H              1 S1                 0.0000
     53 ****         4.0415   5.2269  -2.2170 H              1 S1                 0.0000
     54 ****         2.0734   4.3618  -2.8236 H              1 S1                 0.0000
     55 ****         4.3703   1.5737   2.7968 H              1 S1                 0.0000
     56 ****         4.5438   0.1448   1.7861 H              1 S1                 0.0000
     57 ****         3.5153   0.1005   3.2076 H              1 S1                 0.0000
     58 ****        -2.0422   1.4046   2.2289 H              1 S1                 0.0000
     59 ****         4.7312   2.6650   0.9556 H              1 S1                 0.0000
     60 ****        -6.6116  -2.0099  -0.7570 LP             1 S1                 0.0000
     61 ****        -6.8487  -2.7832  -2.1756 LP             1 S1                 0.0000
     62 ****        -3.6253  -3.4924  -2.8725 LP             1 S1                 0.0000
     63 ****        -3.0396  -4.5808  -1.8053 LP             1 S1                 0.0000
     64 ****         1.3420  -2.8409  -0.1114 LP             1 S1                 0.0000
     65 ****         2.1663  -0.7274   1.6271 LP             1 S1                 0.0000
     66 ****         2.0494   3.2353  -1.7002 LP             1 S1                 0.0000
     67 ****         3.1582   3.2003  -2.8985 LP             1 S1                 0.0000
     68 ****         0.2347   1.6273   1.9674 LP             1 S1                 0.0000
     69 ****        -3.2145  -0.5453   1.5644 LP             1 S1                 0.0000
@<TRIPOS>BOND
    1    1    2 1     
    2    1   31 1     
    3    1   32 1     
    4    1   33 1     
    5    2    6 1     
    6    2    3 1     
    7    2   34 1     
    8    3    4 1     
    9    4    5 1     
   10    4   35 1     
   11    4   36 1     
   12    5    6 1     
   13    5   37 1     
   14    5   38 1     
   15    6    7 1     
   16    6    8 1     
   17    7   39 1     
   18    8    9 1     
   19    8   40 1     
   20    8   41 1     
   21    9   28 1     
   22    9   10 1     
   23   10   11 2     
   24   10   42 1     
   25   11   12 1     
   26   12   28 ar    
   27   12   13 ar    
   28   13   14 1     
   29   13   25 ar    
   30   14   23 1     
   31   14   15 1     
   32   15   16 1     
   33   15   43 1     
   34   15   44 1     
   35   16   17 1     
   36   16   45 1     
   37   16   46 1     
   38   17   29 1     
   39   17   18 1     
   40   17   23 1     
   41   18   19 1     
   42   18   20 1     
   43   18   59 1     
   44   19   47 1     
   45   19   48 1     
   46   19   49 1     
   47   20   21 1     
   48   20   50 1     
   49   20   51 1     
   50   21   22 1     
   51   21   52 1     
   52   21   53 1     
   53   22   54 1     
   54   23   30 1     
   55   23   24 1     
   56   24   55 1     
   57   24   56 1     
   58   24   57 1     
   59   25   26 ar    
   60   26   27 ar    
   61   26   58 1     
   62   27   28 ar    
   63    3   60 1     
   64    3   61 1     
   65    7   62 1     
   66    7   63 1     
   67   11   64 1     
   68   14   65 1     
   69   22   66 1     
   70   22   67 1     
   71   25   68 1     
   72   27   69 1     
@<TRIPOS>SUBSTRUCTURE
      1 S1             1
@<TRIPOS>SET
LONE_PAIRS      STATIC     ATOMS    <user>   **** ""
10 60 61 62 63 64 65 66 67 68 69
DONOR_HYDROGENS      STATIC     ATOMS    <user>   **** ""
3 39 59 54
ATOM$BLUE        STATIC     ATOMS    COLORGROUP SYSTEM
10 60 61 62 63 64 65 66 67 68 69
ATOM$RED        STATIC     ATOMS    COLORGROUP SYSTEM
3 39 59 54
