AV-unprocessed.smi:786|AV-procd|sdf|3722|dock2
  -GOLD-   22720 1143D 1   1.00000     0.00000
 Structure written by MMmdl.
 40 41  0  0  0  0  0  0  0  0  2 V2000
  153.7751  139.4580  157.6444 O   0  0  0  0  0  0  0  0  0  0  0  0
  152.3107  139.4717  157.7766 S   0  0  0  0  0  0  0  0  0  0  0  0
  151.6723  138.9371  158.9891 O   0  0  0  0  0  0  0  0  0  0  0  0
  151.6973  141.1848  157.4386 C   0  0  0  0  0  0  0  0  0  0  0  0
  152.3097  142.2485  158.3724 C   0  0  0  0  0  0  0  0  0  0  0  0
  152.2086  141.8241  159.8469 C   0  0  0  0  0  0  0  0  0  0  0  0
  152.7737  142.9148  160.7717 C   0  0  0  0  0  0  0  0  0  0  0  0
  152.0906  144.1432  160.5497 O   0  0  0  0  0  0  0  0  0  0  0  0
  152.2501  144.6338  159.2233 C   0  0  0  0  0  0  0  0  0  0  0  0
  151.6548  143.6346  158.2180 C   0  0  0  0  0  0  0  0  0  0  0  0
  151.6858  138.5927  156.4274 N   0  0  0  0  0  0  0  0  0  0  0  0
  150.2598  138.7034  156.1184 C   0  0  0  0  0  0  0  0  0  0  0  0
  149.9838  138.3285  154.6537 C   0  0  0  0  0  0  0  0  0  0  0  0
  149.0548  139.3163  153.9752 C   0  0  0  0  0  0  0  0  0  0  0  0
  148.9109  140.6443  154.4320 C   0  0  0  0  0  0  0  0  0  0  0  0
  148.0245  141.5120  153.7606 C   0  0  0  0  0  0  0  0  0  0  0  0
  147.3010  141.0341  152.6482 C   0  0  0  0  0  0  0  0  0  0  0  0
  147.4818  139.6980  152.2358 C   0  0  0  0  0  0  0  0  0  0  0  0
  148.3404  138.8977  152.9053 N   0  3  0  0  0  0  0  0  0  0  0  0
  151.9229  141.4249  156.3993 H   0  0  0  0  0  0  0  0  0  0  0  0
  150.6107  141.1629  157.5236 H   0  0  0  0  0  0  0  0  0  0  0  0
  153.3709  142.3363  158.1346 H   0  0  0  0  0  0  0  0  0  0  0  0
  151.1665  141.6341  160.1073 H   0  0  0  0  0  0  0  0  0  0  0  0
  152.7464  140.8896  160.0095 H   0  0  0  0  0  0  0  0  0  0  0  0
  152.6449  142.6245  161.8145 H   0  0  0  0  0  0  0  0  0  0  0  0
  153.8443  143.0473  160.6085 H   0  0  0  0  0  0  0  0  0  0  0  0
  151.7421  145.5948  159.1412 H   0  0  0  0  0  0  0  0  0  0  0  0
  153.3059  144.8133  159.0149 H   0  0  0  0  0  0  0  0  0  0  0  0
  151.7784  144.0207  157.2075 H   0  0  0  0  0  0  0  0  0  0  0  0
  150.5800  143.5560  158.3862 H   0  0  0  0  0  0  0  0  0  0  0  0
  151.9730  137.6150  156.4711 H   0  0  0  0  0  0  0  0  0  0  0  0
  149.7094  138.0374  156.7832 H   0  0  0  0  0  0  0  0  0  0  0  0
  149.9203  139.7177  156.3330 H   0  0  0  0  0  0  0  0  0  0  0  0
  150.9135  138.2778  154.0870 H   0  0  0  0  0  0  0  0  0  0  0  0
  149.5412  137.3328  154.6008 H   0  0  0  0  0  0  0  0  0  0  0  0
  149.4706  140.9949  155.2873 H   0  0  0  0  0  0  0  0  0  0  0  0
  147.9010  142.5314  154.0957 H   0  0  0  0  0  0  0  0  0  0  0  0
  146.6173  141.6827  152.1198 H   0  0  0  0  0  0  0  0  0  0  0  0
  146.9694  139.2490  151.3975 H   0  0  0  0  0  0  0  0  0  0  0  0
  148.4551  137.9343  152.5894 H   0  0  0  0  0  0  0  0  0  0  0  0
  1  2  2  0  0  0  0
  2  3  2  0  0  0  0
  2  4  1  0  0  0  0
  2 11  1  0  0  0  0
  4  5  1  0  0  0  0
  4 20  1  0  0  0  0
  4 21  1  0  0  0  0
  5 10  1  0  0  0  0
  5  6  1  0  0  0  0
  5 22  1  0  0  0  0
  6  7  1  0  0  0  0
  6 23  1  0  0  0  0
  6 24  1  0  0  0  0
  7  8  1  0  0  0  0
  7 25  1  0  0  0  0
  7 26  1  0  0  0  0
  8  9  1  0  0  0  0
  9 10  1  0  0  0  0
  9 27  1  0  0  0  0
  9 28  1  0  0  0  0
 10 29  1  0  0  0  0
 10 30  1  0  0  0  0
 11 12  1  0  0  0  0
 11 31  1  0  0  0  0
 12 13  1  0  0  0  0
 12 32  1  0  0  0  0
 12 33  1  0  0  0  0
 13 14  1  0  0  0  0
 13 34  1  0  0  0  0
 13 35  1  0  0  0  0
 14 19  1  0  0  0  0
 14 15  2  0  0  0  0
 15 16  1  0  0  0  0
 15 36  1  0  0  0  0
 16 17  2  0  0  0  0
 16 37  1  0  0  0  0
 17 18  1  0  0  0  0
 17 38  1  0  0  0  0
 18 19  2  0  0  0  0
 18 39  1  0  0  0  0
 19 40  1  0  0  0  0
M  CHG  1  19   1
M  END
> <s_m_source_file>
AV-unprocessed.smi

> <i_m_source_file_index>
786

> <i_lp_mmshare_version>
43012

> <i_f3d_flags>
0

> <s_epik_input>
W0NIMl0xW0NIMl1PW0NIMl1bQ0gyXVtDSF0xW0NIMl1TKD1PKSg9TylbTkhdW0NIMl1bQ0gyXWMyW2NIXVtjSF1bY0hdW2NIXW4y

> <s_epik_cmdline>
J2VwaWtfcHl0aG9uJywgJy1waCcsICc3LjAnLCAnLXRuJywgJzgnLCAnLW1hJywgJzIwMCcsICctbWV0YWxfYmluZGluZycsICctaW1hZScsICc8aW5maWxlLm1hZT4nLCAnLW9tYWUnLCAnPG91dGZpbGUubWFlPic=

> <r_epik_Ionization_Penalty>
1.99786

> <r_epik_Ionization_Penalty_Charging>
1.99784

> <r_epik_Ionization_Penalty_Neutral>
1.9654e-05

> <r_epik_State_Penalty>
2.12638

> <r_epik_Charging_Adjusted_Penalty>
4.12422

> <i_epik_Tot_Q>
1

> <i_epik_Tot_abs_Q>
1

> <r_epik_Metal_State_Penalty>
2.17464

> <b_epik_Metal_Only>
0

> <s_lp_Force_Field>
OPLS_2005

> <r_lp_Energy>
11.1046

> <b_lp_Chiralities_Consistent>
1

> <s_lp_Variant>
AV-unprocessed.smi:786-2

> <Gold.Version>
5.8.1

> <Gold.Id.Protein>
6NUR|6NUR_protein|mol2

> <Gold.PLP.Fitness>
42.4297

> <Gold.PLP.PLP>
-35.3404

> <Gold.PLP.part.hbond>
-2.7784

> <Gold.PLP.part.metal>
0.0000

> <Gold.PLP.part.buried>
-2.2788

> <Gold.PLP.part.nonpolar>
-30.1710

> <Gold.PLP.part.repulsive>
0.1186

> <Gold.PLP.ligand.clash>
0.0000

> <Gold.PLP.ligand.torsion>
1.0824

> <Gold.PLP.Chemscore.Hbond>
3.0000

> <Gold.PLP.Chemscore.CHOScore>
0.0000

> <Gold.PLP.Chemscore.Metal>
0.0000

> <Gold.Chemscore.Hbonds>
donor molecule, donor type, donor heavy atom, donor atom, acceptor molecule, acceptor atom, score
      L1  H    19    40       P1  7948  2.00
      P1  H  7997  8009       L1     1  0.31

> <Gold.PLP.Chemscore.Internal.Correction>
0.2541

> <Gold.Rescore>
     Score         DG    S(hbond)    S(metal)    S(lipo)     H(rot)  DE(clash)    DE(int)     intcor
     17.07     -18.11       1.85        0.00      97.70       1.94       0.03       1.01       ----

> <Gold.Chemscore.Fitness>
17.0719

> <Gold.Chemscore.DG>
-18.1145

> <Gold.Chemscore.ZeroCoef>
-5.4800

> <Gold.Chemscore.Hbond>
1.8494

> <Gold.Chemscore.Metal>
0.0000

> <Gold.Chemscore.Lipo>
97.6980

> <Gold.Chemscore.Internal_Hbond>
0.0000

> <Gold.Chemscore.DEClash>
0.0349

> <Gold.Chemscore.DEInternal>
1.0076

> <Gold.Chemscore.Rot>
1.9426

> <Gold.Chemscore.Internal.Correction>
   9.000000E+99

> <Gold.Chemscore.Hbonds>
donor molecule, donor type, donor heavy atom, donor atom, acceptor molecule, acceptor atom, score
      L1  H    19    40       P1  7948  1.00
      P1  H  7997  8009       L1     1  0.30

> <Gold.Chemscore.Hbond.Weighted>
-6.1769

> <Gold.Chemscore.Metal.Weighted>
-0.0000

> <Gold.Chemscore.Lipo.Weighted>
-11.4307

> <Gold.Chemscore.Internal_Hbond.Weighted>
0.0000

> <Gold.Chemscore.DEClash.Weighted>
0.0349

> <Gold.Chemscore.DEInternal.Weighted>
1.0076

> <Gold.Chemscore.Rot.Weighted>
4.9731

> <Gold.Chemscore.Internal.Correction.Weighted>
   9.000000E+99

> <Gold.Protein.RotatedTorsions>
[ 6907 6896 6895 6894 ] final  -97.70 input  -60.11 | X-H torsion
[ 7974 7965 7964 7962 ] final   30.09 input  175.53 | X-H torsion
[ 8008 7997 7996 7995 ] final  136.25 input   59.86 | X-H torsion
[ 10167 10162 10161 10158 ] final   87.86 input  -65.29 | X-H torsion
[ 10718 10713 10712 10709 ] final -119.17 input   66.30 | X-H torsion
[ 10763 10752 10751 10750 ] final  -89.71 input  -60.55 | X-H torsion
[ 11005 11000 10999 10996 ] final   13.16 input  -57.11 | X-H torsion

> <Gold.Protein.ActiveResidues>
 VAL166  LYS551  ARG553  GLY616  TRP617  ASP618  TYR619  PRO620  LYS621  CYS622 
 ASP623  PHE694  ASN695  SER759  ASP760  ASP761  ALA762  ILE779  LEU786  VAL792 
 PHE793  MET794  SER795  GLU796  ALA797  LYS798  CYS799  TRP800  GLU811  SER814 

> <Gold.Protein.RotatedAtoms>
  150.7024  134.1308  159.4068 H   0  0  0  0  0  0  0  0  0  0  0  0  # atno 6907 bound_to 6896
  151.9293  135.0261  160.0537 H   0  0  0  0  0  0  0  0  0  0  0  0  # atno 6908 bound_to 6896
  152.2189  133.4933  159.5188 H   0  0  0  0  0  0  0  0  0  0  0  0  # atno 6909 bound_to 6896
  146.1633  139.6835  142.9019 H   0  0  0  0  0  0  0  0  0  0  0  0  # atno 7974 bound_to 7965
  156.3004  140.2450  156.3714 H   0  0  0  0  0  0  0  0  0  0  0  0  # atno 8008 bound_to 7997
  154.8785  140.0413  157.1788 H   0  0  0  0  0  0  0  0  0  0  0  0  # atno 8009 bound_to 7997
  154.8720  140.2936  155.5479 H   0  0  0  0  0  0  0  0  0  0  0  0  # atno 8010 bound_to 7997
  139.8731  144.6482  150.8927 H   0  0  0  0  0  0  0  0  0  0  0  0  # atno 10167 bound_to 10162
  156.1161  130.6287  150.9383 H   0  0  0  0  0  0  0  0  0  0  0  0  # atno 10718 bound_to 10713
  154.6581  135.5331  153.7984 H   0  0  0  0  0  0  0  0  0  0  0  0  # atno 10763 bound_to 10752
  153.0425  135.6499  154.0914 H   0  0  0  0  0  0  0  0  0  0  0  0  # atno 10764 bound_to 10752
  154.0825  135.2946  155.3267 H   0  0  0  0  0  0  0  0  0  0  0  0  # atno 10765 bound_to 10752
  140.4839  134.0908  155.7756 H   0  0  0  0  0  0  0  0  0  0  0  0  # atno 11005 bound_to 11000
  145.4533  141.0429  143.2792 LP  0  0  0  0  0  0  0  0  0  0  0  0  # atno 17320 bound_to 7965
  144.8057  139.6057  143.7052 LP  0  0  0  0  0  0  0  0  0  0  0  0  # atno 17321 bound_to 7965
  140.7757  143.3647  151.1761 LP  0  0  0  0  0  0  0  0  0  0  0  0  # atno 17342 bound_to 10162
  139.7265  143.9140  152.3004 LP  0  0  0  0  0  0  0  0  0  0  0  0  # atno 17343 bound_to 10162
  157.6344  131.0917  150.8377 LP  0  0  0  0  0  0  0  0  0  0  0  0  # atno 17370 bound_to 10713
  156.8480  130.5071  149.5314 LP  0  0  0  0  0  0  0  0  0  0  0  0  # atno 17371 bound_to 10713
  141.1518  133.8955  157.2079 LP  0  0  0  0  0  0  0  0  0  0  0  0  # atno 17394 bound_to 11000
  139.9810  135.0098  156.9749 LP  0  0  0  0  0  0  0  0  0  0  0  0  # atno 17395 bound_to 11000

$$$$
