AV-unprocessed.smi:1260|AV-procd|sdf|5295|dock4
  -GOLD-   22720 4413D 1   1.00000     0.00000
 Structure written by MMmdl.
 37 39  0  0  0  0  0  0  0  0  2 V2000
  152.5008  140.1067  156.8676 O   0  0  0  0  0  0  0  0  0  0  0  0
  151.7848  139.4354  156.1257 C   0  0  0  0  0  0  0  0  0  0  0  0
  152.2510  138.0544  155.6596 C   0  0  0  0  0  0  0  0  0  0  0  0
  151.6362  136.9936  156.4363 N   0  0  0  0  0  0  0  0  0  0  0  0
  150.8512  137.0388  157.5148 C   0  0  0  0  0  0  0  0  0  0  0  0
  150.5158  135.8259  157.9265 N   0  0  0  0  0  0  0  0  0  0  0  0
  151.1509  134.9979  157.0160 N   0  0  0  0  0  0  0  0  0  0  0  0
  151.8174  135.6851  156.1294 N   0  0  0  0  0  0  0  0  0  0  0  0
  150.5917  139.8548  155.6750 N   0  0  0  0  0  0  0  0  0  0  0  0
  149.9674  141.1322  156.0051 C   0  0  2  0  0  0  0  0  0  0  0  0
  149.8002  141.3420  157.5206 C   0  0  0  0  0  0  0  0  0  0  0  0
  148.4382  142.0440  157.6896 C   0  0  0  0  0  0  0  0  0  0  0  0
  147.9562  142.2974  156.3185 N   0  3  2  0  0  0  0  0  0  0  0  0
  146.4960  142.4466  156.1347 C   0  0  0  0  0  0  0  0  0  0  0  0
  146.2009  142.7857  154.6597 C   0  0  0  0  0  0  0  0  0  0  0  0
  146.8447  141.7665  153.6975 C   0  0  0  0  0  0  0  0  0  0  0  0
  148.3447  141.5858  153.9998 C   0  0  0  0  0  0  0  0  0  0  0  0
  148.5312  141.2308  155.4846 C   0  0  1  0  0  0  0  0  0  0  0  0
  151.9968  137.9166  154.6078 H   0  0  0  0  0  0  0  0  0  0  0  0
  153.3360  137.9733  155.7428 H   0  0  0  0  0  0  0  0  0  0  0  0
  150.5344  137.9515  157.9973 H   0  0  0  0  0  0  0  0  0  0  0  0
  150.0724  139.2374  155.0675 H   0  0  0  0  0  0  0  0  0  0  0  0
  150.5569  141.9616  155.6080 H   0  0  0  0  0  0  0  0  0  0  0  0
  149.7939  140.3923  158.0579 H   0  0  0  0  0  0  0  0  0  0  0  0
  150.6176  141.9401  157.9250 H   0  0  0  0  0  0  0  0  0  0  0  0
  147.7435  141.3880  158.2165 H   0  0  0  0  0  0  0  0  0  0  0  0
  148.5160  142.9754  158.2509 H   0  0  0  0  0  0  0  0  0  0  0  0
  145.9886  141.5251  156.4240 H   0  0  0  0  0  0  0  0  0  0  0  0
  146.1238  143.2388  156.7852 H   0  0  0  0  0  0  0  0  0  0  0  0
  145.1238  142.8272  154.4942 H   0  0  0  0  0  0  0  0  0  0  0  0
  146.5848  143.7816  154.4355 H   0  0  0  0  0  0  0  0  0  0  0  0
  146.3377  140.8057  153.7957 H   0  0  0  0  0  0  0  0  0  0  0  0
  146.7048  142.0852  152.6640 H   0  0  0  0  0  0  0  0  0  0  0  0
  148.7582  140.8016  153.3653 H   0  0  0  0  0  0  0  0  0  0  0  0
  148.8862  142.5019  153.7604 H   0  0  0  0  0  0  0  0  0  0  0  0
  148.0063  140.2977  155.7033 H   0  0  0  0  0  0  0  0  0  0  0  0
  148.3879  143.1594  156.0165 H   0  0  0  0  0  0  0  0  0  0  0  0
  1  2  2  0  0  0  0
  2  3  1  0  0  0  0
  2  9  1  0  0  0  0
  3  4  1  0  0  0  0
  3 19  1  0  0  0  0
  3 20  1  0  0  0  0
  4  8  1  0  0  0  0
  4  5  1  0  0  0  0
  5  6  2  0  0  0  0
  5 21  1  0  0  0  0
  6  7  1  0  0  0  0
  7  8  2  0  0  0  0
  9 10  1  0  0  0  0
  9 22  1  0  0  0  0
 10 18  1  0  0  0  0
 10 11  1  0  0  0  0
 10 23  1  0  0  0  0
 11 12  1  0  0  0  0
 11 24  1  0  0  0  0
 11 25  1  0  0  0  0
 12 13  1  0  0  0  0
 12 26  1  0  0  0  0
 12 27  1  0  0  0  0
 13 18  1  0  0  0  0
 13 14  1  0  0  0  0
 13 37  1  0  0  0  0
 14 15  1  0  0  0  0
 14 28  1  0  0  0  0
 14 29  1  0  0  0  0
 15 16  1  0  0  0  0
 15 30  1  0  0  0  0
 15 31  1  0  0  0  0
 16 17  1  0  0  0  0
 16 32  1  0  0  0  0
 16 33  1  0  0  0  0
 17 18  1  0  0  0  0
 17 34  1  0  0  0  0
 17 35  1  0  0  0  0
 18 36  1  0  0  0  0
M  CHG  1  13   1
M  END
> <s_m_source_file>
AV-unprocessed.smi

> <i_m_source_file_index>
1260

> <i_lp_mmshare_version>
43012

> <i_f3d_flags>
0

> <s_epik_input>
bjFubltjSF1uMVtDSDJdQyg9TylbTkhdW0NASF0oW0NIMl1bQ0gyXTIpW0NAQEhdKE4yMylbQ0gyXVtDSDJdW0NIMl1bQ0gyXTM=

> <s_epik_cmdline>
J2VwaWtfcHl0aG9uJywgJy1waCcsICc3LjAnLCAnLXRuJywgJzgnLCAnLW1hJywgJzIwMCcsICctbWV0YWxfYmluZGluZycsICctaW1hZScsICc8aW5maWxlLm1hZT4nLCAnLW9tYWUnLCAnPG91dGZpbGUubWFlPic=

> <r_lp_tautomer_probability>
1

> <r_epik_Ionization_Penalty>
0.00234324

> <r_epik_Ionization_Penalty_Charging>
0.00233897

> <r_epik_Ionization_Penalty_Neutral>
4.26861e-06

> <r_epik_State_Penalty>
0.00161477

> <r_epik_Charging_Adjusted_Penalty>
0.00395374

> <i_epik_Tot_Q>
1

> <i_epik_Tot_abs_Q>
1

> <r_epik_Metal_State_Penalty>
-0

> <b_epik_Metal_Only>
0

> <s_lp_Force_Field>
OPLS_2005

> <r_lp_Energy>
37.0555

> <b_lp_Chiralities_Consistent>
1

> <s_lp_Variant>
AV-unprocessed.smi:1260-3

> <Gold.Version>
5.8.1

> <Gold.Id.Protein>
6NUR|6NUR_protein|mol2

> <Gold.PLP.Fitness>
40.5772

> <Gold.PLP.PLP>
-27.3121

> <Gold.PLP.part.hbond>
-5.0000

> <Gold.PLP.part.metal>
0.0000

> <Gold.PLP.part.buried>
-3.1261

> <Gold.PLP.part.nonpolar>
-19.0717

> <Gold.PLP.part.repulsive>
0.1179

> <Gold.PLP.ligand.clash>
0.0000

> <Gold.PLP.ligand.torsion>
0.3577

> <Gold.PLP.Chemscore.Hbond>
4.6560

> <Gold.PLP.Chemscore.CHOScore>
0.0000

> <Gold.PLP.Chemscore.Metal>
0.0000

> <Gold.Chemscore.Hbonds>
donor molecule, donor type, donor heavy atom, donor atom, acceptor molecule, acceptor atom, score
      L1  H    13    37       P1  8028  2.00
      P1  H  6896  6909       L1     6  0.64
      P1  H  7997  8009       L1     1  1.00
      P1  H 10752 10765       L1     8  1.00

> <Gold.PLP.Chemscore.Internal.Correction>
0.0124

> <Gold.Rescore>
     Score         DG    S(hbond)    S(metal)    S(lipo)     H(rot)  DE(clash)    DE(int)     intcor
     15.21     -16.10       2.95        0.00      49.71       1.98       0.58       0.31       ----

> <Gold.Chemscore.Fitness>
15.2093

> <Gold.Chemscore.DG>
-16.1028

> <Gold.Chemscore.ZeroCoef>
-5.4800

> <Gold.Chemscore.Hbond>
2.9533

> <Gold.Chemscore.Metal>
0.0000

> <Gold.Chemscore.Lipo>
49.7142

> <Gold.Chemscore.Internal_Hbond>
0.0000

> <Gold.Chemscore.DEClash>
0.5786

> <Gold.Chemscore.DEInternal>
0.3148

> <Gold.Chemscore.Rot>
1.9757

> <Gold.Chemscore.Internal.Correction>
   9.000000E+99

> <Gold.Chemscore.Hbonds>
donor molecule, donor type, donor heavy atom, donor atom, acceptor molecule, acceptor atom, score
      L1  H    13    37       P1  8028  0.88
      P1  H  6896  6909       L1     6  0.15
      P1  H  7997  8009       L1     1  0.95
      P1  H 10752 10765       L1     8  0.82

> <Gold.Chemscore.Hbond.Weighted>
-9.8640

> <Gold.Chemscore.Metal.Weighted>
-0.0000

> <Gold.Chemscore.Lipo.Weighted>
-5.8166

> <Gold.Chemscore.Internal_Hbond.Weighted>
0.0000

> <Gold.Chemscore.DEClash.Weighted>
0.5786

> <Gold.Chemscore.DEInternal.Weighted>
0.3148

> <Gold.Chemscore.Rot.Weighted>
5.0578

> <Gold.Chemscore.Internal.Correction.Weighted>
   9.000000E+99

> <Gold.Protein.RotatedTorsions>
[ 6907 6896 6895 6894 ] final   64.01 input  -60.11 | X-H torsion
[ 7974 7965 7964 7962 ] final -130.72 input  175.53 | X-H torsion
[ 8008 7997 7996 7995 ] final -176.87 input   59.86 | X-H torsion
[ 10167 10162 10161 10158 ] final -149.53 input  -65.29 | X-H torsion
[ 10718 10713 10712 10709 ] final  -80.51 input   66.30 | X-H torsion
[ 10763 10752 10751 10750 ] final -144.14 input  -60.55 | X-H torsion
[ 11005 11000 10999 10996 ] final  -46.27 input  -57.11 | X-H torsion

> <Gold.Protein.ActiveResidues>
 VAL166  LYS551  ARG553  GLY616  TRP617  ASP618  TYR619  PRO620  LYS621  CYS622 
 ASP623  PHE694  ASN695  SER759  ASP760  ASP761  ALA762  ILE779  LEU786  VAL792 
 PHE793  MET794  SER795  GLU796  ALA797  LYS798  CYS799  TRP800  GLU811  SER814 

> <Gold.Protein.RotatedAtoms>
  152.4298  134.5800  159.9944 H   0  0  0  0  0  0  0  0  0  0  0  0  # atno 6907 bound_to 6896
  151.5926  133.3359  159.3039 H   0  0  0  0  0  0  0  0  0  0  0  0  # atno 6908 bound_to 6896
  150.8190  134.7423  159.6820 H   0  0  0  0  0  0  0  0  0  0  0  0  # atno 6909 bound_to 6896
  144.9448  140.7279  143.4824 H   0  0  0  0  0  0  0  0  0  0  0  0  # atno 7974 bound_to 7965
  156.0001  140.1219  157.0556 H   0  0  0  0  0  0  0  0  0  0  0  0  # atno 8008 bound_to 7997
  154.4239  140.1108  156.5753 H   0  0  0  0  0  0  0  0  0  0  0  0  # atno 8009 bound_to 7997
  155.6224  140.3472  155.4658 H   0  0  0  0  0  0  0  0  0  0  0  0  # atno 8010 bound_to 7997
  139.7434  143.8627  152.2568 H   0  0  0  0  0  0  0  0  0  0  0  0  # atno 10167 bound_to 10162
  156.0069  130.4576  150.3812 H   0  0  0  0  0  0  0  0  0  0  0  0  # atno 10718 bound_to 10713
  154.8441  135.3448  154.6298 H   0  0  0  0  0  0  0  0  0  0  0  0  # atno 10763 bound_to 10752
  153.6908  135.6975  153.5095 H   0  0  0  0  0  0  0  0  0  0  0  0  # atno 10764 bound_to 10752
  153.2597  135.4327  155.0836 H   0  0  0  0  0  0  0  0  0  0  0  0  # atno 10765 bound_to 10752
  141.0568  133.6723  156.3131 H   0  0  0  0  0  0  0  0  0  0  0  0  # atno 11005 bound_to 11000
  145.2935  139.1875  143.4727 LP  0  0  0  0  0  0  0  0  0  0  0  0  # atno 17320 bound_to 7965
  146.3299  140.2915  142.8615 LP  0  0  0  0  0  0  0  0  0  0  0  0  # atno 17321 bound_to 7965
  139.8585  144.7129  150.9128 LP  0  0  0  0  0  0  0  0  0  0  0  0  # atno 17342 bound_to 10162
  140.7789  143.3838  151.1430 LP  0  0  0  0  0  0  0  0  0  0  0  0  # atno 17343 bound_to 10162
  157.1891  131.0411  151.2709 LP  0  0  0  0  0  0  0  0  0  0  0  0  # atno 17370 bound_to 10713
  157.4077  130.7368  149.6815 LP  0  0  0  0  0  0  0  0  0  0  0  0  # atno 17371 bound_to 10713
  140.5947  134.5615  157.5506 LP  0  0  0  0  0  0  0  0  0  0  0  0  # atno 17394 bound_to 11000
  139.9397  134.7809  156.0709 LP  0  0  0  0  0  0  0  0  0  0  0  0  # atno 17395 bound_to 11000

$$$$
