AV-unprocessed.smi:739|AV-procd|sdf|3544|dock10
  -GOLD-   22720 0533D 1   1.00000     0.00000
 Structure written by MMmdl.
 33 35  0  0  0  0  0  0  0  0  2 V2000
  151.5161  137.0164  154.2907 O   0  0  0  0  0  0  0  0  0  0  0  0
  150.8316  137.9966  155.0420 C   0  0  2  0  0  0  0  0  0  0  0  0
  151.8550  139.0611  155.4853 C   0  0  0  0  0  0  0  0  0  0  0  0
  151.2170  140.3024  155.9414 N   0  0  0  0  0  0  0  0  0  0  0  0
  150.2646  141.0675  155.3416 C   0  0  0  0  0  0  0  0  0  0  0  0
  150.0101  142.1240  156.1626 N   0  3  0  0  0  0  0  0  0  0  0  0
  150.8094  142.0308  157.3046 C   0  0  0  0  0  0  0  0  0  0  0  0
  150.9104  142.8582  158.4184 C   0  0  0  0  0  0  0  0  0  0  0  0
  151.8335  142.4741  159.4137 C   0  0  0  0  0  0  0  0  0  0  0  0
  151.9712  143.2438  160.5192 F   0  0  0  0  0  0  0  0  0  0  0  0
  152.6143  141.3062  159.2793 C   0  0  0  0  0  0  0  0  0  0  0  0
  153.4894  140.9743  160.2578 F   0  0  0  0  0  0  0  0  0  0  0  0
  152.5031  140.4752  158.1450 C   0  0  0  0  0  0  0  0  0  0  0  0
  151.5874  140.8624  157.1682 C   0  0  0  0  0  0  0  0  0  0  0  0
  150.0771  137.3962  156.2203 C   0  0  0  0  0  0  0  0  0  0  0  0
  149.1418  136.3564  156.0212 C   0  0  0  0  0  0  0  0  0  0  0  0
  148.4586  135.7964  157.1181 C   0  0  0  0  0  0  0  0  0  0  0  0
  148.7068  136.2711  158.4201 C   0  0  0  0  0  0  0  0  0  0  0  0
  148.0509  135.7318  159.4746 F   0  0  0  0  0  0  0  0  0  0  0  0
  149.6402  137.3053  158.6251 C   0  0  0  0  0  0  0  0  0  0  0  0
  150.3239  137.8657  157.5285 C   0  0  0  0  0  0  0  0  0  0  0  0
  151.0514  136.8818  153.4786 H   0  0  0  0  0  0  0  0  0  0  0  0
  150.1102  138.4541  154.3637 H   0  0  0  0  0  0  0  0  0  0  0  0
  152.4728  138.6856  156.3023 H   0  0  0  0  0  0  0  0  0  0  0  0
  152.5378  139.3104  154.6716 H   0  0  0  0  0  0  0  0  0  0  0  0
  149.8006  140.8744  154.3848 H   0  0  0  0  0  0  0  0  0  0  0  0
  150.3158  143.7533  158.5249 H   0  0  0  0  0  0  0  0  0  0  0  0
  153.1054  139.5837  158.0515 H   0  0  0  0  0  0  0  0  0  0  0  0
  148.9468  135.9829  155.0265 H   0  0  0  0  0  0  0  0  0  0  0  0
  147.7445  135.0015  156.9601 H   0  0  0  0  0  0  0  0  0  0  0  0
  149.8324  137.6685  159.6240 H   0  0  0  0  0  0  0  0  0  0  0  0
  151.0415  138.6553  157.6968 H   0  0  0  0  0  0  0  0  0  0  0  0
  149.3392  142.8530  155.9557 H   0  0  0  0  0  0  0  0  0  0  0  0
  1  2  1  0  0  0  0
  1 22  1  0  0  0  0
  2  3  1  0  0  0  0
  2 15  1  0  0  0  0
  2 23  1  0  0  0  0
  3  4  1  0  0  0  0
  3 24  1  0  0  0  0
  3 25  1  0  0  0  0
  4 14  1  0  0  0  0
  4  5  1  0  0  0  0
  5  6  2  0  0  0  0
  5 26  1  0  0  0  0
  6  7  1  0  0  0  0
  6 33  1  0  0  0  0
  7 14  2  0  0  0  0
  7  8  1  0  0  0  0
  8  9  2  0  0  0  0
  8 27  1  0  0  0  0
  9 10  1  0  0  0  0
  9 11  1  0  0  0  0
 11 12  1  0  0  0  0
 11 13  2  0  0  0  0
 13 14  1  0  0  0  0
 13 28  1  0  0  0  0
 15 21  1  0  0  0  0
 15 16  2  0  0  0  0
 16 17  1  0  0  0  0
 16 29  1  0  0  0  0
 17 18  2  0  0  0  0
 17 30  1  0  0  0  0
 18 19  1  0  0  0  0
 18 20  1  0  0  0  0
 20 21  2  0  0  0  0
 20 31  1  0  0  0  0
 21 32  1  0  0  0  0
M  CHG  1   6   1
M  END
> <s_m_source_file>
AV-unprocessed.smi

> <i_m_source_file_index>
739

> <i_lp_mmshare_version>
43012

> <i_f3d_flags>
0

> <s_epik_input>
W2NIXTFbY0hdYyhGKVtjSF1bY0hdYzFbQ0BIXShbT0hdKVtDSDJdbihbY0hdbjIpYyhjMjMpW2NIXWMoRiljKEYpW2NIXTM=

> <s_epik_cmdline>
J2VwaWtfcHl0aG9uJywgJy1waCcsICc3LjAnLCAnLXRuJywgJzgnLCAnLW1hJywgJzIwMCcsICctbWV0YWxfYmluZGluZycsICctaW1hZScsICc8aW5maWxlLm1hZT4nLCAnLW9tYWUnLCAnPG91dGZpbGUubWFlPic=

> <r_epik_Ionization_Penalty>
2.16139

> <r_epik_Ionization_Penalty_Charging>
2.16138

> <r_epik_Ionization_Penalty_Neutral>
1.79538e-06

> <r_epik_State_Penalty>
2.30198

> <r_epik_Charging_Adjusted_Penalty>
4.46337

> <i_epik_Tot_Q>
1

> <i_epik_Tot_abs_Q>
1

> <r_epik_Metal_State_Penalty>
6.38245

> <b_epik_Metal_Only>
0

> <s_lp_Force_Field>
OPLS_2005

> <r_lp_Energy>
16.88

> <b_lp_Chiralities_Consistent>
1

> <s_lp_Variant>
AV-unprocessed.smi:739-3

> <Gold.Version>
5.8.1

> <Gold.Id.Protein>
6NUR|6NUR_protein|mol2

> <Gold.PLP.Fitness>
48.5285

> <Gold.PLP.PLP>
-37.7605

> <Gold.PLP.part.hbond>
-3.0000

> <Gold.PLP.part.metal>
0.0000

> <Gold.PLP.part.buried>
-3.8688

> <Gold.PLP.part.nonpolar>
-30.2676

> <Gold.PLP.part.repulsive>
0.0991

> <Gold.PLP.ligand.clash>
0.0000

> <Gold.PLP.ligand.torsion>
0.2133

> <Gold.PLP.Chemscore.Hbond>
3.7266

> <Gold.PLP.Chemscore.CHOScore>
0.0000

> <Gold.PLP.Chemscore.Metal>
0.0000

> <Gold.Chemscore.Hbonds>
donor molecule, donor type, donor heavy atom, donor atom, acceptor molecule, acceptor atom, score
      L1  H     1    22       P1  7949  0.55
      L1  H     6    33       P1  8028  2.00
      P1  H 10752 10763       L1     1  0.95

> <Gold.PLP.Chemscore.Internal.Correction>
0.0150

> <Gold.Rescore>
     Score         DG    S(hbond)    S(metal)    S(lipo)     H(rot)  DE(clash)    DE(int)     intcor
     15.13     -15.85       1.98        0.00      78.41       2.12       0.47       0.25       ----

> <Gold.Chemscore.Fitness>
15.1254

> <Gold.Chemscore.DG>
-15.8459

> <Gold.Chemscore.ZeroCoef>
-5.4800

> <Gold.Chemscore.Hbond>
1.9799

> <Gold.Chemscore.Metal>
0.0000

> <Gold.Chemscore.Lipo>
78.4105

> <Gold.Chemscore.Internal_Hbond>
0.0000

> <Gold.Chemscore.DEClash>
0.4720

> <Gold.Chemscore.DEInternal>
0.2484

> <Gold.Chemscore.Rot>
2.1176

> <Gold.Chemscore.Internal.Correction>
   9.000000E+99

> <Gold.Chemscore.Hbonds>
donor molecule, donor type, donor heavy atom, donor atom, acceptor molecule, acceptor atom, score
      L1  H     1    22       P1  7949  0.19
      L1  H     6    33       P1  8028  0.95
      P1  H 10752 10763       L1     1  0.19

> <Gold.Chemscore.Hbond.Weighted>
-6.6129

> <Gold.Chemscore.Metal.Weighted>
-0.0000

> <Gold.Chemscore.Lipo.Weighted>
-9.1740

> <Gold.Chemscore.Internal_Hbond.Weighted>
0.0000

> <Gold.Chemscore.DEClash.Weighted>
0.4720

> <Gold.Chemscore.DEInternal.Weighted>
0.2484

> <Gold.Chemscore.Rot.Weighted>
5.4211

> <Gold.Chemscore.Internal.Correction.Weighted>
   9.000000E+99

> <Gold.Protein.RotatedTorsions>
[ 6907 6896 6895 6894 ] final -152.87 input  -60.11 | X-H torsion
[ 7974 7965 7964 7962 ] final  177.87 input  175.53 | X-H torsion
[ 8008 7997 7996 7995 ] final  -17.52 input   59.86 | X-H torsion
[ 10167 10162 10161 10158 ] final  110.34 input  -65.29 | X-H torsion
[ 10718 10713 10712 10709 ] final  107.22 input   66.30 | X-H torsion
[ 10763 10752 10751 10750 ] final   24.20 input  -60.55 | X-H torsion
[ 11005 11000 10999 10996 ] final -166.90 input  -57.11 | X-H torsion

> <Gold.Protein.ActiveResidues>
 VAL166  LYS551  ARG553  GLY616  TRP617  ASP618  TYR619  PRO620  LYS621  CYS622 
 ASP623  PHE694  ASN695  SER759  ASP760  ASP761  ALA762  ILE779  LEU786  VAL792 
 PHE793  MET794  SER795  GLU796  ALA797  LYS798  CYS799  TRP800  GLU811  SER814 

> <Gold.Protein.RotatedAtoms>
  151.2341  133.4434  159.2604 H   0  0  0  0  0  0  0  0  0  0  0  0  # atno 6907 bound_to 6896
  151.0766  134.9832  159.8345 H   0  0  0  0  0  0  0  0  0  0  0  0  # atno 6908 bound_to 6896
  152.5419  134.2283  159.8868 H   0  0  0  0  0  0  0  0  0  0  0  0  # atno 6909 bound_to 6896
  144.7163  140.0311  143.6439 H   0  0  0  0  0  0  0  0  0  0  0  0  # atno 7974 bound_to 7965
  154.4972  140.2140  155.9421 H   0  0  0  0  0  0  0  0  0  0  0  0  # atno 8008 bound_to 7997
  156.1387  140.3184  155.8428 H   0  0  0  0  0  0  0  0  0  0  0  0  # atno 8009 bound_to 7997
  155.4162  140.0494  157.3019 H   0  0  0  0  0  0  0  0  0  0  0  0  # atno 8010 bound_to 7997
  139.6696  144.7126  151.1713 H   0  0  0  0  0  0  0  0  0  0  0  0  # atno 10167 bound_to 10162
  157.6637  131.0868  150.6123 H   0  0  0  0  0  0  0  0  0  0  0  0  # atno 10718 bound_to 10713
  153.0781  135.6610  154.0102 H   0  0  0  0  0  0  0  0  0  0  0  0  # atno 10763 bound_to 10752
  153.9731  135.2962  155.3427 H   0  0  0  0  0  0  0  0  0  0  0  0  # atno 10764 bound_to 10752
  154.7174  135.5179  153.8830 H   0  0  0  0  0  0  0  0  0  0  0  0  # atno 10765 bound_to 10752
  140.5593  134.5349  157.5139 H   0  0  0  0  0  0  0  0  0  0  0  0  # atno 11005 bound_to 11000
  146.0101  139.3163  143.0875 LP  0  0  0  0  0  0  0  0  0  0  0  0  # atno 17320 bound_to 7965
  145.8692  140.9430  143.0660 LP  0  0  0  0  0  0  0  0  0  0  0  0  # atno 17321 bound_to 7965
  140.7613  143.5865  150.8840 LP  0  0  0  0  0  0  0  0  0  0  0  0  # atno 17342 bound_to 10162
  139.9530  143.6251  152.3024 LP  0  0  0  0  0  0  0  0  0  0  0  0  # atno 17343 bound_to 10162
  156.6425  130.4462  149.5747 LP  0  0  0  0  0  0  0  0  0  0  0  0  # atno 17370 bound_to 10713
  156.2199  130.6730  151.1357 LP  0  0  0  0  0  0  0  0  0  0  0  0  # atno 17371 bound_to 10713
  139.9416  134.7777  156.0665 LP  0  0  0  0  0  0  0  0  0  0  0  0  # atno 17394 bound_to 11000
  141.1124  133.6639  156.3012 LP  0  0  0  0  0  0  0  0  0  0  0  0  # atno 17395 bound_to 11000

$$$$
