#       Name:                AV-unprocessed.smi:240
#       Creating user name   scv26
#       Creation time:       Thu Mar 26 20:42:58 2020


#       File generated by GOLD software.
#

@<TRIPOS>MOLECULE
AV-unprocessed.smi:240
    67    71     1
SMALL
NO_CHARGES


@<TRIPOS>ATOM
      1 ****        -1.6766  -2.5227   0.3978 O.3            1 S1                 0.0000
      2 ****        -2.5407  -2.7066  -0.7043 C.3            1 S1                 0.0000
      3 ****        -2.4948  -4.1529  -1.1937 C.3            1 S1                 0.0000
      4 ****        -3.0405  -4.0685  -2.6171 C.3            1 S1                 0.0000
      5 ****        -2.5683  -2.7114  -3.1567 C.3            1 S1                 0.0000
      6 ****        -2.1212  -1.8773  -1.9362 C.3            1 S1                 0.0000
      7 ****        -2.5804  -0.3839  -1.9725 C.3            1 S1                 0.0000
      8 ****        -4.1215  -0.2176  -1.9005 C.3            1 S1                 0.0000
      9 ****        -4.4724   1.1582  -1.9707 O.3            1 S1                 0.0000
     10 ****        -3.9547   1.8836  -0.8643 C.3            1 S1                 0.0000
     11 ****        -2.4226   1.8255  -0.9065 C.3            1 S1                 0.0000
     12 ****        -1.9548   0.4425  -0.9272 N.3            1 S1                 0.0000
     13 ****        -0.6035   0.4234  -0.8375 C.ar           1 S1                 0.0000
     14 ****         0.1615   0.4707  -1.9609 N.ar           1 S1                 0.0000
     15 ****         1.4941   0.4531  -1.8629 C.ar           1 S1                 0.0000
     16 ****         2.2498   0.3987  -0.7636 N.ar           1 S1                 0.0000
     17 ****         1.4836   0.3701   0.3648 C.ar           1 S1                 0.0000
     18 ****         0.0622   0.3848   0.4159 C.ar           1 S1                 0.0000
     19 ****        -0.3691   0.3462   1.7352 N.2            1 S1                 0.0000
     20 ****         0.7367   0.3007   2.4270 C.2            1 S1                 0.0000
     21 ****         1.8971   0.3179   1.6849 N.pl3          1 S1                 0.0000
     22 ****         3.2595   0.2702   2.1940 C.3            1 S1                 0.0000
     23 ****         3.7717   1.6299   2.7240 C.3            1 S1                 0.0000
     24 ****         3.0027   1.9991   3.8560 O.3            1 S1                 0.0000
     25 ****         5.2384   1.5932   3.1335 C.3            1 S1                 0.0000
     26 ****         5.6830   3.0330   2.9153 C.3            1 S1                 0.0000
     27 ****         5.0149   3.3945   1.7185 O.3            1 S1                 0.0000
     28 ****         3.7265   2.7861   1.7032 C.3            1 S1                 0.0000
     29 ****        -0.7963  -2.7366   0.1290 H              1 S1                 0.0000
     30 ****        -3.5595  -2.4798  -0.3953 H              1 S1                 0.0000
     31 ****        -1.4650  -4.5128  -1.2206 H              1 S1                 0.0000
     32 ****        -3.0697  -4.8308  -0.5621 H              1 S1                 0.0000
     33 ****        -2.7134  -4.9026  -3.2385 H              1 S1                 0.0000
     34 ****        -4.1308  -4.0874  -2.5880 H              1 S1                 0.0000
     35 ****        -1.7266  -2.8467  -3.8371 H              1 S1                 0.0000
     36 ****        -3.3584  -2.2382  -3.7376 H              1 S1                 0.0000
     37 ****        -1.0322  -1.9106  -1.9753 H              1 S1                 0.0000
     38 ****        -2.2639   0.0284  -2.9318 H              1 S1                 0.0000
     39 ****        -4.6136  -0.7272  -2.7271 H              1 S1                 0.0000
     40 ****        -4.5367  -0.6355  -0.9839 H              1 S1                 0.0000
     41 ****        -4.2931   2.9178  -0.9264 H              1 S1                 0.0000
     42 ****        -4.3382   1.4768   0.0731 H              1 S1                 0.0000
     43 ****        -2.0587   2.3454  -1.7943 H              1 S1                 0.0000
     44 ****        -2.0153   2.3475  -0.0391 H              1 S1                 0.0000
     45 ****         2.0314   0.4862  -2.7991 H              1 S1                 0.0000
     46 ****         0.7361   0.2552   3.5065 H              1 S1                 0.0000
     47 ****         3.3038  -0.4832   2.9816 H              1 S1                 0.0000
     48 ****         3.9087  -0.0879   1.3941 H              1 S1                 0.0000
     49 ****         3.3193   2.8309   4.1738 H              1 S1                 0.0000
     50 ****         5.4028   1.2421   4.1532 H              1 S1                 0.0000
     51 ****         5.8027   0.9428   2.4637 H              1 S1                 0.0000
     52 ****         5.3480   3.6749   3.7313 H              1 S1                 0.0000
     53 ****         6.7642   3.1323   2.8189 H              1 S1                 0.0000
     54 ****         3.5354   2.4361   0.6894 H              1 S1                 0.0000
     55 ****         2.9582   3.5226   1.9441 H              1 S1                 0.0000
     56 ****        -1.9550  -3.1224   1.1481 LP             1 S1                 0.0000
     57 ****        -1.7145  -1.5704   0.7006 LP             1 S1                 0.0000
     58 ****        -5.4691   1.2397  -1.9752 LP             1 S1                 0.0000
     59 ****        -4.1024   1.5454  -2.8152 LP             1 S1                 0.0000
     60 ****        -2.2810  -0.0380  -0.1131 LP             1 S1                 0.0000
     61 ****        -0.2732   0.5186  -2.8602 LP             1 S1                 0.0000
     62 ****         3.2496   0.3812  -0.7669 LP             1 S1                 0.0000
     63 ****        -1.3091   0.3519   2.0763 LP             1 S1                 0.0000
     64 ****         3.0991   1.3059   4.5703 LP             1 S1                 0.0000
     65 ****         2.0399   2.0804   3.5982 LP             1 S1                 0.0000
     66 ****         5.5440   3.0787   0.9309 LP             1 S1                 0.0000
     67 ****         4.9165   4.3888   1.6769 LP             1 S1                 0.0000
@<TRIPOS>BOND
    1    1    2 1     
    2    1   29 1     
    3    2    6 1     
    4    2    3 1     
    5    2   30 1     
    6    3    4 1     
    7    3   31 1     
    8    3   32 1     
    9    4    5 1     
   10    4   33 1     
   11    4   34 1     
   12    5    6 1     
   13    5   35 1     
   14    5   36 1     
   15    6    7 1     
   16    6   37 1     
   17    7   12 1     
   18    7    8 1     
   19    7   38 1     
   20    8    9 1     
   21    8   39 1     
   22    8   40 1     
   23    9   10 1     
   24   10   11 1     
   25   10   41 1     
   26   10   42 1     
   27   11   12 1     
   28   11   43 1     
   29   11   44 1     
   30   12   13 1     
   31   13   18 ar    
   32   13   14 ar    
   33   14   15 ar    
   34   15   16 ar    
   35   15   45 1     
   36   16   17 ar    
   37   17   21 1     
   38   17   18 ar    
   39   18   19 1     
   40   19   20 2     
   41   20   21 1     
   42   20   46 1     
   43   21   22 1     
   44   22   23 1     
   45   22   47 1     
   46   22   48 1     
   47   23   28 1     
   48   23   24 1     
   49   23   25 1     
   50   24   49 1     
   51   25   26 1     
   52   25   50 1     
   53   25   51 1     
   54   26   27 1     
   55   26   52 1     
   56   26   53 1     
   57   27   28 1     
   58   28   54 1     
   59   28   55 1     
   60    1   56 1     
   61    1   57 1     
   62    9   58 1     
   63    9   59 1     
   64   12   60 1     
   65   14   61 1     
   66   16   62 1     
   67   19   63 1     
   68   24   64 1     
   69   24   65 1     
   70   27   66 1     
   71   27   67 1     
@<TRIPOS>SUBSTRUCTURE
      1 S1             1
@<TRIPOS>SET
LONE_PAIRS      STATIC     ATOMS    <user>   **** ""
12 56 57 58 59 60 61 62 63 64 65 66 67
DONOR_HYDROGENS      STATIC     ATOMS    <user>   **** ""
2 29 49
ATOM$BLUE        STATIC     ATOMS    COLORGROUP SYSTEM
12 56 57 58 59 60 61 62 63 64 65 66 67
ATOM$RED        STATIC     ATOMS    COLORGROUP SYSTEM
2 29 49
