AV-unprocessed.smi:896|AV-procd|sdf|4077|dock6
  -GOLD-   22720 1563D 1   1.00000     0.00000
 Structure written by MMmdl.
 49 50  0  0  0  0  0  0  0  0  2 V2000
  151.2664  142.9505  157.6862 C   0  0  0  0  0  0  0  0  0  0  0  0
  151.5813  141.5798  157.4679 O   0  0  0  0  0  0  0  0  0  0  0  0
  150.8622  140.8862  156.5163 C   0  0  0  0  0  0  0  0  0  0  0  0
  149.6780  141.4595  156.0152 C   0  0  0  0  0  0  0  0  0  0  0  0
  148.9434  140.7596  155.0399 C   0  0  0  0  0  0  0  0  0  0  0  0
  149.4187  139.5055  154.5868 C   0  0  0  0  0  0  0  0  0  0  0  0
  148.7339  138.7178  153.6193 N   0  0  0  0  0  0  0  0  0  0  0  0
  147.4847  138.8777  153.1504 C   0  0  0  0  0  0  0  0  0  0  0  0
  146.7057  139.7688  153.4895 O   0  0  0  0  0  0  0  0  0  0  0  0
  147.1864  137.9462  152.2332 N   0  0  0  0  0  0  0  0  0  0  0  0
  145.9151  137.8491  151.5254 C   0  0  0  0  0  0  0  0  0  0  0  0
  144.8426  137.1553  152.3858 C   0  0  0  0  0  0  0  0  0  0  0  0
  144.6335  135.6658  152.0464 C   0  0  2  0  0  0  0  0  0  0  0  0
  145.9836  134.9330  151.9343 C   0  0  0  0  0  0  0  0  0  0  0  0
  145.7945  133.4508  151.5722 C   0  0  0  0  0  0  0  0  0  0  0  0
  145.0270  133.3066  150.3112 N   0  3  1  0  0  0  0  0  0  0  0  0
  144.9303  131.8990  149.8686 C   0  0  0  0  0  0  0  0  0  0  0  0
  143.7011  133.9665  150.3928 C   0  0  0  0  0  0  0  0  0  0  0  0
  143.8445  135.4588  150.7373 C   0  0  0  0  0  0  0  0  0  0  0  0
  150.6091  139.0053  155.1680 C   0  0  0  0  0  0  0  0  0  0  0  0
  151.1820  137.6577  154.7659 C   0  0  0  0  0  0  0  0  0  0  0  0
  151.3161  139.6780  156.1025 N   0  0  0  0  0  0  0  0  0  0  0  0
  151.9183  143.3507  158.4623 H   0  0  0  0  0  0  0  0  0  0  0  0
  150.2362  143.0735  158.0240 H   0  0  0  0  0  0  0  0  0  0  0  0
  151.4218  143.5450  156.7847 H   0  0  0  0  0  0  0  0  0  0  0  0
  149.3367  142.4190  156.3749 H   0  0  0  0  0  0  0  0  0  0  0  0
  148.0251  141.1894  154.6705 H   0  0  0  0  0  0  0  0  0  0  0  0
  149.2858  137.9967  153.1786 H   0  0  0  0  0  0  0  0  0  0  0  0
  147.8872  137.2543  152.0106 H   0  0  0  0  0  0  0  0  0  0  0  0
  145.5917  138.8588  151.2710 H   0  0  0  0  0  0  0  0  0  0  0  0
  146.0649  137.3246  150.5812 H   0  0  0  0  0  0  0  0  0  0  0  0
  145.0895  137.2552  153.4438 H   0  0  0  0  0  0  0  0  0  0  0  0
  143.8990  137.6853  152.2473 H   0  0  0  0  0  0  0  0  0  0  0  0
  144.0725  135.2078  152.8625 H   0  0  0  0  0  0  0  0  0  0  0  0
  146.6050  135.4156  151.1782 H   0  0  0  0  0  0  0  0  0  0  0  0
  146.5296  135.0091  152.8753 H   0  0  0  0  0  0  0  0  0  0  0  0
  146.7706  132.9766  151.4625 H   0  0  0  0  0  0  0  0  0  0  0  0
  145.2767  132.9292  152.3788 H   0  0  0  0  0  0  0  0  0  0  0  0
  144.3786  131.2982  150.5927 H   0  0  0  0  0  0  0  0  0  0  0  0
  145.9229  131.4639  149.7483 H   0  0  0  0  0  0  0  0  0  0  0  0
  144.4194  131.8318  148.9075 H   0  0  0  0  0  0  0  0  0  0  0  0
  143.1828  133.8630  149.4386 H   0  0  0  0  0  0  0  0  0  0  0  0
  143.0876  133.4648  151.1430 H   0  0  0  0  0  0  0  0  0  0  0  0
  142.8505  135.8988  150.8153 H   0  0  0  0  0  0  0  0  0  0  0  0
  144.3461  135.9753  149.9175 H   0  0  0  0  0  0  0  0  0  0  0  0
  151.3767  137.6317  153.6933 H   0  0  0  0  0  0  0  0  0  0  0  0
  150.4803  136.8597  155.0101 H   0  0  0  0  0  0  0  0  0  0  0  0
  152.1202  137.4505  155.2824 H   0  0  0  0  0  0  0  0  0  0  0  0
  145.5491  133.7961  149.5984 H   0  0  0  0  0  0  0  0  0  0  0  0
  1  2  1  0  0  0  0
  1 23  1  0  0  0  0
  1 24  1  0  0  0  0
  1 25  1  0  0  0  0
  2  3  1  0  0  0  0
  3 22  1  0  0  0  0
  3  4  2  0  0  0  0
  4  5  1  0  0  0  0
  4 26  1  0  0  0  0
  5  6  2  0  0  0  0
  5 27  1  0  0  0  0
  6  7  1  0  0  0  0
  6 20  1  0  0  0  0
  7  8  1  0  0  0  0
  7 28  1  0  0  0  0
  8  9  2  0  0  0  0
  8 10  1  0  0  0  0
 10 11  1  0  0  0  0
 10 29  1  0  0  0  0
 11 12  1  0  0  0  0
 11 30  1  0  0  0  0
 11 31  1  0  0  0  0
 12 13  1  0  0  0  0
 12 32  1  0  0  0  0
 12 33  1  0  0  0  0
 13 19  1  0  0  0  0
 13 14  1  0  0  0  0
 13 34  1  0  0  0  0
 14 15  1  0  0  0  0
 14 35  1  0  0  0  0
 14 36  1  0  0  0  0
 15 16  1  0  0  0  0
 15 37  1  0  0  0  0
 15 38  1  0  0  0  0
 16 17  1  0  0  0  0
 16 18  1  0  0  0  0
 16 49  1  0  0  0  0
 17 39  1  0  0  0  0
 17 40  1  0  0  0  0
 17 41  1  0  0  0  0
 18 19  1  0  0  0  0
 18 42  1  0  0  0  0
 18 43  1  0  0  0  0
 19 44  1  0  0  0  0
 19 45  1  0  0  0  0
 20 21  1  0  0  0  0
 20 22  2  0  0  0  0
 21 46  1  0  0  0  0
 21 47  1  0  0  0  0
 21 48  1  0  0  0  0
M  CHG  1  16   1
M  END
> <s_m_source_file>
AV-unprocessed.smi

> <i_m_source_file_index>
896

> <i_lp_mmshare_version>
43012

> <i_f3d_flags>
0

> <s_epik_input>
W0NIM11PYzFbY0hdW2NIXWMoYyhuMSlbQ0gzXSlbTkhdQyg9TylbTkhdW0NIMl1bQ0gyXVtDSF0yW0NIMl1bQ0gyXU4oW0NIM10pW0NIMl1bQ0gyXTI=

> <s_epik_cmdline>
J2VwaWtfcHl0aG9uJywgJy1waCcsICc3LjAnLCAnLXRuJywgJzgnLCAnLW1hJywgJzIwMCcsICctbWV0YWxfYmluZGluZycsICctaW1hZScsICc8aW5maWxlLm1hZT4nLCAnLW9tYWUnLCAnPG91dGZpbGUubWFlPic=

> <r_lp_tautomer_probability>
1

> <r_epik_Ionization_Penalty>
0.000968128

> <r_epik_Ionization_Penalty_Charging>
0.000718523

> <r_epik_Ionization_Penalty_Neutral>
0.000249604

> <r_epik_State_Penalty>
0.00045807

> <r_epik_Charging_Adjusted_Penalty>
0.00117659

> <i_epik_Tot_Q>
1

> <i_epik_Tot_abs_Q>
1

> <r_epik_Metal_State_Penalty>
-0

> <b_epik_Metal_Only>
0

> <s_lp_Force_Field>
OPLS_2005

> <r_lp_Energy>
19.0488

> <b_lp_Chiralities_Consistent>
1

> <s_lp_Variant>
AV-unprocessed.smi:896-1

> <Gold.Version>
5.8.1

> <Gold.Id.Protein>
6NUR|6NUR_protein|mol2

> <Gold.PLP.Fitness>
43.5881

> <Gold.PLP.PLP>
-38.5007

> <Gold.PLP.part.hbond>
-4.2504

> <Gold.PLP.part.metal>
0.0000

> <Gold.PLP.part.buried>
2.7774

> <Gold.PLP.part.nonpolar>
-38.4357

> <Gold.PLP.part.repulsive>
0.5072

> <Gold.PLP.ligand.clash>
0.1610

> <Gold.PLP.ligand.torsion>
0.7171

> <Gold.PLP.Chemscore.Hbond>
2.2184

> <Gold.PLP.Chemscore.CHOScore>
0.0000

> <Gold.PLP.Chemscore.Metal>
0.0000

> <Gold.Chemscore.Hbonds>
donor molecule, donor type, donor heavy atom, donor atom, acceptor molecule, acceptor atom, score
      L1  H     7    28       P1  7948  0.46
      L1  H    10    29       P1  7948  0.83
      L1  H    16    49       P1  7921  0.37

> <Gold.PLP.Chemscore.Internal.Correction>
0.0274

> <Gold.Rescore>
     Score         DG    S(hbond)    S(metal)    S(lipo)     H(rot)  DE(clash)    DE(int)     intcor
     13.01     -18.33       1.65        0.00      98.90       1.65       3.45       1.86       ----

> <Gold.Chemscore.Fitness>
13.0138

> <Gold.Chemscore.DG>
-18.3306

> <Gold.Chemscore.ZeroCoef>
-5.4800

> <Gold.Chemscore.Hbond>
1.6494

> <Gold.Chemscore.Metal>
0.0000

> <Gold.Chemscore.Lipo>
98.8973

> <Gold.Chemscore.Internal_Hbond>
0.0000

> <Gold.Chemscore.DEClash>
3.4530

> <Gold.Chemscore.DEInternal>
1.8639

> <Gold.Chemscore.Rot>
1.6521

> <Gold.Chemscore.Internal.Correction>
   9.000000E+99

> <Gold.Chemscore.Hbonds>
donor molecule, donor type, donor heavy atom, donor atom, acceptor molecule, acceptor atom, score
      L1  H     7    28       P1  7948  0.44
      L1  H    10    29       P1  7948  0.82
      L1  H    16    49       P1  7921  0.21

> <Gold.Chemscore.Hbond.Weighted>
-5.5091

> <Gold.Chemscore.Metal.Weighted>
-0.0000

> <Gold.Chemscore.Lipo.Weighted>
-11.5710

> <Gold.Chemscore.Internal_Hbond.Weighted>
0.0000

> <Gold.Chemscore.DEClash.Weighted>
3.4530

> <Gold.Chemscore.DEInternal.Weighted>
1.8639

> <Gold.Chemscore.Rot.Weighted>
4.2294

> <Gold.Chemscore.Internal.Correction.Weighted>
   9.000000E+99

> <Gold.Protein.RotatedTorsions>
[ 6907 6896 6895 6894 ] final  171.06 input  -60.11 | X-H torsion
[ 7974 7965 7964 7962 ] final  -88.65 input  175.53 | X-H torsion
[ 8008 7997 7996 7995 ] final -167.15 input   59.86 | X-H torsion
[ 10167 10162 10161 10158 ] final  152.07 input  -65.29 | X-H torsion
[ 10718 10713 10712 10709 ] final   85.86 input   66.30 | X-H torsion
[ 10763 10752 10751 10750 ] final -176.66 input  -60.55 | X-H torsion
[ 11005 11000 10999 10996 ] final  -37.34 input  -57.11 | X-H torsion

> <Gold.Protein.ActiveResidues>
 VAL166  LYS551  ARG553  GLY616  TRP617  ASP618  TYR619  PRO620  LYS621  CYS622 
 ASP623  PHE694  ASN695  SER759  ASP760  ASP761  ALA762  ILE779  LEU786  VAL792 
 PHE793  MET794  SER795  GLU796  ALA797  LYS798  CYS799  TRP800  GLU811  SER814 

> <Gold.Protein.RotatedAtoms>
  151.8063  133.3376  159.3541 H   0  0  0  0  0  0  0  0  0  0  0  0  # atno 6907 bound_to 6896
  150.7341  134.5706  159.5898 H   0  0  0  0  0  0  0  0  0  0  0  0  # atno 6908 bound_to 6896
  152.3107  134.7502  160.0388 H   0  0  0  0  0  0  0  0  0  0  0  0  # atno 6909 bound_to 6896
  145.4503  140.9560  143.2026 H   0  0  0  0  0  0  0  0  0  0  0  0  # atno 7974 bound_to 7965
  155.8738  140.0997  157.1532 H   0  0  0  0  0  0  0  0  0  0  0  0  # atno 8008 bound_to 7997
  154.3999  140.1342  156.4174 H   0  0  0  0  0  0  0  0  0  0  0  0  # atno 8009 bound_to 7997
  155.7721  140.3460  155.5255 H   0  0  0  0  0  0  0  0  0  0  0  0  # atno 8010 bound_to 7997
  139.4835  144.5388  151.7599 H   0  0  0  0  0  0  0  0  0  0  0  0  # atno 10167 bound_to 10162
  157.6921  131.0192  150.2885 H   0  0  0  0  0  0  0  0  0  0  0  0  # atno 10718 bound_to 10713
  154.5697  135.2827  155.0839 H   0  0  0  0  0  0  0  0  0  0  0  0  # atno 10763 bound_to 10752
  154.2217  135.6390  153.5150 H   0  0  0  0  0  0  0  0  0  0  0  0  # atno 10764 bound_to 10752
  153.0054  135.5516  154.6316 H   0  0  0  0  0  0  0  0  0  0  0  0  # atno 10765 bound_to 10752
  140.9944  133.6988  156.1908 H   0  0  0  0  0  0  0  0  0  0  0  0  # atno 11005 bound_to 11000
  144.8066  139.6041  143.7048 LP  0  0  0  0  0  0  0  0  0  0  0  0  # atno 17320 bound_to 7965
  146.2508  139.6195  142.9428 LP  0  0  0  0  0  0  0  0  0  0  0  0  # atno 17321 bound_to 7965
  140.4925  144.1289  150.5953 LP  0  0  0  0  0  0  0  0  0  0  0  0  # atno 17342 bound_to 10162
  140.4155  143.2636  151.9780 LP  0  0  0  0  0  0  0  0  0  0  0  0  # atno 17343 bound_to 10162
  156.3420  130.3817  149.7401 LP  0  0  0  0  0  0  0  0  0  0  0  0  # atno 17370 bound_to 10713
  156.4907  130.8083  151.3093 LP  0  0  0  0  0  0  0  0  0  0  0  0  # atno 17371 bound_to 10713
  140.6989  134.4585  157.5587 LP  0  0  0  0  0  0  0  0  0  0  0  0  # atno 17394 bound_to 11000
  139.9007  134.8562  156.1906 LP  0  0  0  0  0  0  0  0  0  0  0  0  # atno 17395 bound_to 11000

$$$$
