AV-unprocessed.smi:1721|AV-procd|sdf|6938|dock1
  -GOLD-   22720 8143D 1   1.00000     0.00000
 Structure written by MMmdl.
 44 46  0  0  0  0  0  0  0  0  2 V2000
  151.6698  138.3334  154.5011 C   0  0  0  0  0  0  0  0  0  0  0  0
  150.3271  138.2555  154.0350 O   0  0  0  0  0  0  0  0  0  0  0  0
  149.5391  139.3886  154.1038 C   0  0  0  0  0  0  0  0  0  0  0  0
  150.0453  140.4920  154.7098 N   0  0  0  0  0  0  0  0  0  0  0  0
  149.2772  141.5994  154.7749 C   0  0  0  0  0  0  0  0  0  0  0  0
  147.9772  141.6683  154.2408 C   0  0  0  0  0  0  0  0  0  0  0  0
  147.4497  140.5249  153.6133 C   0  0  0  0  0  0  0  0  0  0  0  0
  148.2388  139.3518  153.5494 C   0  0  0  0  0  0  0  0  0  0  0  0
  147.8026  138.1583  152.9141 N   0  0  0  0  0  0  0  0  0  0  0  0
  146.5493  137.6826  152.8333 C   0  0  0  0  0  0  0  0  0  0  0  0
  145.5584  138.2073  153.3412 O   0  0  0  0  0  0  0  0  0  0  0  0
  146.5091  136.5284  152.1523 N   0  0  0  0  0  0  0  0  0  0  0  0
  145.3063  135.7314  151.9167 C   0  0  1  0  0  0  0  0  0  0  0  0
  144.8567  135.7347  150.4430 C   0  0  0  0  0  0  0  0  0  0  0  0
  144.4091  134.2940  150.1739 C   0  0  0  0  0  0  0  0  0  0  0  0
  145.3179  133.5085  151.0165 N   0  3  2  0  0  0  0  0  0  0  0  0
  145.0409  132.0711  151.2101 C   0  0  0  0  0  0  0  0  0  0  0  0
  146.2356  131.4441  151.9606 C   0  0  0  0  0  0  0  0  0  0  0  0
  146.5802  132.2102  153.2585 C   0  0  0  0  0  0  0  0  0  0  0  0
  146.7227  133.7281  153.0113 C   0  0  0  0  0  0  0  0  0  0  0  0
  145.4632  134.2377  152.2881 C   0  0  1  0  0  0  0  0  0  0  0  0
  152.1490  137.3614  154.3852 H   0  0  0  0  0  0  0  0  0  0  0  0
  151.7092  138.5969  155.5593 H   0  0  0  0  0  0  0  0  0  0  0  0
  152.2503  139.0586  153.9289 H   0  0  0  0  0  0  0  0  0  0  0  0
  149.7147  142.4588  155.2613 H   0  0  0  0  0  0  0  0  0  0  0  0
  147.4008  142.5793  154.3057 H   0  0  0  0  0  0  0  0  0  0  0  0
  146.4623  140.5698  153.1795 H   0  0  0  0  0  0  0  0  0  0  0  0
  148.5357  137.5659  152.5522 H   0  0  0  0  0  0  0  0  0  0  0  0
  147.3749  136.1725  151.7739 H   0  0  0  0  0  0  0  0  0  0  0  0
  144.4873  136.1431  152.5103 H   0  0  0  0  0  0  0  0  0  0  0  0
  144.0666  136.4598  150.2461 H   0  0  0  0  0  0  0  0  0  0  0  0
  145.6970  135.9778  149.7906 H   0  0  0  0  0  0  0  0  0  0  0  0
  143.3789  134.1428  150.5010 H   0  0  0  0  0  0  0  0  0  0  0  0
  144.4847  134.0177  149.1219 H   0  0  0  0  0  0  0  0  0  0  0  0
  144.1140  131.9381  151.7701 H   0  0  0  0  0  0  0  0  0  0  0  0
  144.9084  131.5870  150.2420 H   0  0  0  0  0  0  0  0  0  0  0  0
  146.0271  130.3982  152.1876 H   0  0  0  0  0  0  0  0  0  0  0  0
  147.1081  131.4462  151.3058 H   0  0  0  0  0  0  0  0  0  0  0  0
  145.7936  132.0389  153.9945 H   0  0  0  0  0  0  0  0  0  0  0  0
  147.4978  131.8142  153.6945 H   0  0  0  0  0  0  0  0  0  0  0  0
  146.8551  134.2452  153.9621 H   0  0  0  0  0  0  0  0  0  0  0  0
  147.6127  133.9277  152.4127 H   0  0  0  0  0  0  0  0  0  0  0  0
  144.6004  133.9874  152.9091 H   0  0  0  0  0  0  0  0  0  0  0  0
  146.2176  133.5659  150.5610 H   0  0  0  0  0  0  0  0  0  0  0  0
  1  2  1  0  0  0  0
  1 22  1  0  0  0  0
  1 23  1  0  0  0  0
  1 24  1  0  0  0  0
  2  3  1  0  0  0  0
  3  8  1  0  0  0  0
  3  4  2  0  0  0  0
  4  5  1  0  0  0  0
  5  6  2  0  0  0  0
  5 25  1  0  0  0  0
  6  7  1  0  0  0  0
  6 26  1  0  0  0  0
  7  8  2  0  0  0  0
  7 27  1  0  0  0  0
  8  9  1  0  0  0  0
  9 10  1  0  0  0  0
  9 28  1  0  0  0  0
 10 11  2  0  0  0  0
 10 12  1  0  0  0  0
 12 13  1  0  0  0  0
 12 29  1  0  0  0  0
 13 21  1  0  0  0  0
 13 14  1  0  0  0  0
 13 30  1  0  0  0  0
 14 15  1  0  0  0  0
 14 31  1  0  0  0  0
 14 32  1  0  0  0  0
 15 16  1  0  0  0  0
 15 33  1  0  0  0  0
 15 34  1  0  0  0  0
 16 21  1  0  0  0  0
 16 17  1  0  0  0  0
 16 44  1  0  0  0  0
 17 18  1  0  0  0  0
 17 35  1  0  0  0  0
 17 36  1  0  0  0  0
 18 19  1  0  0  0  0
 18 37  1  0  0  0  0
 18 38  1  0  0  0  0
 19 20  1  0  0  0  0
 19 39  1  0  0  0  0
 19 40  1  0  0  0  0
 20 21  1  0  0  0  0
 20 41  1  0  0  0  0
 20 42  1  0  0  0  0
 21 43  1  0  0  0  0
M  CHG  1  16   1
M  END
> <s_m_source_file>
AV-unprocessed.smi

> <i_m_source_file_index>
1721

> <i_lp_mmshare_version>
43012

> <i_f3d_flags>
0

> <s_epik_input>
W0NIM11PYzFuW2NIXVtjSF1bY0hdYzFbTkhdQyg9TylbTkhdW0NASF0oW0NIMl1bQ0gyXTIpW0NAQEhdKE4yMylbQ0gyXVtDSDJdW0NIMl1bQ0gyXTM=

> <s_epik_cmdline>
J2VwaWtfcHl0aG9uJywgJy1waCcsICc3LjAnLCAnLXRuJywgJzgnLCAnLW1hJywgJzIwMCcsICctbWV0YWxfYmluZGluZycsICctaW1hZScsICc8aW5maWxlLm1hZT4nLCAnLW9tYWUnLCAnPG91dGZpbGUubWFlPic=

> <r_lp_tautomer_probability>
1

> <r_epik_Ionization_Penalty>
0.00104793

> <r_epik_Ionization_Penalty_Charging>
0.000974069

> <r_epik_Ionization_Penalty_Neutral>
7.38649e-05

> <r_epik_State_Penalty>
0.000633842

> <r_epik_Charging_Adjusted_Penalty>
0.00160791

> <i_epik_Tot_Q>
1

> <i_epik_Tot_abs_Q>
1

> <r_epik_Metal_State_Penalty>
-0

> <b_epik_Metal_Only>
0

> <s_lp_Force_Field>
OPLS_2005

> <r_lp_Energy>
43.8881

> <b_lp_Chiralities_Consistent>
1

> <s_lp_Variant>
AV-unprocessed.smi:1721-4

> <Gold.Version>
5.8.1

> <Gold.Id.Protein>
6NUR|6NUR_protein|mol2

> <Gold.PLP.Fitness>
44.4256

> <Gold.PLP.PLP>
-33.4283

> <Gold.PLP.part.hbond>
-3.2411

> <Gold.PLP.part.metal>
0.0000

> <Gold.PLP.part.buried>
1.3731

> <Gold.PLP.part.nonpolar>
-31.9921

> <Gold.PLP.part.repulsive>
1.0864

> <Gold.PLP.ligand.clash>
0.0000

> <Gold.PLP.ligand.torsion>
0.3137

> <Gold.PLP.Chemscore.Hbond>
2.8720

> <Gold.PLP.Chemscore.CHOScore>
1.0000

> <Gold.PLP.Chemscore.Metal>
0.0000

> <Gold.Chemscore.Hbonds>
donor molecule, donor type, donor heavy atom, donor atom, acceptor molecule, acceptor atom, score
      L1  H     9    28       P1  7948  0.99
      L1  H    12    29       P1  7948  0.94
      P1  H  7989  7998       L1     4  0.91
      L1  C     5    25       P1  8028  1.00

> <Gold.PLP.Chemscore.Internal.Correction>
0.0086

> <Gold.Rescore>
     Score         DG    S(hbond)    S(metal)    S(lipo)     H(rot)  DE(clash)    DE(int)     intcor
     16.88     -18.40       2.13        0.00      77.03       1.25       0.16       1.36       ----

> <Gold.Chemscore.Fitness>
16.8809

> <Gold.Chemscore.DG>
-18.3988

> <Gold.Chemscore.ZeroCoef>
-5.4800

> <Gold.Chemscore.Hbond>
2.1257

> <Gold.Chemscore.Metal>
0.0000

> <Gold.Chemscore.Lipo>
77.0289

> <Gold.Chemscore.Internal_Hbond>
0.0000

> <Gold.Chemscore.DEClash>
0.1565

> <Gold.Chemscore.DEInternal>
1.3614

> <Gold.Chemscore.Rot>
1.2474

> <Gold.Chemscore.Internal.Correction>
   9.000000E+99

> <Gold.Chemscore.Hbonds>
donor molecule, donor type, donor heavy atom, donor atom, acceptor molecule, acceptor atom, score
      L1  H     9    28       P1  7948  0.89
      L1  H    12    29       P1  7948  0.87
      P1  H  7989  7998       L1     4  0.14

> <Gold.Chemscore.Hbond.Weighted>
-7.0998

> <Gold.Chemscore.Metal.Weighted>
-0.0000

> <Gold.Chemscore.Lipo.Weighted>
-9.0124

> <Gold.Chemscore.Internal_Hbond.Weighted>
0.0000

> <Gold.Chemscore.DEClash.Weighted>
0.1565

> <Gold.Chemscore.DEInternal.Weighted>
1.3614

> <Gold.Chemscore.Rot.Weighted>
3.1934

> <Gold.Chemscore.Internal.Correction.Weighted>
   9.000000E+99

> <Gold.Protein.RotatedTorsions>
[ 6907 6896 6895 6894 ] final  -20.24 input  -60.11 | X-H torsion
[ 7974 7965 7964 7962 ] final   76.54 input  175.53 | X-H torsion
[ 8008 7997 7996 7995 ] final  -71.67 input   59.86 | X-H torsion
[ 10167 10162 10161 10158 ] final  -44.91 input  -65.29 | X-H torsion
[ 10718 10713 10712 10709 ] final   77.14 input   66.30 | X-H torsion
[ 10763 10752 10751 10750 ] final  122.93 input  -60.55 | X-H torsion
[ 11005 11000 10999 10996 ] final  -23.57 input  -57.11 | X-H torsion

> <Gold.Protein.ActiveResidues>
 VAL166  LYS551  ARG553  GLY616  TRP617  ASP618  TYR619  PRO620  LYS621  CYS622 
 ASP623  PHE694  ASN695  SER759  ASP760  ASP761  ALA762  ILE779  LEU786  VAL792 
 PHE793  MET794  SER795  GLU796  ALA797  LYS798  CYS799  TRP800  GLU811  SER814 

> <Gold.Protein.RotatedAtoms>
  151.2512  135.0622  159.9062 H   0  0  0  0  0  0  0  0  0  0  0  0  # atno 6907 bound_to 6896
  152.5380  134.0330  159.8044 H   0  0  0  0  0  0  0  0  0  0  0  0  # atno 6908 bound_to 6896
  151.0539  133.5551  159.2671 H   0  0  0  0  0  0  0  0  0  0  0  0  # atno 6909 bound_to 6896
  145.7015  139.2584  143.1702 H   0  0  0  0  0  0  0  0  0  0  0  0  # atno 7974 bound_to 7965
  154.5106  140.0811  156.7982 H   0  0  0  0  0  0  0  0  0  0  0  0  # atno 8008 bound_to 7997
  155.3794  140.3427  155.4228 H   0  0  0  0  0  0  0  0  0  0  0  0  # atno 8009 bound_to 7997
  156.1568  140.1576  156.8666 H   0  0  0  0  0  0  0  0  0  0  0  0  # atno 8010 bound_to 7997
  140.6878  143.2906  151.3564 H   0  0  0  0  0  0  0  0  0  0  0  0  # atno 10167 bound_to 10162
  157.6699  130.9807  150.1598 H   0  0  0  0  0  0  0  0  0  0  0  0  # atno 10718 bound_to 10713
  153.6376  135.3385  155.3061 H   0  0  0  0  0  0  0  0  0  0  0  0  # atno 10763 bound_to 10752
  154.8567  135.4310  154.2039 H   0  0  0  0  0  0  0  0  0  0  0  0  # atno 10764 bound_to 10752
  153.2950  135.7020  153.7331 H   0  0  0  0  0  0  0  0  0  0  0  0  # atno 10765 bound_to 10752
  140.8764  133.7684  156.0248 H   0  0  0  0  0  0  0  0  0  0  0  0  # atno 11005 bound_to 11000
  146.0793  140.7782  142.9649 LP  0  0  0  0  0  0  0  0  0  0  0  0  # atno 17320 bound_to 7965
  144.6967  140.3464  143.7190 LP  0  0  0  0  0  0  0  0  0  0  0  0  # atno 17321 bound_to 7965
  139.6253  144.0827  152.2428 LP  0  0  0  0  0  0  0  0  0  0  0  0  # atno 17342 bound_to 10162
  140.0284  144.6099  150.7508 LP  0  0  0  0  0  0  0  0  0  0  0  0  # atno 17343 bound_to 10162
  156.2377  130.3688  149.8372 LP  0  0  0  0  0  0  0  0  0  0  0  0  # atno 17370 bound_to 10713
  156.6181  130.8615  151.3469 LP  0  0  0  0  0  0  0  0  0  0  0  0  # atno 17371 bound_to 10713
  140.8513  134.2950  157.5274 LP  0  0  0  0  0  0  0  0  0  0  0  0  # atno 17394 bound_to 11000
  139.8716  134.9469  156.3952 LP  0  0  0  0  0  0  0  0  0  0  0  0  # atno 17395 bound_to 11000

$$$$
