AV-unprocessed.smi:2244|AV-procd|sdf|9072|dock2
  -GOLD-   2272012273D 1   1.00000     0.00000
 Structure written by MMmdl.
 49 51  0  0  0  0  0  0  0  0  1 V2000
  146.4846  136.2145  153.1362 C   0  0  0  0  0  0  0  0  0  0  0  0
  145.9612  137.5928  152.6730 C   0  0  0  0  0  0  0  0  0  0  0  0
  146.2546  137.7175  151.1636 C   0  0  0  0  0  0  0  0  0  0  0  0
  144.4374  137.6139  152.9148 C   0  0  0  0  0  0  0  0  0  0  0  0
  146.6247  138.7577  153.4296 C   0  0  0  0  0  0  0  0  0  0  0  0
  146.4884  140.1097  153.0419 C   0  0  0  0  0  0  0  0  0  0  0  0
  147.1466  141.0812  153.8142 C   0  0  0  0  0  0  0  0  0  0  0  0
  147.9014  140.6616  154.9283 C   0  0  0  0  0  0  0  0  0  0  0  0
  148.5440  141.7129  155.6451 N   0  0  0  0  0  0  0  0  0  0  0  0
  149.3330  141.6953  156.7405 C   0  0  0  0  0  0  0  0  0  0  0  0
  149.6181  140.6364  157.2978 O   0  0  0  0  0  0  0  0  0  0  0  0
  149.7842  142.8856  157.1693 N   0  0  0  0  0  0  0  0  0  0  0  0
  150.6358  143.1005  158.3346 C   0  0  2  0  0  0  0  0  0  0  0  0
  150.7785  144.6050  158.6009 C   0  0  0  0  0  0  0  0  0  0  0  0
  151.7625  144.8625  159.7523 C   0  0  0  0  0  0  0  0  0  0  0  0
  153.0270  144.2666  159.4700 O   0  0  0  0  0  0  0  0  0  0  0  0
  153.0015  142.8535  159.2617 C   0  0  1  0  0  0  0  0  0  0  0  0
  152.7211  142.0953  160.5524 C   0  0  0  0  0  0  0  0  0  0  0  0
  152.7546  142.8068  161.8840 C   0  0  0  0  0  0  0  0  0  0  0  0
  153.8305  141.8053  161.5360 C   0  0  0  0  0  0  0  0  0  0  0  0
  152.0332  142.4918  158.1182 C   0  0  0  0  0  0  0  0  0  0  0  0
  147.9868  139.3433  155.2410 N   0  0  0  0  0  0  0  0  0  0  0  0
  147.3634  138.4132  154.5123 N   0  0  0  0  0  0  0  0  0  0  0  0
  145.9982  135.4039  152.5922 H   0  0  0  0  0  0  0  0  0  0  0  0
  146.2927  136.0459  154.1966 H   0  0  0  0  0  0  0  0  0  0  0  0
  147.5570  136.1123  152.9665 H   0  0  0  0  0  0  0  0  0  0  0  0
  147.3274  137.7066  150.9680 H   0  0  0  0  0  0  0  0  0  0  0  0
  145.8544  138.6423  150.7469 H   0  0  0  0  0  0  0  0  0  0  0  0
  145.8101  136.8943  150.6031 H   0  0  0  0  0  0  0  0  0  0  0  0
  143.9424  136.7871  152.4042 H   0  0  0  0  0  0  0  0  0  0  0  0
  143.9810  138.5346  152.5495 H   0  0  0  0  0  0  0  0  0  0  0  0
  144.2046  137.5303  153.9772 H   0  0  0  0  0  0  0  0  0  0  0  0
  145.9073  140.4179  152.1865 H   0  0  0  0  0  0  0  0  0  0  0  0
  147.0717  142.1268  153.5523 H   0  0  0  0  0  0  0  0  0  0  0  0
  148.4148  142.6291  155.2417 H   0  0  0  0  0  0  0  0  0  0  0  0
  149.5042  143.7077  156.6529 H   0  0  0  0  0  0  0  0  0  0  0  0
  150.1651  142.6377  159.2035 H   0  0  0  0  0  0  0  0  0  0  0  0
  151.1385  145.1090  157.7025 H   0  0  0  0  0  0  0  0  0  0  0  0
  149.8074  145.0423  158.8361 H   0  0  0  0  0  0  0  0  0  0  0  0
  151.9078  145.9352  159.8820 H   0  0  0  0  0  0  0  0  0  0  0  0
  151.3627  144.4900  160.6955 H   0  0  0  0  0  0  0  0  0  0  0  0
  154.0074  142.5791  158.9413 H   0  0  0  0  0  0  0  0  0  0  0  0
  151.9682  141.3158  160.4608 H   0  0  0  0  0  0  0  0  0  0  0  0
  153.0301  143.8595  161.8889 H   0  0  0  0  0  0  0  0  0  0  0  0
  152.0147  142.5149  162.6264 H   0  0  0  0  0  0  0  0  0  0  0  0
  153.8088  140.8447  162.0465 H   0  0  0  0  0  0  0  0  0  0  0  0
  154.8227  142.1908  161.3109 H   0  0  0  0  0  0  0  0  0  0  0  0
  151.9704  141.4082  158.0107 H   0  0  0  0  0  0  0  0  0  0  0  0
  152.4458  142.8679  157.1806 H   0  0  0  0  0  0  0  0  0  0  0  0
  1  2  1  0  0  0  0
  1 24  1  0  0  0  0
  1 25  1  0  0  0  0
  1 26  1  0  0  0  0
  2  3  1  0  0  0  0
  2  4  1  0  0  0  0
  2  5  1  0  0  0  0
  3 27  1  0  0  0  0
  3 28  1  0  0  0  0
  3 29  1  0  0  0  0
  4 30  1  0  0  0  0
  4 31  1  0  0  0  0
  4 32  1  0  0  0  0
  5 23  1  0  0  0  0
  5  6  2  0  0  0  0
  6  7  1  0  0  0  0
  6 33  1  0  0  0  0
  7  8  2  0  0  0  0
  7 34  1  0  0  0  0
  8  9  1  0  0  0  0
  8 22  1  0  0  0  0
  9 10  1  0  0  0  0
  9 35  1  0  0  0  0
 10 11  2  0  0  0  0
 10 12  1  0  0  0  0
 12 13  1  0  0  0  0
 12 36  1  0  0  0  0
 13 21  1  0  0  0  0
 13 14  1  0  0  0  0
 13 37  1  0  0  0  0
 14 15  1  0  0  0  0
 14 38  1  0  0  0  0
 14 39  1  0  0  0  0
 15 16  1  0  0  0  0
 15 40  1  0  0  0  0
 15 41  1  0  0  0  0
 16 17  1  0  0  0  0
 17 18  1  0  0  0  0
 17 21  1  0  0  0  0
 17 42  1  0  0  0  0
 18 20  1  0  0  0  0
 18 19  1  0  0  0  0
 18 43  1  0  0  0  0
 19 20  1  0  0  0  0
 19 44  1  0  0  0  0
 19 45  1  0  0  0  0
 20 46  1  0  0  0  0
 20 47  1  0  0  0  0
 21 48  1  0  0  0  0
 21 49  1  0  0  0  0
 22 23  2  0  0  0  0
M  END
> <s_m_source_file>
AV-unprocessed.smi

> <i_m_source_file_index>
2244

> <i_lp_mmshare_version>
43012

> <i_f3d_flags>
0

> <s_epik_input>
W0NIM11DKFtDSDNdKShbQ0gzXSljMVtjSF1bY0hdYyhubjEpW05IXUMoPU8pW05IXVtDQEBIXTJbQ0gyXVtDSDJdT1tDQEhdKFtDSDJdMilbQ0hdM1tDSDJdW0NIMl0z

> <s_epik_cmdline>
J2VwaWtfcHl0aG9uJywgJy1waCcsICc3LjAnLCAnLXRuJywgJzgnLCAnLW1hJywgJzIwMCcsICctbWV0YWxfYmluZGluZycsICctaW1hZScsICc8aW5maWxlLm1hZT4nLCAnLW9tYWUnLCAnPG91dGZpbGUubWFlPic=

> <r_lp_tautomer_probability>
1

> <r_epik_Ionization_Penalty>
0.011369

> <r_epik_Ionization_Penalty_Charging>
0

> <r_epik_Ionization_Penalty_Neutral>
0.011369

> <r_epik_State_Penalty>
0.00456331

> <r_epik_Charging_Adjusted_Penalty>
0.00456331

> <i_epik_Tot_Q>
0

> <i_epik_Tot_abs_Q>
0

> <r_epik_Metal_State_Penalty>
-0

> <b_epik_Metal_Only>
0

> <s_lp_Force_Field>
OPLS_2005

> <r_lp_Energy>
29.5867

> <b_lp_Chiralities_Consistent>
1

> <s_lp_Variant>
AV-unprocessed.smi:2244-1

> <Gold.Version>
5.8.1

> <Gold.Id.Protein>
6NUR|6NUR_protein|mol2

> <Gold.PLP.Fitness>
38.9263

> <Gold.PLP.PLP>
-36.2379

> <Gold.PLP.part.hbond>
-2.0000

> <Gold.PLP.part.metal>
0.0000

> <Gold.PLP.part.buried>
6.7681

> <Gold.PLP.part.nonpolar>
-41.1056

> <Gold.PLP.part.repulsive>
0.2537

> <Gold.PLP.ligand.clash>
0.0000

> <Gold.PLP.ligand.torsion>
1.3132

> <Gold.PLP.Chemscore.Hbond>
1.4066

> <Gold.PLP.Chemscore.CHOScore>
0.0000

> <Gold.PLP.Chemscore.Metal>
0.0000

> <Gold.Chemscore.Hbonds>
donor molecule, donor type, donor heavy atom, donor atom, acceptor molecule, acceptor atom, score
      L1  H     9    35       P1  8028  0.53
      L1  H    12    36       P1  8028  1.00

> <Gold.PLP.Chemscore.Internal.Correction>
1.0949

> <Gold.Rescore>
     Score         DG    S(hbond)    S(metal)    S(lipo)     H(rot)  DE(clash)    DE(int)     intcor
     16.09     -23.05       1.73        0.00     129.26       1.30       4.34       2.62       ----

> <Gold.Chemscore.Fitness>
16.0865

> <Gold.Chemscore.DG>
-23.0470

> <Gold.Chemscore.ZeroCoef>
-5.4800

> <Gold.Chemscore.Hbond>
1.7281

> <Gold.Chemscore.Metal>
0.0000

> <Gold.Chemscore.Lipo>
129.2618

> <Gold.Chemscore.Internal_Hbond>
0.0000

> <Gold.Chemscore.DEClash>
4.3372

> <Gold.Chemscore.DEInternal>
2.6233

> <Gold.Chemscore.Rot>
1.3002

> <Gold.Chemscore.Internal.Correction>
   9.000000E+99

> <Gold.Chemscore.Hbonds>
donor molecule, donor type, donor heavy atom, donor atom, acceptor molecule, acceptor atom, score
      L1  H     9    35       P1  8028  0.53
      L1  H    12    36       P1  8028  0.93

> <Gold.Chemscore.Hbond.Weighted>
-5.7718

> <Gold.Chemscore.Metal.Weighted>
-0.0000

> <Gold.Chemscore.Lipo.Weighted>
-15.1236

> <Gold.Chemscore.Internal_Hbond.Weighted>
0.0000

> <Gold.Chemscore.DEClash.Weighted>
4.3372

> <Gold.Chemscore.DEInternal.Weighted>
2.6233

> <Gold.Chemscore.Rot.Weighted>
3.3284

> <Gold.Chemscore.Internal.Correction.Weighted>
   9.000000E+99

> <Gold.Protein.RotatedTorsions>
[ 6907 6896 6895 6894 ] final  -86.97 input  -60.11 | X-H torsion
[ 7974 7965 7964 7962 ] final  140.28 input  175.53 | X-H torsion
[ 8008 7997 7996 7995 ] final  113.69 input   59.86 | X-H torsion
[ 10167 10162 10161 10158 ] final -109.05 input  -65.29 | X-H torsion
[ 10718 10713 10712 10709 ] final -128.74 input   66.30 | X-H torsion
[ 10763 10752 10751 10750 ] final   -7.66 input  -60.55 | X-H torsion
[ 11005 11000 10999 10996 ] final -123.41 input  -57.11 | X-H torsion

> <Gold.Protein.ActiveResidues>
 VAL166  LYS551  ARG553  GLY616  TRP617  ASP618  TYR619  PRO620  LYS621  CYS622 
 ASP623  PHE694  ASN695  SER759  ASP760  ASP761  ALA762  ILE779  LEU786  VAL792 
 PHE793  MET794  SER795  GLU796  ALA797  LYS798  CYS799  TRP800  GLU811  SER814 

> <Gold.Protein.RotatedAtoms>
  150.6866  134.2969  159.4689 H   0  0  0  0  0  0  0  0  0  0  0  0  # atno 6907 bound_to 6896
  152.0868  134.9431  160.0582 H   0  0  0  0  0  0  0  0  0  0  0  0  # atno 6908 bound_to 6896
  152.0763  133.4096  159.4518 H   0  0  0  0  0  0  0  0  0  0  0  0  # atno 6909 bound_to 6896
  144.9201  139.5179  143.5667 H   0  0  0  0  0  0  0  0  0  0  0  0  # atno 7974 bound_to 7965
  156.2274  140.2974  156.0101 H   0  0  0  0  0  0  0  0  0  0  0  0  # atno 8008 bound_to 7997
  155.2320  140.0419  157.2980 H   0  0  0  0  0  0  0  0  0  0  0  0  # atno 8009 bound_to 7997
  154.5938  140.2408  155.7892 H   0  0  0  0  0  0  0  0  0  0  0  0  # atno 8010 bound_to 7997
  140.1595  143.4132  152.1436 H   0  0  0  0  0  0  0  0  0  0  0  0  # atno 10167 bound_to 10162
  156.1979  130.6838  151.0504 H   0  0  0  0  0  0  0  0  0  0  0  0  # atno 10718 bound_to 10713
  153.4295  135.7011  153.6240 H   0  0  0  0  0  0  0  0  0  0  0  0  # atno 10763 bound_to 10752
  153.4661  135.3725  155.2365 H   0  0  0  0  0  0  0  0  0  0  0  0  # atno 10764 bound_to 10752
  154.8725  135.4031  154.3677 H   0  0  0  0  0  0  0  0  0  0  0  0  # atno 10765 bound_to 10752
  140.9921  134.0525  157.3642 H   0  0  0  0  0  0  0  0  0  0  0  0  # atno 11005 bound_to 11000
  146.3200  139.8074  142.8953 LP  0  0  0  0  0  0  0  0  0  0  0  0  # atno 17320 bound_to 7965
  145.3310  141.0266  143.3446 LP  0  0  0  0  0  0  0  0  0  0  0  0  # atno 17321 bound_to 7965
  139.5388  144.7236  151.4803 LP  0  0  0  0  0  0  0  0  0  0  0  0  # atno 17342 bound_to 10162
  140.6652  143.8413  150.6933 LP  0  0  0  0  0  0  0  0  0  0  0  0  # atno 17343 bound_to 10162
  157.6968  131.0791  150.6943 LP  0  0  0  0  0  0  0  0  0  0  0  0  # atno 17370 bound_to 10713
  156.7000  130.4620  149.5576 LP  0  0  0  0  0  0  0  0  0  0  0  0  # atno 17371 bound_to 10713
  139.8997  135.0159  156.7207 LP  0  0  0  0  0  0  0  0  0  0  0  0  # atno 17394 bound_to 11000
  140.7024  133.9294  155.8033 LP  0  0  0  0  0  0  0  0  0  0  0  0  # atno 17395 bound_to 11000

$$$$
