#       Name:                AV-unprocessed.smi:1337
#       Creating user name   scv26
#       Creation time:       Fri Mar 27 05:08:05 2020


#       File generated by GOLD software.
#

@<TRIPOS>MOLECULE
AV-unprocessed.smi:1337
    43    44     1
SMALL
NO_CHARGES


@<TRIPOS>ATOM
      1 ****        -1.3564   1.2829  -0.3818 O.2            1 S1                 0.0000
      2 ****        -1.8569   0.1680  -0.5369 C.2            1 S1                 0.0000
      3 ****        -3.3794  -0.0020  -0.6386 C.3            1 S1                 0.0000
      4 ****        -4.0661   1.2069  -1.1223 N.am           1 S1                 0.0000
      5 ****        -4.6405   2.0562  -0.1617 C.2            1 S1                 0.0000
      6 ****        -5.2753   3.1791  -0.5274 C.2            1 S1                 0.0000
      7 ****        -5.3301   3.4583  -1.9682 C.2            1 S1                 0.0000
      8 ****        -4.8050   2.6878  -2.8462 N.2            1 S1                 0.0000
      9 ****        -4.1359   1.5111  -2.4593 C.2            1 S1                 0.0000
     10 ****        -3.6234   0.7692  -3.2976 O.2            1 S1                 0.0000
     11 ****        -1.1321  -0.9588  -0.6057 N.am           1 S1                 0.0000
     12 ****         0.3226  -1.0226  -0.5300 C.3            1 S1                 0.0000
     13 ****         0.8120  -1.0229   0.9286 C.3            1 S1                 0.0000
     14 ****         2.3271  -0.9797   1.0406 C.2            1 S1                 0.0000
     15 ****         2.9697   0.0611   1.6056 C.2            1 S1                 0.0000
     16 ****         4.4795   0.1671   1.7299 C.3            1 S1                 0.0000
     17 ****         5.2125  -0.8536   0.8437 C.3            1 S1                 0.0000
     18 ****         4.5497  -2.2343   0.9265 C.3            1 S1                 0.0000
     19 ****         3.0792  -2.1794   0.4746 C.3            1 S1                 0.0000
     20 ****        -3.6113  -0.8483  -1.2882 H              1 S1                 0.0000
     21 ****        -3.7547  -0.2851   0.3457 H              1 S1                 0.0000
     22 ****        -4.5265   1.7438   0.8661 H              1 S1                 0.0000
     23 ****        -5.7347   3.8758   0.1581 H              1 S1                 0.0000
     24 ****        -5.8534   4.3764  -2.2469 H              1 S1                 0.0000
     25 ****        -1.6229  -1.8330  -0.7260 H              1 S1                 0.0000
     26 ****         0.6431  -1.9332  -1.0363 H              1 S1                 0.0000
     27 ****         0.7635  -0.1899  -1.0808 H              1 S1                 0.0000
     28 ****         0.3925  -0.1654   1.4568 H              1 S1                 0.0000
     29 ****         0.4468  -1.9100   1.4471 H              1 S1                 0.0000
     30 ****         2.4030   0.8858   2.0128 H              1 S1                 0.0000
     31 ****         4.7923   1.1782   1.4675 H              1 S1                 0.0000
     32 ****         4.7427   0.0151   2.7770 H              1 S1                 0.0000
     33 ****         5.1996  -0.5123  -0.1924 H              1 S1                 0.0000
     34 ****         6.2612  -0.9160   1.1355 H              1 S1                 0.0000
     35 ****         5.0984  -2.9551   0.3196 H              1 S1                 0.0000
     36 ****         4.6012  -2.5944   1.9548 H              1 S1                 0.0000
     37 ****         2.5737  -3.1000   0.7680 H              1 S1                 0.0000
     38 ****         3.0331  -2.1270  -0.6134 H              1 S1                 0.0000
     39 ****        -1.9432   2.0903  -0.3207 LP             1 S1                 0.0000
     40 ****        -0.3633   1.3805  -0.3170 LP             1 S1                 0.0000
     41 ****        -4.8709   2.9242  -3.8156 LP             1 S1                 0.0000
     42 ****        -3.1513  -0.0630  -3.0068 LP             1 S1                 0.0000
     43 ****        -3.6792   0.9988  -4.2692 LP             1 S1                 0.0000
@<TRIPOS>BOND
    1    1    2 2     
    2    2    3 1     
    3    2   11 am    
    4    3    4 1     
    5    3   20 1     
    6    3   21 1     
    7    4    9 am    
    8    4    5 1     
    9    5    6 2     
   10    5   22 1     
   11    6    7 1     
   12    6   23 1     
   13    7    8 2     
   14    7   24 1     
   15    8    9 1     
   16    9   10 2     
   17   11   12 1     
   18   11   25 1     
   19   12   13 1     
   20   12   26 1     
   21   12   27 1     
   22   13   14 1     
   23   13   28 1     
   24   13   29 1     
   25   14   19 1     
   26   14   15 2     
   27   15   16 1     
   28   15   30 1     
   29   16   17 1     
   30   16   31 1     
   31   16   32 1     
   32   17   18 1     
   33   17   33 1     
   34   17   34 1     
   35   18   19 1     
   36   18   35 1     
   37   18   36 1     
   38   19   37 1     
   39   19   38 1     
   40    1   39 1     
   41    1   40 1     
   42    8   41 1     
   43   10   42 1     
   44   10   43 1     
@<TRIPOS>SUBSTRUCTURE
      1 S1             1
@<TRIPOS>SET
LONE_PAIRS      STATIC     ATOMS    <user>   **** ""
5 39 40 41 42 43
DONOR_HYDROGENS      STATIC     ATOMS    <user>   **** ""
1 25
ATOM$BLUE        STATIC     ATOMS    COLORGROUP SYSTEM
5 39 40 41 42 43
ATOM$RED        STATIC     ATOMS    COLORGROUP SYSTEM
1 25
