AV-unprocessed.smi:2541|AV-procd|sdf|9990|dock3
  -GOLD-   2272014 43D 1   1.00000     0.00000
 Structure written by MMmdl.
 38 39  0  0  0  0  0  0  0  0  1 V2000
  152.4561  139.9219  155.3581 O   0  0  0  0  0  0  0  0  0  0  0  0
  151.4204  139.3279  155.6583 C   0  0  0  0  0  0  0  0  0  0  0  0
  150.7958  138.3340  154.6775 C   0  0  0  0  0  0  0  0  0  0  0  0
  150.5942  136.9991  155.3450 C   0  0  0  0  0  0  0  0  0  0  0  0
  149.6698  136.6535  156.3701 C   0  0  0  0  0  0  0  0  0  0  0  0
  149.9261  135.3324  156.5991 C   0  0  0  0  0  0  0  0  0  0  0  0
  150.9191  134.8930  155.7857 O   0  0  0  0  0  0  0  0  0  0  0  0
  151.3378  135.9630  154.9869 N   0  0  0  0  0  0  0  0  0  0  0  0
  150.7791  139.5041  156.8245 N   0  0  0  0  0  0  0  0  0  0  0  0
  151.1697  140.4443  157.8691 C   0  0  0  0  0  0  0  0  0  0  0  0
  150.9385  141.9080  157.4354 C   0  0  1  0  0  0  0  0  0  0  0  0
  149.6847  141.9944  156.7842 O   0  0  0  0  0  0  0  0  0  0  0  0
  150.9810  142.9077  158.6181 C   0  0  0  0  0  0  0  0  0  0  0  0
  150.8725  144.3906  158.1890 C   0  0  0  0  0  0  0  0  0  0  0  0
  150.8878  145.3359  159.4013 C   0  0  0  0  0  0  0  0  0  0  0  0
  152.1332  145.1093  160.2713 C   0  0  0  0  0  0  0  0  0  0  0  0
  152.2342  143.6428  160.7160 C   0  0  0  0  0  0  0  0  0  0  0  0
  152.2259  142.6929  159.5074 C   0  0  0  0  0  0  0  0  0  0  0  0
  149.8416  138.7248  154.3227 H   0  0  0  0  0  0  0  0  0  0  0  0
  151.4386  138.2436  153.8004 H   0  0  0  0  0  0  0  0  0  0  0  0
  148.9390  137.2779  156.8619 H   0  0  0  0  0  0  0  0  0  0  0  0
  149.5075  134.6012  157.2747 H   0  0  0  0  0  0  0  0  0  0  0  0
  149.9328  138.9765  156.9836 H   0  0  0  0  0  0  0  0  0  0  0  0
  150.6099  140.2130  158.7758 H   0  0  0  0  0  0  0  0  0  0  0  0
  152.2217  140.2836  158.1107 H   0  0  0  0  0  0  0  0  0  0  0  0
  151.7103  142.1977  156.7209 H   0  0  0  0  0  0  0  0  0  0  0  0
  149.6096  142.8508  156.3919 H   0  0  0  0  0  0  0  0  0  0  0  0
  150.1128  142.6900  159.2420 H   0  0  0  0  0  0  0  0  0  0  0  0
  151.6969  144.6504  157.5239 H   0  0  0  0  0  0  0  0  0  0  0  0
  149.9560  144.5570  157.6232 H   0  0  0  0  0  0  0  0  0  0  0  0
  150.8542  146.3722  159.0640 H   0  0  0  0  0  0  0  0  0  0  0  0
  149.9900  145.1773  159.9998 H   0  0  0  0  0  0  0  0  0  0  0  0
  153.0272  145.3848  159.7102 H   0  0  0  0  0  0  0  0  0  0  0  0
  152.1015  145.7620  161.1440 H   0  0  0  0  0  0  0  0  0  0  0  0
  153.1431  143.4934  161.2995 H   0  0  0  0  0  0  0  0  0  0  0  0
  151.4002  143.4024  161.3766 H   0  0  0  0  0  0  0  0  0  0  0  0
  152.2603  141.6609  159.8583 H   0  0  0  0  0  0  0  0  0  0  0  0
  153.1340  142.8496  158.9241 H   0  0  0  0  0  0  0  0  0  0  0  0
  1  2  2  0  0  0  0
  2  3  1  0  0  0  0
  2  9  1  0  0  0  0
  3  4  1  0  0  0  0
  3 19  1  0  0  0  0
  3 20  1  0  0  0  0
  4  8  2  0  0  0  0
  4  5  1  0  0  0  0
  5  6  2  0  0  0  0
  5 21  1  0  0  0  0
  6  7  1  0  0  0  0
  6 22  1  0  0  0  0
  7  8  1  0  0  0  0
  9 10  1  0  0  0  0
  9 23  1  0  0  0  0
 10 11  1  0  0  0  0
 10 24  1  0  0  0  0
 10 25  1  0  0  0  0
 11 12  1  0  0  0  0
 11 13  1  0  0  0  0
 11 26  1  0  0  0  0
 12 27  1  0  0  0  0
 13 18  1  0  0  0  0
 13 14  1  0  0  0  0
 13 28  1  0  0  0  0
 14 15  1  0  0  0  0
 14 29  1  0  0  0  0
 14 30  1  0  0  0  0
 15 16  1  0  0  0  0
 15 31  1  0  0  0  0
 15 32  1  0  0  0  0
 16 17  1  0  0  0  0
 16 33  1  0  0  0  0
 16 34  1  0  0  0  0
 17 18  1  0  0  0  0
 17 35  1  0  0  0  0
 17 36  1  0  0  0  0
 18 37  1  0  0  0  0
 18 38  1  0  0  0  0
M  END
> <s_m_source_file>
AV-unprocessed.smi

> <i_m_source_file_index>
2541

> <i_lp_mmshare_version>
43012

> <i_f3d_flags>
0

> <s_epik_input>
bjFvW2NIXVtjSF1jMVtDSDJdQyg9TylbTkhdW0NIMl1bQ0BIXShbT0hdKVtDSF0yW0NIMl1bQ0gyXVtDSDJdW0NIMl1bQ0gyXTI=

> <s_epik_cmdline>
J2VwaWtfcHl0aG9uJywgJy1waCcsICc3LjAnLCAnLXRuJywgJzgnLCAnLW1hJywgJzIwMCcsICctbWV0YWxfYmluZGluZycsICctaW1hZScsICc8aW5maWxlLm1hZT4nLCAnLW9tYWUnLCAnPG91dGZpbGUubWFlPic=

> <r_lp_tautomer_probability>
1

> <r_epik_Ionization_Penalty>
2.3322e-07

> <r_epik_Ionization_Penalty_Charging>
0

> <r_epik_Ionization_Penalty_Neutral>
2.3322e-07

> <r_epik_State_Penalty>
-0

> <r_epik_Charging_Adjusted_Penalty>
0

> <i_epik_Tot_Q>
0

> <i_epik_Tot_abs_Q>
0

> <r_epik_Metal_State_Penalty>
-0

> <b_epik_Metal_Only>
0

> <s_lp_Force_Field>
OPLS_2005

> <r_lp_Energy>
13.2063

> <b_lp_Chiralities_Consistent>
1

> <s_lp_Variant>
AV-unprocessed.smi:2541-2

> <Gold.Version>
5.8.1

> <Gold.Id.Protein>
6NUR|6NUR_protein|mol2

> <Gold.PLP.Fitness>
45.6067

> <Gold.PLP.PLP>
-36.5969

> <Gold.PLP.part.hbond>
-4.4045

> <Gold.PLP.part.metal>
0.0000

> <Gold.PLP.part.buried>
-5.7061

> <Gold.PLP.part.nonpolar>
-28.1878

> <Gold.PLP.part.repulsive>
0.3268

> <Gold.PLP.ligand.clash>
0.0000

> <Gold.PLP.ligand.torsion>
0.3562

> <Gold.PLP.Chemscore.Hbond>
3.2200

> <Gold.PLP.Chemscore.CHOScore>
0.0000

> <Gold.PLP.Chemscore.Metal>
0.0000

> <Gold.Chemscore.Hbonds>
donor molecule, donor type, donor heavy atom, donor atom, acceptor molecule, acceptor atom, score
      L1  H    12    27       P1  8028  0.75
      P1  H  7989  7998       L1     1  0.28
      P1  H  7997  8010       L1     1  0.91
      P1  H 10752 10764       L1     8  1.00

> <Gold.PLP.Chemscore.Internal.Correction>
0.0623

> <Gold.Rescore>
     Score         DG    S(hbond)    S(metal)    S(lipo)     H(rot)  DE(clash)    DE(int)     intcor
     19.45     -19.90       2.87        0.00      94.17       2.42       0.04       0.41       ----

> <Gold.Chemscore.Fitness>
19.4533

> <Gold.Chemscore.DG>
-19.9036

> <Gold.Chemscore.ZeroCoef>
-5.4800

> <Gold.Chemscore.Hbond>
2.8723

> <Gold.Chemscore.Metal>
0.0000

> <Gold.Chemscore.Lipo>
94.1728

> <Gold.Chemscore.Internal_Hbond>
0.0000

> <Gold.Chemscore.DEClash>
0.0368

> <Gold.Chemscore.DEInternal>
0.4135

> <Gold.Chemscore.Rot>
2.4172

> <Gold.Chemscore.Internal.Correction>
   9.000000E+99

> <Gold.Chemscore.Hbonds>
donor molecule, donor type, donor heavy atom, donor atom, acceptor molecule, acceptor atom, score
      L1  H    12    27       P1  8028  0.73
      P1  H  7989  7998       L1     1  0.05
      P1  H  7997  8010       L1     1  0.89
      P1  H 10752 10764       L1     8  0.60

> <Gold.Chemscore.Hbond.Weighted>
-9.5934

> <Gold.Chemscore.Metal.Weighted>
-0.0000

> <Gold.Chemscore.Lipo.Weighted>
-11.0182

> <Gold.Chemscore.Internal_Hbond.Weighted>
0.0000

> <Gold.Chemscore.DEClash.Weighted>
0.0368

> <Gold.Chemscore.DEInternal.Weighted>
0.4135

> <Gold.Chemscore.Rot.Weighted>
6.1880

> <Gold.Chemscore.Internal.Correction.Weighted>
   9.000000E+99

> <Gold.Protein.RotatedTorsions>
[ 6907 6896 6895 6894 ] final  176.31 input  -60.11 | X-H torsion
[ 7974 7965 7964 7962 ] final   30.54 input  175.53 | X-H torsion
[ 8008 7997 7996 7995 ] final   98.52 input   59.86 | X-H torsion
[ 10167 10162 10161 10158 ] final  -28.80 input  -65.29 | X-H torsion
[ 10718 10713 10712 10709 ] final -169.09 input   66.30 | X-H torsion
[ 10763 10752 10751 10750 ] final  -68.62 input  -60.55 | X-H torsion
[ 11005 11000 10999 10996 ] final  -83.08 input  -57.11 | X-H torsion

> <Gold.Protein.ActiveResidues>
 VAL166  LYS551  ARG553  GLY616  TRP617  ASP618  TYR619  PRO620  LYS621  CYS622 
 ASP623  PHE694  ASN695  SER759  ASP760  ASP761  ALA762  ILE779  LEU786  VAL792 
 PHE793  MET794  SER795  GLU796  ALA797  LYS798  CYS799  TRP800  GLU811  SER814 

> <Gold.Protein.RotatedAtoms>
  151.7221  133.3315  159.3317 H   0  0  0  0  0  0  0  0  0  0  0  0  # atno 6907 bound_to 6896
  150.7648  134.6439  159.6261 H   0  0  0  0  0  0  0  0  0  0  0  0  # atno 6908 bound_to 6896
  152.3645  134.6826  160.0248 H   0  0  0  0  0  0  0  0  0  0  0  0  # atno 6909 bound_to 6896
  146.1605  139.6775  142.9036 H   0  0  0  0  0  0  0  0  0  0  0  0  # atno 7974 bound_to 7965
  156.1013  140.3242  155.7946 H   0  0  0  0  0  0  0  0  0  0  0  0  # atno 8008 bound_to 7997
  155.4832  140.0555  157.2981 H   0  0  0  0  0  0  0  0  0  0  0  0  # atno 8009 bound_to 7997
  154.4699  140.2006  156.0038 H   0  0  0  0  0  0  0  0  0  0  0  0  # atno 8010 bound_to 7997
  140.7266  143.3980  151.1314 H   0  0  0  0  0  0  0  0  0  0  0  0  # atno 10167 bound_to 10162
  156.7064  130.9216  151.3085 H   0  0  0  0  0  0  0  0  0  0  0  0  # atno 10718 bound_to 10713
  154.3916  135.6051  153.5846 H   0  0  0  0  0  0  0  0  0  0  0  0  # atno 10763 bound_to 10752
  152.9787  135.5885  154.4291 H   0  0  0  0  0  0  0  0  0  0  0  0  # atno 10764 bound_to 10752
  154.4076  135.2844  155.2035 H   0  0  0  0  0  0  0  0  0  0  0  0  # atno 10765 bound_to 10752
  141.1660  133.7276  156.8667 H   0  0  0  0  0  0  0  0  0  0  0  0  # atno 11005 bound_to 11000
  145.4599  141.0432  143.2757 LP  0  0  0  0  0  0  0  0  0  0  0  0  # atno 17320 bound_to 7965
  144.8021  139.6121  143.7067 LP  0  0  0  0  0  0  0  0  0  0  0  0  # atno 17321 bound_to 7965
  139.7596  143.8656  152.3097 LP  0  0  0  0  0  0  0  0  0  0  0  0  # atno 17342 bound_to 10162
  139.8537  144.7152  150.9183 LP  0  0  0  0  0  0  0  0  0  0  0  0  # atno 17343 bound_to 10162
  157.6953  130.9275  150.0627 LP  0  0  0  0  0  0  0  0  0  0  0  0  # atno 17370 bound_to 10713
  156.1692  130.3646  149.9189 LP  0  0  0  0  0  0  0  0  0  0  0  0  # atno 17371 bound_to 10713
  140.1810  134.9033  157.2949 LP  0  0  0  0  0  0  0  0  0  0  0  0  # atno 17394 bound_to 11000
  140.2395  134.3813  155.7487 LP  0  0  0  0  0  0  0  0  0  0  0  0  # atno 17395 bound_to 11000

$$$$
