#       Name:                AV-unprocessed.smi:1679
#       Creating user name   scv26
#       Creation time:       Fri Mar 27 07:47:48 2020


#       File generated by GOLD software.
#

@<TRIPOS>MOLECULE
AV-unprocessed.smi:1679
    53    54     1
SMALL
NO_CHARGES


@<TRIPOS>ATOM
      1 ****        -1.5204  -0.3953  -3.6402 C.3            1 S1                 0.0000
      2 ****        -1.9968  -0.1406  -2.2018 C.3            1 S1                 0.0000
      3 ****        -1.3763   1.1435  -1.6112 C.3            1 S1                 0.0000
      4 ****        -1.8838   1.4149  -0.1861 C.3            1 S1                 0.0000
      5 ****        -1.6550   0.2030   0.7287 C.3            1 S1                 0.0000
      6 ****        -2.2787  -1.0707   0.1380 C.3            1 S1                 0.0000
      7 ****        -1.7394  -1.3546  -1.2807 C.3            1 S1                 0.0000
      8 ****        -0.3359  -1.5858  -1.2545 O.3            1 S1                 0.0000
      9 ****         0.0751  -2.8670  -0.8032 C.3            1 S1                 0.0000
     10 ****         1.6114  -2.9127  -0.7770 C.3            1 S1                 0.0000
     11 ****         2.1599  -2.0712   0.2830 N.am           1 S1                 0.0000
     12 ****         2.3780  -0.7498   0.1867 C.2            1 S1                 0.0000
     13 ****         2.1729  -0.1089  -0.8441 O.2            1 S1                 0.0000
     14 ****         2.9346  -0.0498   1.4348 C.3            1 S1                 0.0000
     15 ****         2.1127   1.1009   1.8384 N.am           1 S1                 0.0000
     16 ****         1.1332   0.9423   2.8088 C.2            1 S1                 0.0000
     17 ****         0.3110   1.9397   3.2118 C.2            1 S1                 0.0000
     18 ****         0.4222   3.2703   2.6251 C.2            1 S1                 0.0000
     19 ****        -0.2816   4.2346   2.9160 O.2            1 S1                 0.0000
     20 ****         1.4250   3.3944   1.6604 N.am           1 S1                 0.0000
     21 ****         2.2788   2.3717   1.2437 C.2            1 S1                 0.0000
     22 ****         3.1325   2.5933   0.3862 O.2            1 S1                 0.0000
     23 ****         1.5416   4.2986   1.2267 H              1 S1                 0.0000
     24 ****        -0.4411  -0.5445  -3.6836 H              1 S1                 0.0000
     25 ****        -1.7639   0.4471  -4.2876 H              1 S1                 0.0000
     26 ****        -1.9963  -1.2818  -4.0598 H              1 S1                 0.0000
     27 ****        -3.0763   0.0107  -2.2497 H              1 S1                 0.0000
     28 ****        -0.2888   1.0601  -1.5988 H              1 S1                 0.0000
     29 ****        -1.6091   1.9975  -2.2478 H              1 S1                 0.0000
     30 ****        -1.3823   2.2911   0.2255 H              1 S1                 0.0000
     31 ****        -2.9477   1.6528  -0.2166 H              1 S1                 0.0000
     32 ****        -0.5853   0.0469   0.8619 H              1 S1                 0.0000
     33 ****        -2.0667   0.3996   1.7187 H              1 S1                 0.0000
     34 ****        -2.1025  -1.9143   0.8039 H              1 S1                 0.0000
     35 ****        -3.3620  -0.9516   0.0926 H              1 S1                 0.0000
     36 ****        -2.2442  -2.2279  -1.6973 H              1 S1                 0.0000
     37 ****        -0.3187  -3.0918   0.1877 H              1 S1                 0.0000
     38 ****        -0.3056  -3.6273  -1.4862 H              1 S1                 0.0000
     39 ****         1.9392  -3.9348  -0.5870 H              1 S1                 0.0000
     40 ****         2.0223  -2.6326  -1.7483 H              1 S1                 0.0000
     41 ****         2.3689  -2.5234   1.1611 H              1 S1                 0.0000
     42 ****         3.0135  -0.7594   2.2607 H              1 S1                 0.0000
     43 ****         3.9607   0.2609   1.2309 H              1 S1                 0.0000
     44 ****         1.0054  -0.0300   3.2630 H              1 S1                 0.0000
     45 ****        -0.4384   1.7497   3.9665 H              1 S1                 0.0000
     46 ****         0.0755  -0.9024  -0.6514 LP             1 S1                 0.0000
     47 ****         0.0118  -1.4627  -2.1839 LP             1 S1                 0.0000
     48 ****         1.8278  -0.5720  -1.6605 LP             1 S1                 0.0000
     49 ****         2.3512   0.8749  -0.8651 LP             1 S1                 0.0000
     50 ****        -0.9994   4.1398   3.6058 LP             1 S1                 0.0000
     51 ****        -0.1367   5.1143   2.4629 LP             1 S1                 0.0000
     52 ****         3.7414   1.8593   0.0855 LP             1 S1                 0.0000
     53 ****         3.2175   3.5075  -0.0101 LP             1 S1                 0.0000
@<TRIPOS>BOND
    1    1    2 1     
    2    1   24 1     
    3    1   25 1     
    4    1   26 1     
    5    2    7 1     
    6    2    3 1     
    7    2   27 1     
    8    3    4 1     
    9    3   28 1     
   10    3   29 1     
   11    4    5 1     
   12    4   30 1     
   13    4   31 1     
   14    5    6 1     
   15    5   32 1     
   16    5   33 1     
   17    6    7 1     
   18    6   34 1     
   19    6   35 1     
   20    7    8 1     
   21    7   36 1     
   22    8    9 1     
   23    9   10 1     
   24    9   37 1     
   25    9   38 1     
   26   10   11 1     
   27   10   39 1     
   28   10   40 1     
   29   11   12 am    
   30   11   41 1     
   31   12   13 2     
   32   12   14 1     
   33   14   15 1     
   34   14   42 1     
   35   14   43 1     
   36   15   21 1     
   37   15   16 1     
   38   16   17 2     
   39   16   44 1     
   40   17   18 1     
   41   17   45 1     
   42   18   19 2     
   43   18   20 1     
   44   20   23 1     
   45   20   21 1     
   46   21   22 2     
   47    8   46 1     
   48    8   47 1     
   49   13   48 1     
   50   13   49 1     
   51   19   50 1     
   52   19   51 1     
   53   22   52 1     
   54   22   53 1     
@<TRIPOS>SUBSTRUCTURE
      1 S1             1
@<TRIPOS>SET
LONE_PAIRS      STATIC     ATOMS    <user>   **** ""
8 46 47 48 49 50 51 52 53
DONOR_HYDROGENS      STATIC     ATOMS    <user>   **** ""
2 41 23
ATOM$BLUE        STATIC     ATOMS    COLORGROUP SYSTEM
8 46 47 48 49 50 51 52 53
ATOM$RED        STATIC     ATOMS    COLORGROUP SYSTEM
2 41 23
