AV-unprocessed.smi:709|AV-procd|sdf|3460|dock3
  -GOLD-   22720 0443D 1   1.00000     0.00000
 Structure written by MMmdl.
 48 50  0  0  0  0  0  0  0  0  1 V2000
  144.8402  132.2109  150.3571 C   0  0  0  0  0  0  0  0  0  0  0  0
  143.6554  132.4326  151.2995 C   0  0  0  0  0  0  0  0  0  0  0  0
  144.0716  133.2623  152.3705 O   0  0  0  0  0  0  0  0  0  0  0  0
  144.1046  134.6367  152.0201 C   0  0  2  0  0  0  0  0  0  0  0  0
  145.3357  135.0659  151.2146 C   0  0  0  0  0  0  0  0  0  0  0  0
  145.2687  136.3645  152.0212 C   0  0  2  0  0  0  0  0  0  0  0  0
  146.5871  136.9024  152.3392 N   0  0  0  0  0  0  0  0  0  0  0  0
  146.8018  137.9230  153.1805 C   0  0  0  0  0  0  0  0  0  0  0  0
  145.8941  138.5079  153.7709 O   0  0  0  0  0  0  0  0  0  0  0  0
  148.1166  138.1910  153.2871 N   0  0  0  0  0  0  0  0  0  0  0  0
  148.7726  139.1883  154.0318 C   0  0  0  0  0  0  0  0  0  0  0  0
  148.2073  140.3549  154.4343 C   0  0  0  0  0  0  0  0  0  0  0  0
  148.9643  141.3262  155.1869 C   0  0  0  0  0  0  0  0  0  0  0  0
  150.2448  141.0542  155.4725 C   0  0  0  0  0  0  0  0  0  0  0  0
  150.8535  139.8573  155.0594 N   0  0  0  0  0  0  0  0  0  0  0  0
  152.2595  139.6537  155.4175 C   0  0  0  0  0  0  0  0  0  0  0  0
  150.1853  138.9000  154.3494 C   0  0  0  0  0  0  0  0  0  0  0  0
  150.7460  137.8582  154.0003 O   0  0  0  0  0  0  0  0  0  0  0  0
  144.5968  135.5591  153.1634 C   0  0  0  0  0  0  0  0  0  0  0  0
  145.4706  134.9230  154.2530 C   0  0  0  0  0  0  0  0  0  0  0  0
  144.5242  134.4820  155.3709 C   0  0  0  0  0  0  0  0  0  0  0  0
  143.2931  135.3858  155.2466 C   0  0  0  0  0  0  0  0  0  0  0  0
  143.5263  136.2494  154.0019 C   0  0  0  0  0  0  0  0  0  0  0  0
  144.5566  131.5769  149.5169 H   0  0  0  0  0  0  0  0  0  0  0  0
  145.6681  131.7281  150.8768 H   0  0  0  0  0  0  0  0  0  0  0  0
  145.2021  133.1576  149.9553 H   0  0  0  0  0  0  0  0  0  0  0  0
  142.8302  132.8971  150.7580 H   0  0  0  0  0  0  0  0  0  0  0  0
  143.3019  131.4738  151.6818 H   0  0  0  0  0  0  0  0  0  0  0  0
  143.1686  134.9888  151.5792 H   0  0  0  0  0  0  0  0  0  0  0  0
  146.2188  134.4586  151.4226 H   0  0  0  0  0  0  0  0  0  0  0  0
  145.1636  135.1810  150.1443 H   0  0  0  0  0  0  0  0  0  0  0  0
  144.5898  137.0882  151.5629 H   0  0  0  0  0  0  0  0  0  0  0  0
  147.3823  136.4667  151.8951 H   0  0  0  0  0  0  0  0  0  0  0  0
  148.7370  137.5807  152.7749 H   0  0  0  0  0  0  0  0  0  0  0  0
  147.1869  140.6090  154.1997 H   0  0  0  0  0  0  0  0  0  0  0  0
  148.5094  142.2506  155.5112 H   0  0  0  0  0  0  0  0  0  0  0  0
  150.8771  141.7302  156.0295 H   0  0  0  0  0  0  0  0  0  0  0  0
  152.3717  138.7625  156.0366 H   0  0  0  0  0  0  0  0  0  0  0  0
  152.6783  140.4922  155.9749 H   0  0  0  0  0  0  0  0  0  0  0  0
  152.8683  139.5240  154.5214 H   0  0  0  0  0  0  0  0  0  0  0  0
  146.0714  134.0899  153.8866 H   0  0  0  0  0  0  0  0  0  0  0  0
  146.1674  135.6562  154.6601 H   0  0  0  0  0  0  0  0  0  0  0  0
  144.2325  133.4415  155.2236 H   0  0  0  0  0  0  0  0  0  0  0  0
  144.9945  134.5562  156.3520 H   0  0  0  0  0  0  0  0  0  0  0  0
  142.3958  134.7776  155.1273 H   0  0  0  0  0  0  0  0  0  0  0  0
  143.1541  136.0050  156.1333 H   0  0  0  0  0  0  0  0  0  0  0  0
  143.8759  137.2357  154.3085 H   0  0  0  0  0  0  0  0  0  0  0  0
  142.5999  136.4047  153.4483 H   0  0  0  0  0  0  0  0  0  0  0  0
  1  2  1  0  0  0  0
  1 24  1  0  0  0  0
  1 25  1  0  0  0  0
  1 26  1  0  0  0  0
  2  3  1  0  0  0  0
  2 27  1  0  0  0  0
  2 28  1  0  0  0  0
  3  4  1  0  0  0  0
  4 19  1  0  0  0  0
  4  5  1  0  0  0  0
  4 29  1  0  0  0  0
  5  6  1  0  0  0  0
  5 30  1  0  0  0  0
  5 31  1  0  0  0  0
  6  7  1  0  0  0  0
  6 19  1  0  0  0  0
  6 32  1  0  0  0  0
  7  8  1  0  0  0  0
  7 33  1  0  0  0  0
  8  9  2  0  0  0  0
  8 10  1  0  0  0  0
 10 11  1  0  0  0  0
 10 34  1  0  0  0  0
 11 17  1  0  0  0  0
 11 12  2  0  0  0  0
 12 13  1  0  0  0  0
 12 35  1  0  0  0  0
 13 14  2  0  0  0  0
 13 36  1  0  0  0  0
 14 15  1  0  0  0  0
 14 37  1  0  0  0  0
 15 16  1  0  0  0  0
 15 17  1  0  0  0  0
 16 38  1  0  0  0  0
 16 39  1  0  0  0  0
 16 40  1  0  0  0  0
 17 18  2  0  0  0  0
 19 23  1  0  0  0  0
 19 20  1  0  0  0  0
 20 21  1  0  0  0  0
 20 41  1  0  0  0  0
 20 42  1  0  0  0  0
 21 22  1  0  0  0  0
 21 43  1  0  0  0  0
 21 44  1  0  0  0  0
 22 23  1  0  0  0  0
 22 45  1  0  0  0  0
 22 46  1  0  0  0  0
 23 47  1  0  0  0  0
 23 48  1  0  0  0  0
M  END
> <s_m_source_file>
AV-unprocessed.smi

> <i_m_source_file_index>
709

> <i_lp_mmshare_version>
43012

> <i_f3d_flags>
0

> <s_epik_input>
W0NIMl0xW0NIMl1bQ0gyXVtDSDJdQzEyW0NASF0oT1tDSDJdW0NIM10pW0NIMl1bQ0BIXTJbTkhdQyg9TylbTkhdYzNbY0hdW2NIXVtjSF1uKFtDSDNdKWMzPU8=

> <s_epik_cmdline>
J2VwaWtfcHl0aG9uJywgJy1waCcsICc3LjAnLCAnLXRuJywgJzgnLCAnLW1hJywgJzIwMCcsICctbWV0YWxfYmluZGluZycsICctaW1hZScsICc8aW5maWxlLm1hZT4nLCAnLW9tYWUnLCAnPG91dGZpbGUubWFlPic=

> <r_lp_tautomer_probability>
1

> <r_epik_Ionization_Penalty>
2.50859e-05

> <r_epik_Ionization_Penalty_Charging>
5.10493e-06

> <r_epik_Ionization_Penalty_Neutral>
1.9981e-05

> <r_epik_State_Penalty>
-0

> <r_epik_Charging_Adjusted_Penalty>
5.10493e-06

> <i_epik_Tot_Q>
0

> <i_epik_Tot_abs_Q>
0

> <r_epik_Metal_State_Penalty>
-0

> <b_epik_Metal_Only>
0

> <s_lp_Force_Field>
OPLS_2005

> <r_lp_Energy>
49.811

> <b_lp_Chiralities_Consistent>
1

> <s_lp_Variant>
AV-unprocessed.smi:709-3

> <Gold.Version>
5.8.1

> <Gold.Id.Protein>
6NUR|6NUR_protein|mol2

> <Gold.PLP.Fitness>
42.4487

> <Gold.PLP.PLP>
-36.9509

> <Gold.PLP.part.hbond>
-2.7910

> <Gold.PLP.part.metal>
0.0000

> <Gold.PLP.part.buried>
-2.7209

> <Gold.PLP.part.nonpolar>
-33.9765

> <Gold.PLP.part.repulsive>
1.4788

> <Gold.PLP.ligand.clash>
0.0000

> <Gold.PLP.ligand.torsion>
0.3992

> <Gold.PLP.Chemscore.Hbond>
1.9920

> <Gold.PLP.Chemscore.CHOScore>
0.0000

> <Gold.PLP.Chemscore.Metal>
0.0000

> <Gold.Chemscore.Hbonds>
donor molecule, donor type, donor heavy atom, donor atom, acceptor molecule, acceptor atom, score
      L1  H     7    33       P1  7948  1.00
      L1  H    10    34       P1  7948  1.00

> <Gold.PLP.Chemscore.Internal.Correction>
0.3202

> <Gold.Rescore>
     Score         DG    S(hbond)    S(metal)    S(lipo)     H(rot)  DE(clash)    DE(int)     intcor
     15.87     -17.46       1.88        0.00      78.53       1.36       0.10       1.50       ----

> <Gold.Chemscore.Fitness>
15.8671

> <Gold.Chemscore.DG>
-17.4632

> <Gold.Chemscore.ZeroCoef>
-5.4800

> <Gold.Chemscore.Hbond>
1.8791

> <Gold.Chemscore.Metal>
0.0000

> <Gold.Chemscore.Lipo>
78.5338

> <Gold.Chemscore.Internal_Hbond>
0.0000

> <Gold.Chemscore.DEClash>
0.1009

> <Gold.Chemscore.DEInternal>
1.4952

> <Gold.Chemscore.Rot>
1.3599

> <Gold.Chemscore.Internal.Correction>
   9.000000E+99

> <Gold.Chemscore.Hbonds>
donor molecule, donor type, donor heavy atom, donor atom, acceptor molecule, acceptor atom, score
      L1  H     7    33       P1  7948  0.91
      L1  H    10    34       P1  7948  0.95

> <Gold.Chemscore.Hbond.Weighted>
-6.2760

> <Gold.Chemscore.Metal.Weighted>
-0.0000

> <Gold.Chemscore.Lipo.Weighted>
-9.1885

> <Gold.Chemscore.Internal_Hbond.Weighted>
0.0000

> <Gold.Chemscore.DEClash.Weighted>
0.1009

> <Gold.Chemscore.DEInternal.Weighted>
1.4952

> <Gold.Chemscore.Rot.Weighted>
3.4813

> <Gold.Chemscore.Internal.Correction.Weighted>
   9.000000E+99

> <Gold.Protein.RotatedTorsions>
[ 6907 6896 6895 6894 ] final   11.19 input  -60.11 | X-H torsion
[ 7974 7965 7964 7962 ] final   82.58 input  175.53 | X-H torsion
[ 8008 7997 7996 7995 ] final  170.83 input   59.86 | X-H torsion
[ 10167 10162 10161 10158 ] final  123.28 input  -65.29 | X-H torsion
[ 10718 10713 10712 10709 ] final   -8.51 input   66.30 | X-H torsion
[ 10763 10752 10751 10750 ] final  151.58 input  -60.55 | X-H torsion
[ 11005 11000 10999 10996 ] final  -98.04 input  -57.11 | X-H torsion

> <Gold.Protein.ActiveResidues>
 VAL166  LYS551  ARG553  GLY616  TRP617  ASP618  TYR619  PRO620  LYS621  CYS622 
 ASP623  PHE694  ASN695  SER759  ASP760  ASP761  ALA762  ILE779  LEU786  VAL792 
 PHE793  MET794  SER795  GLU796  ALA797  LYS798  CYS799  TRP800  GLU811  SER814 

> <Gold.Protein.RotatedAtoms>
  151.7503  135.0834  160.0329 H   0  0  0  0  0  0  0  0  0  0  0  0  # atno 6907 bound_to 6896
  152.3421  133.6074  159.5892 H   0  0  0  0  0  0  0  0  0  0  0  0  # atno 6908 bound_to 6896
  150.7486  133.9622  159.3561 H   0  0  0  0  0  0  0  0  0  0  0  0  # atno 6909 bound_to 6896
  145.6232  139.2390  143.2127 H   0  0  0  0  0  0  0  0  0  0  0  0  # atno 7974 bound_to 7965
  156.1328  140.1527  156.9039 H   0  0  0  0  0  0  0  0  0  0  0  0  # atno 8008 bound_to 7997
  154.4923  140.0848  156.7661 H   0  0  0  0  0  0  0  0  0  0  0  0  # atno 8009 bound_to 7997
  155.4224  140.3423  155.4275 H   0  0  0  0  0  0  0  0  0  0  0  0  # atno 8010 bound_to 7997
  139.5809  144.6985  151.3532 H   0  0  0  0  0  0  0  0  0  0  0  0  # atno 10167 bound_to 10162
  156.7015  130.5095  149.5916 H   0  0  0  0  0  0  0  0  0  0  0  0  # atno 10718 bound_to 10713
  154.1061  135.2842  155.3241 H   0  0  0  0  0  0  0  0  0  0  0  0  # atno 10763 bound_to 10752
  154.6522  135.5365  153.7918 H   0  0  0  0  0  0  0  0  0  0  0  0  # atno 10764 bound_to 10752
  153.0362  135.6513  154.1222 H   0  0  0  0  0  0  0  0  0  0  0  0  # atno 10765 bound_to 10752
  141.1358  133.8216  157.0787 H   0  0  0  0  0  0  0  0  0  0  0  0  # atno 11005 bound_to 11000
  146.1415  140.7051  142.9365 LP  0  0  0  0  0  0  0  0  0  0  0  0  # atno 17320 bound_to 7965
  144.7223  140.4412  143.6999 LP  0  0  0  0  0  0  0  0  0  0  0  0  # atno 17321 bound_to 7965
  140.7087  143.7447  150.7527 LP  0  0  0  0  0  0  0  0  0  0  0  0  # atno 17342 bound_to 10162
  140.0979  143.4815  152.2442 LP  0  0  0  0  0  0  0  0  0  0  0  0  # atno 17343 bound_to 10162
  156.1725  130.6446  151.0855 LP  0  0  0  0  0  0  0  0  0  0  0  0  # atno 17370 bound_to 10713
  157.6971  131.0790  150.6935 LP  0  0  0  0  0  0  0  0  0  0  0  0  # atno 17371 bound_to 10713
  140.0465  134.9827  157.1059 LP  0  0  0  0  0  0  0  0  0  0  0  0  # atno 17394 bound_to 11000
  140.4054  134.2038  155.7163 LP  0  0  0  0  0  0  0  0  0  0  0  0  # atno 17395 bound_to 11000

$$$$
