AV-unprocessed.smi:1754|AV-procd|sdf|7068|dock2
  -GOLD-   22720 8283D 1   1.00000     0.00000
 Structure written by MMmdl.
 44 45  0  0  0  0  0  0  0  0  3 V2000
  143.3343  137.4194  153.1865 C   0  0  0  0  0  0  0  0  0  0  0  0
  144.7973  136.9937  153.3851 C   0  0  0  0  0  0  0  0  0  0  0  0
  145.7202  137.7009  152.4975 N   0  0  0  0  0  0  0  0  0  0  0  0
  146.2976  136.9333  151.3915 C   0  0  0  0  0  0  0  0  0  0  0  0
  145.3419  135.8646  150.8370 C   0  0  0  0  0  0  0  0  0  0  0  0
  146.5112  138.6920  153.1224 C   0  0  0  0  0  0  0  0  0  0  0  0
  145.9429  139.8317  153.7399 C   0  0  0  0  0  0  0  0  0  0  0  0
  146.7770  140.7816  154.3637 C   0  0  0  0  0  0  0  0  0  0  0  0
  148.1724  140.5828  154.3808 C   0  0  0  0  0  0  0  0  0  0  0  0
  148.9778  141.5742  155.0011 N   0  0  0  0  0  0  0  0  0  0  0  0
  150.3191  141.5865  155.2009 C   0  0  0  0  0  0  0  0  0  0  0  0
  150.9763  140.5954  154.8868 O   0  0  0  0  0  0  0  0  0  0  0  0
  150.9117  142.6811  155.7686 N   0  5  0  0  0  0  0  0  0  0  0  0
  150.9712  143.0712  157.1863 C   0  0  2  0  0  0  0  0  0  0  0  0
  151.7418  144.3950  157.3708 C   0  0  0  0  0  0  0  0  0  0  0  0
  152.0808  144.5629  158.8587 C   0  0  0  0  0  0  0  0  0  0  0  0
  152.3094  142.8639  159.5133 S   0  0  0  0  0  0  0  0  0  0  0  0
  153.7454  142.5858  159.6699 O   0  0  0  0  0  0  0  0  0  0  0  0
  151.3760  142.6543  160.6313 O   0  0  0  0  0  0  0  0  0  0  0  0
  151.6886  141.9990  158.0175 C   0  0  0  0  0  0  0  0  0  0  0  0
  148.6952  139.4379  153.7360 C   0  0  0  0  0  0  0  0  0  0  0  0
  147.8598  138.5548  153.1480 N   0  3  0  0  0  0  0  0  0  0  0  0
  142.6816  136.8837  153.8759 H   0  0  0  0  0  0  0  0  0  0  0  0
  142.9902  137.2055  152.1741 H   0  0  0  0  0  0  0  0  0  0  0  0
  143.2005  138.4860  153.3682 H   0  0  0  0  0  0  0  0  0  0  0  0
  145.0911  137.1922  154.4162 H   0  0  0  0  0  0  0  0  0  0  0  0
  144.8886  135.9154  153.2622 H   0  0  0  0  0  0  0  0  0  0  0  0
  146.6113  137.6088  150.5947 H   0  0  0  0  0  0  0  0  0  0  0  0
  147.2059  136.4400  151.7393 H   0  0  0  0  0  0  0  0  0  0  0  0
  145.8266  135.2911  150.0467 H   0  0  0  0  0  0  0  0  0  0  0  0
  144.4355  136.2984  150.4153 H   0  0  0  0  0  0  0  0  0  0  0  0
  145.0448  135.1635  151.6174 H   0  0  0  0  0  0  0  0  0  0  0  0
  144.8761  139.9972  153.7309 H   0  0  0  0  0  0  0  0  0  0  0  0
  146.3441  141.6548  154.8298 H   0  0  0  0  0  0  0  0  0  0  0  0
  148.4780  142.3613  155.3878 H   0  0  0  0  0  0  0  0  0  0  0  0
  149.9753  143.2044  157.6123 H   0  0  0  0  0  0  0  0  0  0  0  0
  152.6734  144.3535  156.8041 H   0  0  0  0  0  0  0  0  0  0  0  0
  151.1788  145.2490  156.9933 H   0  0  0  0  0  0  0  0  0  0  0  0
  152.9835  145.1519  159.0206 H   0  0  0  0  0  0  0  0  0  0  0  0
  151.2597  145.0311  159.4036 H   0  0  0  0  0  0  0  0  0  0  0  0
  151.0368  141.1727  158.3007 H   0  0  0  0  0  0  0  0  0  0  0  0
  152.5512  141.5963  157.4852 H   0  0  0  0  0  0  0  0  0  0  0  0
  149.7451  139.1983  153.6554 H   0  0  0  0  0  0  0  0  0  0  0  0
  148.2704  137.7374  152.6970 H   0  0  0  0  0  0  0  0  0  0  0  0
  1  2  1  0  0  0  0
  1 23  1  0  0  0  0
  1 24  1  0  0  0  0
  1 25  1  0  0  0  0
  2  3  1  0  0  0  0
  2 26  1  0  0  0  0
  2 27  1  0  0  0  0
  3  4  1  0  0  0  0
  3  6  1  0  0  0  0
  4  5  1  0  0  0  0
  4 28  1  0  0  0  0
  4 29  1  0  0  0  0
  5 30  1  0  0  0  0
  5 31  1  0  0  0  0
  5 32  1  0  0  0  0
  6 22  1  0  0  0  0
  6  7  2  0  0  0  0
  7  8  1  0  0  0  0
  7 33  1  0  0  0  0
  8  9  2  0  0  0  0
  8 34  1  0  0  0  0
  9 10  1  0  0  0  0
  9 21  1  0  0  0  0
 10 11  1  0  0  0  0
 10 35  1  0  0  0  0
 11 12  2  0  0  0  0
 11 13  1  0  0  0  0
 13 14  1  0  0  0  0
 14 20  1  0  0  0  0
 14 15  1  0  0  0  0
 14 36  1  0  0  0  0
 15 16  1  0  0  0  0
 15 37  1  0  0  0  0
 15 38  1  0  0  0  0
 16 17  1  0  0  0  0
 16 39  1  0  0  0  0
 16 40  1  0  0  0  0
 17 18  2  0  0  0  0
 17 19  2  0  0  0  0
 17 20  1  0  0  0  0
 20 41  1  0  0  0  0
 20 42  1  0  0  0  0
 21 22  2  0  0  0  0
 21 43  1  0  0  0  0
 22 44  1  0  0  0  0
M  CHG  1  13  -1
M  CHG  1  22   1
M  END
> <s_m_source_file>
AV-unprocessed.smi

> <i_m_source_file_index>
1754

> <i_lp_mmshare_version>
43012

> <i_f3d_flags>
0

> <s_epik_input>
W0NIM11bQ0gyXU4oW0NIMl1bQ0gzXSljMVtjSF1bY0hdYyhbY0hdbjEpW05IXUMoPU8pW05IXVtDQEBIXShbQ0gyXTIpW0NIMl1bQ0gyXVMyKD1PKT1P

> <s_epik_cmdline>
J2VwaWtfcHl0aG9uJywgJy1waCcsICc3LjAnLCAnLXRuJywgJzgnLCAnLW1hJywgJzIwMCcsICctbWV0YWxfYmluZGluZycsICctaW1hZScsICc8aW5maWxlLm1hZT4nLCAnLW9tYWUnLCAnPG91dGZpbGUubWFlPic=

> <r_lp_tautomer_probability>
0.999994

> <r_epik_Ionization_Penalty>
7.1175

> <r_epik_Ionization_Penalty_Charging>
7.11749

> <r_epik_Ionization_Penalty_Neutral>
3.13064e-06

> <r_epik_State_Penalty>
6.65299

> <r_epik_Charging_Adjusted_Penalty>
13.7705

> <i_epik_Tot_Q>
0

> <i_epik_Tot_abs_Q>
2

> <r_epik_Metal_State_Penalty>
2.60496

> <b_epik_Metal_Only>
1

> <s_lp_Force_Field>
OPLS_2005

> <r_lp_Energy>
20.9126

> <b_lp_Chiralities_Consistent>
1

> <s_lp_Variant>
AV-unprocessed.smi:1754-5

> <Gold.Version>
5.8.1

> <Gold.Id.Protein>
6NUR|6NUR_protein|mol2

> <Gold.PLP.Fitness>
41.3480

> <Gold.PLP.PLP>
-34.1463

> <Gold.PLP.part.hbond>
-3.6810

> <Gold.PLP.part.metal>
0.0000

> <Gold.PLP.part.buried>
3.1165

> <Gold.PLP.part.nonpolar>
-33.1616

> <Gold.PLP.part.repulsive>
0.8435

> <Gold.PLP.ligand.clash>
0.0000

> <Gold.PLP.ligand.torsion>
1.8310

> <Gold.PLP.Chemscore.Hbond>
3.3088

> <Gold.PLP.Chemscore.CHOScore>
0.0000

> <Gold.PLP.Chemscore.Metal>
0.0000

> <Gold.Chemscore.Hbonds>
donor molecule, donor type, donor heavy atom, donor atom, acceptor molecule, acceptor atom, score
      L1  H    10    35       P1  8028  0.06
      L1  H    22    44       P1  7948  2.00
      P1  H  6933  6945       L1    19  0.06
      P1  H  7989  7998       L1    12  0.98

> <Gold.PLP.Chemscore.Internal.Correction>
0.9374

> <Gold.Rescore>
     Score         DG    S(hbond)    S(metal)    S(lipo)     H(rot)  DE(clash)    DE(int)     intcor
     13.22     -18.42       2.19        0.00      78.37       1.39       1.91       3.29       ----

> <Gold.Chemscore.Fitness>
13.2185

> <Gold.Chemscore.DG>
-18.4176

> <Gold.Chemscore.ZeroCoef>
-5.4800

> <Gold.Chemscore.Hbond>
2.1920

> <Gold.Chemscore.Metal>
0.0000

> <Gold.Chemscore.Lipo>
78.3659

> <Gold.Chemscore.Internal_Hbond>
0.0000

> <Gold.Chemscore.DEClash>
1.9113

> <Gold.Chemscore.DEInternal>
3.2878

> <Gold.Chemscore.Rot>
1.3876

> <Gold.Chemscore.Internal.Correction>
   9.000000E+99

> <Gold.Chemscore.Hbonds>
donor molecule, donor type, donor heavy atom, donor atom, acceptor molecule, acceptor atom, score
      L1  H    10    35       P1  8028  0.08
      L1  H    22    44       P1  7948  1.00
      P1  H  6933  6945       L1    19  0.06
      P1  H  7989  7998       L1    12  0.54

> <Gold.Chemscore.Hbond.Weighted>
-7.3212

> <Gold.Chemscore.Metal.Weighted>
-0.0000

> <Gold.Chemscore.Lipo.Weighted>
-9.1688

> <Gold.Chemscore.Internal_Hbond.Weighted>
0.0000

> <Gold.Chemscore.DEClash.Weighted>
1.9113

> <Gold.Chemscore.DEInternal.Weighted>
3.2878

> <Gold.Chemscore.Rot.Weighted>
3.5524

> <Gold.Chemscore.Internal.Correction.Weighted>
   9.000000E+99

> <Gold.Protein.RotatedTorsions>
[ 6907 6896 6895 6894 ] final   10.01 input  -60.11 | X-H torsion
[ 7974 7965 7964 7962 ] final  179.42 input  175.53 | X-H torsion
[ 8008 7997 7996 7995 ] final  -75.25 input   59.86 | X-H torsion
[ 10167 10162 10161 10158 ] final -106.56 input  -65.29 | X-H torsion
[ 10718 10713 10712 10709 ] final   72.04 input   66.30 | X-H torsion
[ 10763 10752 10751 10750 ] final  115.86 input  -60.55 | X-H torsion
[ 11005 11000 10999 10996 ] final   53.25 input  -57.11 | X-H torsion

> <Gold.Protein.ActiveResidues>
 VAL166  LYS551  ARG553  GLY616  TRP617  ASP618  TYR619  PRO620  LYS621  CYS622 
 ASP623  PHE694  ASN695  SER759  ASP760  ASP761  ALA762  ILE779  LEU786  VAL792 
 PHE793  MET794  SER795  GLU796  ALA797  LYS798  CYS799  TRP800  GLU811  SER814 

> <Gold.Protein.RotatedAtoms>
  151.7314  135.0874  160.0300 H   0  0  0  0  0  0  0  0  0  0  0  0  # atno 6907 bound_to 6896
  152.3538  133.6208  159.5973 H   0  0  0  0  0  0  0  0  0  0  0  0  # atno 6908 bound_to 6896
  150.7558  133.9448  159.3509 H   0  0  0  0  0  0  0  0  0  0  0  0  # atno 6909 bound_to 6896
  144.7146  140.0545  143.6434 H   0  0  0  0  0  0  0  0  0  0  0  0  # atno 7974 bound_to 7965
  154.5400  140.0747  156.8494 H   0  0  0  0  0  0  0  0  0  0  0  0  # atno 8008 bound_to 7997
  155.3199  140.3395  155.4223 H   0  0  0  0  0  0  0  0  0  0  0  0  # atno 8009 bound_to 7997
  156.1865  140.1671  156.8161 H   0  0  0  0  0  0  0  0  0  0  0  0  # atno 8010 bound_to 7997
  140.1864  143.3926  152.1241 H   0  0  0  0  0  0  0  0  0  0  0  0  # atno 10167 bound_to 10162
  157.6481  130.9559  150.0873 H   0  0  0  0  0  0  0  0  0  0  0  0  # atno 10718 bound_to 10713
  153.5286  135.3583  155.2665 H   0  0  0  0  0  0  0  0  0  0  0  0  # atno 10763 bound_to 10752
  154.8729  135.4063  154.3178 H   0  0  0  0  0  0  0  0  0  0  0  0  # atno 10764 bound_to 10752
  153.3862  135.7070  153.6596 H   0  0  0  0  0  0  0  0  0  0  0  0  # atno 10765 bound_to 10752
  140.0782  134.5375  155.8974 H   0  0  0  0  0  0  0  0  0  0  0  0  # atno 11005 bound_to 11000
  145.9916  139.3019  143.0981 LP  0  0  0  0  0  0  0  0  0  0  0  0  # atno 17320 bound_to 7965
  145.8896  140.9312  143.0559 LP  0  0  0  0  0  0  0  0  0  0  0  0  # atno 17321 bound_to 7965
  139.5274  144.7119  151.5179 LP  0  0  0  0  0  0  0  0  0  0  0  0  # atno 17342 bound_to 10162
  140.6485  143.8745  150.6761 LP  0  0  0  0  0  0  0  0  0  0  0  0  # atno 17343 bound_to 10162
  156.1832  130.3651  149.9007 LP  0  0  0  0  0  0  0  0  0  0  0  0  # atno 17370 bound_to 10713
  156.6954  130.8912  151.3593 LP  0  0  0  0  0  0  0  0  0  0  0  0  # atno 17371 bound_to 10713
  141.2037  133.6634  156.6079 LP  0  0  0  0  0  0  0  0  0  0  0  0  # atno 17394 bound_to 11000
  140.3526  134.7755  157.4478 LP  0  0  0  0  0  0  0  0  0  0  0  0  # atno 17395 bound_to 11000

$$$$
