AV-unprocessed.smi:2923|AV-procd|sdf|11206|dock1
  -GOLD-   2272016 93D 1   1.00000     0.00000
 Structure written by MMmdl.
 47 49  0  0  0  0  0  0  0  0  2 V2000
  145.4719  131.8427  150.4134 C   0  0  0  0  0  0  0  0  0  0  0  0
  144.5779  132.9647  150.1497 N   0  0  0  0  0  0  0  0  0  0  0  0
  143.5146  132.8422  149.1610 C   0  0  0  0  0  0  0  0  0  0  0  0
  144.7289  134.1673  150.8736 C   0  0  0  0  0  0  0  0  0  0  0  0
  145.9308  134.5341  151.5268 C   0  0  0  0  0  0  0  0  0  0  0  0
  146.0021  135.7531  152.2314 C   0  0  0  0  0  0  0  0  0  0  0  0
  144.8774  136.6025  152.2870 C   0  0  0  0  0  0  0  0  0  0  0  0
  145.0127  137.8204  153.0096 N   0  0  0  0  0  0  0  0  0  0  0  0
  145.7251  138.0783  154.1201 C   0  0  0  0  0  0  0  0  0  0  0  0
  146.4207  137.2671  154.7298 O   0  0  0  0  0  0  0  0  0  0  0  0
  145.5848  139.3568  154.4937 N   0  0  0  0  0  0  0  0  0  0  0  0
  146.2218  139.9656  155.6632 C   0  0  2  0  0  0  0  0  0  0  0  0
  146.0080  141.4950  155.7506 C   0  0  2  0  0  0  0  0  0  0  0  0
  145.0245  142.2430  154.8830 C   0  0  0  0  0  0  0  0  0  0  0  0
  145.9057  142.7712  153.7476 C   0  0  0  0  0  0  0  0  0  0  0  0
  147.0577  141.9305  153.7597 O   0  0  0  0  0  0  0  0  0  0  0  0
  147.3821  141.6594  155.1213 C   0  0  2  0  0  0  0  0  0  0  0  0
  147.7427  140.1993  155.4650 C   0  0  0  0  0  0  0  0  0  0  0  0
  148.5721  140.0480  156.7440 C   0  0  0  0  0  0  0  0  0  0  0  0
  148.4771  139.4023  154.3781 C   0  0  0  0  0  0  0  0  0  0  0  0
  143.7006  136.1936  151.6143 C   0  0  0  0  0  0  0  0  0  0  0  0
  143.6762  135.0174  150.9506 N   0  3  0  0  0  0  0  0  0  0  0  0
  145.3731  131.5099  151.4472 H   0  0  0  0  0  0  0  0  0  0  0  0
  146.5095  132.1284  150.2376 H   0  0  0  0  0  0  0  0  0  0  0  0
  145.2465  130.9943  149.7667 H   0  0  0  0  0  0  0  0  0  0  0  0
  143.6379  133.5843  148.3717 H   0  0  0  0  0  0  0  0  0  0  0  0
  142.5391  132.9859  149.6267 H   0  0  0  0  0  0  0  0  0  0  0  0
  143.5182  131.8568  148.6946 H   0  0  0  0  0  0  0  0  0  0  0  0
  146.8037  133.8992  151.5000 H   0  0  0  0  0  0  0  0  0  0  0  0
  146.9206  136.0299  152.7281 H   0  0  0  0  0  0  0  0  0  0  0  0
  144.5124  138.6068  152.6215 H   0  0  0  0  0  0  0  0  0  0  0  0
  144.9917  139.9571  153.9394 H   0  0  0  0  0  0  0  0  0  0  0  0
  145.9985  139.4558  156.6022 H   0  0  0  0  0  0  0  0  0  0  0  0
  146.0130  141.8260  156.7903 H   0  0  0  0  0  0  0  0  0  0  0  0
  144.2338  141.5971  154.5030 H   0  0  0  0  0  0  0  0  0  0  0  0
  144.5431  143.0620  155.4179 H   0  0  0  0  0  0  0  0  0  0  0  0
  145.4034  142.7494  152.7803 H   0  0  0  0  0  0  0  0  0  0  0  0
  146.2140  143.7981  153.9496 H   0  0  0  0  0  0  0  0  0  0  0  0
  147.9972  142.4313  155.5865 H   0  0  0  0  0  0  0  0  0  0  0  0
  149.5781  140.4501  156.6197 H   0  0  0  0  0  0  0  0  0  0  0  0
  148.6676  139.0021  157.0376 H   0  0  0  0  0  0  0  0  0  0  0  0
  148.1185  140.5765  157.5830 H   0  0  0  0  0  0  0  0  0  0  0  0
  149.5149  139.7222  154.2800 H   0  0  0  0  0  0  0  0  0  0  0  0
  148.0194  139.5236  153.3962 H   0  0  0  0  0  0  0  0  0  0  0  0
  148.4819  138.3352  154.6027 H   0  0  0  0  0  0  0  0  0  0  0  0
  142.7769  136.7492  151.5690 H   0  0  0  0  0  0  0  0  0  0  0  0
  142.8109  134.7541  150.4786 H   0  0  0  0  0  0  0  0  0  0  0  0
  1  2  1  0  0  0  0
  1 23  1  0  0  0  0
  1 24  1  0  0  0  0
  1 25  1  0  0  0  0
  2  3  1  0  0  0  0
  2  4  1  0  0  0  0
  3 26  1  0  0  0  0
  3 27  1  0  0  0  0
  3 28  1  0  0  0  0
  4 22  1  0  0  0  0
  4  5  2  0  0  0  0
  5  6  1  0  0  0  0
  5 29  1  0  0  0  0
  6  7  2  0  0  0  0
  6 30  1  0  0  0  0
  7  8  1  0  0  0  0
  7 21  1  0  0  0  0
  8  9  1  0  0  0  0
  8 31  1  0  0  0  0
  9 10  2  0  0  0  0
  9 11  1  0  0  0  0
 11 12  1  0  0  0  0
 11 32  1  0  0  0  0
 12 18  1  0  0  0  0
 12 13  1  0  0  0  0
 12 33  1  0  0  0  0
 13 17  1  0  0  0  0
 13 14  1  0  0  0  0
 13 34  1  0  0  0  0
 14 15  1  0  0  0  0
 14 35  1  0  0  0  0
 14 36  1  0  0  0  0
 15 16  1  0  0  0  0
 15 37  1  0  0  0  0
 15 38  1  0  0  0  0
 16 17  1  0  0  0  0
 17 18  1  0  0  0  0
 17 39  1  0  0  0  0
 18 19  1  0  0  0  0
 18 20  1  0  0  0  0
 19 40  1  0  0  0  0
 19 41  1  0  0  0  0
 19 42  1  0  0  0  0
 20 43  1  0  0  0  0
 20 44  1  0  0  0  0
 20 45  1  0  0  0  0
 21 22  2  0  0  0  0
 21 46  1  0  0  0  0
 22 47  1  0  0  0  0
M  CHG  1  22   1
M  END
> <s_m_source_file>
AV-unprocessed.smi

> <i_m_source_file_index>
2923

> <i_lp_mmshare_version>
43012

> <i_f3d_flags>
0

> <s_epik_input>
W0NIM11OKFtDSDNdKWMxW2NIXVtjSF1jKFtjSF1uMSlbTkhdQyg9TylbTkhdW0NASF0yQyhbQ0gzXSkoW0NIM10pW0NAQEhdKFtDQEhdMjMpT1tDSDJdW0NIMl0z

> <s_epik_cmdline>
J2VwaWtfcHl0aG9uJywgJy1waCcsICc3LjAnLCAnLXRuJywgJzgnLCAnLW1hJywgJzIwMCcsICctbWV0YWxfYmluZGluZycsICctaW1hZScsICc8aW5maWxlLm1hZT4nLCAnLW9tYWUnLCAnPG91dGZpbGUubWFlPic=

> <r_lp_tautomer_probability>
0.999994

> <r_epik_Ionization_Penalty>
0.252205

> <r_epik_Ionization_Penalty_Charging>
0.252185

> <r_epik_Ionization_Penalty_Neutral>
1.99479e-05

> <r_epik_State_Penalty>
0.243573

> <r_epik_Charging_Adjusted_Penalty>
0.495758

> <i_epik_Tot_Q>
1

> <i_epik_Tot_abs_Q>
1

> <r_epik_Metal_State_Penalty>
0.534372

> <b_epik_Metal_Only>
0

> <s_lp_Force_Field>
OPLS_2005

> <r_lp_Energy>
46.9132

> <b_lp_Chiralities_Consistent>
1

> <s_lp_Variant>
AV-unprocessed.smi:2923-5

> <Gold.Version>
5.8.1

> <Gold.Id.Protein>
6NUR|6NUR_protein|mol2

> <Gold.PLP.Fitness>
38.4672

> <Gold.PLP.PLP>
-27.3754

> <Gold.PLP.part.hbond>
-2.9282

> <Gold.PLP.part.metal>
0.0000

> <Gold.PLP.part.buried>
-0.9126

> <Gold.PLP.part.nonpolar>
-25.2482

> <Gold.PLP.part.repulsive>
0.2634

> <Gold.PLP.ligand.clash>
0.0000

> <Gold.PLP.ligand.torsion>
0.5232

> <Gold.PLP.Chemscore.Hbond>
3.9825

> <Gold.PLP.Chemscore.CHOScore>
0.0000

> <Gold.PLP.Chemscore.Metal>
0.0000

> <Gold.Chemscore.Hbonds>
donor molecule, donor type, donor heavy atom, donor atom, acceptor molecule, acceptor atom, score
      L1  H     8    31       P1 10175  1.00
      L1  H    11    32       P1 10175  1.00
      L1  H    22    47       P1 10186  1.95

> <Gold.PLP.Chemscore.Internal.Correction>
0.1909

> <Gold.Rescore>
     Score         DG    S(hbond)    S(metal)    S(lipo)     H(rot)  DE(clash)    DE(int)     intcor
     16.02     -18.35       2.22        0.00      68.59       1.00       0.68       1.65       ----

> <Gold.Chemscore.Fitness>
16.0190

> <Gold.Chemscore.DG>
-18.3470

> <Gold.Chemscore.ZeroCoef>
-5.4800

> <Gold.Chemscore.Hbond>
2.2161

> <Gold.Chemscore.Metal>
0.0000

> <Gold.Chemscore.Lipo>
68.5916

> <Gold.Chemscore.Internal_Hbond>
0.0000

> <Gold.Chemscore.DEClash>
0.6801

> <Gold.Chemscore.DEInternal>
1.6479

> <Gold.Chemscore.Rot>
1.0000

> <Gold.Chemscore.Internal.Correction>
   9.000000E+99

> <Gold.Chemscore.Hbonds>
donor molecule, donor type, donor heavy atom, donor atom, acceptor molecule, acceptor atom, score
      L1  H     8    31       P1 10175  0.93
      L1  H    11    32       P1 10175  0.93
      L1  H    22    47       P1 10186  0.23

> <Gold.Chemscore.Hbond.Weighted>
-7.4018

> <Gold.Chemscore.Metal.Weighted>
-0.0000

> <Gold.Chemscore.Lipo.Weighted>
-8.0252

> <Gold.Chemscore.Internal_Hbond.Weighted>
0.0000

> <Gold.Chemscore.DEClash.Weighted>
0.6801

> <Gold.Chemscore.DEInternal.Weighted>
1.6479

> <Gold.Chemscore.Rot.Weighted>
2.5600

> <Gold.Chemscore.Internal.Correction.Weighted>
   9.000000E+99

> <Gold.Protein.RotatedTorsions>
[ 6907 6896 6895 6894 ] final -125.05 input  -60.11 | X-H torsion
[ 7974 7965 7964 7962 ] final  134.62 input  175.53 | X-H torsion
[ 8008 7997 7996 7995 ] final -139.78 input   59.86 | X-H torsion
[ 10167 10162 10161 10158 ] final  -82.64 input  -65.29 | X-H torsion
[ 10718 10713 10712 10709 ] final  -41.20 input   66.30 | X-H torsion
[ 10763 10752 10751 10750 ] final   27.56 input  -60.55 | X-H torsion
[ 11005 11000 10999 10996 ] final  -16.21 input  -57.11 | X-H torsion

> <Gold.Protein.ActiveResidues>
 VAL166  LYS551  ARG553  GLY616  TRP617  ASP618  TYR619  PRO620  LYS621  CYS622 
 ASP623  PHE694  ASN695  SER759  ASP760  ASP761  ALA762  ILE779  LEU786  VAL792 
 PHE793  MET794  SER795  GLU796  ALA797  LYS798  CYS799  TRP800  GLU811  SER814 

> <Gold.Protein.RotatedAtoms>
  150.8829  133.7347  159.2926 H   0  0  0  0  0  0  0  0  0  0  0  0  # atno 6907 bound_to 6896
  151.4923  135.1056  159.9816 H   0  0  0  0  0  0  0  0  0  0  0  0  # atno 6908 bound_to 6896
  152.4771  133.8119  159.7063 H   0  0  0  0  0  0  0  0  0  0  0  0  # atno 6909 bound_to 6896
  144.9745  139.4570  143.5416 H   0  0  0  0  0  0  0  0  0  0  0  0  # atno 7974 bound_to 7965
  155.4505  140.0538  157.3001 H   0  0  0  0  0  0  0  0  0  0  0  0  # atno 8008 bound_to 7997
  154.4779  140.2069  155.9789 H   0  0  0  0  0  0  0  0  0  0  0  0  # atno 8009 bound_to 7997
  156.1161  140.3196  155.8146 H   0  0  0  0  0  0  0  0  0  0  0  0  # atno 8010 bound_to 7997
  140.4301  143.2552  151.8772 H   0  0  0  0  0  0  0  0  0  0  0  0  # atno 10167 bound_to 10162
  156.2729  130.4208  149.8418 H   0  0  0  0  0  0  0  0  0  0  0  0  # atno 10718 bound_to 10713
  153.0548  135.6534  154.0604 H   0  0  0  0  0  0  0  0  0  0  0  0  # atno 10763 bound_to 10752
  154.0285  135.2913  155.3373 H   0  0  0  0  0  0  0  0  0  0  0  0  # atno 10764 bound_to 10752
  154.6857  135.5302  153.8390 H   0  0  0  0  0  0  0  0  0  0  0  0  # atno 10765 bound_to 10752
  140.8045  133.8188  155.9502 H   0  0  0  0  0  0  0  0  0  0  0  0  # atno 11005 bound_to 11000
  146.3391  139.8978  142.8799 LP  0  0  0  0  0  0  0  0  0  0  0  0  # atno 17320 bound_to 7965
  145.2510  141.0044  143.3881 LP  0  0  0  0  0  0  0  0  0  0  0  0  # atno 17321 bound_to 7965
  139.4784  144.5344  151.8619 LP  0  0  0  0  0  0  0  0  0  0  0  0  # atno 17342 bound_to 10162
  140.4437  144.1951  150.5893 LP  0  0  0  0  0  0  0  0  0  0  0  0  # atno 17343 bound_to 10162
  156.5893  130.8499  151.3404 LP  0  0  0  0  0  0  0  0  0  0  0  0  # atno 17370 bound_to 10713
  157.7290  130.9664  150.1766 LP  0  0  0  0  0  0  0  0  0  0  0  0  # atno 17371 bound_to 10713
  140.9261  134.2081  157.4895 LP  0  0  0  0  0  0  0  0  0  0  0  0  # atno 17394 bound_to 11000
  139.8719  134.9813  156.5110 LP  0  0  0  0  0  0  0  0  0  0  0  0  # atno 17395 bound_to 11000

$$$$
