#       Name:                AV-unprocessed.smi:2568
#       Creating user name   scv26
#       Creation time:       Fri Mar 27 14:11:39 2020


#       File generated by GOLD software.
#

@<TRIPOS>MOLECULE
AV-unprocessed.smi:2568
    29    30     1
SMALL
NO_CHARGES


@<TRIPOS>ATOM
      1 ****        -4.2108   1.5425   0.4371 C.3            1 S1                 0.0000
      2 ****        -2.7282   1.4831   0.2886 C.2            1 S1                 0.0000
      3 ****        -1.9392   2.5337   0.0460 N.2            1 S1                 0.0000
      4 ****        -0.6537   2.0233  -0.0133 N.2            1 S1                 0.0000
      5 ****        -0.7803   0.7092   0.2009 C.2            1 S1                 0.0000
      6 ****         0.3502  -0.2711   0.2177 C.3            1 S1                 0.0000
      7 ****         0.8585  -0.6069  -1.1978 C.3            1 S1                 0.0000
      8 ****         2.0350  -1.4942  -1.1148 N.4            1 S1                 1.0000
      9 ****         3.0907  -0.9128  -0.2621 C.3            1 S1                 0.0000
     10 ****         2.5191  -0.5599   1.1224 C.3            1 S1                 0.0000
     11 ****         1.4063   0.3162   0.9741 O.3            1 S1                 0.0000
     12 ****        -2.0530   0.3293   0.3889 N.pl3          1 S1                 0.0000
     13 ****        -2.4160  -0.5961   0.5665 H              1 S1                 0.0000
     14 ****        -4.5494   2.5785   0.4729 H              1 S1                 0.0000
     15 ****        -4.5170   1.0455   1.3580 H              1 S1                 0.0000
     16 ****        -4.6913   1.0479  -0.4072 H              1 S1                 0.0000
     17 ****         0.0130  -1.1801   0.7199 H              1 S1                 0.0000
     18 ****         0.0781  -1.0936  -1.7833 H              1 S1                 0.0000
     19 ****         1.1391   0.3039  -1.7290 H              1 S1                 0.0000
     20 ****         1.7483  -2.3778  -0.7181 H              1 S1                 0.0000
     21 ****         3.9138  -1.6216  -0.1695 H              1 S1                 0.0000
     22 ****         3.4883  -0.0185  -0.7440 H              1 S1                 0.0000
     23 ****         2.2177  -1.4601   1.6606 H              1 S1                 0.0000
     24 ****         3.2792  -0.0668   1.7288 H              1 S1                 0.0000
     25 ****         2.4021  -1.6535  -2.0425 H              1 S1                 0.0000
     26 ****        -2.2183   3.4871  -0.0686 LP             1 S1                 0.0000
     27 ****         0.1917   2.5305  -0.1810 LP             1 S1                 0.0000
     28 ****         1.0591   0.5511   1.8820 LP             1 S1                 0.0000
     29 ****         1.7113   1.1470   0.5086 LP             1 S1                 0.0000
@<TRIPOS>BOND
    1    1   14 1     
    2    1   15 1     
    3    1   16 1     
    4    1    2 1     
    5    2    3 2     
    6    2   12 1     
    7    3    4 1     
    8    4    5 2     
    9    5   12 1     
   10    5    6 1     
   11    6   11 1     
   12    6    7 1     
   13    6   17 1     
   14    7    8 1     
   15    7   18 1     
   16    7   19 1     
   17    8    9 1     
   18    8   20 1     
   19    8   25 1     
   20    9   10 1     
   21    9   21 1     
   22    9   22 1     
   23   10   11 1     
   24   10   23 1     
   25   10   24 1     
   26   12   13 1     
   27    3   26 1     
   28    4   27 1     
   29   11   28 1     
   30   11   29 1     
@<TRIPOS>SUBSTRUCTURE
      1 S1             1
@<TRIPOS>SET
LONE_PAIRS      STATIC     ATOMS    <user>   **** ""
4 26 27 28 29
DONOR_HYDROGENS      STATIC     ATOMS    <user>   **** ""
3 20 25 13
ATOM$BLUE        STATIC     ATOMS    COLORGROUP SYSTEM
4 26 27 28 29
ATOM$RED        STATIC     ATOMS    COLORGROUP SYSTEM
3 20 25 13
