AV-unprocessed.smi:282|AV-procd|sdf|2123|dock9
  -GOLD-   2262021423D 1   1.00000     0.00000
 Structure written by MMmdl.
 65 69  0  0  0  0  0  0  0  0  2 V2000
  148.5592  141.3875  154.5576 C   0  0  0  0  0  0  0  0  0  0  0  0
  148.4301  140.5803  155.8600 C   0  0  0  0  0  0  0  0  0  0  0  0
  149.5440  140.8364  156.9093 C   0  0  2  0  0  0  0  0  0  0  0  0
  149.4482  142.2657  157.4865 C   0  0  0  0  0  0  0  0  0  0  0  0
  150.5174  142.5368  158.4776 N   0  3  2  0  0  0  0  0  0  0  0  0
  150.3805  143.8872  159.0818 C   0  0  0  0  0  0  0  0  0  0  0  0
  151.4377  144.1238  160.1711 C   0  0  0  0  0  0  0  0  0  0  0  0
  152.8489  143.9255  159.6070 C   0  0  0  0  0  0  0  0  0  0  0  0
  152.9652  142.5317  158.9779 C   0  0  0  0  0  0  0  0  0  0  0  0
  151.8752  142.2972  157.9124 C   0  0  1  0  0  0  0  0  0  0  0  0
  151.9769  140.8709  157.3427 C   0  0  0  0  0  0  0  0  0  0  0  0
  150.8990  140.5764  156.4033 N   0  0  0  0  0  0  0  0  0  0  0  0
  151.1190  139.3774  155.8141 C   0  0  0  0  0  0  0  0  0  0  0  0
  151.2532  139.2910  154.4642 N   0  0  0  0  0  0  0  0  0  0  0  0
  151.4537  138.1014  153.8891 C   0  0  0  0  0  0  0  0  0  0  0  0
  151.5449  136.9005  154.4651 N   0  0  0  0  0  0  0  0  0  0  0  0
  151.4016  136.9856  155.8191 C   0  0  0  0  0  0  0  0  0  0  0  0
  151.1788  138.1753  156.5661 C   0  0  0  0  0  0  0  0  0  0  0  0
  151.0675  137.8792  157.9178 N   0  0  0  0  0  0  0  0  0  0  0  0
  151.2179  136.5834  157.9683 C   0  0  0  0  0  0  0  0  0  0  0  0
  151.4422  135.9674  156.7565 N   0  0  0  0  0  0  0  0  0  0  0  0
  151.6458  134.5437  156.5267 C   0  0  0  0  0  0  0  0  0  0  0  0
  150.3737  133.7643  156.0770 C   0  0  0  0  0  0  0  0  0  0  0  0
  149.2170  133.9535  157.1002 C   0  0  0  0  0  0  0  0  0  0  0  0
  149.6322  133.7117  158.4296 O   0  0  0  0  0  0  0  0  0  0  0  0
  149.9668  134.2649  154.6680 C   0  0  0  0  0  0  0  0  0  0  0  0
  148.9049  133.3754  153.9966 C   0  0  0  0  0  0  0  0  0  0  0  0
  149.3712  132.0344  153.9238 O   0  0  0  0  0  0  0  0  0  0  0  0
  149.6090  131.4632  155.2035 C   0  0  0  0  0  0  0  0  0  0  0  0
  150.7031  132.2562  155.9420 C   0  0  0  0  0  0  0  0  0  0  0  0
  147.7666  141.1153  153.8605 H   0  0  0  0  0  0  0  0  0  0  0  0
  149.5096  141.1979  154.0590 H   0  0  0  0  0  0  0  0  0  0  0  0
  148.4787  142.4595  154.7341 H   0  0  0  0  0  0  0  0  0  0  0  0
  147.4620  140.7991  156.3119 H   0  0  0  0  0  0  0  0  0  0  0  0
  148.3893  139.5207  155.6080 H   0  0  0  0  0  0  0  0  0  0  0  0
  149.3744  140.1484  157.7392 H   0  0  0  0  0  0  0  0  0  0  0  0
  149.5259  143.0062  156.6896 H   0  0  0  0  0  0  0  0  0  0  0  0
  148.4741  142.4072  157.9566 H   0  0  0  0  0  0  0  0  0  0  0  0
  150.4714  144.6465  158.3034 H   0  0  0  0  0  0  0  0  0  0  0  0
  149.3847  143.9947  159.5138 H   0  0  0  0  0  0  0  0  0  0  0  0
  151.3369  145.1306  160.5772 H   0  0  0  0  0  0  0  0  0  0  0  0
  151.2719  143.4362  161.0017 H   0  0  0  0  0  0  0  0  0  0  0  0
  153.0601  144.6893  158.8575 H   0  0  0  0  0  0  0  0  0  0  0  0
  153.5915  144.0466  160.3961 H   0  0  0  0  0  0  0  0  0  0  0  0
  153.9542  142.4116  158.5337 H   0  0  0  0  0  0  0  0  0  0  0  0
  152.8855  141.7757  159.7604 H   0  0  0  0  0  0  0  0  0  0  0  0
  152.0281  143.0059  157.0961 H   0  0  0  0  0  0  0  0  0  0  0  0
  152.9424  140.7465  156.8495 H   0  0  0  0  0  0  0  0  0  0  0  0
  151.9428  140.1443  158.1566 H   0  0  0  0  0  0  0  0  0  0  0  0
  151.5553  138.1126  152.8139 H   0  0  0  0  0  0  0  0  0  0  0  0
  151.1770  136.0373  158.8997 H   0  0  0  0  0  0  0  0  0  0  0  0
  152.4378  134.4345  155.7846 H   0  0  0  0  0  0  0  0  0  0  0  0
  152.0467  134.1123  157.4450 H   0  0  0  0  0  0  0  0  0  0  0  0
  148.8082  134.9617  157.0647 H   0  0  0  0  0  0  0  0  0  0  0  0
  148.3838  133.2886  156.8721 H   0  0  0  0  0  0  0  0  0  0  0  0
  148.9156  133.3137  158.9002 H   0  0  0  0  0  0  0  0  0  0  0  0
  149.6130  135.2953  154.7106 H   0  0  0  0  0  0  0  0  0  0  0  0
  150.8458  134.2807  154.0221 H   0  0  0  0  0  0  0  0  0  0  0  0
  147.9520  133.4176  154.5246 H   0  0  0  0  0  0  0  0  0  0  0  0
  148.7135  133.7303  152.9837 H   0  0  0  0  0  0  0  0  0  0  0  0
  148.6827  131.4242  155.7776 H   0  0  0  0  0  0  0  0  0  0  0  0
  149.9312  130.4308  155.0674 H   0  0  0  0  0  0  0  0  0  0  0  0
  151.6343  132.1375  155.3868 H   0  0  0  0  0  0  0  0  0  0  0  0
  150.8749  131.8096  156.9218 H   0  0  0  0  0  0  0  0  0  0  0  0
  150.3949  141.8692  159.2256 H   0  0  0  0  0  0  0  0  0  0  0  0
  1  2  1  0  0  0  0
  1 31  1  0  0  0  0
  1 32  1  0  0  0  0
  1 33  1  0  0  0  0
  2  3  1  0  0  0  0
  2 34  1  0  0  0  0
  2 35  1  0  0  0  0
  3 12  1  0  0  0  0
  3  4  1  0  0  0  0
  3 36  1  0  0  0  0
  4  5  1  0  0  0  0
  4 37  1  0  0  0  0
  4 38  1  0  0  0  0
  5 10  1  0  0  0  0
  5  6  1  0  0  0  0
  5 65  1  0  0  0  0
  6  7  1  0  0  0  0
  6 39  1  0  0  0  0
  6 40  1  0  0  0  0
  7  8  1  0  0  0  0
  7 41  1  0  0  0  0
  7 42  1  0  0  0  0
  8  9  1  0  0  0  0
  8 43  1  0  0  0  0
  8 44  1  0  0  0  0
  9 10  1  0  0  0  0
  9 45  1  0  0  0  0
  9 46  1  0  0  0  0
 10 11  1  0  0  0  0
 10 47  1  0  0  0  0
 11 12  1  0  0  0  0
 11 48  1  0  0  0  0
 11 49  1  0  0  0  0
 12 13  1  0  0  0  0
 13 18  1  0  0  0  0
 13 14  2  0  0  0  0
 14 15  1  0  0  0  0
 15 16  2  0  0  0  0
 15 50  1  0  0  0  0
 16 17  1  0  0  0  0
 17 21  1  0  0  0  0
 17 18  2  0  0  0  0
 18 19  1  0  0  0  0
 19 20  2  0  0  0  0
 20 21  1  0  0  0  0
 20 51  1  0  0  0  0
 21 22  1  0  0  0  0
 22 23  1  0  0  0  0
 22 52  1  0  0  0  0
 22 53  1  0  0  0  0
 23 30  1  0  0  0  0
 23 24  1  0  0  0  0
 23 26  1  0  0  0  0
 24 25  1  0  0  0  0
 24 54  1  0  0  0  0
 24 55  1  0  0  0  0
 25 56  1  0  0  0  0
 26 27  1  0  0  0  0
 26 57  1  0  0  0  0
 26 58  1  0  0  0  0
 27 28  1  0  0  0  0
 27 59  1  0  0  0  0
 27 60  1  0  0  0  0
 28 29  1  0  0  0  0
 29 30  1  0  0  0  0
 29 61  1  0  0  0  0
 29 62  1  0  0  0  0
 30 63  1  0  0  0  0
 30 64  1  0  0  0  0
M  CHG  1   5   1
M  END
> <s_m_source_file>
AV-unprocessed.smi

> <i_m_source_file_index>
282

> <i_lp_mmshare_version>
43012

> <i_f3d_flags>
0

> <s_epik_input>
W0NIMl0xW0NIMl1bQ0gyXVtDSDJdW0NAQEhdKE4xMilbQ0gyXU4oW0NAQEhdKFtDSDJdMilbQ0gyXVtDSDNdKWMobltjSF1uMyljKGMzNCluW2NIXW40W0NIMl1DNShbQ0gyXVtPSF0pW0NIMl1bQ0gyXU9bQ0gyXVtDSDJdNQ==

> <s_epik_cmdline>
J2VwaWtfcHl0aG9uJywgJy1waCcsICc3LjAnLCAnLXRuJywgJzgnLCAnLW1hJywgJzIwMCcsICctbWV0YWxfYmluZGluZycsICctaW1hZScsICc8aW5maWxlLm1hZT4nLCAnLW9tYWUnLCAnPG91dGZpbGUubWFlPic=

> <r_lp_tautomer_probability>
1

> <r_epik_Ionization_Penalty>
0.00308583

> <r_epik_Ionization_Penalty_Charging>
0.00300384

> <r_epik_Ionization_Penalty_Neutral>
8.19894e-05

> <r_epik_State_Penalty>
-0

> <r_epik_Charging_Adjusted_Penalty>
0.00300384

> <i_epik_Tot_Q>
1

> <i_epik_Tot_abs_Q>
1

> <r_epik_Metal_State_Penalty>
-0

> <b_epik_Metal_Only>
0

> <s_lp_Force_Field>
OPLS_2005

> <r_lp_Energy>
57.4125

> <b_lp_Chiralities_Consistent>
1

> <s_lp_Variant>
AV-unprocessed.smi:282-7

> <Gold.Version>
5.8.1

> <Gold.Id.Protein>
6NUR|6NUR_protein|mol2

> <Gold.PLP.Fitness>
52.6058

> <Gold.PLP.PLP>
-42.3823

> <Gold.PLP.part.hbond>
-3.0000

> <Gold.PLP.part.metal>
0.0000

> <Gold.PLP.part.buried>
-5.0982

> <Gold.PLP.part.nonpolar>
-34.8515

> <Gold.PLP.part.repulsive>
0.5350

> <Gold.PLP.ligand.clash>
0.0000

> <Gold.PLP.ligand.torsion>
0.5784

> <Gold.PLP.Chemscore.Hbond>
3.0000

> <Gold.PLP.Chemscore.CHOScore>
0.7250

> <Gold.PLP.Chemscore.Metal>
0.0000

> <Gold.Chemscore.Hbonds>
donor molecule, donor type, donor heavy atom, donor atom, acceptor molecule, acceptor atom, score
      P1  H  6896  6908       L1    25  0.73
      P1  H  7989  7998       L1    14  1.00
      P1  H 10752 10763       L1    16  0.90
      L1  C    15    50       P1  7949  0.81

> <Gold.PLP.Chemscore.Internal.Correction>
0.2052

> <Gold.Rescore>
     Score         DG    S(hbond)    S(metal)    S(lipo)     H(rot)  DE(clash)    DE(int)     intcor
     20.85     -22.04       2.75        0.00     116.69       2.46       0.68       0.51       ----

> <Gold.Chemscore.Fitness>
20.8474

> <Gold.Chemscore.DG>
-22.0353

> <Gold.Chemscore.ZeroCoef>
-5.4800

> <Gold.Chemscore.Hbond>
2.7529

> <Gold.Chemscore.Metal>
0.0000

> <Gold.Chemscore.Lipo>
116.6852

> <Gold.Chemscore.Internal_Hbond>
0.0000

> <Gold.Chemscore.DEClash>
0.6764

> <Gold.Chemscore.DEInternal>
0.5114

> <Gold.Chemscore.Rot>
2.4576

> <Gold.Chemscore.Internal.Correction>
   9.000000E+99

> <Gold.Chemscore.Hbonds>
donor molecule, donor type, donor heavy atom, donor atom, acceptor molecule, acceptor atom, score
      P1  H  6896  6908       L1    25  0.54
      P1  H  7989  7998       L1    14  0.94
      P1  H 10752 10763       L1    16  0.18

> <Gold.Chemscore.Hbond.Weighted>
-9.1946

> <Gold.Chemscore.Metal.Weighted>
-0.0000

> <Gold.Chemscore.Lipo.Weighted>
-13.6522

> <Gold.Chemscore.Internal_Hbond.Weighted>
0.0000

> <Gold.Chemscore.DEClash.Weighted>
0.6764

> <Gold.Chemscore.DEInternal.Weighted>
0.5114

> <Gold.Chemscore.Rot.Weighted>
6.2915

> <Gold.Chemscore.Internal.Correction.Weighted>
   9.000000E+99

> <Gold.Protein.RotatedTorsions>
[ 6907 6896 6895 6894 ] final  119.29 input  -60.11 | X-H torsion
[ 7974 7965 7964 7962 ] final  -14.76 input  175.53 | X-H torsion
[ 8008 7997 7996 7995 ] final -176.66 input   59.86 | X-H torsion
[ 10167 10162 10161 10158 ] final  139.21 input  -65.29 | X-H torsion
[ 10718 10713 10712 10709 ] final -113.67 input   66.30 | X-H torsion
[ 10763 10752 10751 10750 ] final   50.09 input  -60.55 | X-H torsion
[ 11005 11000 10999 10996 ] final  -25.13 input  -57.11 | X-H torsion

> <Gold.Protein.ActiveResidues>
 VAL166  LYS551  ARG553  GLY616  TRP617  ASP618  TYR619  PRO620  LYS621  CYS622 
 ASP623  PHE694  ASN695  SER759  ASP760  ASP761  ALA762  ILE779  LEU786  VAL792 
 PHE793  MET794  SER795  GLU796  ALA797  LYS798  CYS799  TRP800  GLU811  SER814 

> <Gold.Protein.RotatedAtoms>
  152.4482  133.7578  159.6729 H   0  0  0  0  0  0  0  0  0  0  0  0  # atno 6907 bound_to 6896
  150.8388  133.7960  159.3075 H   0  0  0  0  0  0  0  0  0  0  0  0  # atno 6908 bound_to 6896
  151.5591  135.1068  160.0020 H   0  0  0  0  0  0  0  0  0  0  0  0  # atno 6909 bound_to 6896
  146.2061  140.3395  142.8407 H   0  0  0  0  0  0  0  0  0  0  0  0  # atno 7974 bound_to 7965
  155.9976  140.1214  157.0579 H   0  0  0  0  0  0  0  0  0  0  0  0  # atno 8008 bound_to 7997
  154.4231  140.1113  156.5720 H   0  0  0  0  0  0  0  0  0  0  0  0  # atno 8009 bound_to 7997
  155.6257  140.3472  155.4668 H   0  0  0  0  0  0  0  0  0  0  0  0  # atno 8010 bound_to 7997
  139.5086  144.6308  151.5823 H   0  0  0  0  0  0  0  0  0  0  0  0  # atno 10167 bound_to 10162
  156.0781  130.5985  150.8673 H   0  0  0  0  0  0  0  0  0  0  0  0  # atno 10718 bound_to 10713
  152.9785  135.5890  154.4195 H   0  0  0  0  0  0  0  0  0  0  0  0  # atno 10763 bound_to 10752
  154.3821  135.2767  155.2207 H   0  0  0  0  0  0  0  0  0  0  0  0  # atno 10764 bound_to 10752
  154.4116  135.6080  153.6010 H   0  0  0  0  0  0  0  0  0  0  0  0  # atno 10765 bound_to 10752
  140.8910  133.7588  156.0421 H   0  0  0  0  0  0  0  0  0  0  0  0  # atno 11005 bound_to 11000
  144.8795  140.7382  143.5995 LP  0  0  0  0  0  0  0  0  0  0  0  0  # atno 17320 bound_to 7965
  145.3315  139.1758  143.4534 LP  0  0  0  0  0  0  0  0  0  0  0  0  # atno 17321 bound_to 7965
  140.6040  143.9558  150.6405 LP  0  0  0  0  0  0  0  0  0  0  0  0  # atno 17342 bound_to 10162
  140.2779  143.3410  152.1178 LP  0  0  0  0  0  0  0  0  0  0  0  0  # atno 17343 bound_to 10162
  157.5886  131.0945  150.9156 LP  0  0  0  0  0  0  0  0  0  0  0  0  # atno 17370 bound_to 10713
  156.9337  130.5359  149.5279 LP  0  0  0  0  0  0  0  0  0  0  0  0  # atno 17371 bound_to 10713
  140.8347  134.3137  157.5336 LP  0  0  0  0  0  0  0  0  0  0  0  0  # atno 17394 bound_to 11000
  139.8729  134.9383  156.3710 LP  0  0  0  0  0  0  0  0  0  0  0  0  # atno 17395 bound_to 11000

$$$$
