AV-unprocessed.smi:3136|AV-procd|sdf|11950|dock5
  -GOLD-   2272017343D 1   1.00000     0.00000
 Structure written by MMmdl.
 40 40  0  0  0  0  0  0  0  0  2 V2000
  145.4359  131.8926  150.3665 C   0  0  0  0  0  0  0  0  0  0  0  0
  144.4644  132.9123  149.7574 C   0  0  0  0  0  0  0  0  0  0  0  0
  144.9336  134.2798  149.9479 N   0  0  0  0  0  0  0  0  0  0  0  0
  144.9138  134.9470  151.1120 C   0  0  0  0  0  0  0  0  0  0  0  0
  144.4810  134.4652  152.1591 O   0  0  0  0  0  0  0  0  0  0  0  0
  145.4681  136.3745  151.0848 C   0  0  0  0  0  0  0  0  0  0  0  0
  145.2542  137.1208  152.4120 C   0  0  0  0  0  0  0  0  0  0  0  0
  145.9588  138.4197  152.4095 N   0  3  0  0  0  0  0  0  0  0  0  0
  146.7818  138.6918  153.6118 C   0  0  2  0  0  0  0  0  0  0  0  0
  145.8416  138.8173  154.8221 C   0  0  0  0  0  0  0  0  0  0  0  0
  147.6599  139.9568  153.4032 C   0  0  1  0  0  0  0  0  0  0  0  0
  146.9288  141.2718  153.7358 C   0  0  0  0  0  0  0  0  0  0  0  0
  148.9006  139.8728  154.1665 N   0  0  0  0  0  0  0  0  0  0  0  0
  149.8809  138.8998  154.1273 C   0  0  0  0  0  0  0  0  0  0  0  0
  150.8724  139.2831  154.9841 C   0  0  0  0  0  0  0  0  0  0  0  0
  150.4101  140.5240  155.5027 C   0  0  0  0  0  0  0  0  0  0  0  0
  149.2360  140.8779  155.0058 N   0  0  0  0  0  0  0  0  0  0  0  0
  145.0889  130.8745  150.1891 H   0  0  0  0  0  0  0  0  0  0  0  0
  145.5292  132.0260  151.4446 H   0  0  0  0  0  0  0  0  0  0  0  0
  146.4305  131.9850  149.9289 H   0  0  0  0  0  0  0  0  0  0  0  0
  144.3669  132.7322  148.6867 H   0  0  0  0  0  0  0  0  0  0  0  0
  143.4677  132.7897  150.1845 H   0  0  0  0  0  0  0  0  0  0  0  0
  145.3031  134.7507  149.1346 H   0  0  0  0  0  0  0  0  0  0  0  0
  146.5357  136.3307  150.8614 H   0  0  0  0  0  0  0  0  0  0  0  0
  144.9966  136.9189  150.2658 H   0  0  0  0  0  0  0  0  0  0  0  0
  144.1910  137.2957  152.5840 H   0  0  0  0  0  0  0  0  0  0  0  0
  145.6170  136.5121  153.2403 H   0  0  0  0  0  0  0  0  0  0  0  0
  146.5608  138.4639  151.5992 H   0  0  0  0  0  0  0  0  0  0  0  0
  147.4333  137.8355  153.7967 H   0  0  0  0  0  0  0  0  0  0  0  0
  146.3951  138.8857  155.7585 H   0  0  0  0  0  0  0  0  0  0  0  0
  145.1916  137.9453  154.9036 H   0  0  0  0  0  0  0  0  0  0  0  0
  145.2049  139.6992  154.7427 H   0  0  0  0  0  0  0  0  0  0  0  0
  147.9326  140.0075  152.3471 H   0  0  0  0  0  0  0  0  0  0  0  0
  146.1061  141.4594  153.0466 H   0  0  0  0  0  0  0  0  0  0  0  0
  147.6042  142.1246  153.6592 H   0  0  0  0  0  0  0  0  0  0  0  0
  146.5203  141.2606  154.7465 H   0  0  0  0  0  0  0  0  0  0  0  0
  149.7965  138.0263  153.4977 H   0  0  0  0  0  0  0  0  0  0  0  0
  151.7906  138.7586  155.2040 H   0  0  0  0  0  0  0  0  0  0  0  0
  150.8919  141.1762  156.2162 H   0  0  0  0  0  0  0  0  0  0  0  0
  145.2627  139.1472  152.3316 H   0  0  0  0  0  0  0  0  0  0  0  0
  1  2  1  0  0  0  0
  1 18  1  0  0  0  0
  1 19  1  0  0  0  0
  1 20  1  0  0  0  0
  2  3  1  0  0  0  0
  2 21  1  0  0  0  0
  2 22  1  0  0  0  0
  3  4  1  0  0  0  0
  3 23  1  0  0  0  0
  4  5  2  0  0  0  0
  4  6  1  0  0  0  0
  6  7  1  0  0  0  0
  6 24  1  0  0  0  0
  6 25  1  0  0  0  0
  7  8  1  0  0  0  0
  7 26  1  0  0  0  0
  7 27  1  0  0  0  0
  8  9  1  0  0  0  0
  8 28  1  0  0  0  0
  8 40  1  0  0  0  0
  9 10  1  0  0  0  0
  9 11  1  0  0  0  0
  9 29  1  0  0  0  0
 10 30  1  0  0  0  0
 10 31  1  0  0  0  0
 10 32  1  0  0  0  0
 11 12  1  0  0  0  0
 11 13  1  0  0  0  0
 11 33  1  0  0  0  0
 12 34  1  0  0  0  0
 12 35  1  0  0  0  0
 12 36  1  0  0  0  0
 13 17  1  0  0  0  0
 13 14  1  0  0  0  0
 14 15  2  0  0  0  0
 14 37  1  0  0  0  0
 15 16  1  0  0  0  0
 15 38  1  0  0  0  0
 16 17  2  0  0  0  0
 16 39  1  0  0  0  0
M  CHG  1   8   1
M  END
> <s_m_source_file>
AV-unprocessed.smi

> <i_m_source_file_index>
3136

> <i_lp_mmshare_version>
43012

> <i_f3d_flags>
0

> <s_epik_input>
W0NIM11bQ0gyXVtOSF1DKD1PKVtDSDJdW0NIMl1bTkhdW0NASF0oW0NIM10pW0NASF0oW0NIM10pbjFbY0hdW2NIXVtjSF1uMQ==

> <s_epik_cmdline>
J2VwaWtfcHl0aG9uJywgJy1waCcsICc3LjAnLCAnLXRuJywgJzgnLCAnLW1hJywgJzIwMCcsICctbWV0YWxfYmluZGluZycsICctaW1hZScsICc8aW5maWxlLm1hZT4nLCAnLW9tYWUnLCAnPG91dGZpbGUubWFlPic=

> <r_lp_tautomer_probability>
1

> <r_epik_Ionization_Penalty>
0.00463447

> <r_epik_Ionization_Penalty_Charging>
0.00462393

> <r_epik_Ionization_Penalty_Neutral>
1.05394e-05

> <r_epik_State_Penalty>
-0

> <r_epik_Charging_Adjusted_Penalty>
0.00462393

> <i_epik_Tot_Q>
1

> <i_epik_Tot_abs_Q>
1

> <r_epik_Metal_State_Penalty>
-0

> <b_epik_Metal_Only>
0

> <s_lp_Force_Field>
OPLS_2005

> <r_lp_Energy>
10.6492

> <b_lp_Chiralities_Consistent>
1

> <s_lp_Variant>
AV-unprocessed.smi:3136-3

> <Gold.Version>
5.8.1

> <Gold.Id.Protein>
6NUR|6NUR_protein|mol2

> <Gold.PLP.Fitness>
40.6440

> <Gold.PLP.PLP>
-30.7678

> <Gold.PLP.part.hbond>
-2.0782

> <Gold.PLP.part.metal>
0.0000

> <Gold.PLP.part.buried>
0.2190

> <Gold.PLP.part.nonpolar>
-28.9966

> <Gold.PLP.part.repulsive>
0.3187

> <Gold.PLP.ligand.clash>
0.0000

> <Gold.PLP.ligand.torsion>
1.1651

> <Gold.PLP.Chemscore.Hbond>
3.0000

> <Gold.PLP.Chemscore.CHOScore>
1.0000

> <Gold.PLP.Chemscore.Metal>
0.0000

> <Gold.Chemscore.Hbonds>
donor molecule, donor type, donor heavy atom, donor atom, acceptor molecule, acceptor atom, score
      L1  H     3    23       P1  7921  1.00
      L1  H     8    40       P1 10175  1.85
      L1  C    14    37       P1  7948  1.00

> <Gold.PLP.Chemscore.Internal.Correction>
0.2064

> <Gold.Rescore>
     Score         DG    S(hbond)    S(metal)    S(lipo)     H(rot)  DE(clash)    DE(int)     intcor
     13.63     -14.83       1.97        0.00      74.37       2.32       0.14       1.06       ----

> <Gold.Chemscore.Fitness>
13.6316

> <Gold.Chemscore.DG>
-14.8344

> <Gold.Chemscore.ZeroCoef>
-5.4800

> <Gold.Chemscore.Hbond>
1.9707

> <Gold.Chemscore.Metal>
0.0000

> <Gold.Chemscore.Lipo>
74.3675

> <Gold.Chemscore.Internal_Hbond>
0.0000

> <Gold.Chemscore.DEClash>
0.1419

> <Gold.Chemscore.DEInternal>
1.0609

> <Gold.Chemscore.Rot>
2.3159

> <Gold.Chemscore.Internal.Correction>
   9.000000E+99

> <Gold.Chemscore.Hbonds>
donor molecule, donor type, donor heavy atom, donor atom, acceptor molecule, acceptor atom, score
      L1  H     3    23       P1  7921  0.98
      L1  H     8    40       P1 10175  0.89

> <Gold.Chemscore.Hbond.Weighted>
-6.5820

> <Gold.Chemscore.Metal.Weighted>
-0.0000

> <Gold.Chemscore.Lipo.Weighted>
-8.7010

> <Gold.Chemscore.Internal_Hbond.Weighted>
0.0000

> <Gold.Chemscore.DEClash.Weighted>
0.1419

> <Gold.Chemscore.DEInternal.Weighted>
1.0609

> <Gold.Chemscore.Rot.Weighted>
5.9286

> <Gold.Chemscore.Internal.Correction.Weighted>
   9.000000E+99

> <Gold.Protein.RotatedTorsions>
[ 6907 6896 6895 6894 ] final   88.09 input  -60.11 | X-H torsion
[ 7974 7965 7964 7962 ] final  -79.86 input  175.53 | X-H torsion
[ 8008 7997 7996 7995 ] final   78.58 input   59.86 | X-H torsion
[ 10167 10162 10161 10158 ] final  -52.76 input  -65.29 | X-H torsion
[ 10718 10713 10712 10709 ] final   92.87 input   66.30 | X-H torsion
[ 10763 10752 10751 10750 ] final -163.72 input  -60.55 | X-H torsion
[ 11005 11000 10999 10996 ] final  138.81 input  -57.11 | X-H torsion

> <Gold.Protein.ActiveResidues>
 VAL166  LYS551  ARG553  GLY616  TRP617  ASP618  TYR619  PRO620  LYS621  CYS622 
 ASP623  PHE694  ASN695  SER759  ASP760  ASP761  ALA762  ILE779  LEU786  VAL792 
 PHE793  MET794  SER795  GLU796  ALA797  LYS798  CYS799  TRP800  GLU811  SER814 

> <Gold.Protein.RotatedAtoms>
  152.5420  134.2175  159.8774 H   0  0  0  0  0  0  0  0  0  0  0  0  # atno 6907 bound_to 6896
  151.2154  133.4525  159.2607 H   0  0  0  0  0  0  0  0  0  0  0  0  # atno 6908 bound_to 6896
  151.0856  134.9898  159.8433 H   0  0  0  0  0  0  0  0  0  0  0  0  # atno 6909 bound_to 6896
  145.5676  140.9471  143.1413 H   0  0  0  0  0  0  0  0  0  0  0  0  # atno 7974 bound_to 7965
  155.8577  140.3455  155.5735 H   0  0  0  0  0  0  0  0  0  0  0  0  # atno 8008 bound_to 7997
  155.7968  140.0879  157.1998 H   0  0  0  0  0  0  0  0  0  0  0  0  # atno 8009 bound_to 7997
  154.4010  140.1473  156.3215 H   0  0  0  0  0  0  0  0  0  0  0  0  # atno 8010 bound_to 7997
  140.6520  143.2573  151.4695 H   0  0  0  0  0  0  0  0  0  0  0  0  # atno 10167 bound_to 10162
  157.6957  131.0458  150.3947 H   0  0  0  0  0  0  0  0  0  0  0  0  # atno 10718 bound_to 10713
  154.7096  135.3003  154.9218 H   0  0  0  0  0  0  0  0  0  0  0  0  # atno 10763 bound_to 10752
  154.0124  135.6693  153.4770 H   0  0  0  0  0  0  0  0  0  0  0  0  # atno 10764 bound_to 10752
  153.0744  135.5043  154.8286 H   0  0  0  0  0  0  0  0  0  0  0  0  # atno 10765 bound_to 10752
  140.0210  134.9396  157.0474 H   0  0  0  0  0  0  0  0  0  0  0  0  # atno 11005 bound_to 11000
  144.7453  139.7337  143.7295 LP  0  0  0  0  0  0  0  0  0  0  0  0  # atno 17320 bound_to 7965
  146.1807  139.4998  142.9868 LP  0  0  0  0  0  0  0  0  0  0  0  0  # atno 17321 bound_to 7965
  139.5737  144.1869  152.1873 LP  0  0  0  0  0  0  0  0  0  0  0  0  # atno 17342 bound_to 10162
  140.1173  144.5404  150.6886 LP  0  0  0  0  0  0  0  0  0  0  0  0  # atno 17343 bound_to 10162
  156.4347  130.3979  149.6737 LP  0  0  0  0  0  0  0  0  0  0  0  0  # atno 17370 bound_to 10713
  156.3942  130.7642  151.2645 LP  0  0  0  0  0  0  0  0  0  0  0  0  # atno 17371 bound_to 10713
  140.4387  134.1704  155.7172 LP  0  0  0  0  0  0  0  0  0  0  0  0  # atno 17394 bound_to 11000
  141.1774  133.8486  157.1376 LP  0  0  0  0  0  0  0  0  0  0  0  0  # atno 17395 bound_to 11000

$$$$
