#       Name:                AV-unprocessed.smi:1757
#       Creating user name   scv26
#       Creation time:       Fri Mar 27 08:29:55 2020


#       File generated by GOLD software.
#

@<TRIPOS>MOLECULE
AV-unprocessed.smi:1757
    44    45     1
SMALL
NO_CHARGES


@<TRIPOS>ATOM
      1 ****        -2.2930  -4.5389   0.2906 C.3            1 S1                 0.0000
      2 ****        -2.6002  -3.1058   0.0938 N.4            1 S1                 1.0000
      3 ****        -2.2769  -2.6421  -1.2785 C.3            1 S1                 0.0000
      4 ****        -2.7232  -1.1836  -1.4926 C.3            1 S1                 0.0000
      5 ****        -2.1290  -0.2365  -0.4347 C.3            1 S1                 0.0000
      6 ****        -0.6953  -0.0560  -0.6592 N.am           1 S1                 0.0000
      7 ****         0.0469   0.9500  -0.1740 C.2            1 S1                 0.0000
      8 ****        -0.4146   1.8443   0.5341 O.2            1 S1                 0.0000
      9 ****         1.3315   0.8187  -0.5507 N.am           1 S1                 0.0000
     10 ****         2.4351   1.6426  -0.2703 C.2            1 S1                 0.0000
     11 ****         2.3572   2.9131   0.2142 C.2            1 S1                 0.0000
     12 ****         3.5413   3.7221   0.4751 C.2            1 S1                 0.0000
     13 ****         3.4973   5.1015   1.1082 C.3            1 S1                 0.0000
     14 ****         4.5339   5.2864   1.9259 F              1 S1                 0.0000
     15 ****         3.5437   6.0372   0.1611 F              1 S1                 0.0000
     16 ****         2.3748   5.2719   1.8069 F              1 S1                 0.0000
     17 ****         4.7115   3.0491   0.1823 C.2            1 S1                 0.0000
     18 ****         4.8746   1.8073  -0.3244 N.pl3          1 S1                -1.0000
     19 ****         3.7608   1.0592  -0.5637 C.2            1 S1                 0.0000
     20 ****         3.8369  -0.0838  -1.0165 O.2            1 S1                 0.0000
     21 ****        -2.4251  -0.7830   0.9773 C.3            1 S1                 0.0000
     22 ****        -1.9788  -2.2474   1.1326 C.3            1 S1                 0.0000
     23 ****        -1.2234  -4.7274   0.1891 H              1 S1                 0.0000
     24 ****        -2.8202  -5.1498  -0.4430 H              1 S1                 0.0000
     25 ****        -2.6061  -4.8671   1.2824 H              1 S1                 0.0000
     26 ****        -1.2045  -2.7410  -1.4549 H              1 S1                 0.0000
     27 ****        -2.7761  -3.2828  -2.0064 H              1 S1                 0.0000
     28 ****        -2.4508  -0.8509  -2.4951 H              1 S1                 0.0000
     29 ****        -3.8121  -1.1349  -1.4438 H              1 S1                 0.0000
     30 ****        -2.6095   0.7377  -0.5439 H              1 S1                 0.0000
     31 ****        -0.2325  -0.7443  -1.2349 H              1 S1                 0.0000
     32 ****         1.5611  -0.0065  -1.0851 H              1 S1                 0.0000
     33 ****         1.4037   3.3763   0.4060 H              1 S1                 0.0000
     34 ****         5.6599   3.5883   0.3920 H              1 S1                 0.0000
     35 ****        -1.9491  -0.1646   1.7391 H              1 S1                 0.0000
     36 ****        -3.4972  -0.7168   1.1664 H              1 S1                 0.0000
     37 ****        -2.2621  -2.6087   2.1220 H              1 S1                 0.0000
     38 ****        -0.8919  -2.3219   1.0693 H              1 S1                 0.0000
     39 ****        -3.6001  -3.0104   0.2020 H              1 S1                 0.0000
     40 ****        -1.3857   1.8423   0.7725 LP             1 S1                 0.0000
     41 ****         0.1816   2.5730   0.8712 LP             1 S1                 0.0000
     42 ****         5.7871   1.4471  -0.5184 LP             1 S1                 0.0000
     43 ****         3.0043  -0.6119  -1.1836 LP             1 S1                 0.0000
     44 ****         4.7313  -0.4837  -1.2169 LP             1 S1                 0.0000
@<TRIPOS>BOND
    1    1    2 1     
    2    1   23 1     
    3    1   24 1     
    4    1   25 1     
    5    2   22 1     
    6    2    3 1     
    7    2   39 1     
    8    3    4 1     
    9    3   26 1     
   10    3   27 1     
   11    4    5 1     
   12    4   28 1     
   13    4   29 1     
   14    5    6 1     
   15    5   21 1     
   16    5   30 1     
   17    6    7 am    
   18    6   31 1     
   19    7    8 2     
   20    7    9 am    
   21    9   10 1     
   22    9   32 1     
   23   10   19 1     
   24   10   11 2     
   25   11   12 1     
   26   11   33 1     
   27   12   13 1     
   28   12   17 2     
   29   13   14 1     
   30   13   15 1     
   31   13   16 1     
   32   17   18 1     
   33   17   34 1     
   34   18   19 1     
   35   19   20 2     
   36   21   22 1     
   37   21   35 1     
   38   21   36 1     
   39   22   37 1     
   40   22   38 1     
   41    8   40 1     
   42    8   41 1     
   43   18   42 1     
   44   20   43 1     
   45   20   44 1     
@<TRIPOS>SUBSTRUCTURE
      1 S1             1
@<TRIPOS>SET
LONE_PAIRS      STATIC     ATOMS    <user>   **** ""
5 40 41 42 43 44
DONOR_HYDROGENS      STATIC     ATOMS    <user>   **** ""
3 39 31 32
ATOM$BLUE        STATIC     ATOMS    COLORGROUP SYSTEM
5 40 41 42 43 44
ATOM$RED        STATIC     ATOMS    COLORGROUP SYSTEM
3 39 31 32
