AV-unprocessed.smi:1643|AV-procd|sdf|6574|dock4
  -GOLD-   22720 7263D 1   1.00000     0.00000
 Structure written by MMmdl.
 54 56  0  0  0  0  0  0  0  0  2 V2000
  143.4617  139.8685  155.6913 C   0  0  0  0  0  0  0  0  0  0  0  0
  143.3971  141.3873  155.5094 C   0  0  0  0  0  0  0  0  0  0  0  0
  142.4009  141.8618  154.9641 O   0  0  0  0  0  0  0  0  0  0  0  0
  144.4215  142.1556  155.9556 N   0  0  0  0  0  0  0  0  0  0  0  0
  144.3607  143.6234  155.8955 C   0  0  0  0  0  0  0  0  0  0  0  0
  145.1396  144.1969  154.6888 C   0  0  0  0  0  0  0  0  0  0  0  0
  146.0283  143.1917  153.9202 C   0  0  0  0  0  0  0  0  0  0  0  0
  147.1640  142.6113  154.6981 N   0  3  2  0  0  0  0  0  0  0  0  0
  147.7377  141.3929  154.0636 C   0  0  0  0  0  0  0  0  0  0  0  0
  148.9869  140.8624  154.7949 C   0  0  1  0  0  0  0  0  0  0  0  0
  149.7933  140.1554  153.8717 O   0  0  0  0  0  0  0  0  0  0  0  0
  149.8115  142.0016  155.4242 C   0  0  0  0  0  0  0  0  0  0  0  0
  150.7704  141.5148  156.3995 N   0  0  0  0  0  0  0  0  0  0  0  0
  151.5081  140.3900  156.3279 C   0  0  0  0  0  0  0  0  0  0  0  0
  152.3280  140.1344  157.3432 N   0  0  0  0  0  0  0  0  0  0  0  0
  152.0986  141.2218  158.1685 C   0  0  0  0  0  0  0  0  0  0  0  0
  152.6577  141.5576  159.4209 C   0  0  0  0  0  0  0  0  0  0  0  0
  152.2691  142.7370  160.0955 C   0  0  0  0  0  0  0  0  0  0  0  0
  152.8947  143.0583  161.4414 C   0  0  0  0  0  0  0  0  0  0  0  0
  151.3063  143.6025  159.5166 C   0  0  0  0  0  0  0  0  0  0  0  0
  150.8729  144.8748  160.2234 C   0  0  0  0  0  0  0  0  0  0  0  0
  150.7386  143.2828  158.2656 C   0  0  0  0  0  0  0  0  0  0  0  0
  151.1322  142.1054  157.6054 C   0  0  0  0  0  0  0  0  0  0  0  0
  146.9355  142.4303  156.1611 C   0  0  0  0  0  0  0  0  0  0  0  0
  145.6674  141.6184  156.5312 C   0  0  0  0  0  0  0  0  0  0  0  0
  143.7014  139.6069  156.7225 H   0  0  0  0  0  0  0  0  0  0  0  0
  144.2114  139.4335  155.0303 H   0  0  0  0  0  0  0  0  0  0  0  0
  142.5008  139.4128  155.4497 H   0  0  0  0  0  0  0  0  0  0  0  0
  143.3326  143.9889  155.8755 H   0  0  0  0  0  0  0  0  0  0  0  0
  144.7612  144.0299  156.8248 H   0  0  0  0  0  0  0  0  0  0  0  0
  144.4148  144.6032  153.9824 H   0  0  0  0  0  0  0  0  0  0  0  0
  145.7375  145.0500  155.0113 H   0  0  0  0  0  0  0  0  0  0  0  0
  145.4062  142.3931  153.5132 H   0  0  0  0  0  0  0  0  0  0  0  0
  146.4432  143.7072  153.0544 H   0  0  0  0  0  0  0  0  0  0  0  0
  146.9911  140.5977  154.0385 H   0  0  0  0  0  0  0  0  0  0  0  0
  147.9761  141.6147  153.0222 H   0  0  0  0  0  0  0  0  0  0  0  0
  148.6955  140.1757  155.5887 H   0  0  0  0  0  0  0  0  0  0  0  0
  149.4424  140.2805  153.0029 H   0  0  0  0  0  0  0  0  0  0  0  0
  150.3448  142.5620  154.6547 H   0  0  0  0  0  0  0  0  0  0  0  0
  149.1522  142.7107  155.9265 H   0  0  0  0  0  0  0  0  0  0  0  0
  151.4367  139.7184  155.4849 H   0  0  0  0  0  0  0  0  0  0  0  0
  153.3910  140.8983  159.8618 H   0  0  0  0  0  0  0  0  0  0  0  0
  153.3797  144.0344  161.4157 H   0  0  0  0  0  0  0  0  0  0  0  0
  153.6483  142.3197  161.7170 H   0  0  0  0  0  0  0  0  0  0  0  0
  152.1337  143.0691  162.2221 H   0  0  0  0  0  0  0  0  0  0  0  0
  150.1151  145.4100  159.6505 H   0  0  0  0  0  0  0  0  0  0  0  0
  151.7229  145.5439  160.3604 H   0  0  0  0  0  0  0  0  0  0  0  0
  150.4515  144.6447  161.2022 H   0  0  0  0  0  0  0  0  0  0  0  0
  150.0050  143.9336  157.8137 H   0  0  0  0  0  0  0  0  0  0  0  0
  147.8078  141.9513  156.6071 H   0  0  0  0  0  0  0  0  0  0  0  0
  146.9129  143.4139  156.6300 H   0  0  0  0  0  0  0  0  0  0  0  0
  145.5574  141.5895  157.6160 H   0  0  0  0  0  0  0  0  0  0  0  0
  145.8443  140.5899  156.2190 H   0  0  0  0  0  0  0  0  0  0  0  0
  147.9009  143.3011  154.6499 H   0  0  0  0  0  0  0  0  0  0  0  0
  1  2  1  0  0  0  0
  1 26  1  0  0  0  0
  1 27  1  0  0  0  0
  1 28  1  0  0  0  0
  2  3  2  0  0  0  0
  2  4  1  0  0  0  0
  4 25  1  0  0  0  0
  4  5  1  0  0  0  0
  5  6  1  0  0  0  0
  5 29  1  0  0  0  0
  5 30  1  0  0  0  0
  6  7  1  0  0  0  0
  6 31  1  0  0  0  0
  6 32  1  0  0  0  0
  7  8  1  0  0  0  0
  7 33  1  0  0  0  0
  7 34  1  0  0  0  0
  8  9  1  0  0  0  0
  8 24  1  0  0  0  0
  8 54  1  0  0  0  0
  9 10  1  0  0  0  0
  9 35  1  0  0  0  0
  9 36  1  0  0  0  0
 10 11  1  0  0  0  0
 10 12  1  0  0  0  0
 10 37  1  0  0  0  0
 11 38  1  0  0  0  0
 12 13  1  0  0  0  0
 12 39  1  0  0  0  0
 12 40  1  0  0  0  0
 13 23  1  0  0  0  0
 13 14  1  0  0  0  0
 14 15  2  0  0  0  0
 14 41  1  0  0  0  0
 15 16  1  0  0  0  0
 16 23  2  0  0  0  0
 16 17  1  0  0  0  0
 17 18  2  0  0  0  0
 17 42  1  0  0  0  0
 18 19  1  0  0  0  0
 18 20  1  0  0  0  0
 19 43  1  0  0  0  0
 19 44  1  0  0  0  0
 19 45  1  0  0  0  0
 20 21  1  0  0  0  0
 20 22  2  0  0  0  0
 21 46  1  0  0  0  0
 21 47  1  0  0  0  0
 21 48  1  0  0  0  0
 22 23  1  0  0  0  0
 22 49  1  0  0  0  0
 24 25  1  0  0  0  0
 24 50  1  0  0  0  0
 24 51  1  0  0  0  0
 25 52  1  0  0  0  0
 25 53  1  0  0  0  0
M  CHG  1   8   1
M  END
> <s_m_source_file>
AV-unprocessed.smi

> <i_m_source_file_index>
1643

> <i_lp_mmshare_version>
43012

> <i_f3d_flags>
0

> <s_epik_input>
W0NIM11DKD1PKU4xW0NIMl1bQ0gyXVtDSDJdTihbQ0gyXVtDSDJdMSlbQ0gyXVtDQEhdKFtPSF0pW0NIMl1uKFtjSF1uMiljKGMyMylbY0hdYyhbQ0gzXSljKFtjSF0zKVtDSDNd

> <s_epik_cmdline>
J2VwaWtfcHl0aG9uJywgJy1waCcsICc3LjAnLCAnLXRuJywgJzgnLCAnLW1hJywgJzIwMCcsICctbWV0YWxfYmluZGluZycsICctaW1hZScsICc8aW5maWxlLm1hZT4nLCAnLW9tYWUnLCAnPG91dGZpbGUubWFlPic=

> <r_epik_Ionization_Penalty>
0.189467

> <r_epik_Ionization_Penalty_Charging>
0.101761

> <r_epik_Ionization_Penalty_Neutral>
0.0877056

> <r_epik_State_Penalty>
0.170758

> <r_epik_Charging_Adjusted_Penalty>
0.272519

> <i_epik_Tot_Q>
1

> <i_epik_Tot_abs_Q>
1

> <r_epik_Metal_State_Penalty>
0.0948013

> <b_epik_Metal_Only>
0

> <s_lp_Force_Field>
OPLS_2005

> <r_lp_Energy>
48.7512

> <b_lp_Chiralities_Consistent>
1

> <s_lp_Variant>
AV-unprocessed.smi:1643-3

> <Gold.Version>
5.8.1

> <Gold.Id.Protein>
6NUR|6NUR_protein|mol2

> <Gold.PLP.Fitness>
59.1333

> <Gold.PLP.PLP>
-46.9386

> <Gold.PLP.part.hbond>
-4.0000

> <Gold.PLP.part.metal>
0.0000

> <Gold.PLP.part.buried>
-5.1882

> <Gold.PLP.part.nonpolar>
-37.0656

> <Gold.PLP.part.repulsive>
0.2992

> <Gold.PLP.ligand.clash>
0.0124

> <Gold.PLP.ligand.torsion>
0.7698

> <Gold.PLP.Chemscore.Hbond>
4.5520

> <Gold.PLP.Chemscore.CHOScore>
0.0000

> <Gold.PLP.Chemscore.Metal>
0.0000

> <Gold.Chemscore.Hbonds>
donor molecule, donor type, donor heavy atom, donor atom, acceptor molecule, acceptor atom, score
      L1  H     8    54       P1  8028  1.82
      L1  H    11    38       P1  7957  0.98
      P1  H  7989  7998       L1    11  0.60
      P1  H  7997  8009       L1    15  0.67

> <Gold.PLP.Chemscore.Internal.Correction>
0.0908

> <Gold.Rescore>
     Score         DG    S(hbond)    S(metal)    S(lipo)     H(rot)  DE(clash)    DE(int)     intcor
     18.06     -21.65       2.41        0.00     115.62       2.12       1.25       2.34       ----

> <Gold.Chemscore.Fitness>
18.0604

> <Gold.Chemscore.DG>
-21.6480

> <Gold.Chemscore.ZeroCoef>
-5.4800

> <Gold.Chemscore.Hbond>
2.4138

> <Gold.Chemscore.Metal>
0.0000

> <Gold.Chemscore.Lipo>
115.6173

> <Gold.Chemscore.Internal_Hbond>
0.0000

> <Gold.Chemscore.DEClash>
1.2512

> <Gold.Chemscore.DEInternal>
2.3364

> <Gold.Chemscore.Rot>
2.1178

> <Gold.Chemscore.Internal.Correction>
   9.000000E+99

> <Gold.Chemscore.Hbonds>
donor molecule, donor type, donor heavy atom, donor atom, acceptor molecule, acceptor atom, score
      L1  H     8    54       P1  8028  0.68
      L1  H    11    38       P1  7957  0.93
      P1  H  7989  7998       L1    11  0.08
      P1  H  7997  8009       L1    15  0.41

> <Gold.Chemscore.Hbond.Weighted>
-8.0623

> <Gold.Chemscore.Metal.Weighted>
-0.0000

> <Gold.Chemscore.Lipo.Weighted>
-13.5272

> <Gold.Chemscore.Internal_Hbond.Weighted>
0.0000

> <Gold.Chemscore.DEClash.Weighted>
1.2512

> <Gold.Chemscore.DEInternal.Weighted>
2.3364

> <Gold.Chemscore.Rot.Weighted>
5.4215

> <Gold.Chemscore.Internal.Correction.Weighted>
   9.000000E+99

> <Gold.Protein.RotatedTorsions>
[ 6907 6896 6895 6894 ] final   90.39 input  -60.11 | X-H torsion
[ 7974 7965 7964 7962 ] final  -84.63 input  175.53 | X-H torsion
[ 8008 7997 7996 7995 ] final  173.28 input   59.86 | X-H torsion
[ 10167 10162 10161 10158 ] final   61.54 input  -65.29 | X-H torsion
[ 10718 10713 10712 10709 ] final -129.43 input   66.30 | X-H torsion
[ 10763 10752 10751 10750 ] final -145.61 input  -60.55 | X-H torsion
[ 11005 11000 10999 10996 ] final   60.33 input  -57.11 | X-H torsion

> <Gold.Protein.ActiveResidues>
 VAL166  LYS551  ARG553  GLY616  TRP617  ASP618  TYR619  PRO620  LYS621  CYS622 
 ASP623  PHE694  ASN695  SER759  ASP760  ASP761  ALA762  ILE779  LEU786  VAL792 
 PHE793  MET794  SER795  GLU796  ALA797  LYS798  CYS799  TRP800  GLU811  SER814 

> <Gold.Protein.RotatedAtoms>
  152.5444  134.1818  159.8638 H   0  0  0  0  0  0  0  0  0  0  0  0  # atno 6907 bound_to 6896
  151.1820  133.4712  159.2601 H   0  0  0  0  0  0  0  0  0  0  0  0  # atno 6908 bound_to 6896
  151.1169  135.0069  159.8575 H   0  0  0  0  0  0  0  0  0  0  0  0  # atno 6909 bound_to 6896
  145.5040  140.9545  143.1744 H   0  0  0  0  0  0  0  0  0  0  0  0  # atno 7974 bound_to 7965
  156.1091  140.1464  156.9363 H   0  0  0  0  0  0  0  0  0  0  0  0  # atno 8008 bound_to 7997
  154.4755  140.0896  156.7294 H   0  0  0  0  0  0  0  0  0  0  0  0  # atno 8009 bound_to 7997
  155.4627  140.3439  155.4317 H   0  0  0  0  0  0  0  0  0  0  0  0  # atno 8010 bound_to 7997
  140.1536  144.4438  150.6746 H   0  0  0  0  0  0  0  0  0  0  0  0  # atno 10167 bound_to 10162
  156.2046  130.6879  151.0579 H   0  0  0  0  0  0  0  0  0  0  0  0  # atno 10718 bound_to 10713
  154.8375  135.3408  154.6531 H   0  0  0  0  0  0  0  0  0  0  0  0  # atno 10763 bound_to 10752
  153.7145  135.6962  153.5033 H   0  0  0  0  0  0  0  0  0  0  0  0  # atno 10764 bound_to 10752
  153.2427  135.4379  155.0668 H   0  0  0  0  0  0  0  0  0  0  0  0  # atno 10765 bound_to 10752
  140.0240  134.6111  155.9600 H   0  0  0  0  0  0  0  0  0  0  0  0  # atno 11005 bound_to 11000
  144.7764  139.6621  143.7173 LP  0  0  0  0  0  0  0  0  0  0  0  0  # atno 17320 bound_to 7965
  146.2208  139.5632  142.9619 LP  0  0  0  0  0  0  0  0  0  0  0  0  # atno 17321 bound_to 7965
  140.6687  143.2277  151.5680 LP  0  0  0  0  0  0  0  0  0  0  0  0  # atno 17342 bound_to 10162
  139.5414  144.2638  152.1357 LP  0  0  0  0  0  0  0  0  0  0  0  0  # atno 17343 bound_to 10162
  157.7005  131.0778  150.6835 LP  0  0  0  0  0  0  0  0  0  0  0  0  # atno 17370 bound_to 10713
  156.6893  130.4590  149.5604 LP  0  0  0  0  0  0  0  0  0  0  0  0  # atno 17371 bound_to 10713
  141.1791  133.6544  156.4947 LP  0  0  0  0  0  0  0  0  0  0  0  0  # atno 17394 bound_to 11000
  140.4339  134.7077  157.4956 LP  0  0  0  0  0  0  0  0  0  0  0  0  # atno 17395 bound_to 11000

$$$$
