#       Name:                AV-unprocessed.smi:2119
#       Creating user name   scv26
#       Creation time:       Fri Mar 27 11:37:39 2020


#       File generated by GOLD software.
#

@<TRIPOS>MOLECULE
AV-unprocessed.smi:2119
    55    57     1
SMALL
NO_CHARGES


@<TRIPOS>ATOM
      1 ****        -2.9615   0.2925  -0.5122 O.2            1 S1                 0.0000
      2 ****        -2.0737   1.1446  -0.5114 C.2            1 S1                 0.0000
      3 ****        -0.7687   0.8467  -0.5455 N.am           1 S1                 0.0000
      4 ****        -0.2316  -0.5079  -0.5989 C.3            1 S1                 0.0000
      5 ****         1.3034  -0.5258  -0.3718 C.3            1 S1                 0.0000
      6 ****         1.7152   0.2019   0.9468 C.3            1 S1                 0.0000
      7 ****         3.1721   0.0543   1.3969 C.3            1 S1                 0.0000
      8 ****         3.0642  -0.3343   2.8712 C.3            1 S1                 0.0000
      9 ****         1.7997   0.1678   3.2716 O.3            1 S1                 0.0000
     10 ****         0.8957  -0.1003   2.2121 C.3            1 S1                 0.0000
     11 ****         1.9490  -1.8350  -0.5980 N.3            1 S1                 0.0000
     12 ****         1.8698  -2.2889  -1.9851 C.3            1 S1                 0.0000
     13 ****         2.6777  -3.5770  -2.2104 C.3            1 S1                 0.0000
     14 ****         2.2087  -4.5870  -1.3241 O.3            1 S1                 0.0000
     15 ****         2.3197  -4.2086   0.0437 C.3            1 S1                 0.0000
     16 ****         1.5321  -2.9110   0.2992 C.3            1 S1                 0.0000
     17 ****        -2.2650   2.4742  -0.4620 N.am           1 S1                 0.0000
     18 ****        -3.4860   3.2025  -0.4387 C.ar           1 S1                 0.0000
     19 ****        -4.7488   2.6680  -0.7942 C.ar           1 S1                 0.0000
     20 ****        -5.8802   3.5050  -0.7428 C.ar           1 S1                 0.0000
     21 ****        -5.7089   4.8452  -0.3463 C.ar           1 S1                 0.0000
     22 ****        -4.5110   5.3713  -0.0156 N.ar           1 S1                 0.0000
     23 ****        -3.4310   4.5628  -0.0665 C.ar           1 S1                 0.0000
     24 ****        -0.1019   1.6046  -0.5355 H              1 S1                 0.0000
     25 ****        -0.7349  -1.1274   0.1447 H              1 S1                 0.0000
     26 ****        -0.4898  -0.9184  -1.5744 H              1 S1                 0.0000
     27 ****         1.7095   0.1221  -1.1503 H              1 S1                 0.0000
     28 ****         1.5760   1.2690   0.7659 H              1 S1                 0.0000
     29 ****         3.7523  -0.6798   0.8386 H              1 S1                 0.0000
     30 ****         3.6862   1.0111   1.2967 H              1 S1                 0.0000
     31 ****         3.0739  -1.4192   2.9860 H              1 S1                 0.0000
     32 ****         3.8715   0.0794   3.4758 H              1 S1                 0.0000
     33 ****         0.0085   0.5283   2.2912 H              1 S1                 0.0000
     34 ****         0.5666  -1.1357   2.2712 H              1 S1                 0.0000
     35 ****         0.8339  -2.4808  -2.2638 H              1 S1                 0.0000
     36 ****         2.2388  -1.5108  -2.6541 H              1 S1                 0.0000
     37 ****         2.5626  -3.9221  -3.2379 H              1 S1                 0.0000
     38 ****         3.7419  -3.4009  -2.0468 H              1 S1                 0.0000
     39 ****         1.9346  -5.0141   0.6692 H              1 S1                 0.0000
     40 ****         3.3709  -4.0769   0.3049 H              1 S1                 0.0000
     41 ****         1.6982  -2.6268   1.3349 H              1 S1                 0.0000
     42 ****         0.4657  -3.1069   0.1823 H              1 S1                 0.0000
     43 ****        -1.4293   3.0372  -0.3984 H              1 S1                 0.0000
     44 ****        -4.8755   1.6466  -1.1161 H              1 S1                 0.0000
     45 ****        -6.8574   3.1289  -1.0067 H              1 S1                 0.0000
     46 ****        -6.5560   5.5135  -0.2982 H              1 S1                 0.0000
     47 ****        -2.4892   5.0191   0.2019 H              1 S1                 0.0000
     48 ****        -2.7228  -0.6782  -0.5393 LP             1 S1                 0.0000
     49 ****        -3.9216   0.5707  -0.4857 LP             1 S1                 0.0000
     50 ****         1.8567   1.1528   3.4342 LP             1 S1                 0.0000
     51 ****         1.4964  -0.2909   4.1069 LP             1 S1                 0.0000
     52 ****         2.9035  -1.6379  -0.3742 LP             1 S1                 0.0000
     53 ****         2.7461  -5.4174  -1.4714 LP             1 S1                 0.0000
     54 ****         1.2474  -4.7715  -1.5285 LP             1 S1                 0.0000
     55 ****        -4.4260   6.3293   0.2584 LP             1 S1                 0.0000
@<TRIPOS>BOND
    1    1    2 2     
    2    2    3 am    
    3    2   17 am    
    4    3    4 1     
    5    3   24 1     
    6    4    5 1     
    7    4   25 1     
    8    4   26 1     
    9    5    6 1     
   10    5   11 1     
   11    5   27 1     
   12    6   10 1     
   13    6    7 1     
   14    6   28 1     
   15    7    8 1     
   16    7   29 1     
   17    7   30 1     
   18    8    9 1     
   19    8   31 1     
   20    8   32 1     
   21    9   10 1     
   22   10   33 1     
   23   10   34 1     
   24   11   16 1     
   25   11   12 1     
   26   12   13 1     
   27   12   35 1     
   28   12   36 1     
   29   13   14 1     
   30   13   37 1     
   31   13   38 1     
   32   14   15 1     
   33   15   16 1     
   34   15   39 1     
   35   15   40 1     
   36   16   41 1     
   37   16   42 1     
   38   17   18 1     
   39   17   43 1     
   40   18   23 ar    
   41   18   19 ar    
   42   19   20 ar    
   43   19   44 1     
   44   20   21 ar    
   45   20   45 1     
   46   21   22 ar    
   47   21   46 1     
   48   22   23 ar    
   49   23   47 1     
   50    1   48 1     
   51    1   49 1     
   52    9   50 1     
   53    9   51 1     
   54   11   52 1     
   55   14   53 1     
   56   14   54 1     
   57   22   55 1     
@<TRIPOS>SUBSTRUCTURE
      1 S1             1
@<TRIPOS>SET
LONE_PAIRS      STATIC     ATOMS    <user>   **** ""
8 48 49 50 51 52 53 54 55
DONOR_HYDROGENS      STATIC     ATOMS    <user>   **** ""
2 24 43
ATOM$BLUE        STATIC     ATOMS    COLORGROUP SYSTEM
8 48 49 50 51 52 53 54 55
ATOM$RED        STATIC     ATOMS    COLORGROUP SYSTEM
2 24 43
