AV-unprocessed.smi:1485|AV-procd|sdf|6003|dock2
  -GOLD-   22720 6 93D 1   1.00000     0.00000
 Structure written by MMmdl.
 44 45  0  0  0  0  0  0  0  0  1 V2000
  157.0687  136.5912  165.1360 C   0  0  0  0  0  0  0  0  0  0  0  0
  156.3588  137.6261  164.4784 O   0  0  0  0  0  0  0  0  0  0  0  0
  154.9987  137.6864  164.8727 C   0  0  0  0  0  0  0  0  0  0  0  0
  154.2142  136.6024  164.1185 C   0  0  0  0  0  0  0  0  0  0  0  0
  154.3717  136.7380  162.6669 N   0  0  0  0  0  0  0  0  0  0  0  0
  154.2368  138.0363  162.2046 N   0  0  0  0  0  0  0  0  0  0  0  0
  154.3632  138.2937  160.9428 C   0  0  0  0  0  0  0  0  0  0  0  0
  154.2270  139.6760  160.4059 C   0  0  0  0  0  0  0  0  0  0  0  0
  154.4769  139.9450  159.2297 O   0  0  0  0  0  0  0  0  0  0  0  0
  153.8119  140.5981  161.2933 N   0  0  0  0  0  0  0  0  0  0  0  0
  153.5962  142.0130  161.0087 C   0  0  2  0  0  0  0  0  0  0  0  0
  152.8513  142.6655  162.1872 C   0  0  0  0  0  0  0  0  0  0  0  0
  152.5433  144.1437  161.9049 C   0  0  0  0  0  0  0  0  0  0  0  0
  151.7529  144.3079  160.5974 C   0  0  0  0  0  0  0  0  0  0  0  0
  152.4945  143.6697  159.4073 C   0  0  2  0  0  0  0  0  0  0  0  0
  151.7059  143.8326  158.1003 C   0  0  0  0  0  0  0  0  0  0  0  0
  152.8042  142.1879  159.6963 C   0  0  0  0  0  0  0  0  0  0  0  0
  154.6466  137.2320  159.9917 C   0  0  0  0  0  0  0  0  0  0  0  0
  154.7808  135.9713  160.4586 C   0  0  0  0  0  0  0  0  0  0  0  0
  154.6487  135.6540  161.8814 C   0  0  0  0  0  0  0  0  0  0  0  0
  154.7793  134.5164  162.3324 O   0  0  0  0  0  0  0  0  0  0  0  0
  158.1039  136.5826  164.7952 H   0  0  0  0  0  0  0  0  0  0  0  0
  156.6346  135.6144  164.9182 H   0  0  0  0  0  0  0  0  0  0  0  0
  157.0717  136.7403  166.2166 H   0  0  0  0  0  0  0  0  0  0  0  0
  154.9163  137.5281  165.9492 H   0  0  0  0  0  0  0  0  0  0  0  0
  154.5909  138.6742  164.6520 H   0  0  0  0  0  0  0  0  0  0  0  0
  154.5330  135.6117  164.4473 H   0  0  0  0  0  0  0  0  0  0  0  0
  153.1576  136.6692  164.3844 H   0  0  0  0  0  0  0  0  0  0  0  0
  153.6297  140.2918  162.2383 H   0  0  0  0  0  0  0  0  0  0  0  0
  154.5652  142.5056  160.9055 H   0  0  0  0  0  0  0  0  0  0  0  0
  151.9180  142.1330  162.3761 H   0  0  0  0  0  0  0  0  0  0  0  0
  153.4451  142.5820  163.0982 H   0  0  0  0  0  0  0  0  0  0  0  0
  151.9807  144.5709  162.7354 H   0  0  0  0  0  0  0  0  0  0  0  0
  153.4758  144.7061  161.8414 H   0  0  0  0  0  0  0  0  0  0  0  0
  150.7686  143.8508  160.7079 H   0  0  0  0  0  0  0  0  0  0  0  0
  151.5809  145.3677  160.4061 H   0  0  0  0  0  0  0  0  0  0  0  0
  153.4443  144.1923  159.2843 H   0  0  0  0  0  0  0  0  0  0  0  0
  150.7389  143.3315  158.1556 H   0  0  0  0  0  0  0  0  0  0  0  0
  152.2527  143.4093  157.2574 H   0  0  0  0  0  0  0  0  0  0  0  0
  151.5242  144.8847  157.8793 H   0  0  0  0  0  0  0  0  0  0  0  0
  153.3676  141.7640  158.8641 H   0  0  0  0  0  0  0  0  0  0  0  0
  151.8712  141.6247  159.7540 H   0  0  0  0  0  0  0  0  0  0  0  0
  154.7493  137.4373  158.9361 H   0  0  0  0  0  0  0  0  0  0  0  0
  154.9917  135.1724  159.7628 H   0  0  0  0  0  0  0  0  0  0  0  0
  1  2  1  0  0  0  0
  1 22  1  0  0  0  0
  1 23  1  0  0  0  0
  1 24  1  0  0  0  0
  2  3  1  0  0  0  0
  3  4  1  0  0  0  0
  3 25  1  0  0  0  0
  3 26  1  0  0  0  0
  4  5  1  0  0  0  0
  4 27  1  0  0  0  0
  4 28  1  0  0  0  0
  5 20  1  0  0  0  0
  5  6  1  0  0  0  0
  6  7  2  0  0  0  0
  7  8  1  0  0  0  0
  7 18  1  0  0  0  0
  8  9  2  0  0  0  0
  8 10  1  0  0  0  0
 10 11  1  0  0  0  0
 10 29  1  0  0  0  0
 11 17  1  0  0  0  0
 11 12  1  0  0  0  0
 11 30  1  0  0  0  0
 12 13  1  0  0  0  0
 12 31  1  0  0  0  0
 12 32  1  0  0  0  0
 13 14  1  0  0  0  0
 13 33  1  0  0  0  0
 13 34  1  0  0  0  0
 14 15  1  0  0  0  0
 14 35  1  0  0  0  0
 14 36  1  0  0  0  0
 15 16  1  0  0  0  0
 15 17  1  0  0  0  0
 15 37  1  0  0  0  0
 16 38  1  0  0  0  0
 16 39  1  0  0  0  0
 16 40  1  0  0  0  0
 17 41  1  0  0  0  0
 17 42  1  0  0  0  0
 18 19  2  0  0  0  0
 18 43  1  0  0  0  0
 19 20  1  0  0  0  0
 19 44  1  0  0  0  0
 20 21  2  0  0  0  0
M  END
> <s_m_source_file>
AV-unprocessed.smi

> <i_m_source_file_index>
1485

> <i_lp_mmshare_version>
43012

> <i_f3d_flags>
0

> <s_epik_input>
W0NIM11PW0NIMl1bQ0gyXW4xbmMoW2NIXVtjSF1jMT1PKUMoPU8pW05IXVtDQEBIXTJbQ0gyXVtDSDJdW0NIMl1bQ0BASF0oW0NIM10pW0NIMl0y

> <s_epik_cmdline>
J2VwaWtfcHl0aG9uJywgJy1waCcsICc3LjAnLCAnLXRuJywgJzgnLCAnLW1hJywgJzIwMCcsICctbWV0YWxfYmluZGluZycsICctaW1hZScsICc8aW5maWxlLm1hZT4nLCAnLW9tYWUnLCAnPG91dGZpbGUubWFlPic=

> <r_lp_tautomer_probability>
1

> <r_epik_Ionization_Penalty>
6.4688e-07

> <r_epik_Ionization_Penalty_Charging>
6.63567e-09

> <r_epik_Ionization_Penalty_Neutral>
6.40245e-07

> <r_epik_State_Penalty>
-0

> <r_epik_Charging_Adjusted_Penalty>
6.63567e-09

> <i_epik_Tot_Q>
0

> <i_epik_Tot_abs_Q>
0

> <r_epik_Metal_State_Penalty>
-0

> <b_epik_Metal_Only>
0

> <s_lp_Force_Field>
OPLS_2005

> <r_lp_Energy>
28.6474

> <b_lp_Chiralities_Consistent>
1

> <s_lp_Variant>
AV-unprocessed.smi:1485-3

> <Gold.Version>
5.8.1

> <Gold.Id.Protein>
6NUR|6NUR_protein|mol2

> <Gold.PLP.Fitness>
48.7246

> <Gold.PLP.PLP>
-46.5738

> <Gold.PLP.part.hbond>
-1.0000

> <Gold.PLP.part.metal>
0.0000

> <Gold.PLP.part.buried>
-6.1682

> <Gold.PLP.part.nonpolar>
-38.7686

> <Gold.PLP.part.repulsive>
0.0760

> <Gold.PLP.ligand.clash>
0.0000

> <Gold.PLP.ligand.torsion>
0.4370

> <Gold.PLP.Chemscore.Hbond>
1.0000

> <Gold.PLP.Chemscore.CHOScore>
0.0000

> <Gold.PLP.Chemscore.Metal>
0.0000

> <Gold.Chemscore.Hbonds>
donor molecule, donor type, donor heavy atom, donor atom, acceptor molecule, acceptor atom, score
      P1  H  7997  8010       L1     9  1.00

> <Gold.PLP.Chemscore.Internal.Correction>
0.0248

> <Gold.Rescore>
     Score         DG    S(hbond)    S(metal)    S(lipo)     H(rot)  DE(clash)    DE(int)     intcor
     14.73     -17.73       0.98        0.00     110.55       1.55       0.00       3.00       ----

> <Gold.Chemscore.Fitness>
14.7299

> <Gold.Chemscore.DG>
-17.7272

> <Gold.Chemscore.ZeroCoef>
-5.4800

> <Gold.Chemscore.Hbond>
0.9804

> <Gold.Chemscore.Metal>
0.0000

> <Gold.Chemscore.Lipo>
110.5534

> <Gold.Chemscore.Internal_Hbond>
0.0000

> <Gold.Chemscore.DEClash>
0.0000

> <Gold.Chemscore.DEInternal>
2.9973

> <Gold.Chemscore.Rot>
1.5478

> <Gold.Chemscore.Internal.Correction>
   9.000000E+99

> <Gold.Chemscore.Hbonds>
donor molecule, donor type, donor heavy atom, donor atom, acceptor molecule, acceptor atom, score
      P1  H  7997  8010       L1     9  0.94

> <Gold.Chemscore.Hbond.Weighted>
-3.2747

> <Gold.Chemscore.Metal.Weighted>
-0.0000

> <Gold.Chemscore.Lipo.Weighted>
-12.9347

> <Gold.Chemscore.Internal_Hbond.Weighted>
0.0000

> <Gold.Chemscore.DEClash.Weighted>
0.0000

> <Gold.Chemscore.DEInternal.Weighted>
2.9973

> <Gold.Chemscore.Rot.Weighted>
3.9623

> <Gold.Chemscore.Internal.Correction.Weighted>
   9.000000E+99

> <Gold.Protein.RotatedTorsions>
[ 6907 6896 6895 6894 ] final   76.21 input  -60.11 | X-H torsion
[ 7974 7965 7964 7962 ] final   42.59 input  175.53 | X-H torsion
[ 8008 7997 7996 7995 ] final    8.55 input   59.86 | X-H torsion
[ 10167 10162 10161 10158 ] final -153.58 input  -65.29 | X-H torsion
[ 10718 10713 10712 10709 ] final  -27.88 input   66.30 | X-H torsion
[ 10763 10752 10751 10750 ] final  -63.53 input  -60.55 | X-H torsion
[ 11005 11000 10999 10996 ] final    1.98 input  -57.11 | X-H torsion

> <Gold.Protein.ActiveResidues>
 VAL166  LYS551  ARG553  GLY616  TRP617  ASP618  TYR619  PRO620  LYS621  CYS622 
 ASP623  PHE694  ASN695  SER759  ASP760  ASP761  ALA762  ILE779  LEU786  VAL792 
 PHE793  MET794  SER795  GLU796  ALA797  LYS798  CYS799  TRP800  GLU811  SER814 

> <Gold.Protein.RotatedAtoms>
  152.5062  134.4003  159.9413 H   0  0  0  0  0  0  0  0  0  0  0  0  # atno 6907 bound_to 6896
  151.3966  133.3765  159.2735 H   0  0  0  0  0  0  0  0  0  0  0  0  # atno 6908 bound_to 6896
  150.9392  134.8824  159.7660 H   0  0  0  0  0  0  0  0  0  0  0  0  # atno 6909 bound_to 6896
  146.0727  139.5282  142.9587 H   0  0  0  0  0  0  0  0  0  0  0  0  # atno 7974 bound_to 7965
  154.7683  140.2797  155.6158 H   0  0  0  0  0  0  0  0  0  0  0  0  # atno 8008 bound_to 7997
  156.2929  140.2646  156.2406 H   0  0  0  0  0  0  0  0  0  0  0  0  # atno 8009 bound_to 7997
  154.9932  140.0373  157.2318 H   0  0  0  0  0  0  0  0  0  0  0  0  # atno 8010 bound_to 7997
  139.7085  143.9147  152.2458 H   0  0  0  0  0  0  0  0  0  0  0  0  # atno 10167 bound_to 10162
  156.4325  130.4448  149.7108 H   0  0  0  0  0  0  0  0  0  0  0  0  # atno 10718 bound_to 10713
  154.3164  135.6205  153.5488 H   0  0  0  0  0  0  0  0  0  0  0  0  # atno 10763 bound_to 10752
  152.9824  135.5713  154.5119 H   0  0  0  0  0  0  0  0  0  0  0  0  # atno 10764 bound_to 10752
  154.4779  135.2862  155.1570 H   0  0  0  0  0  0  0  0  0  0  0  0  # atno 10765 bound_to 10752
  140.6094  133.9762  155.8170 H   0  0  0  0  0  0  0  0  0  0  0  0  # atno 11005 bound_to 11000
  145.6362  141.0294  143.1836 LP  0  0  0  0  0  0  0  0  0  0  0  0  # atno 17320 bound_to 7965
  144.7242  139.7931  143.7371 LP  0  0  0  0  0  0  0  0  0  0  0  0  # atno 17321 bound_to 7965
  139.9009  144.6912  150.8666 LP  0  0  0  0  0  0  0  0  0  0  0  0  # atno 17342 bound_to 10162
  140.7727  143.3514  151.2007 LP  0  0  0  0  0  0  0  0  0  0  0  0  # atno 17343 bound_to 10162
  156.4005  130.7672  151.2680 LP  0  0  0  0  0  0  0  0  0  0  0  0  # atno 17370 bound_to 10713
  157.7508  131.0241  150.3862 LP  0  0  0  0  0  0  0  0  0  0  0  0  # atno 17371 bound_to 10713
  141.0818  134.0050  157.3374 LP  0  0  0  0  0  0  0  0  0  0  0  0  # atno 17394 bound_to 11000
  139.9198  135.0200  156.8023 LP  0  0  0  0  0  0  0  0  0  0  0  0  # atno 17395 bound_to 11000

$$$$
