AV-unprocessed.smi:2365|AV-procd|sdf|9421|dock1
  -GOLD-   2272013 53D 1   1.00000     0.00000
 Structure written by MMmdl.
 29 30  0  0  0  0  0  0  0  0  1 V2000
  151.4066  144.4641  160.7785 C   0  0  0  0  0  0  0  0  0  0  0  0
  152.1971  143.1536  160.8484 C   0  0  2  0  0  0  0  0  0  0  0  0
  153.5364  143.1932  160.1214 C   0  0  0  0  0  0  0  0  0  0  0  0
  153.8223  141.7183  159.9228 C   0  0  0  0  0  0  0  0  0  0  0  0
  152.4211  141.0927  159.7957 C   0  0  2  0  0  0  0  0  0  0  0  0
  152.0660  140.6405  158.3741 C   0  0  0  0  0  0  0  0  0  0  0  0
  152.7554  139.7901  157.8110 O   0  0  0  0  0  0  0  0  0  0  0  0
  150.9823  141.2246  157.8318 N   0  0  0  0  0  0  0  0  0  0  0  0
  150.4118  141.0116  156.5458 C   0  0  0  0  0  0  0  0  0  0  0  0
  151.0808  140.3265  155.5013 C   0  0  0  0  0  0  0  0  0  0  0  0
  150.5519  140.1401  154.2734 N   0  0  0  0  0  0  0  0  0  0  0  0
  149.3233  140.6405  154.0302 C   0  0  0  0  0  0  0  0  0  0  0  0
  148.5740  141.3522  154.9870 C   0  0  0  0  0  0  0  0  0  0  0  0
  147.0112  141.9655  154.5779 Cl  0  0  0  0  0  0  0  0  0  0  0  0
  149.1319  141.5466  156.2695 C   0  0  0  0  0  0  0  0  0  0  0  0
  148.2573  142.4200  157.4821 Cl  0  0  0  0  0  0  0  0  0  0  0  0
  151.5007  142.1140  160.1772 O   0  0  0  0  0  0  0  0  0  0  0  0
  151.9487  145.2748  161.2659 H   0  0  0  0  0  0  0  0  0  0  0  0
  150.4415  144.3621  161.2753 H   0  0  0  0  0  0  0  0  0  0  0  0
  151.2197  144.7582  159.7454 H   0  0  0  0  0  0  0  0  0  0  0  0
  152.3475  142.8581  161.8883 H   0  0  0  0  0  0  0  0  0  0  0  0
  153.4314  143.6855  159.1535 H   0  0  0  0  0  0  0  0  0  0  0  0
  154.3150  143.7072  160.6857 H   0  0  0  0  0  0  0  0  0  0  0  0
  154.4728  141.5376  159.0659 H   0  0  0  0  0  0  0  0  0  0  0  0
  154.3252  141.3150  160.8027 H   0  0  0  0  0  0  0  0  0  0  0  0
  152.3308  140.2555  160.4900 H   0  0  0  0  0  0  0  0  0  0  0  0
  150.4626  141.8403  158.4408 H   0  0  0  0  0  0  0  0  0  0  0  0
  152.0764  139.9295  155.6264 H   0  0  0  0  0  0  0  0  0  0  0  0
  148.9281  140.4731  153.0390 H   0  0  0  0  0  0  0  0  0  0  0  0
  1  2  1  0  0  0  0
  1 18  1  0  0  0  0
  1 19  1  0  0  0  0
  1 20  1  0  0  0  0
  2 17  1  0  0  0  0
  2  3  1  0  0  0  0
  2 21  1  0  0  0  0
  3  4  1  0  0  0  0
  3 22  1  0  0  0  0
  3 23  1  0  0  0  0
  4  5  1  0  0  0  0
  4 24  1  0  0  0  0
  4 25  1  0  0  0  0
  5  6  1  0  0  0  0
  5 17  1  0  0  0  0
  5 26  1  0  0  0  0
  6  7  2  0  0  0  0
  6  8  1  0  0  0  0
  8  9  1  0  0  0  0
  8 27  1  0  0  0  0
  9 15  1  0  0  0  0
  9 10  2  0  0  0  0
 10 11  1  0  0  0  0
 10 28  1  0  0  0  0
 11 12  2  0  0  0  0
 12 13  1  0  0  0  0
 12 29  1  0  0  0  0
 13 14  1  0  0  0  0
 13 15  2  0  0  0  0
 15 16  1  0  0  0  0
M  END
> <s_m_source_file>
AV-unprocessed.smi

> <i_m_source_file_index>
2365

> <i_lp_mmshare_version>
43012

> <i_f3d_flags>
0

> <s_epik_input>
W0NIM11bQ0BASF0xW0NIMl1bQ0gyXVtDQEhdKE8xKUMoPU8pW05IXWMyW2NIXW5bY0hdYyhDbCljMkNs

> <s_epik_cmdline>
J2VwaWtfcHl0aG9uJywgJy1waCcsICc3LjAnLCAnLXRuJywgJzgnLCAnLW1hJywgJzIwMCcsICctbWV0YWxfYmluZGluZycsICctaW1hZScsICc8aW5maWxlLm1hZT4nLCAnLW9tYWUnLCAnPG91dGZpbGUubWFlPic=

> <r_lp_tautomer_probability>
1

> <r_epik_Ionization_Penalty>
7.32461e-06

> <r_epik_Ionization_Penalty_Charging>
0

> <r_epik_Ionization_Penalty_Neutral>
7.32461e-06

> <r_epik_State_Penalty>
-0

> <r_epik_Charging_Adjusted_Penalty>
0

> <i_epik_Tot_Q>
0

> <i_epik_Tot_abs_Q>
0

> <r_epik_Metal_State_Penalty>
-0

> <b_epik_Metal_Only>
0

> <s_lp_Force_Field>
OPLS_2005

> <r_lp_Energy>
23.8837

> <b_lp_Chiralities_Consistent>
1

> <s_lp_Variant>
AV-unprocessed.smi:2365-3

> <Gold.Version>
5.8.1

> <Gold.Id.Protein>
6NUR|6NUR_protein|mol2

> <Gold.PLP.Fitness>
40.9550

> <Gold.PLP.PLP>
-32.4858

> <Gold.PLP.part.hbond>
-3.0000

> <Gold.PLP.part.metal>
0.0000

> <Gold.PLP.part.buried>
-2.2877

> <Gold.PLP.part.nonpolar>
-26.8816

> <Gold.PLP.part.repulsive>
0.2113

> <Gold.PLP.ligand.clash>
0.0000

> <Gold.PLP.ligand.torsion>
0.0443

> <Gold.PLP.Chemscore.Hbond>
1.8500

> <Gold.PLP.Chemscore.CHOScore>
1.0000

> <Gold.PLP.Chemscore.Metal>
0.0000

> <Gold.Chemscore.Hbonds>
donor molecule, donor type, donor heavy atom, donor atom, acceptor molecule, acceptor atom, score
      P1  H  7989  7998       L1    11  0.86
      P1  H  7997  8008       L1     7  1.00
      L1  C    12    29       P1  7957  1.00

> <Gold.PLP.Chemscore.Internal.Correction>
0.0079

> <Gold.Rescore>
     Score         DG    S(hbond)    S(metal)    S(lipo)     H(rot)  DE(clash)    DE(int)     intcor
     15.58     -17.34       1.04        0.00      93.49       1.00       0.45       1.31       ----

> <Gold.Chemscore.Fitness>
15.5820

> <Gold.Chemscore.DG>
-17.3440

> <Gold.Chemscore.ZeroCoef>
-5.4800

> <Gold.Chemscore.Hbond>
1.0435

> <Gold.Chemscore.Metal>
0.0000

> <Gold.Chemscore.Lipo>
93.4928

> <Gold.Chemscore.Internal_Hbond>
0.0000

> <Gold.Chemscore.DEClash>
0.4496

> <Gold.Chemscore.DEInternal>
1.3124

> <Gold.Chemscore.Rot>
1.0000

> <Gold.Chemscore.Internal.Correction>
   9.000000E+99

> <Gold.Chemscore.Hbonds>
donor molecule, donor type, donor heavy atom, donor atom, acceptor molecule, acceptor atom, score
      P1  H  7989  7998       L1    11  0.13
      P1  H  7997  8008       L1     7  0.97

> <Gold.Chemscore.Hbond.Weighted>
-3.4853

> <Gold.Chemscore.Metal.Weighted>
-0.0000

> <Gold.Chemscore.Lipo.Weighted>
-10.9387

> <Gold.Chemscore.Internal_Hbond.Weighted>
0.0000

> <Gold.Chemscore.DEClash.Weighted>
0.4496

> <Gold.Chemscore.DEInternal.Weighted>
1.3124

> <Gold.Chemscore.Rot.Weighted>
2.5600

> <Gold.Chemscore.Internal.Correction.Weighted>
   9.000000E+99

> <Gold.Protein.RotatedTorsions>
[ 6907 6896 6895 6894 ] final -141.38 input  -60.11 | X-H torsion
[ 7974 7965 7964 7962 ] final   42.07 input  175.53 | X-H torsion
[ 8008 7997 7996 7995 ] final  -75.85 input   59.86 | X-H torsion
[ 10167 10162 10161 10158 ] final -162.04 input  -65.29 | X-H torsion
[ 10718 10713 10712 10709 ] final -124.01 input   66.30 | X-H torsion
[ 10763 10752 10751 10750 ] final  -13.61 input  -60.55 | X-H torsion
[ 11005 11000 10999 10996 ] final   28.31 input  -57.11 | X-H torsion

> <Gold.Protein.ActiveResidues>
 VAL166  LYS551  ARG553  GLY616  TRP617  ASP618  TYR619  PRO620  LYS621  CYS622 
 ASP623  PHE694  ASN695  SER759  ASP760  ASP761  ALA762  ILE779  LEU786  VAL792 
 PHE793  MET794  SER795  GLU796  ALA797  LYS798  CYS799  TRP800  GLU811  SER814 

> <Gold.Protein.RotatedAtoms>
  151.0731  133.5450  159.2625 H   0  0  0  0  0  0  0  0  0  0  0  0  # atno 6907 bound_to 6896
  151.2382  135.0579  159.9024 H   0  0  0  0  0  0  0  0  0  0  0  0  # atno 6908 bound_to 6896
  152.5414  134.0509  159.8163 H   0  0  0  0  0  0  0  0  0  0  0  0  # atno 6909 bound_to 6896
  146.0771  139.5342  142.9561 H   0  0  0  0  0  0  0  0  0  0  0  0  # atno 7974 bound_to 7965
  154.5453  140.0737  156.8578 H   0  0  0  0  0  0  0  0  0  0  0  0  # atno 8008 bound_to 7997
  155.3100  140.3389  155.4226 H   0  0  0  0  0  0  0  0  0  0  0  0  # atno 8009 bound_to 7997
  156.1912  140.1687  156.8074 H   0  0  0  0  0  0  0  0  0  0  0  0  # atno 8010 bound_to 7997
  139.6421  144.0241  152.2099 H   0  0  0  0  0  0  0  0  0  0  0  0  # atno 10167 bound_to 10162
  156.1551  130.6562  150.9970 H   0  0  0  0  0  0  0  0  0  0  0  0  # atno 10718 bound_to 10713
  153.5158  135.7016  153.5757 H   0  0  0  0  0  0  0  0  0  0  0  0  # atno 10763 bound_to 10752
  153.3827  135.3916  155.1868 H   0  0  0  0  0  0  0  0  0  0  0  0  # atno 10764 bound_to 10752
  154.8699  135.3839  154.4642 H   0  0  0  0  0  0  0  0  0  0  0  0  # atno 10765 bound_to 10752
  140.3169  134.2586  155.7724 H   0  0  0  0  0  0  0  0  0  0  0  0  # atno 11005 bound_to 11000
  145.6287  141.0308  143.1875 LP  0  0  0  0  0  0  0  0  0  0  0  0  # atno 17320 bound_to 7965
  144.7268  139.7849  143.7362 LP  0  0  0  0  0  0  0  0  0  0  0  0  # atno 17321 bound_to 7965
  139.9933  144.6346  150.7795 LP  0  0  0  0  0  0  0  0  0  0  0  0  # atno 17342 bound_to 10162
  140.7496  143.2941  151.3251 LP  0  0  0  0  0  0  0  0  0  0  0  0  # atno 17343 bound_to 10162
  157.6688  131.0866  150.7662 LP  0  0  0  0  0  0  0  0  0  0  0  0  # atno 17370 bound_to 10713
  156.7728  130.4834  149.5415 LP  0  0  0  0  0  0  0  0  0  0  0  0  # atno 17371 bound_to 10713
  141.2095  133.7746  156.9990 LP  0  0  0  0  0  0  0  0  0  0  0  0  # atno 17394 bound_to 11000
  140.0975  134.9555  157.1872 LP  0  0  0  0  0  0  0  0  0  0  0  0  # atno 17395 bound_to 11000

$$$$
