AV-unprocessed.smi:40|AV-procd|sdf|375|dock3
  -GOLD-   2262016223D 1   1.00000     0.00000
 Structure written by MMmdl.
 47 48  0  0  0  0  0  0  0  0  1 V2000
  151.5355  144.9784  159.7828 C   0  0  0  0  0  0  0  0  0  0  0  0
  152.5208  144.4441  158.7375 C   0  0  0  0  0  0  0  0  0  0  0  0
  151.8223  143.9778  157.4524 C   0  0  0  0  0  0  0  0  0  0  0  0
  151.1338  142.6139  157.6163 C   0  0  0  0  0  0  0  0  0  0  0  0
  150.8431  141.9258  156.2722 C   0  0  0  0  0  0  0  0  0  0  0  0
  149.5144  141.4221  156.2299 O   0  0  0  0  0  0  0  0  0  0  0  0
  149.0958  140.6494  155.2032 C   0  0  0  0  0  0  0  0  0  0  0  0
  149.6977  140.5238  154.1372 O   0  0  0  0  0  0  0  0  0  0  0  0
  147.8233  140.0285  155.5098 N   0  0  0  0  0  0  0  0  0  0  0  0
  147.1223  139.1975  154.7089 C   0  0  0  0  0  0  0  0  0  0  0  0
  147.2449  139.3610  153.4044 N   0  0  0  0  0  0  0  0  0  0  0  0
  146.5879  138.5960  152.4772 C   0  0  0  0  0  0  0  0  0  0  0  0
  146.7474  138.7940  151.2738 O   0  0  0  0  0  0  0  0  0  0  0  0
  145.7375  137.5750  152.9633 N   0  0  0  0  0  0  0  0  0  0  0  0
  144.9658  136.7112  151.9904 C   0  0  2  0  0  0  0  0  0  0  0  0
  143.6366  136.6827  152.4098 O   0  0  0  0  0  0  0  0  0  0  0  0
  143.1118  135.3827  152.1955 C   0  0  2  0  0  0  0  0  0  0  0  0
  141.9075  135.1440  153.1130 C   0  0  0  0  0  0  0  0  0  0  0  0
  144.3012  134.4591  152.4678 C   0  0  1  0  0  0  0  0  0  0  0  0
  144.1432  133.2385  151.7723 O   0  0  0  0  0  0  0  0  0  0  0  0
  145.4812  135.2537  151.9189 C   0  0  2  0  0  0  0  0  0  0  0  0
  146.6546  135.0046  152.6726 O   0  0  0  0  0  0  0  0  0  0  0  0
  145.6120  137.3749  154.3296 C   0  0  0  0  0  0  0  0  0  0  0  0
  146.2685  138.1424  155.2251 C   0  0  0  0  0  0  0  0  0  0  0  0
  146.1388  137.9121  156.5432 F   0  0  0  0  0  0  0  0  0  0  0  0
  144.9965  137.2077  151.0200 H   0  0  0  0  0  0  0  0  0  0  0  0
  142.8095  135.3141  151.1486 H   0  0  0  0  0  0  0  0  0  0  0  0
  144.4100  134.2849  153.5397 H   0  0  0  0  0  0  0  0  0  0  0  0
  145.6625  135.0181  150.8690 H   0  0  0  0  0  0  0  0  0  0  0  0
  152.0601  145.2973  160.6837 H   0  0  0  0  0  0  0  0  0  0  0  0
  150.8140  144.2136  160.0711 H   0  0  0  0  0  0  0  0  0  0  0  0
  150.9811  145.8357  159.3997 H   0  0  0  0  0  0  0  0  0  0  0  0
  153.2464  145.2224  158.4981 H   0  0  0  0  0  0  0  0  0  0  0  0
  153.0859  143.6165  159.1678 H   0  0  0  0  0  0  0  0  0  0  0  0
  151.0844  144.7218  157.1497 H   0  0  0  0  0  0  0  0  0  0  0  0
  152.5538  143.9232  156.6452 H   0  0  0  0  0  0  0  0  0  0  0  0
  151.7437  141.9625  158.2433 H   0  0  0  0  0  0  0  0  0  0  0  0
  150.1920  142.7514  158.1482 H   0  0  0  0  0  0  0  0  0  0  0  0
  151.0200  142.6136  155.4440 H   0  0  0  0  0  0  0  0  0  0  0  0
  151.5304  141.0915  156.1306 H   0  0  0  0  0  0  0  0  0  0  0  0
  147.4856  140.1893  156.4473 H   0  0  0  0  0  0  0  0  0  0  0  0
  141.5011  134.1422  152.9715 H   0  0  0  0  0  0  0  0  0  0  0  0
  141.1118  135.8595  152.9045 H   0  0  0  0  0  0  0  0  0  0  0  0
  142.1828  135.2490  154.1628 H   0  0  0  0  0  0  0  0  0  0  0  0
  143.9487  132.5580  152.3986 H   0  0  0  0  0  0  0  0  0  0  0  0
  147.3931  135.3590  152.2017 H   0  0  0  0  0  0  0  0  0  0  0  0
  144.9798  136.5793  154.6974 H   0  0  0  0  0  0  0  0  0  0  0  0
  1  2  1  0  0  0  0
  1 30  1  0  0  0  0
  1 31  1  0  0  0  0
  1 32  1  0  0  0  0
  2  3  1  0  0  0  0
  2 33  1  0  0  0  0
  2 34  1  0  0  0  0
  3  4  1  0  0  0  0
  3 35  1  0  0  0  0
  3 36  1  0  0  0  0
  4  5  1  0  0  0  0
  4 37  1  0  0  0  0
  4 38  1  0  0  0  0
  5  6  1  0  0  0  0
  5 39  1  0  0  0  0
  5 40  1  0  0  0  0
  6  7  1  0  0  0  0
  7  8  2  0  0  0  0
  7  9  1  0  0  0  0
  9 10  1  0  0  0  0
  9 41  1  0  0  0  0
 10 24  1  0  0  0  0
 10 11  2  0  0  0  0
 11 12  1  0  0  0  0
 12 13  2  0  0  0  0
 12 14  1  0  0  0  0
 14 15  1  0  0  0  0
 14 23  1  0  0  0  0
 15 26  1  0  0  0  0
 15 21  1  0  0  0  0
 15 16  1  0  0  0  0
 16 17  1  0  0  0  0
 17 27  1  0  0  0  0
 17 18  1  0  0  0  0
 17 19  1  0  0  0  0
 18 42  1  0  0  0  0
 18 43  1  0  0  0  0
 18 44  1  0  0  0  0
 19 28  1  0  0  0  0
 19 20  1  0  0  0  0
 19 21  1  0  0  0  0
 20 45  1  0  0  0  0
 21 29  1  0  0  0  0
 21 22  1  0  0  0  0
 22 46  1  0  0  0  0
 23 24  2  0  0  0  0
 23 47  1  0  0  0  0
 24 25  1  0  0  0  0
M  END
> <s_m_source_file>
AV-unprocessed.smi

> <i_m_source_file_index>
40

> <i_lp_mmshare_version>
43012

> <i_f3d_flags>
0

> <s_epik_input>
W0NIM11bQ0gyXVtDSDJdW0NIMl1bQ0gyXU9DKD1PKVtOSF1jMW5jKD1PKW4oW2NIXWMxRilbQ0BASF0yT1tDQEhdKFtDSDNdKVtDQEBIXShbT0hdKVtDQEhdMltPSF0=

> <s_epik_cmdline>
J2VwaWtfcHl0aG9uJywgJy1waCcsICc3LjAnLCAnLXRuJywgJzgnLCAnLW1hJywgJzIwMCcsICctbWV0YWxfYmluZGluZycsICctaW1hZScsICc8aW5maWxlLm1hZT4nLCAnLW9tYWUnLCAnPG91dGZpbGUubWFlPic=

> <r_lp_tautomer_probability>
1

> <r_epik_Ionization_Penalty>
2.29506e-06

> <r_epik_Ionization_Penalty_Charging>
8.26867e-09

> <r_epik_Ionization_Penalty_Neutral>
2.2868e-06

> <r_epik_State_Penalty>
-0

> <r_epik_Charging_Adjusted_Penalty>
8.26867e-09

> <i_epik_Tot_Q>
0

> <i_epik_Tot_abs_Q>
0

> <r_epik_Metal_State_Penalty>
-0

> <b_epik_Metal_Only>
0

> <s_epik_Chemistry_Notes>
This compound has an ester and may undergo hydrolysis at high or low pH. This compound contains an acetal/aminal-like group ( X-CH(R)-Y where X, Y are N, S, or O) that may be acid/base labile, releasing an aldehyde.

> <s_lp_Force_Field>
OPLS_2005

> <r_lp_Energy>
38.1616

> <b_lp_Chiralities_Consistent>
1

> <s_lp_Variant>
AV-unprocessed.smi:40-9

> <Gold.Version>
5.8.1

> <Gold.Id.Protein>
6NUR|6NUR_protein|mol2

> <Gold.PLP.Fitness>
45.6723

> <Gold.PLP.PLP>
-39.3566

> <Gold.PLP.part.hbond>
-3.0000

> <Gold.PLP.part.metal>
0.0000

> <Gold.PLP.part.buried>
-9.3188

> <Gold.PLP.part.nonpolar>
-29.6430

> <Gold.PLP.part.repulsive>
2.6530

> <Gold.PLP.ligand.clash>
0.0000

> <Gold.PLP.ligand.torsion>
1.0547

> <Gold.PLP.Chemscore.Hbond>
2.7040

> <Gold.PLP.Chemscore.CHOScore>
0.0000

> <Gold.PLP.Chemscore.Metal>
0.0000

> <Gold.Chemscore.Hbonds>
donor molecule, donor type, donor heavy atom, donor atom, acceptor molecule, acceptor atom, score
      L1  H    22    46       P1  7948  1.00
      P1  H  7954  7966       L1    13  0.62
      P1  H  7989  7998       L1     8  0.66

> <Gold.PLP.Chemscore.Internal.Correction>
0.3132

> <Gold.Rescore>
     Score         DG    S(hbond)    S(metal)    S(lipo)     H(rot)  DE(clash)    DE(int)     intcor
     10.90     -13.56       2.65        0.00      74.33       3.70       0.46       2.20       ----

> <Gold.Chemscore.Fitness>
10.9028

> <Gold.Chemscore.DG>
-13.5633

> <Gold.Chemscore.ZeroCoef>
-5.4800

> <Gold.Chemscore.Hbond>
2.6489

> <Gold.Chemscore.Metal>
0.0000

> <Gold.Chemscore.Lipo>
74.3338

> <Gold.Chemscore.Internal_Hbond>
0.0000

> <Gold.Chemscore.DEClash>
0.4577

> <Gold.Chemscore.DEInternal>
2.2027

> <Gold.Chemscore.Rot>
3.6957

> <Gold.Chemscore.Internal.Correction>
   9.000000E+99

> <Gold.Chemscore.Hbonds>
donor molecule, donor type, donor heavy atom, donor atom, acceptor molecule, acceptor atom, score
      L1  H    22    46       P1  7948  1.00
      P1  H  7954  7966       L1    13  0.58
      P1  H  7989  7998       L1     8  0.63

> <Gold.Chemscore.Hbond.Weighted>
-8.8472

> <Gold.Chemscore.Metal.Weighted>
-0.0000

> <Gold.Chemscore.Lipo.Weighted>
-8.6970

> <Gold.Chemscore.Internal_Hbond.Weighted>
0.0000

> <Gold.Chemscore.DEClash.Weighted>
0.4577

> <Gold.Chemscore.DEInternal.Weighted>
2.2027

> <Gold.Chemscore.Rot.Weighted>
9.4610

> <Gold.Chemscore.Internal.Correction.Weighted>
   9.000000E+99

> <Gold.Protein.RotatedTorsions>
[ 6907 6896 6895 6894 ] final  157.92 input  -60.11 | X-H torsion
[ 7974 7965 7964 7962 ] final   -4.50 input  175.53 | X-H torsion
[ 8008 7997 7996 7995 ] final   74.27 input   59.86 | X-H torsion
[ 10167 10162 10161 10158 ] final -139.10 input  -65.29 | X-H torsion
[ 10718 10713 10712 10709 ] final   22.22 input   66.30 | X-H torsion
[ 10763 10752 10751 10750 ] final  123.78 input  -60.55 | X-H torsion
[ 11005 11000 10999 10996 ] final  109.86 input  -57.11 | X-H torsion

> <Gold.Protein.ActiveResidues>
 VAL166  LYS551  ARG553  GLY616  TRP617  ASP618  TYR619  PRO620  LYS621  CYS622 
 ASP623  PHE694  ASN695  SER759  ASP760  ASP761  ALA762  ILE779  LEU786  VAL792 
 PHE793  MET794  SER795  GLU796  ALA797  LYS798  CYS799  TRP800  GLU811  SER814 

> <Gold.Protein.RotatedAtoms>
  152.0080  133.3850  159.4208 H   0  0  0  0  0  0  0  0  0  0  0  0  # atno 6907 bound_to 6896
  150.6902  134.3761  159.5023 H   0  0  0  0  0  0  0  0  0  0  0  0  # atno 6908 bound_to 6896
  152.1518  134.8982  160.0598 H   0  0  0  0  0  0  0  0  0  0  0  0  # atno 6909 bound_to 6896
  146.2371  140.1880  142.8332 H   0  0  0  0  0  0  0  0  0  0  0  0  # atno 7974 bound_to 7965
  155.7958  140.3478  155.5375 H   0  0  0  0  0  0  0  0  0  0  0  0  # atno 8008 bound_to 7997
  155.8587  140.0968  157.1648 H   0  0  0  0  0  0  0  0  0  0  0  0  # atno 8009 bound_to 7997
  154.4011  140.1362  156.3922 H   0  0  0  0  0  0  0  0  0  0  0  0  # atno 8010 bound_to 7997
  139.8412  143.7319  152.2663 H   0  0  0  0  0  0  0  0  0  0  0  0  # atno 10167 bound_to 10162
  157.1493  130.6667  149.6006 H   0  0  0  0  0  0  0  0  0  0  0  0  # atno 10718 bound_to 10713
  153.6509  135.3363  155.3099 H   0  0  0  0  0  0  0  0  0  0  0  0  # atno 10763 bound_to 10752
  154.8538  135.4341  154.1905 H   0  0  0  0  0  0  0  0  0  0  0  0  # atno 10764 bound_to 10752
  153.2847  135.7012  153.7425 H   0  0  0  0  0  0  0  0  0  0  0  0  # atno 10765 bound_to 10752
  139.8870  134.9469  156.6190 H   0  0  0  0  0  0  0  0  0  0  0  0  # atno 11005 bound_to 11000
  144.9881  140.8521  143.5356 LP  0  0  0  0  0  0  0  0  0  0  0  0  # atno 17320 bound_to 7965
  145.1882  139.2315  143.5256 LP  0  0  0  0  0  0  0  0  0  0  0  0  # atno 17321 bound_to 7965
  139.7557  144.7521  151.0440 LP  0  0  0  0  0  0  0  0  0  0  0  0  # atno 17342 bound_to 10162
  140.7798  143.4809  151.0020 LP  0  0  0  0  0  0  0  0  0  0  0  0  # atno 17343 bound_to 10162
  155.9773  130.4750  150.6587 LP  0  0  0  0  0  0  0  0  0  0  0  0  # atno 17370 bound_to 10713
  157.4235  131.0840  151.1108 LP  0  0  0  0  0  0  0  0  0  0  0  0  # atno 17371 bound_to 10713
  140.7753  133.8704  155.8524 LP  0  0  0  0  0  0  0  0  0  0  0  0  # atno 17394 bound_to 11000
  140.9806  134.1410  157.4497 LP  0  0  0  0  0  0  0  0  0  0  0  0  # atno 17395 bound_to 11000

$$$$
