AV-unprocessed.smi:2108|AV-procd|sdf|8604|dock4
  -GOLD-   2272011343D 1   1.00000     0.00000
 Structure written by MMmdl.
 35 36  0  0  0  0  0  0  0  0  1 V2000
  153.3487  139.4360  154.9789 O   0  0  0  0  0  0  0  0  0  0  0  0
  152.1880  139.3408  155.8769 S   0  0  0  0  0  0  0  0  0  0  0  0
  151.8444  138.0793  156.5512 O   0  0  0  0  0  0  0  0  0  0  0  0
  152.3171  140.5747  157.0766 N   0  0  0  0  0  0  0  0  0  0  0  0
  152.0814  140.2460  158.4828 C   0  0  0  0  0  0  0  0  0  0  0  0
  152.8356  141.2214  159.3954 C   0  0  0  0  0  0  0  0  0  0  0  0
  152.3424  142.6471  159.2347 C   0  0  0  0  0  0  0  0  0  0  0  0
  152.3821  143.5494  160.3191 C   0  0  0  0  0  0  0  0  0  0  0  0
  151.8971  144.8568  160.1224 C   0  0  0  0  0  0  0  0  0  0  0  0
  151.3928  145.2094  158.8556 C   0  0  0  0  0  0  0  0  0  0  0  0
  151.3953  144.2348  157.8380 C   0  0  0  0  0  0  0  0  0  0  0  0
  151.8575  142.9781  158.0163 N   0  0  0  0  0  0  0  0  0  0  0  0
  150.7920  139.9114  155.0247 N   0  0  0  0  0  0  0  0  0  0  0  0
  150.0728  141.0593  155.5990 C   0  0  0  0  0  0  0  0  0  0  0  0
  149.0559  141.6273  154.5956 C   0  0  0  0  0  0  0  0  0  0  0  0
  148.1854  140.6000  154.1460 O   0  0  0  0  0  0  0  0  0  0  0  0
  148.8959  139.5786  153.4624 C   0  0  0  0  0  0  0  0  0  0  0  0
  149.9020  138.9094  154.4123 C   0  0  0  0  0  0  0  0  0  0  0  0
  151.9207  141.4664  156.7808 H   0  0  0  0  0  0  0  0  0  0  0  0
  151.0106  140.2871  158.6854 H   0  0  0  0  0  0  0  0  0  0  0  0
  152.4090  139.2234  158.6732 H   0  0  0  0  0  0  0  0  0  0  0  0
  152.7252  140.9188  160.4379 H   0  0  0  0  0  0  0  0  0  0  0  0
  153.9043  141.1891  159.1775 H   0  0  0  0  0  0  0  0  0  0  0  0
  152.7703  143.2470  161.2808 H   0  0  0  0  0  0  0  0  0  0  0  0
  151.9101  145.5751  160.9289 H   0  0  0  0  0  0  0  0  0  0  0  0
  151.0122  146.2027  158.6682 H   0  0  0  0  0  0  0  0  0  0  0  0
  151.0143  144.4701  156.8553 H   0  0  0  0  0  0  0  0  0  0  0  0
  149.5660  140.7386  156.5099 H   0  0  0  0  0  0  0  0  0  0  0  0
  150.7824  141.8367  155.8823 H   0  0  0  0  0  0  0  0  0  0  0  0
  148.4636  142.4111  155.0680 H   0  0  0  0  0  0  0  0  0  0  0  0
  149.5656  142.0852  153.7463 H   0  0  0  0  0  0  0  0  0  0  0  0
  148.1840  138.8407  153.0922 H   0  0  0  0  0  0  0  0  0  0  0  0
  149.4045  139.9931  152.5903 H   0  0  0  0  0  0  0  0  0  0  0  0
  150.4869  138.1694  153.8669 H   0  0  0  0  0  0  0  0  0  0  0  0
  149.3729  138.3777  155.2041 H   0  0  0  0  0  0  0  0  0  0  0  0
  1  2  2  0  0  0  0
  2  3  2  0  0  0  0
  2  4  1  0  0  0  0
  2 13  1  0  0  0  0
  4  5  1  0  0  0  0
  4 19  1  0  0  0  0
  5  6  1  0  0  0  0
  5 20  1  0  0  0  0
  5 21  1  0  0  0  0
  6  7  1  0  0  0  0
  6 22  1  0  0  0  0
  6 23  1  0  0  0  0
  7 12  1  0  0  0  0
  7  8  2  0  0  0  0
  8  9  1  0  0  0  0
  8 24  1  0  0  0  0
  9 10  2  0  0  0  0
  9 25  1  0  0  0  0
 10 11  1  0  0  0  0
 10 26  1  0  0  0  0
 11 12  2  0  0  0  0
 11 27  1  0  0  0  0
 13 18  1  0  0  0  0
 13 14  1  0  0  0  0
 14 15  1  0  0  0  0
 14 28  1  0  0  0  0
 14 29  1  0  0  0  0
 15 16  1  0  0  0  0
 15 30  1  0  0  0  0
 15 31  1  0  0  0  0
 16 17  1  0  0  0  0
 17 18  1  0  0  0  0
 17 32  1  0  0  0  0
 17 33  1  0  0  0  0
 18 34  1  0  0  0  0
 18 35  1  0  0  0  0
M  END
> <s_m_source_file>
AV-unprocessed.smi

> <i_m_source_file_index>
2108

> <i_lp_mmshare_version>
43012

> <i_f3d_flags>
0

> <s_epik_input>
W0NIMl0xW0NIMl1PW0NIMl1bQ0gyXU4xUyg9TykoPU8pW05IXVtDSDJdW0NIMl1jMltjSF1bY0hdW2NIXVtjSF1uMg==

> <s_epik_cmdline>
J2VwaWtfcHl0aG9uJywgJy1waCcsICc3LjAnLCAnLXRuJywgJzgnLCAnLW1hJywgJzIwMCcsICctbWV0YWxfYmluZGluZycsICctaW1hZScsICc8aW5maWxlLm1hZT4nLCAnLW9tYWUnLCAnPG91dGZpbGUubWFlPic=

> <r_epik_Ionization_Penalty>
0.085378

> <r_epik_Ionization_Penalty_Charging>
0

> <r_epik_Ionization_Penalty_Neutral>
0.085378

> <r_epik_State_Penalty>
0.0441186

> <r_epik_Charging_Adjusted_Penalty>
0.0441186

> <i_epik_Tot_Q>
0

> <i_epik_Tot_abs_Q>
0

> <r_epik_Metal_State_Penalty>
0.24397

> <b_epik_Metal_Only>
0

> <s_lp_Force_Field>
OPLS_2005

> <r_lp_Energy>
7.91242

> <b_lp_Chiralities_Consistent>
1

> <s_lp_Variant>
AV-unprocessed.smi:2108-1

> <Gold.Version>
5.8.1

> <Gold.Id.Protein>
6NUR|6NUR_protein|mol2

> <Gold.PLP.Fitness>
44.1477

> <Gold.PLP.PLP>
-37.5185

> <Gold.PLP.part.hbond>
-3.4670

> <Gold.PLP.part.metal>
0.0000

> <Gold.PLP.part.buried>
2.6477

> <Gold.PLP.part.nonpolar>
-36.4648

> <Gold.PLP.part.repulsive>
0.2186

> <Gold.PLP.ligand.clash>
0.7117

> <Gold.PLP.ligand.torsion>
1.2604

> <Gold.PLP.Chemscore.Hbond>
2.0000

> <Gold.PLP.Chemscore.CHOScore>
1.0000

> <Gold.PLP.Chemscore.Metal>
0.0000

> <Gold.Chemscore.Hbonds>
donor molecule, donor type, donor heavy atom, donor atom, acceptor molecule, acceptor atom, score
      P1  H  7989  7998       L1    13  0.85
      P1  H  7997  8008       L1     1  1.00
      L1  C    11    27       P1  8028  1.00

> <Gold.PLP.Chemscore.Internal.Correction>
0.8618

> <Gold.Rescore>
     Score         DG    S(hbond)    S(metal)    S(lipo)     H(rot)  DE(clash)    DE(int)     intcor
     12.75     -15.49       0.93        0.00      99.11       1.84       0.04       2.70       ----

> <Gold.Chemscore.Fitness>
12.7491

> <Gold.Chemscore.DG>
-15.4920

> <Gold.Chemscore.ZeroCoef>
-5.4800

> <Gold.Chemscore.Hbond>
0.9346

> <Gold.Chemscore.Metal>
0.0000

> <Gold.Chemscore.Lipo>
99.1110

> <Gold.Chemscore.Internal_Hbond>
0.0000

> <Gold.Chemscore.DEClash>
0.0440

> <Gold.Chemscore.DEInternal>
2.6989

> <Gold.Chemscore.Rot>
1.8382

> <Gold.Chemscore.Internal.Correction>
   9.000000E+99

> <Gold.Chemscore.Hbonds>
donor molecule, donor type, donor heavy atom, donor atom, acceptor molecule, acceptor atom, score
      P1  H  7989  7998       L1    13  0.02
      P1  H  7997  8008       L1     1  0.81

> <Gold.Chemscore.Hbond.Weighted>
-3.1217

> <Gold.Chemscore.Metal.Weighted>
-0.0000

> <Gold.Chemscore.Lipo.Weighted>
-11.5960

> <Gold.Chemscore.Internal_Hbond.Weighted>
0.0000

> <Gold.Chemscore.DEClash.Weighted>
0.0440

> <Gold.Chemscore.DEInternal.Weighted>
2.6989

> <Gold.Chemscore.Rot.Weighted>
4.7057

> <Gold.Chemscore.Internal.Correction.Weighted>
   9.000000E+99

> <Gold.Protein.RotatedTorsions>
[ 6907 6896 6895 6894 ] final -151.10 input  -60.11 | X-H torsion
[ 7974 7965 7964 7962 ] final -116.81 input  175.53 | X-H torsion
[ 8008 7997 7996 7995 ] final   -0.50 input   59.86 | X-H torsion
[ 10167 10162 10161 10158 ] final  170.04 input  -65.29 | X-H torsion
[ 10718 10713 10712 10709 ] final  -27.09 input   66.30 | X-H torsion
[ 10763 10752 10751 10750 ] final  146.87 input  -60.55 | X-H torsion
[ 11005 11000 10999 10996 ] final  -71.03 input  -57.11 | X-H torsion

> <Gold.Protein.ActiveResidues>
 VAL166  LYS551  ARG553  GLY616  TRP617  ASP618  TYR619  PRO620  LYS621  CYS622 
 ASP623  PHE694  ASN695  SER759  ASP760  ASP761  ALA762  ILE779  LEU786  VAL792 
 PHE793  MET794  SER795  GLU796  ALA797  LYS798  CYS799  TRP800  GLU811  SER814 

> <Gold.Protein.RotatedAtoms>
  151.2082  133.4571  159.2597 H   0  0  0  0  0  0  0  0  0  0  0  0  # atno 6907 bound_to 6896
  151.1003  134.9968  159.8455 H   0  0  0  0  0  0  0  0  0  0  0  0  # atno 6908 bound_to 6896
  152.5442  134.2009  159.8764 H   0  0  0  0  0  0  0  0  0  0  0  0  # atno 6909 bound_to 6896
  145.0924  140.8499  143.3974 H   0  0  0  0  0  0  0  0  0  0  0  0  # atno 7974 bound_to 7965
  154.6573  140.2582  155.7147 H   0  0  0  0  0  0  0  0  0  0  0  0  # atno 8008 bound_to 7997
  156.2603  140.2856  156.0953 H   0  0  0  0  0  0  0  0  0  0  0  0  # atno 8009 bound_to 7997
  155.1360  140.0379  157.2777 H   0  0  0  0  0  0  0  0  0  0  0  0  # atno 8010 bound_to 7997
  139.5008  144.3640  151.9795 H   0  0  0  0  0  0  0  0  0  0  0  0  # atno 10167 bound_to 10162
  156.4427  130.4467  149.7042 H   0  0  0  0  0  0  0  0  0  0  0  0  # atno 10718 bound_to 10713
  154.0291  135.2899  155.3371 H   0  0  0  0  0  0  0  0  0  0  0  0  # atno 10763 bound_to 10752
  154.6999  135.5192  153.8515 H   0  0  0  0  0  0  0  0  0  0  0  0  # atno 10764 bound_to 10752
  153.0648  135.6627  154.0505 H   0  0  0  0  0  0  0  0  0  0  0  0  # atno 10765 bound_to 10752
  141.1585  133.6806  156.6843 H   0  0  0  0  0  0  0  0  0  0  0  0  # atno 11005 bound_to 11000
  145.1050  139.2796  143.5667 LP  0  0  0  0  0  0  0  0  0  0  0  0  # atno 17320 bound_to 7965
  146.3531  140.0628  142.8628 LP  0  0  0  0  0  0  0  0  0  0  0  0  # atno 17321 bound_to 7965
  140.3076  144.3575  150.6042 LP  0  0  0  0  0  0  0  0  0  0  0  0  # atno 17342 bound_to 10162
  140.5824  143.2172  151.7404 LP  0  0  0  0  0  0  0  0  0  0  0  0  # atno 17343 bound_to 10162
  156.3900  130.7622  151.2622 LP  0  0  0  0  0  0  0  0  0  0  0  0  # atno 17370 bound_to 10713
  157.7506  131.0271  150.3989 LP  0  0  0  0  0  0  0  0  0  0  0  0  # atno 17371 bound_to 10713
  140.3079  134.8110  157.4152 LP  0  0  0  0  0  0  0  0  0  0  0  0  # atno 17394 bound_to 11000
  140.1204  134.5227  155.8188 LP  0  0  0  0  0  0  0  0  0  0  0  0  # atno 17395 bound_to 11000

$$$$
