AV-unprocessed.smi:3303|AV-procd|sdf|12668|dock5
  -GOLD-   2272019 03D 1   1.00000     0.00000
 Structure written by MMmdl.
 45 46  0  0  0  0  0  0  0  0  3 V2000
  150.8813  139.7366  155.3499 C   0  0  0  0  0  0  0  0  0  0  0  0
  149.7982  140.3886  154.4717 C   0  0  1  0  0  0  0  0  0  0  0  0
  148.8703  139.3021  153.8863 C   0  0  0  0  0  0  0  0  0  0  0  0
  147.8054  139.8893  153.0351 N   0  3  1  0  0  0  0  0  0  0  0  0
  147.0296  138.8658  152.2976 C   0  0  0  0  0  0  0  0  0  0  0  0
  146.9676  140.8939  153.7493 C   0  0  1  0  0  0  0  0  0  0  0  0
  146.0291  140.2793  154.8105 C   0  0  0  0  0  0  0  0  0  0  0  0
  147.8625  142.0053  154.3328 C   0  0  0  0  0  0  0  0  0  0  0  0
  148.9821  141.4530  155.2423 C   0  0  2  0  0  0  0  0  0  0  0  0
  149.8659  142.5473  155.7092 N   0  3  0  0  0  0  0  0  0  0  0  0
  150.4088  142.3810  157.0735 C   0  0  0  0  0  0  0  0  0  0  0  0
  151.7052  143.1829  157.2508 C   0  0  0  0  0  0  0  0  0  0  0  0
  151.8734  143.6866  158.6713 C   0  0  0  0  0  0  0  0  0  0  0  0
  151.4459  144.9817  159.0338 C   0  0  0  0  0  0  0  0  0  0  0  0
  151.6363  145.4022  160.3645 C   0  0  0  0  0  0  0  0  0  0  0  0
  152.2444  144.5168  161.2750 C   0  0  0  0  0  0  0  0  0  0  0  0
  152.6374  143.2450  160.8132 C   0  0  0  0  0  0  0  0  0  0  0  0
  152.4606  142.8323  159.5390 N   0  0  0  0  0  0  0  0  0  0  0  0
  150.4444  139.2439  156.2192 H   0  0  0  0  0  0  0  0  0  0  0  0
  151.6046  140.4681  155.7108 H   0  0  0  0  0  0  0  0  0  0  0  0
  151.4388  138.9851  154.7901 H   0  0  0  0  0  0  0  0  0  0  0  0
  150.3002  140.8805  153.6366 H   0  0  0  0  0  0  0  0  0  0  0  0
  149.4620  138.6127  153.2821 H   0  0  0  0  0  0  0  0  0  0  0  0
  148.4246  138.7060  154.6837 H   0  0  0  0  0  0  0  0  0  0  0  0
  146.5327  138.1716  152.9759 H   0  0  0  0  0  0  0  0  0  0  0  0
  147.6883  138.2853  151.6509 H   0  0  0  0  0  0  0  0  0  0  0  0
  146.2737  139.3324  151.6649 H   0  0  0  0  0  0  0  0  0  0  0  0
  146.3300  141.3630  152.9983 H   0  0  0  0  0  0  0  0  0  0  0  0
  145.4491  141.0581  155.3063 H   0  0  0  0  0  0  0  0  0  0  0  0
  146.5711  139.7387  155.5856 H   0  0  0  0  0  0  0  0  0  0  0  0
  145.3114  139.5905  154.3655 H   0  0  0  0  0  0  0  0  0  0  0  0
  148.3128  142.5634  153.5102 H   0  0  0  0  0  0  0  0  0  0  0  0
  147.2408  142.7193  154.8732 H   0  0  0  0  0  0  0  0  0  0  0  0
  148.5386  140.9772  156.1185 H   0  0  0  0  0  0  0  0  0  0  0  0
  150.6553  142.5912  155.0803 H   0  0  0  0  0  0  0  0  0  0  0  0
  149.6717  142.7083  157.8066 H   0  0  0  0  0  0  0  0  0  0  0  0
  150.6020  141.3235  157.2590 H   0  0  0  0  0  0  0  0  0  0  0  0
  152.5657  142.5679  156.9836 H   0  0  0  0  0  0  0  0  0  0  0  0
  151.7146  144.0364  156.5709 H   0  0  0  0  0  0  0  0  0  0  0  0
  150.9834  145.6401  158.3130 H   0  0  0  0  0  0  0  0  0  0  0  0
  151.3219  146.3859  160.6810 H   0  0  0  0  0  0  0  0  0  0  0  0
  152.4062  144.8053  162.3032 H   0  0  0  0  0  0  0  0  0  0  0  0
  153.1073  142.5410  161.4842 H   0  0  0  0  0  0  0  0  0  0  0  0
  149.3664  143.4237  155.6544 H   0  0  0  0  0  0  0  0  0  0  0  0
  148.2915  140.4118  152.3203 H   0  0  0  0  0  0  0  0  0  0  0  0
  1  2  1  0  0  0  0
  1 19  1  0  0  0  0
  1 20  1  0  0  0  0
  1 21  1  0  0  0  0
  2  9  1  0  0  0  0
  2  3  1  0  0  0  0
  2 22  1  0  0  0  0
  3  4  1  0  0  0  0
  3 23  1  0  0  0  0
  3 24  1  0  0  0  0
  4  5  1  0  0  0  0
  4  6  1  0  0  0  0
  4 45  1  0  0  0  0
  5 25  1  0  0  0  0
  5 26  1  0  0  0  0
  5 27  1  0  0  0  0
  6  7  1  0  0  0  0
  6  8  1  0  0  0  0
  6 28  1  0  0  0  0
  7 29  1  0  0  0  0
  7 30  1  0  0  0  0
  7 31  1  0  0  0  0
  8  9  1  0  0  0  0
  8 32  1  0  0  0  0
  8 33  1  0  0  0  0
  9 10  1  0  0  0  0
  9 34  1  0  0  0  0
 10 11  1  0  0  0  0
 10 35  1  0  0  0  0
 10 44  1  0  0  0  0
 11 12  1  0  0  0  0
 11 36  1  0  0  0  0
 11 37  1  0  0  0  0
 12 13  1  0  0  0  0
 12 38  1  0  0  0  0
 12 39  1  0  0  0  0
 13 18  1  0  0  0  0
 13 14  2  0  0  0  0
 14 15  1  0  0  0  0
 14 40  1  0  0  0  0
 15 16  2  0  0  0  0
 15 41  1  0  0  0  0
 16 17  1  0  0  0  0
 16 42  1  0  0  0  0
 17 18  2  0  0  0  0
 17 43  1  0  0  0  0
M  CHG  1   4   1
M  CHG  1  10   1
M  END
> <s_m_source_file>
AV-unprocessed.smi

> <i_m_source_file_index>
3303

> <i_lp_mmshare_version>
43012

> <i_f3d_flags>
0

> <s_epik_input>
W0NIM11bQ0BASF0xW0NIMl1OKFtDSDNdKVtDQEBIXShbQ0gzXSlbQ0gyXVtDQEhdMVtOSF1bQ0gyXVtDSDJdYzJbY0hdW2NIXVtjSF1bY0hdbjI=

> <s_epik_cmdline>
J2VwaWtfcHl0aG9uJywgJy1waCcsICc3LjAnLCAnLXRuJywgJzgnLCAnLW1hJywgJzIwMCcsICctbWV0YWxfYmluZGluZycsICctaW1hZScsICc8aW5maWxlLm1hZT4nLCAnLW9tYWUnLCAnPG91dGZpbGUubWFlPic=

> <r_epik_Ionization_Penalty>
0.0769462

> <r_epik_Ionization_Penalty_Charging>
0.0759813

> <r_epik_Ionization_Penalty_Neutral>
0.000964829

> <r_epik_State_Penalty>
0.0654373

> <r_epik_Charging_Adjusted_Penalty>
0.141419

> <i_epik_Tot_Q>
2

> <i_epik_Tot_abs_Q>
2

> <r_epik_Metal_State_Penalty>
0.0656439

> <b_epik_Metal_Only>
0

> <s_lp_Force_Field>
OPLS_2005

> <r_lp_Energy>
28.3662

> <b_lp_Chiralities_Consistent>
1

> <s_lp_Variant>
AV-unprocessed.smi:3303-12

> <Gold.Version>
5.8.1

> <Gold.Id.Protein>
6NUR|6NUR_protein|mol2

> <Gold.PLP.Fitness>
48.1104

> <Gold.PLP.PLP>
-41.4819

> <Gold.PLP.part.hbond>
-2.0000

> <Gold.PLP.part.metal>
0.0000

> <Gold.PLP.part.buried>
-3.0006

> <Gold.PLP.part.nonpolar>
-37.0660

> <Gold.PLP.part.repulsive>
0.2214

> <Gold.PLP.ligand.clash>
0.0000

> <Gold.PLP.ligand.torsion>
1.1370

> <Gold.PLP.Chemscore.Hbond>
2.9600

> <Gold.PLP.Chemscore.CHOScore>
0.0000

> <Gold.PLP.Chemscore.Metal>
0.0000

> <Gold.Chemscore.Hbonds>
donor molecule, donor type, donor heavy atom, donor atom, acceptor molecule, acceptor atom, score
      L1  H     4    45       P1  7957  0.70
      L1  H    10    44       P1  8028  1.27

> <Gold.PLP.Chemscore.Internal.Correction>
0.0224

> <Gold.Rescore>
     Score         DG    S(hbond)    S(metal)    S(lipo)     H(rot)  DE(clash)    DE(int)     intcor
     21.28     -23.17       2.00        0.00     124.29       1.37       0.96       0.93       ----

> <Gold.Chemscore.Fitness>
21.2795

> <Gold.Chemscore.DG>
-23.1713

> <Gold.Chemscore.ZeroCoef>
-5.4800

> <Gold.Chemscore.Hbond>
1.9963

> <Gold.Chemscore.Metal>
0.0000

> <Gold.Chemscore.Lipo>
124.2900

> <Gold.Chemscore.Internal_Hbond>
0.0000

> <Gold.Chemscore.DEClash>
0.9580

> <Gold.Chemscore.DEInternal>
0.9338

> <Gold.Chemscore.Rot>
1.3744

> <Gold.Chemscore.Internal.Correction>
   9.000000E+99

> <Gold.Chemscore.Hbonds>
donor molecule, donor type, donor heavy atom, donor atom, acceptor molecule, acceptor atom, score
      L1  H     4    45       P1  7957  0.70
      L1  H    10    44       P1  8028  0.63

> <Gold.Chemscore.Hbond.Weighted>
-6.6678

> <Gold.Chemscore.Metal.Weighted>
-0.0000

> <Gold.Chemscore.Lipo.Weighted>
-14.5419

> <Gold.Chemscore.Internal_Hbond.Weighted>
0.0000

> <Gold.Chemscore.DEClash.Weighted>
0.9580

> <Gold.Chemscore.DEInternal.Weighted>
0.9338

> <Gold.Chemscore.Rot.Weighted>
3.5185

> <Gold.Chemscore.Internal.Correction.Weighted>
   9.000000E+99

> <Gold.Protein.RotatedTorsions>
[ 6907 6896 6895 6894 ] final -119.49 input  -60.11 | X-H torsion
[ 7974 7965 7964 7962 ] final    0.82 input  175.53 | X-H torsion
[ 8008 7997 7996 7995 ] final   70.29 input   59.86 | X-H torsion
[ 10167 10162 10161 10158 ] final   10.95 input  -65.29 | X-H torsion
[ 10718 10713 10712 10709 ] final  -88.30 input   66.30 | X-H torsion
[ 10763 10752 10751 10750 ] final  138.81 input  -60.55 | X-H torsion
[ 11005 11000 10999 10996 ] final  122.42 input  -57.11 | X-H torsion

> <Gold.Protein.ActiveResidues>
 VAL166  LYS551  ARG553  GLY616  TRP617  ASP618  TYR619  PRO620  LYS621  CYS622 
 ASP623  PHE694  ASN695  SER759  ASP760  ASP761  ALA762  ILE779  LEU786  VAL792 
 PHE793  MET794  SER795  GLU796  ALA797  LYS798  CYS799  TRP800  GLU811  SER814 

> <Gold.Protein.RotatedAtoms>
  150.8310  133.8092  159.3098 H   0  0  0  0  0  0  0  0  0  0  0  0  # atno 6907 bound_to 6896
  151.5822  135.1056  160.0029 H   0  0  0  0  0  0  0  0  0  0  0  0  # atno 6908 bound_to 6896
  152.4389  133.7370  159.6676 H   0  0  0  0  0  0  0  0  0  0  0  0  # atno 6909 bound_to 6896
  146.2437  140.1080  142.8345 H   0  0  0  0  0  0  0  0  0  0  0  0  # atno 7974 bound_to 7965
  155.7365  140.3491  155.5084 H   0  0  0  0  0  0  0  0  0  0  0  0  # atno 8008 bound_to 7997
  155.9134  140.1054  157.1284 H   0  0  0  0  0  0  0  0  0  0  0  0  # atno 8009 bound_to 7997
  154.4059  140.1263  156.4573 H   0  0  0  0  0  0  0  0  0  0  0  0  # atno 8010 bound_to 7997
  140.6162  143.8303  150.7121 H   0  0  0  0  0  0  0  0  0  0  0  0  # atno 10167 bound_to 10162
  155.9984  130.4830  150.4998 H   0  0  0  0  0  0  0  0  0  0  0  0  # atno 10718 bound_to 10713
  153.8957  135.3028  155.3448 H   0  0  0  0  0  0  0  0  0  0  0  0  # atno 10763 bound_to 10752
  154.7695  135.4893  153.9623 H   0  0  0  0  0  0  0  0  0  0  0  0  # atno 10764 bound_to 10752
  153.1272  135.6796  153.9336 H   0  0  0  0  0  0  0  0  0  0  0  0  # atno 10765 bound_to 10752
  139.9268  134.9641  156.8106 H   0  0  0  0  0  0  0  0  0  0  0  0  # atno 11005 bound_to 11000
  145.0511  140.9018  143.4995 LP  0  0  0  0  0  0  0  0  0  0  0  0  # atno 17320 bound_to 7965
  145.1178  139.2713  143.5604 LP  0  0  0  0  0  0  0  0  0  0  0  0  # atno 17321 bound_to 7965
  140.1882  143.4058  152.1882 LP  0  0  0  0  0  0  0  0  0  0  0  0  # atno 17342 bound_to 10162
  139.5400  144.7248  151.4764 LP  0  0  0  0  0  0  0  0  0  0  0  0  # atno 17343 bound_to 10162
  157.2983  131.0640  151.2086 LP  0  0  0  0  0  0  0  0  0  0  0  0  # atno 17370 bound_to 10713
  157.3074  130.6873  149.6197 LP  0  0  0  0  0  0  0  0  0  0  0  0  # atno 17371 bound_to 10713
  140.6315  133.9901  155.7664 LP  0  0  0  0  0  0  0  0  0  0  0  0  # atno 17394 bound_to 11000
  141.0830  134.0033  157.3357 LP  0  0  0  0  0  0  0  0  0  0  0  0  # atno 17395 bound_to 11000

$$$$
