AV-unprocessed.smi:198|AV-procd|sdf|1556|dock3
  -GOLD-   2262019423D 1   1.00000     0.00000
 Structure written by MMmdl.
 59 63  0  0  0  0  0  0  0  0  2 V2000
  145.8852  131.4008  150.4753 C   0  0  0  0  0  0  0  0  0  0  0  0
  145.5106  132.6180  151.2270 N   0  3  1  0  0  0  0  0  0  0  0  0
  146.6953  133.3870  151.6801 C   0  0  0  0  0  0  0  0  0  0  0  0
  146.2774  134.5594  152.5796 C   0  0  0  0  0  0  0  0  0  0  0  0
  145.2759  135.4819  151.8517 C   0  0  1  0  0  0  0  0  0  0  0  0
  144.0714  134.6714  151.3176 C   0  0  2  0  0  0  0  0  0  0  0  0
  143.1028  134.2689  152.4492 C   0  0  0  0  0  0  0  0  0  0  0  0
  142.6763  135.5062  153.2516 C   0  0  0  0  0  0  0  0  0  0  0  0
  143.8984  136.2726  153.7798 C   0  0  0  0  0  0  0  0  0  0  0  0
  144.8218  136.5992  152.6896 N   0  0  0  0  0  0  0  0  0  0  0  0
  145.7434  137.5713  152.9183 C   0  0  0  0  0  0  0  0  0  0  0  0
  146.3743  138.1614  151.8677 N   0  0  0  0  0  0  0  0  0  0  0  0
  147.2657  139.1348  152.0743 C   0  0  0  0  0  0  0  0  0  0  0  0
  147.6673  139.6657  153.2301 N   0  0  0  0  0  0  0  0  0  0  0  0
  147.0447  139.0753  154.2903 C   0  0  0  0  0  0  0  0  0  0  0  0
  146.0822  138.0278  154.2242 C   0  0  0  0  0  0  0  0  0  0  0  0
  145.6879  137.6689  155.5076 N   0  0  0  0  0  0  0  0  0  0  0  0
  146.3718  138.4622  156.2860 C   0  0  0  0  0  0  0  0  0  0  0  0
  147.1992  139.3525  155.6384 N   0  0  0  0  0  0  0  0  0  0  0  0
  148.0676  140.3228  156.2442 C   0  0  0  0  0  0  0  0  0  0  0  0
  149.0431  141.1336  155.3904 C   0  0  0  0  0  0  0  0  0  0  0  0
  150.0985  141.0755  156.5184 C   0  0  0  0  0  0  0  0  0  0  0  0
  151.5145  140.6896  156.0639 C   0  0  0  0  0  0  0  0  0  0  0  0
  151.4814  139.6843  155.0712 O   0  0  0  0  0  0  0  0  0  0  0  0
  150.2351  142.3203  157.4238 C   0  0  0  0  0  0  0  0  0  0  0  0
  150.7105  143.4600  156.7369 O   0  0  0  0  0  0  0  0  0  0  0  0
  149.2714  139.9033  157.0945 C   0  0  0  0  0  0  0  0  0  0  0  0
  144.5453  133.4649  150.4815 C   0  0  0  0  0  0  0  0  0  0  0  0
  146.4100  131.6562  149.5536 H   0  0  0  0  0  0  0  0  0  0  0  0
  144.9993  130.8206  150.2153 H   0  0  0  0  0  0  0  0  0  0  0  0
  146.5359  130.7624  151.0740 H   0  0  0  0  0  0  0  0  0  0  0  0
  147.3691  132.7302  152.2317 H   0  0  0  0  0  0  0  0  0  0  0  0
  147.2481  133.7549  150.8141 H   0  0  0  0  0  0  0  0  0  0  0  0
  145.8464  134.1703  153.5021 H   0  0  0  0  0  0  0  0  0  0  0  0
  147.1638  135.1235  152.8719 H   0  0  0  0  0  0  0  0  0  0  0  0
  145.7882  135.8831  150.9785 H   0  0  0  0  0  0  0  0  0  0  0  0
  143.5118  135.3244  150.6458 H   0  0  0  0  0  0  0  0  0  0  0  0
  142.2215  133.7792  152.0334 H   0  0  0  0  0  0  0  0  0  0  0  0
  143.5710  133.5447  153.1163 H   0  0  0  0  0  0  0  0  0  0  0  0
  142.0823  136.1649  152.6166 H   0  0  0  0  0  0  0  0  0  0  0  0
  142.0325  135.2129  154.0812 H   0  0  0  0  0  0  0  0  0  0  0  0
  143.5598  137.1877  154.2677 H   0  0  0  0  0  0  0  0  0  0  0  0
  144.4150  135.6816  154.5368 H   0  0  0  0  0  0  0  0  0  0  0  0
  147.7195  139.5496  151.1863 H   0  0  0  0  0  0  0  0  0  0  0  0
  146.2888  138.4153  157.3620 H   0  0  0  0  0  0  0  0  0  0  0  0
  147.4285  140.9925  156.8204 H   0  0  0  0  0  0  0  0  0  0  0  0
  149.3522  140.5964  154.4921 H   0  0  0  0  0  0  0  0  0  0  0  0
  148.6937  142.1364  155.1422 H   0  0  0  0  0  0  0  0  0  0  0  0
  152.0546  141.5536  155.6750 H   0  0  0  0  0  0  0  0  0  0  0  0
  152.1021  140.3099  156.9002 H   0  0  0  0  0  0  0  0  0  0  0  0
  152.0299  138.9675  155.3515 H   0  0  0  0  0  0  0  0  0  0  0  0
  149.2739  142.5807  157.8679 H   0  0  0  0  0  0  0  0  0  0  0  0
  150.9194  142.1311  158.2512 H   0  0  0  0  0  0  0  0  0  0  0  0
  150.0993  143.6726  156.0482 H   0  0  0  0  0  0  0  0  0  0  0  0
  149.0960  139.9536  158.1698 H   0  0  0  0  0  0  0  0  0  0  0  0
  149.6717  138.9275  156.8180 H   0  0  0  0  0  0  0  0  0  0  0  0
  145.0191  133.8178  149.5639 H   0  0  0  0  0  0  0  0  0  0  0  0
  143.6861  132.8656  150.1774 H   0  0  0  0  0  0  0  0  0  0  0  0
  145.0345  132.3043  152.0609 H   0  0  0  0  0  0  0  0  0  0  0  0
  1  2  1  0  0  0  0
  1 29  1  0  0  0  0
  1 30  1  0  0  0  0
  1 31  1  0  0  0  0
  2 28  1  0  0  0  0
  2  3  1  0  0  0  0
  2 59  1  0  0  0  0
  3  4  1  0  0  0  0
  3 32  1  0  0  0  0
  3 33  1  0  0  0  0
  4  5  1  0  0  0  0
  4 34  1  0  0  0  0
  4 35  1  0  0  0  0
  5 10  1  0  0  0  0
  5  6  1  0  0  0  0
  5 36  1  0  0  0  0
  6  7  1  0  0  0  0
  6 28  1  0  0  0  0
  6 37  1  0  0  0  0
  7  8  1  0  0  0  0
  7 38  1  0  0  0  0
  7 39  1  0  0  0  0
  8  9  1  0  0  0  0
  8 40  1  0  0  0  0
  8 41  1  0  0  0  0
  9 10  1  0  0  0  0
  9 42  1  0  0  0  0
  9 43  1  0  0  0  0
 10 11  1  0  0  0  0
 11 16  1  0  0  0  0
 11 12  2  0  0  0  0
 12 13  1  0  0  0  0
 13 14  2  0  0  0  0
 13 44  1  0  0  0  0
 14 15  1  0  0  0  0
 15 19  1  0  0  0  0
 15 16  2  0  0  0  0
 16 17  1  0  0  0  0
 17 18  2  0  0  0  0
 18 19  1  0  0  0  0
 18 45  1  0  0  0  0
 19 20  1  0  0  0  0
 20 27  1  0  0  0  0
 20 21  1  0  0  0  0
 20 46  1  0  0  0  0
 21 22  1  0  0  0  0
 21 47  1  0  0  0  0
 21 48  1  0  0  0  0
 22 23  1  0  0  0  0
 22 25  1  0  0  0  0
 22 27  1  0  0  0  0
 23 24  1  0  0  0  0
 23 49  1  0  0  0  0
 23 50  1  0  0  0  0
 24 51  1  0  0  0  0
 25 26  1  0  0  0  0
 25 52  1  0  0  0  0
 25 53  1  0  0  0  0
 26 54  1  0  0  0  0
 27 55  1  0  0  0  0
 27 56  1  0  0  0  0
 28 57  1  0  0  0  0
 28 58  1  0  0  0  0
M  CHG  1   2   1
M  END
> <s_m_source_file>
AV-unprocessed.smi

> <i_m_source_file_index>
198

> <i_lp_mmshare_version>
43012

> <i_f3d_flags>
0

> <s_epik_input>
W0NIMl0xW0NIMl1OKFtDSDNdKVtDSDJdW0NAQEhdKFtDQEhdMTIpW0NIMl1bQ0gyXVtDSDJdTjJjKG5bY0hdbjMpYyhjMzQpbltjSF1uNFtDSF0oW0NIMl01KVtDSDJdQzUoW0NIMl1bT0hdKVtDSDJdW09IXQ==

> <s_epik_cmdline>
J2VwaWtfcHl0aG9uJywgJy1waCcsICc3LjAnLCAnLXRuJywgJzgnLCAnLW1hJywgJzIwMCcsICctbWV0YWxfYmluZGluZycsICctaW1hZScsICc8aW5maWxlLm1hZT4nLCAnLW9tYWUnLCAnPG91dGZpbGUubWFlPic=

> <r_lp_tautomer_probability>
1

> <r_epik_Ionization_Penalty>
0.00239938

> <r_epik_Ionization_Penalty_Charging>
0.00138697

> <r_epik_Ionization_Penalty_Neutral>
0.00101241

> <r_epik_State_Penalty>
-0

> <r_epik_Charging_Adjusted_Penalty>
0.00138697

> <i_epik_Tot_Q>
1

> <i_epik_Tot_abs_Q>
1

> <r_epik_Metal_State_Penalty>
-0

> <b_epik_Metal_Only>
0

> <s_lp_Force_Field>
OPLS_2005

> <r_lp_Energy>
58.4616

> <b_lp_Chiralities_Consistent>
1

> <s_lp_Variant>
AV-unprocessed.smi:198-5

> <Gold.Version>
5.8.1

> <Gold.Id.Protein>
6NUR|6NUR_protein|mol2

> <Gold.PLP.Fitness>
43.0065

> <Gold.PLP.PLP>
-34.9181

> <Gold.PLP.part.hbond>
-2.0000

> <Gold.PLP.part.metal>
0.0000

> <Gold.PLP.part.buried>
-5.9331

> <Gold.PLP.part.nonpolar>
-28.4131

> <Gold.PLP.part.repulsive>
1.2931

> <Gold.PLP.ligand.clash>
0.0000

> <Gold.PLP.ligand.torsion>
0.5453

> <Gold.PLP.Chemscore.Hbond>
2.0000

> <Gold.PLP.Chemscore.CHOScore>
0.7546

> <Gold.PLP.Chemscore.Metal>
0.0000

> <Gold.Chemscore.Hbonds>
donor molecule, donor type, donor heavy atom, donor atom, acceptor molecule, acceptor atom, score
      L1  H    26    54       P1  8028  0.83
      P1  H  7989  7998       L1    24  0.90
      L1  C    13    44       P1  7957  0.57

> <Gold.PLP.Chemscore.Internal.Correction>
0.9153

> <Gold.Rescore>
     Score         DG    S(hbond)    S(metal)    S(lipo)     H(rot)  DE(clash)    DE(int)     intcor
      9.08     -12.49       1.84        0.00      74.78       3.08       0.26       3.14       ----

> <Gold.Chemscore.Fitness>
9.0808

> <Gold.Chemscore.DG>
-12.4857

> <Gold.Chemscore.ZeroCoef>
-5.4800

> <Gold.Chemscore.Hbond>
1.8373

> <Gold.Chemscore.Metal>
0.0000

> <Gold.Chemscore.Lipo>
74.7778

> <Gold.Chemscore.Internal_Hbond>
0.0000

> <Gold.Chemscore.DEClash>
0.2608

> <Gold.Chemscore.DEInternal>
3.1441

> <Gold.Chemscore.Rot>
3.0781

> <Gold.Chemscore.Internal.Correction>
   9.000000E+99

> <Gold.Chemscore.Hbonds>
donor molecule, donor type, donor heavy atom, donor atom, acceptor molecule, acceptor atom, score
      L1  H    26    54       P1  8028  0.83
      P1  H  7989  7998       L1    24  0.17

> <Gold.Chemscore.Hbond.Weighted>
-6.1367

> <Gold.Chemscore.Metal.Weighted>
-0.0000

> <Gold.Chemscore.Lipo.Weighted>
-8.7490

> <Gold.Chemscore.Internal_Hbond.Weighted>
0.0000

> <Gold.Chemscore.DEClash.Weighted>
0.2608

> <Gold.Chemscore.DEInternal.Weighted>
3.1441

> <Gold.Chemscore.Rot.Weighted>
7.8800

> <Gold.Chemscore.Internal.Correction.Weighted>
   9.000000E+99

> <Gold.Protein.RotatedTorsions>
[ 6907 6896 6895 6894 ] final -179.82 input  -60.11 | X-H torsion
[ 7974 7965 7964 7962 ] final  173.43 input  175.53 | X-H torsion
[ 8008 7997 7996 7995 ] final   46.06 input   59.86 | X-H torsion
[ 10167 10162 10161 10158 ] final  121.37 input  -65.29 | X-H torsion
[ 10718 10713 10712 10709 ] final  156.45 input   66.30 | X-H torsion
[ 10763 10752 10751 10750 ] final   80.71 input  -60.55 | X-H torsion
[ 11005 11000 10999 10996 ] final   40.52 input  -57.11 | X-H torsion

> <Gold.Protein.ActiveResidues>
 VAL166  LYS551  ARG553  GLY616  TRP617  ASP618  TYR619  PRO620  LYS621  CYS622 
 ASP623  PHE694  ASN695  SER759  ASP760  ASP761  ALA762  ILE779  LEU786  VAL792 
 PHE793  MET794  SER795  GLU796  ALA797  LYS798  CYS799  TRP800  GLU811  SER814 

> <Gold.Protein.RotatedAtoms>
  151.6597  133.3317  159.3170 H   0  0  0  0  0  0  0  0  0  0  0  0  # atno 6907 bound_to 6896
  150.7920  134.6954  159.6530 H   0  0  0  0  0  0  0  0  0  0  0  0  # atno 6908 bound_to 6896
  152.4001  134.6304  160.0125 H   0  0  0  0  0  0  0  0  0  0  0  0  # atno 6909 bound_to 6896
  144.7244  139.9646  143.6435 H   0  0  0  0  0  0  0  0  0  0  0  0  # atno 7974 bound_to 7965
  155.3462  140.3411  155.4239 H   0  0  0  0  0  0  0  0  0  0  0  0  # atno 8008 bound_to 7997
  156.1788  140.1657  156.8349 H   0  0  0  0  0  0  0  0  0  0  0  0  # atno 8009 bound_to 7997
  154.5311  140.0745  156.8328 H   0  0  0  0  0  0  0  0  0  0  0  0  # atno 8010 bound_to 7997
  139.5923  144.7030  151.3259 H   0  0  0  0  0  0  0  0  0  0  0  0  # atno 10167 bound_to 10162
  157.2047  131.0684  151.2004 H   0  0  0  0  0  0  0  0  0  0  0  0  # atno 10718 bound_to 10713
  153.1056  135.4792  154.8945 H   0  0  0  0  0  0  0  0  0  0  0  0  # atno 10763 bound_to 10752
  154.7426  135.3086  154.8703 H   0  0  0  0  0  0  0  0  0  0  0  0  # atno 10764 bound_to 10752
  153.9307  135.6845  153.4799 H   0  0  0  0  0  0  0  0  0  0  0  0  # atno 10765 bound_to 10752
  140.1923  134.3971  155.8140 H   0  0  0  0  0  0  0  0  0  0  0  0  # atno 11005 bound_to 11000
  146.0610  139.3604  143.0581 LP  0  0  0  0  0  0  0  0  0  0  0  0  # atno 17320 bound_to 7965
  145.8092  140.9734  143.0958 LP  0  0  0  0  0  0  0  0  0  0  0  0  # atno 17321 bound_to 7965
  140.7184  143.7204  150.7700 LP  0  0  0  0  0  0  0  0  0  0  0  0  # atno 17342 bound_to 10162
  140.0763  143.5012  152.2554 LP  0  0  0  0  0  0  0  0  0  0  0  0  # atno 17343 bound_to 10162
  157.3732  130.7192  149.6579 LP  0  0  0  0  0  0  0  0  0  0  0  0  # atno 17370 bound_to 10713
  155.9696  130.4193  150.4369 LP  0  0  0  0  0  0  0  0  0  0  0  0  # atno 17371 bound_to 10713
  141.2226  133.7052  156.8116 LP  0  0  0  0  0  0  0  0  0  0  0  0  # atno 17394 bound_to 11000
  140.2146  134.8802  157.3311 LP  0  0  0  0  0  0  0  0  0  0  0  0  # atno 17395 bound_to 11000

$$$$
