#       Name:                AV-unprocessed.smi:1255
#       Creating user name   scv26
#       Creation time:       Fri Mar 27 04:40:18 2020


#       File generated by GOLD software.
#

@<TRIPOS>MOLECULE
AV-unprocessed.smi:1255
    48    49     1
SMALL
NO_CHARGES


@<TRIPOS>ATOM
      1 ****        -4.3704  -2.2290  -1.7343 C.3            1 S1                 0.0000
      2 ****        -4.0661  -1.4934  -0.4184 C.3            1 S1                 0.0000
      3 ****        -4.6957  -2.2367   0.6723 N.am           1 S1                 0.0000
      4 ****        -4.9787  -1.7334   1.8828 C.2            1 S1                 0.0000
      5 ****        -5.5226  -2.6398   2.6950 N.am           1 S1                 0.0000
      6 ****        -4.7647  -0.5712   2.2219 O.2            1 S1                 0.0000
      7 ****        -2.5395  -1.4530  -0.2361 C.2            1 S1                 0.0000
      8 ****        -1.9396  -2.4562   0.1528 O.2            1 S1                 0.0000
      9 ****        -1.9532  -0.2771  -0.5267 N.am           1 S1                 0.0000
     10 ****        -0.5762   0.0694  -0.4624 C.ar           1 S1                 0.0000
     11 ****         0.4855  -0.8627  -0.5195 C.ar           1 S1                 0.0000
     12 ****         1.8113  -0.3912  -0.4656 C.ar           1 S1                 0.0000
     13 ****         2.0500   0.9997  -0.3617 C.ar           1 S1                 0.0000
     14 ****         3.3721   1.4936  -0.3041 N.3            1 S1                 0.0000
     15 ****         3.5729   2.9358  -0.4356 C.3            1 S1                 0.0000
     16 ****         5.0626   3.2528  -0.6485 C.3            1 S1                 0.0000
     17 ****         5.8276   2.6889   0.4112 O.3            1 S1                 0.0000
     18 ****         5.7066   1.2710   0.4537 C.3            1 S1                 0.0000
     19 ****         4.2392   0.8772   0.6977 C.3            1 S1                 0.0000
     20 ****         1.0289   1.8909  -0.3284 N.ar           1 S1                 0.0000
     21 ****        -0.2402   1.4351  -0.3795 C.ar           1 S1                 0.0000
     22 ****        -3.9259  -1.7147  -2.5875 H              1 S1                 0.0000
     23 ****        -5.4451  -2.2796  -1.9117 H              1 S1                 0.0000
     24 ****        -3.9899  -3.2518  -1.7272 H              1 S1                 0.0000
     25 ****        -4.4722  -0.4807  -0.4628 H              1 S1                 0.0000
     26 ****        -4.9060  -3.2083   0.4975 H              1 S1                 0.0000
     27 ****        -5.7890  -2.3865   3.6350 H              1 S1                 0.0000
     28 ****        -5.6723  -3.5805   2.3599 H              1 S1                 0.0000
     29 ****        -2.5793   0.4803  -0.7593 H              1 S1                 0.0000
     30 ****         0.3142  -1.9228  -0.6213 H              1 S1                 0.0000
     31 ****         2.6244  -1.0989  -0.5244 H              1 S1                 0.0000
     32 ****         2.9986   3.3231  -1.2781 H              1 S1                 0.0000
     33 ****         3.2103   3.4341   0.4645 H              1 S1                 0.0000
     34 ****         5.4097   2.8667  -1.6085 H              1 S1                 0.0000
     35 ****         5.2185   4.3315  -0.6647 H              1 S1                 0.0000
     36 ****         6.0757   0.8357  -0.4763 H              1 S1                 0.0000
     37 ****         6.3361   0.8861   1.2560 H              1 S1                 0.0000
     38 ****         3.9236   1.2097   1.6874 H              1 S1                 0.0000
     39 ****         4.1605  -0.2088   0.6890 H              1 S1                 0.0000
     40 ****        -1.0132   2.1891  -0.3495 H              1 S1                 0.0000
     41 ****        -4.3521   0.0704   1.5753 LP             1 S1                 0.0000
     42 ****        -5.0033  -0.2675   3.1443 LP             1 S1                 0.0000
     43 ****        -2.4452  -3.2962   0.3498 LP             1 S1                 0.0000
     44 ****        -0.9470  -2.4306   0.2715 LP             1 S1                 0.0000
     45 ****         3.6982   1.1521  -1.1856 LP             1 S1                 0.0000
     46 ****         5.5065   3.0674   1.2793 LP             1 S1                 0.0000
     47 ****         6.7895   2.9279   0.2788 LP             1 S1                 0.0000
     48 ****         1.2135   2.8717  -0.2669 LP             1 S1                 0.0000
@<TRIPOS>BOND
    1    1    2 1     
    2    1   22 1     
    3    1   23 1     
    4    1   24 1     
    5    2    3 1     
    6    2    7 1     
    7    2   25 1     
    8    3    4 am    
    9    3   26 1     
   10    4    5 am    
   11    4    6 2     
   12    5   27 1     
   13    5   28 1     
   14    7    8 2     
   15    7    9 am    
   16    9   10 1     
   17    9   29 1     
   18   10   21 ar    
   19   10   11 ar    
   20   11   12 ar    
   21   11   30 1     
   22   12   13 ar    
   23   12   31 1     
   24   13   14 1     
   25   13   20 ar    
   26   14   19 1     
   27   14   15 1     
   28   15   16 1     
   29   15   32 1     
   30   15   33 1     
   31   16   17 1     
   32   16   34 1     
   33   16   35 1     
   34   17   18 1     
   35   18   19 1     
   36   18   36 1     
   37   18   37 1     
   38   19   38 1     
   39   19   39 1     
   40   20   21 ar    
   41   21   40 1     
   42    6   41 1     
   43    6   42 1     
   44    8   43 1     
   45    8   44 1     
   46   14   45 1     
   47   17   46 1     
   48   17   47 1     
   49   20   48 1     
@<TRIPOS>SUBSTRUCTURE
      1 S1             1
@<TRIPOS>SET
LONE_PAIRS      STATIC     ATOMS    <user>   **** ""
8 41 42 43 44 45 46 47 48
DONOR_HYDROGENS      STATIC     ATOMS    <user>   **** ""
4 26 27 28 29
ATOM$BLUE        STATIC     ATOMS    COLORGROUP SYSTEM
8 41 42 43 44 45 46 47 48
ATOM$RED        STATIC     ATOMS    COLORGROUP SYSTEM
4 26 27 28 29
