AV-unprocessed.smi:92|AV-procd|sdf|841|dock7
  -GOLD-   2262017273D 1   1.00000     0.00000
 Structure written by MMmdl.
 61 64  0  0  0  0  0  0  0  0  2 V2000
  147.0668  127.4734  150.9906 C   0  0  0  0  0  0  0  0  0  0  0  0
  147.1477  128.3023  152.2806 C   0  0  0  0  0  0  0  0  0  0  0  0
  146.7624  129.7209  152.0720 N   0  3  2  0  0  0  0  0  0  0  0  0
  147.1779  130.6118  153.1854 C   0  0  0  0  0  0  0  0  0  0  0  0
  146.8658  132.0837  152.8724 C   0  0  0  0  0  0  0  0  0  0  0  0
  145.3647  132.2908  152.5444 C   0  0  1  0  0  0  0  0  0  0  0  0
  145.0026  133.6883  152.2542 N   0  0  0  0  0  0  0  0  0  0  0  0
  143.5911  133.9749  152.0095 C   0  0  0  0  0  0  0  0  0  0  0  0
  145.5507  134.6002  153.0891 C   0  0  0  0  0  0  0  0  0  0  0  0
  145.8970  134.2393  154.3526 N   0  0  0  0  0  0  0  0  0  0  0  0
  146.4693  135.1331  155.1650 C   0  0  0  0  0  0  0  0  0  0  0  0
  146.7837  136.4068  154.9161 N   0  0  0  0  0  0  0  0  0  0  0  0
  146.4372  136.7675  153.6462 C   0  0  0  0  0  0  0  0  0  0  0  0
  145.8191  135.9309  152.6766 C   0  0  0  0  0  0  0  0  0  0  0  0
  145.6266  136.6286  151.4921 N   0  0  0  0  0  0  0  0  0  0  0  0
  146.1103  137.8143  151.7450 C   0  0  0  0  0  0  0  0  0  0  0  0
  146.6124  137.9883  153.0168 N   0  0  0  0  0  0  0  0  0  0  0  0
  147.2288  139.1715  153.5460 C   0  0  0  0  0  0  0  0  0  0  0  0
  146.5395  140.0361  154.6046 C   0  0  0  0  0  0  0  0  0  0  0  0
  147.1999  141.2931  153.9914 C   0  0  0  0  0  0  0  0  0  0  0  0
  146.2781  142.5231  153.9157 C   0  0  0  0  0  0  0  0  0  0  0  0
  146.0429  143.0861  155.1899 O   0  0  0  0  0  0  0  0  0  0  0  0
  148.5285  141.6926  154.6676 C   0  0  0  0  0  0  0  0  0  0  0  0
  148.3361  142.1879  155.9767 O   0  0  0  0  0  0  0  0  0  0  0  0
  147.3130  140.4437  152.7041 C   0  0  0  0  0  0  0  0  0  0  0  0
  144.9585  131.3247  151.3986 C   0  0  1  0  0  0  0  0  0  0  0  0
  145.5374  131.7054  150.0192 C   0  0  0  0  0  0  0  0  0  0  0  0
  145.3157  129.8714  151.7704 C   0  0  0  0  0  0  0  0  0  0  0  0
  147.2629  126.4217  151.1999 H   0  0  0  0  0  0  0  0  0  0  0  0
  147.7973  127.7944  150.2485 H   0  0  0  0  0  0  0  0  0  0  0  0
  146.0760  127.5405  150.5402 H   0  0  0  0  0  0  0  0  0  0  0  0
  146.4697  127.8499  153.0056 H   0  0  0  0  0  0  0  0  0  0  0  0
  148.1467  128.2443  152.7153 H   0  0  0  0  0  0  0  0  0  0  0  0
  146.6696  130.3102  154.1027 H   0  0  0  0  0  0  0  0  0  0  0  0
  148.2467  130.5137  153.3717 H   0  0  0  0  0  0  0  0  0  0  0  0
  147.1616  132.6759  153.7388 H   0  0  0  0  0  0  0  0  0  0  0  0
  147.4873  132.4269  152.0447 H   0  0  0  0  0  0  0  0  0  0  0  0
  144.7971  132.0034  153.4312 H   0  0  0  0  0  0  0  0  0  0  0  0
  143.3920  135.0480  152.0121 H   0  0  0  0  0  0  0  0  0  0  0  0
  142.9628  133.5097  152.7700 H   0  0  0  0  0  0  0  0  0  0  0  0
  143.2865  133.5943  151.0349 H   0  0  0  0  0  0  0  0  0  0  0  0
  146.7138  134.7759  156.1545 H   0  0  0  0  0  0  0  0  0  0  0  0
  146.1212  138.5962  150.9996 H   0  0  0  0  0  0  0  0  0  0  0  0
  148.2221  138.8821  153.8929 H   0  0  0  0  0  0  0  0  0  0  0  0
  145.4522  140.0361  154.5135 H   0  0  0  0  0  0  0  0  0  0  0  0
  146.8395  139.8146  155.6294 H   0  0  0  0  0  0  0  0  0  0  0  0
  146.7221  143.3023  153.2953 H   0  0  0  0  0  0  0  0  0  0  0  0
  145.3210  142.2748  153.4561 H   0  0  0  0  0  0  0  0  0  0  0  0
  145.2835  142.6697  155.5678 H   0  0  0  0  0  0  0  0  0  0  0  0
  149.2165  140.8477  154.7115 H   0  0  0  0  0  0  0  0  0  0  0  0
  149.0413  142.4683  154.0984 H   0  0  0  0  0  0  0  0  0  0  0  0
  148.7265  143.0465  156.0348 H   0  0  0  0  0  0  0  0  0  0  0  0
  148.2478  140.5572  152.1543 H   0  0  0  0  0  0  0  0  0  0  0  0
  146.4550  140.5651  152.0403 H   0  0  0  0  0  0  0  0  0  0  0  0
  143.8729  131.3540  151.3007 H   0  0  0  0  0  0  0  0  0  0  0  0
  146.6262  131.6642  150.0049 H   0  0  0  0  0  0  0  0  0  0  0  0
  145.2430  132.7120  149.7221 H   0  0  0  0  0  0  0  0  0  0  0  0
  145.1764  131.0262  149.2465 H   0  0  0  0  0  0  0  0  0  0  0  0
  145.0351  129.2089  150.9504 H   0  0  0  0  0  0  0  0  0  0  0  0
  144.7342  129.5548  152.6380 H   0  0  0  0  0  0  0  0  0  0  0  0
  147.2539  130.0314  151.2459 H   0  0  0  0  0  0  0  0  0  0  0  0
  1  2  1  0  0  0  0
  1 29  1  0  0  0  0
  1 30  1  0  0  0  0
  1 31  1  0  0  0  0
  2  3  1  0  0  0  0
  2 32  1  0  0  0  0
  2 33  1  0  0  0  0
  3 28  1  0  0  0  0
  3  4  1  0  0  0  0
  3 61  1  0  0  0  0
  4  5  1  0  0  0  0
  4 34  1  0  0  0  0
  4 35  1  0  0  0  0
  5  6  1  0  0  0  0
  5 36  1  0  0  0  0
  5 37  1  0  0  0  0
  6  7  1  0  0  0  0
  6 26  1  0  0  0  0
  6 38  1  0  0  0  0
  7  8  1  0  0  0  0
  7  9  1  0  0  0  0
  8 39  1  0  0  0  0
  8 40  1  0  0  0  0
  8 41  1  0  0  0  0
  9 14  1  0  0  0  0
  9 10  2  0  0  0  0
 10 11  1  0  0  0  0
 11 12  2  0  0  0  0
 11 42  1  0  0  0  0
 12 13  1  0  0  0  0
 13 17  1  0  0  0  0
 13 14  2  0  0  0  0
 14 15  1  0  0  0  0
 15 16  2  0  0  0  0
 16 17  1  0  0  0  0
 16 43  1  0  0  0  0
 17 18  1  0  0  0  0
 18 25  1  0  0  0  0
 18 19  1  0  0  0  0
 18 44  1  0  0  0  0
 19 20  1  0  0  0  0
 19 45  1  0  0  0  0
 19 46  1  0  0  0  0
 20 21  1  0  0  0  0
 20 23  1  0  0  0  0
 20 25  1  0  0  0  0
 21 22  1  0  0  0  0
 21 47  1  0  0  0  0
 21 48  1  0  0  0  0
 22 49  1  0  0  0  0
 23 24  1  0  0  0  0
 23 50  1  0  0  0  0
 23 51  1  0  0  0  0
 24 52  1  0  0  0  0
 25 53  1  0  0  0  0
 25 54  1  0  0  0  0
 26 27  1  0  0  0  0
 26 28  1  0  0  0  0
 26 55  1  0  0  0  0
 27 56  1  0  0  0  0
 27 57  1  0  0  0  0
 27 58  1  0  0  0  0
 28 59  1  0  0  0  0
 28 60  1  0  0  0  0
M  CHG  1   3   1
M  END
> <s_m_source_file>
AV-unprocessed.smi

> <i_m_source_file_index>
92

> <i_lp_mmshare_version>
43012

> <i_f3d_flags>
0

> <s_epik_input>
W0NIM11bQ0gyXU4xW0NIMl1bQ0gyXVtDQEhdKFtDQEBIXShbQ0gzXSlbQ0gyXTEpTihbQ0gzXSljKG5bY0hdbjIpYyhjMjMpbltjSF1uM1tDSF0oW0NIMl00KVtDSDJdQzQoW0NIMl1bT0hdKVtDSDJdW09IXQ==

> <s_epik_cmdline>
J2VwaWtfcHl0aG9uJywgJy1waCcsICc3LjAnLCAnLXRuJywgJzgnLCAnLW1hJywgJzIwMCcsICctbWV0YWxfYmluZGluZycsICctaW1hZScsICc8aW5maWxlLm1hZT4nLCAnLW9tYWUnLCAnPG91dGZpbGUubWFlPic=

> <r_lp_tautomer_probability>
1

> <r_epik_Ionization_Penalty>
0.00235514

> <r_epik_Ionization_Penalty_Charging>
0.00137877

> <r_epik_Ionization_Penalty_Neutral>
0.000976366

> <r_epik_State_Penalty>
-0

> <r_epik_Charging_Adjusted_Penalty>
0.00137877

> <i_epik_Tot_Q>
1

> <i_epik_Tot_abs_Q>
1

> <r_epik_Metal_State_Penalty>
-0

> <b_epik_Metal_Only>
0

> <s_lp_Force_Field>
OPLS_2005

> <r_lp_Energy>
54.7459

> <b_lp_Chiralities_Consistent>
1

> <s_lp_Variant>
AV-unprocessed.smi:92-1

> <Gold.Version>
5.8.1

> <Gold.Id.Protein>
6NUR|6NUR_protein|mol2

> <Gold.PLP.Fitness>
49.4019

> <Gold.PLP.PLP>
-42.6900

> <Gold.PLP.part.hbond>
-2.0000

> <Gold.PLP.part.metal>
0.0000

> <Gold.PLP.part.buried>
-2.2861

> <Gold.PLP.part.nonpolar>
-39.9028

> <Gold.PLP.part.repulsive>
0.7904

> <Gold.PLP.ligand.clash>
0.0000

> <Gold.PLP.ligand.torsion>
0.9356

> <Gold.PLP.Chemscore.Hbond>
2.0000

> <Gold.PLP.Chemscore.CHOScore>
0.5585

> <Gold.PLP.Chemscore.Metal>
0.0000

> <Gold.Chemscore.Hbonds>
donor molecule, donor type, donor heavy atom, donor atom, acceptor molecule, acceptor atom, score
      L1  H     3    61       P1 10747  0.76
      L1  H    24    52       P1  8028  1.00
      L1  C    16    43       P1 10171  0.58

> <Gold.PLP.Chemscore.Internal.Correction>
0.9074

> <Gold.Rescore>
     Score         DG    S(hbond)    S(metal)    S(lipo)     H(rot)  DE(clash)    DE(int)     intcor
     10.61     -15.32       1.77        0.00     110.43       3.51       2.42       2.29       ----

> <Gold.Chemscore.Fitness>
10.6148

> <Gold.Chemscore.DG>
-15.3183

> <Gold.Chemscore.ZeroCoef>
-5.4800

> <Gold.Chemscore.Hbond>
1.7712

> <Gold.Chemscore.Metal>
0.0000

> <Gold.Chemscore.Lipo>
110.4289

> <Gold.Chemscore.Internal_Hbond>
0.0000

> <Gold.Chemscore.DEClash>
2.4174

> <Gold.Chemscore.DEInternal>
2.2861

> <Gold.Chemscore.Rot>
3.5147

> <Gold.Chemscore.Internal.Correction>
   9.000000E+99

> <Gold.Chemscore.Hbonds>
donor molecule, donor type, donor heavy atom, donor atom, acceptor molecule, acceptor atom, score
      L1  H     3    61       P1 10747  0.74
      L1  H    24    52       P1  8028  0.97

> <Gold.Chemscore.Hbond.Weighted>
-5.9159

> <Gold.Chemscore.Metal.Weighted>
-0.0000

> <Gold.Chemscore.Lipo.Weighted>
-12.9202

> <Gold.Chemscore.Internal_Hbond.Weighted>
0.0000

> <Gold.Chemscore.DEClash.Weighted>
2.4174

> <Gold.Chemscore.DEInternal.Weighted>
2.2861

> <Gold.Chemscore.Rot.Weighted>
8.9977

> <Gold.Chemscore.Internal.Correction.Weighted>
   9.000000E+99

> <Gold.Protein.RotatedTorsions>
[ 6907 6896 6895 6894 ] final   -8.63 input  -60.11 | X-H torsion
[ 7974 7965 7964 7962 ] final  -72.23 input  175.53 | X-H torsion
[ 8008 7997 7996 7995 ] final -150.56 input   59.86 | X-H torsion
[ 10167 10162 10161 10158 ] final  -25.29 input  -65.29 | X-H torsion
[ 10718 10713 10712 10709 ] final  -82.44 input   66.30 | X-H torsion
[ 10763 10752 10751 10750 ] final   22.55 input  -60.55 | X-H torsion
[ 11005 11000 10999 10996 ] final  113.46 input  -57.11 | X-H torsion

> <Gold.Protein.ActiveResidues>
 VAL166  LYS551  ARG553  GLY616  TRP617  ASP618  TYR619  PRO620  LYS621  CYS622 
 ASP623  PHE694  ASN695  SER759  ASP760  ASP761  ALA762  ILE779  LEU786  VAL792 
 PHE793  MET794  SER795  GLU796  ALA797  LYS798  CYS799  TRP800  GLU811  SER814 

> <Gold.Protein.RotatedAtoms>
  151.4305  135.1009  159.9640 H   0  0  0  0  0  0  0  0  0  0  0  0  # atno 6907 bound_to 6896
  152.4957  133.8622  159.7266 H   0  0  0  0  0  0  0  0  0  0  0  0  # atno 6908 bound_to 6896
  150.9158  133.6882  159.2871 H   0  0  0  0  0  0  0  0  0  0  0  0  # atno 6909 bound_to 6896
  145.6679  140.9231  143.0899 H   0  0  0  0  0  0  0  0  0  0  0  0  # atno 7974 bound_to 7965
  155.6254  140.0686  157.2665 H   0  0  0  0  0  0  0  0  0  0  0  0  # atno 8008 bound_to 7997
  154.4219  140.1777  156.1465 H   0  0  0  0  0  0  0  0  0  0  0  0  # atno 8009 bound_to 7997
  155.9976  140.3339  155.6817 H   0  0  0  0  0  0  0  0  0  0  0  0  # atno 8010 bound_to 7997
  140.7287  143.4278  151.0850 H   0  0  0  0  0  0  0  0  0  0  0  0  # atno 10167 bound_to 10162
  156.0033  130.4634  150.4105 H   0  0  0  0  0  0  0  0  0  0  0  0  # atno 10718 bound_to 10713
  153.0907  135.6646  153.9860 H   0  0  0  0  0  0  0  0  0  0  0  0  # atno 10763 bound_to 10752
  153.9458  135.2989  155.3442 H   0  0  0  0  0  0  0  0  0  0  0  0  # atno 10764 bound_to 10752
  154.7321  135.5118  153.9053 H   0  0  0  0  0  0  0  0  0  0  0  0  # atno 10765 bound_to 10752
  139.8954  134.9550  156.6743 H   0  0  0  0  0  0  0  0  0  0  0  0  # atno 11005 bound_to 11000
  144.7067  139.8533  143.7428 LP  0  0  0  0  0  0  0  0  0  0  0  0  # atno 17320 bound_to 7965
  146.1070  139.4071  143.0311 LP  0  0  0  0  0  0  0  0  0  0  0  0  # atno 17321 bound_to 7965
  139.7931  143.8190  152.3154 LP  0  0  0  0  0  0  0  0  0  0  0  0  # atno 17342 bound_to 10162
  139.8181  144.7307  150.9609 LP  0  0  0  0  0  0  0  0  0  0  0  0  # atno 17343 bound_to 10162
  157.2168  131.0473  151.2569 LP  0  0  0  0  0  0  0  0  0  0  0  0  # atno 17370 bound_to 10713
  157.3838  130.7245  149.6648 LP  0  0  0  0  0  0  0  0  0  0  0  0  # atno 17371 bound_to 10713
  140.7349  133.9027  155.8237 LP  0  0  0  0  0  0  0  0  0  0  0  0  # atno 17394 bound_to 11000
  141.0124  134.1002  157.4208 LP  0  0  0  0  0  0  0  0  0  0  0  0  # atno 17395 bound_to 11000

$$$$
