AV-unprocessed.smi:2002|AV-procd|sdf|8113|dock4
  -GOLD-   2272010343D 1   1.00000     0.00000
 Structure written by MMmdl.
 39 40  0  0  0  0  0  0  0  0  2 V2000
  144.1090  139.6115  156.1743 C   0  0  0  0  0  0  0  0  0  0  0  0
  144.4034  141.0872  155.8741 C   0  0  0  0  0  0  0  0  0  0  0  0
  145.3291  141.2466  154.7286 N   0  3  1  0  0  0  0  0  0  0  0  0
  145.5786  142.6461  154.3065 C   0  0  0  0  0  0  0  0  0  0  0  0
  147.0915  142.7817  154.0908 C   0  0  0  0  0  0  0  0  0  0  0  0
  147.5958  141.3437  153.9806 C   0  0  1  0  0  0  0  0  0  0  0  0
  149.0947  141.1879  154.3032 C   0  0  0  0  0  0  0  0  0  0  0  0
  149.5523  142.1632  155.2884 N   0  0  0  0  0  0  0  0  0  0  0  0
  150.4646  141.9332  156.2442 C   0  0  0  0  0  0  0  0  0  0  0  0
  151.0421  140.8548  156.3860 O   0  0  0  0  0  0  0  0  0  0  0  0
  150.6610  143.0230  157.0052 N   0  0  0  0  0  0  0  0  0  0  0  0
  151.5603  143.1661  158.0925 C   0  0  0  0  0  0  0  0  0  0  0  0
  152.1186  142.0274  158.7318 C   0  0  0  0  0  0  0  0  0  0  0  0
  152.9084  142.5762  159.7027 C   0  0  0  0  0  0  0  0  0  0  0  0
  153.7911  141.9833  160.7472 C   0  0  0  0  0  0  0  0  0  0  0  0
  152.8375  143.9345  159.6595 O   0  0  0  0  0  0  0  0  0  0  0  0
  151.9701  144.3068  158.6259 N   0  0  0  0  0  0  0  0  0  0  0  0
  146.6438  140.6033  154.9227 C   0  0  0  0  0  0  0  0  0  0  0  0
  143.4584  139.5181  157.0440 H   0  0  0  0  0  0  0  0  0  0  0  0
  145.0267  139.0622  156.3874 H   0  0  0  0  0  0  0  0  0  0  0  0
  143.6104  139.1211  155.3379 H   0  0  0  0  0  0  0  0  0  0  0  0
  143.4775  141.6325  155.6850 H   0  0  0  0  0  0  0  0  0  0  0  0
  144.8583  141.5391  156.7566 H   0  0  0  0  0  0  0  0  0  0  0  0
  145.0336  142.8320  153.3806 H   0  0  0  0  0  0  0  0  0  0  0  0
  145.2324  143.3708  155.0449 H   0  0  0  0  0  0  0  0  0  0  0  0
  147.3379  143.3816  153.2142 H   0  0  0  0  0  0  0  0  0  0  0  0
  147.5387  143.2676  154.9594 H   0  0  0  0  0  0  0  0  0  0  0  0
  147.4121  140.9973  152.9620 H   0  0  0  0  0  0  0  0  0  0  0  0
  149.2744  140.1957  154.7178 H   0  0  0  0  0  0  0  0  0  0  0  0
  149.6947  141.2490  153.3934 H   0  0  0  0  0  0  0  0  0  0  0  0
  149.1289  143.0791  155.2485 H   0  0  0  0  0  0  0  0  0  0  0  0
  150.1117  143.8397  156.7817 H   0  0  0  0  0  0  0  0  0  0  0  0
  151.9679  140.9800  158.5162 H   0  0  0  0  0  0  0  0  0  0  0  0
  153.4571  140.9808  161.0151 H   0  0  0  0  0  0  0  0  0  0  0  0
  153.7877  142.5921  161.6516 H   0  0  0  0  0  0  0  0  0  0  0  0
  154.8183  141.9139  160.3890 H   0  0  0  0  0  0  0  0  0  0  0  0
  146.9661  140.7352  155.9573 H   0  0  0  0  0  0  0  0  0  0  0  0
  146.5953  139.5333  154.7179 H   0  0  0  0  0  0  0  0  0  0  0  0
  144.9083  140.7814  153.9369 H   0  0  0  0  0  0  0  0  0  0  0  0
  1  2  1  0  0  0  0
  1 19  1  0  0  0  0
  1 20  1  0  0  0  0
  1 21  1  0  0  0  0
  2  3  1  0  0  0  0
  2 22  1  0  0  0  0
  2 23  1  0  0  0  0
  3 18  1  0  0  0  0
  3  4  1  0  0  0  0
  3 39  1  0  0  0  0
  4  5  1  0  0  0  0
  4 24  1  0  0  0  0
  4 25  1  0  0  0  0
  5  6  1  0  0  0  0
  5 26  1  0  0  0  0
  5 27  1  0  0  0  0
  6  7  1  0  0  0  0
  6 18  1  0  0  0  0
  6 28  1  0  0  0  0
  7  8  1  0  0  0  0
  7 29  1  0  0  0  0
  7 30  1  0  0  0  0
  8  9  1  0  0  0  0
  8 31  1  0  0  0  0
  9 10  2  0  0  0  0
  9 11  1  0  0  0  0
 11 12  1  0  0  0  0
 11 32  1  0  0  0  0
 12 17  2  0  0  0  0
 12 13  1  0  0  0  0
 13 14  2  0  0  0  0
 13 33  1  0  0  0  0
 14 15  1  0  0  0  0
 14 16  1  0  0  0  0
 15 34  1  0  0  0  0
 15 35  1  0  0  0  0
 15 36  1  0  0  0  0
 16 17  1  0  0  0  0
 18 37  1  0  0  0  0
 18 38  1  0  0  0  0
M  CHG  1   3   1
M  END
> <s_m_source_file>
AV-unprocessed.smi

> <i_m_source_file_index>
2002

> <i_lp_mmshare_version>
43012

> <i_f3d_flags>
0

> <s_epik_input>
W0NIM11bQ0gyXU4xW0NIMl1bQ0gyXVtDQEhdKFtDSDJdMSlbQ0gyXVtOSF1DKD1PKVtOSF1jMltjSF1jKFtDSDNdKW9uMg==

> <s_epik_cmdline>
J2VwaWtfcHl0aG9uJywgJy1waCcsICc3LjAnLCAnLXRuJywgJzgnLCAnLW1hJywgJzIwMCcsICctbWV0YWxfYmluZGluZycsICctaW1hZScsICc8aW5maWxlLm1hZT4nLCAnLW9tYWUnLCAnPG91dGZpbGUubWFlPic=

> <r_epik_Ionization_Penalty>
0.000632871

> <r_epik_Ionization_Penalty_Charging>
0.000610951

> <r_epik_Ionization_Penalty_Neutral>
2.19198e-05

> <r_epik_State_Penalty>
0.000385263

> <r_epik_Charging_Adjusted_Penalty>
0.000996214

> <i_epik_Tot_Q>
1

> <i_epik_Tot_abs_Q>
1

> <r_epik_Metal_State_Penalty>
-0

> <b_epik_Metal_Only>
0

> <s_lp_Force_Field>
OPLS_2005

> <r_lp_Energy>
24.2793

> <b_lp_Chiralities_Consistent>
1

> <s_lp_Variant>
AV-unprocessed.smi:2002-1

> <Gold.Version>
5.8.1

> <Gold.Id.Protein>
6NUR|6NUR_protein|mol2

> <Gold.PLP.Fitness>
44.8643

> <Gold.PLP.PLP>
-33.9729

> <Gold.PLP.part.hbond>
-3.0000

> <Gold.PLP.part.metal>
0.0000

> <Gold.PLP.part.buried>
-5.3840

> <Gold.PLP.part.nonpolar>
-26.6710

> <Gold.PLP.part.repulsive>
0.2849

> <Gold.PLP.ligand.clash>
0.0000

> <Gold.PLP.ligand.torsion>
0.5623

> <Gold.PLP.Chemscore.Hbond>
4.0000

> <Gold.PLP.Chemscore.CHOScore>
0.0000

> <Gold.PLP.Chemscore.Metal>
0.0000

> <Gold.Chemscore.Hbonds>
donor molecule, donor type, donor heavy atom, donor atom, acceptor molecule, acceptor atom, score
      L1  H     3    39       P1 10175  2.00
      L1  H     8    31       P1  8028  1.00
      L1  H    11    32       P1  8028  1.00

> <Gold.PLP.Chemscore.Internal.Correction>
0.0160

> <Gold.Rescore>
     Score         DG    S(hbond)    S(metal)    S(lipo)     H(rot)  DE(clash)    DE(int)     intcor
     17.04     -19.05       2.92        0.00      66.08       1.52       0.06       1.95       ----

> <Gold.Chemscore.Fitness>
17.0441

> <Gold.Chemscore.DG>
-19.0515

> <Gold.Chemscore.ZeroCoef>
-5.4800

> <Gold.Chemscore.Hbond>
2.9154

> <Gold.Chemscore.Metal>
0.0000

> <Gold.Chemscore.Lipo>
66.0797

> <Gold.Chemscore.Internal_Hbond>
0.0000

> <Gold.Chemscore.DEClash>
0.0592

> <Gold.Chemscore.DEInternal>
1.9481

> <Gold.Chemscore.Rot>
1.5223

> <Gold.Chemscore.Internal.Correction>
   9.000000E+99

> <Gold.Chemscore.Hbonds>
donor molecule, donor type, donor heavy atom, donor atom, acceptor molecule, acceptor atom, score
      L1  H     3    39       P1 10175  0.95
      L1  H     8    31       P1  8028  0.99
      L1  H    11    32       P1  8028  0.95

> <Gold.Chemscore.Hbond.Weighted>
-9.7373

> <Gold.Chemscore.Metal.Weighted>
-0.0000

> <Gold.Chemscore.Lipo.Weighted>
-7.7313

> <Gold.Chemscore.Internal_Hbond.Weighted>
0.0000

> <Gold.Chemscore.DEClash.Weighted>
0.0592

> <Gold.Chemscore.DEInternal.Weighted>
1.9481

> <Gold.Chemscore.Rot.Weighted>
3.8971

> <Gold.Chemscore.Internal.Correction.Weighted>
   9.000000E+99

> <Gold.Protein.RotatedTorsions>
[ 6907 6896 6895 6894 ] final   98.42 input  -60.11 | X-H torsion
[ 7974 7965 7964 7962 ] final  119.30 input  175.53 | X-H torsion
[ 8008 7997 7996 7995 ] final  103.43 input   59.86 | X-H torsion
[ 10167 10162 10161 10158 ] final  166.09 input  -65.29 | X-H torsion
[ 10718 10713 10712 10709 ] final -123.14 input   66.30 | X-H torsion
[ 10763 10752 10751 10750 ] final   62.78 input  -60.55 | X-H torsion
[ 11005 11000 10999 10996 ] final   99.99 input  -57.11 | X-H torsion

> <Gold.Protein.ActiveResidues>
 VAL166  LYS551  ARG553  GLY616  TRP617  ASP618  TYR619  PRO620  LYS621  CYS622 
 ASP623  PHE694  ASN695  SER759  ASP760  ASP761  ALA762  ILE779  LEU786  VAL792 
 PHE793  MET794  SER795  GLU796  ALA797  LYS798  CYS799  TRP800  GLU811  SER814 

> <Gold.Protein.RotatedAtoms>
  152.5409  134.0584  159.8140 H   0  0  0  0  0  0  0  0  0  0  0  0  # atno 6907 bound_to 6896
  151.0715  133.5455  159.2634 H   0  0  0  0  0  0  0  0  0  0  0  0  # atno 6908 bound_to 6896
  151.2316  135.0564  159.9044 H   0  0  0  0  0  0  0  0  0  0  0  0  # atno 6909 bound_to 6896
  145.1448  139.3246  143.4597 H   0  0  0  0  0  0  0  0  0  0  0  0  # atno 7974 bound_to 7965
  156.1483  140.3165  155.8607 H   0  0  0  0  0  0  0  0  0  0  0  0  # atno 8008 bound_to 7997
  155.4020  140.0500  157.3053 H   0  0  0  0  0  0  0  0  0  0  0  0  # atno 8009 bound_to 7997
  154.5036  140.2138  155.9308 H   0  0  0  0  0  0  0  0  0  0  0  0  # atno 8010 bound_to 7997
  139.4918  144.4064  151.9350 H   0  0  0  0  0  0  0  0  0  0  0  0  # atno 10167 bound_to 10162
  156.1477  130.6512  150.9867 H   0  0  0  0  0  0  0  0  0  0  0  0  # atno 10718 bound_to 10713
  152.9994  135.5452  154.6248 H   0  0  0  0  0  0  0  0  0  0  0  0  # atno 10763 bound_to 10752
  154.5539  135.2828  155.0985 H   0  0  0  0  0  0  0  0  0  0  0  0  # atno 10764 bound_to 10752
  154.2214  135.6450  153.5198 H   0  0  0  0  0  0  0  0  0  0  0  0  # atno 10765 bound_to 10752
  139.8771  134.9120  156.4689 H   0  0  0  0  0  0  0  0  0  0  0  0  # atno 11005 bound_to 11000
  146.3501  140.1500  142.8592 LP  0  0  0  0  0  0  0  0  0  0  0  0  # atno 17320 bound_to 7965
  145.0493  140.9005  143.5005 LP  0  0  0  0  0  0  0  0  0  0  0  0  # atno 17321 bound_to 7965
  140.3504  144.3095  150.5950 LP  0  0  0  0  0  0  0  0  0  0  0  0  # atno 17342 bound_to 10162
  140.5490  143.2210  151.7959 LP  0  0  0  0  0  0  0  0  0  0  0  0  # atno 17343 bound_to 10162
  157.6630  131.0877  150.7793 LP  0  0  0  0  0  0  0  0  0  0  0  0  # atno 17370 bound_to 10713
  156.7863  130.4876  149.5392 LP  0  0  0  0  0  0  0  0  0  0  0  0  # atno 17371 bound_to 10713
  140.8810  133.7918  155.9467 LP  0  0  0  0  0  0  0  0  0  0  0  0  # atno 17394 bound_to 11000
  140.8854  134.2561  157.5122 LP  0  0  0  0  0  0  0  0  0  0  0  0  # atno 17395 bound_to 11000

$$$$
