AV-unprocessed.smi:2600|AV-procd|sdf|10181|dock9
  -GOLD-   2272014193D 1   1.00000     0.00000
 Structure written by MMmdl.
 44 45  0  0  0  0  0  0  0  0  1 V2000
  142.6370  136.1521  162.7458 C   0  0  0  0  0  0  0  0  0  0  0  0
  143.9886  136.8453  162.5080 C   0  0  0  0  0  0  0  0  0  0  0  0
  145.0864  135.9642  161.8655 C   0  0  1  0  0  0  0  0  0  0  0  0
  144.5189  135.3623  160.5586 C   0  0  0  0  0  0  0  0  0  0  0  0
  146.3901  136.7667  161.6076 C   0  0  0  0  0  0  0  0  0  0  0  0
  147.4583  135.8498  161.1840 N   0  0  0  0  0  0  0  0  0  0  0  0
  148.0271  135.7682  159.9555 C   0  0  0  0  0  0  0  0  0  0  0  0
  148.6717  134.7905  159.5734 O   0  0  0  0  0  0  0  0  0  0  0  0
  147.8332  136.8453  159.1758 N   0  0  0  0  0  0  0  0  0  0  0  0
  148.3020  136.9839  157.8026 C   0  0  0  0  0  0  0  0  0  0  0  0
  149.2223  138.2058  157.6453 C   0  0  0  0  0  0  0  0  0  0  0  0
  149.6398  138.4533  156.2306 C   0  0  0  0  0  0  0  0  0  0  0  0
  149.2905  137.7922  155.0865 C   0  0  0  0  0  0  0  0  0  0  0  0
  149.9917  138.4817  154.0595 C   0  0  0  0  0  0  0  0  0  0  0  0
  150.7148  139.4855  154.5248 N   0  0  0  0  0  0  0  0  0  0  0  0
  150.5038  139.4695  155.8583 N   0  0  0  0  0  0  0  0  0  0  0  0
  151.1617  140.4648  156.6841 C   0  0  0  0  0  0  0  0  0  0  0  0
  147.7338  134.8847  162.2495 C   0  0  0  0  0  0  0  0  0  0  0  0
  146.4614  134.0553  162.4885 C   0  0  0  0  0  0  0  0  0  0  0  0
  145.3594  134.9111  162.8003 O   0  0  0  0  0  0  0  0  0  0  0  0
  141.8986  136.8704  163.1023 H   0  0  0  0  0  0  0  0  0  0  0  0
  142.7081  135.3679  163.4986 H   0  0  0  0  0  0  0  0  0  0  0  0
  142.2465  135.7088  161.8296 H   0  0  0  0  0  0  0  0  0  0  0  0
  143.8124  137.7114  161.8683 H   0  0  0  0  0  0  0  0  0  0  0  0
  144.3488  137.2450  163.4569 H   0  0  0  0  0  0  0  0  0  0  0  0
  144.2362  136.1489  159.8584 H   0  0  0  0  0  0  0  0  0  0  0  0
  143.6295  134.7638  160.7565 H   0  0  0  0  0  0  0  0  0  0  0  0
  145.2307  134.7201  160.0414 H   0  0  0  0  0  0  0  0  0  0  0  0
  146.1945  137.5756  160.9036 H   0  0  0  0  0  0  0  0  0  0  0  0
  146.7299  137.2594  162.5182 H   0  0  0  0  0  0  0  0  0  0  0  0
  147.3025  137.6149  159.5572 H   0  0  0  0  0  0  0  0  0  0  0  0
  148.8427  136.0756  157.5354 H   0  0  0  0  0  0  0  0  0  0  0  0
  147.4501  137.0477  157.1242 H   0  0  0  0  0  0  0  0  0  0  0  0
  148.7332  139.0973  158.0391 H   0  0  0  0  0  0  0  0  0  0  0  0
  150.1125  138.0650  158.2594 H   0  0  0  0  0  0  0  0  0  0  0  0
  148.6302  136.9422  154.9971 H   0  0  0  0  0  0  0  0  0  0  0  0
  149.9963  138.2841  152.9979 H   0  0  0  0  0  0  0  0  0  0  0  0
  151.4391  140.0347  157.6463 H   0  0  0  0  0  0  0  0  0  0  0  0
  150.4877  141.3055  156.8499 H   0  0  0  0  0  0  0  0  0  0  0  0
  152.0662  140.8276  156.1941 H   0  0  0  0  0  0  0  0  0  0  0  0
  148.5703  134.2238  162.0187 H   0  0  0  0  0  0  0  0  0  0  0  0
  148.0135  135.4160  163.1604 H   0  0  0  0  0  0  0  0  0  0  0  0
  146.2330  133.4364  161.6208 H   0  0  0  0  0  0  0  0  0  0  0  0
  146.6136  133.3709  163.3231 H   0  0  0  0  0  0  0  0  0  0  0  0
  1  2  1  0  0  0  0
  1 21  1  0  0  0  0
  1 22  1  0  0  0  0
  1 23  1  0  0  0  0
  2  3  1  0  0  0  0
  2 24  1  0  0  0  0
  2 25  1  0  0  0  0
  3 20  1  0  0  0  0
  3  4  1  0  0  0  0
  3  5  1  0  0  0  0
  4 26  1  0  0  0  0
  4 27  1  0  0  0  0
  4 28  1  0  0  0  0
  5  6  1  0  0  0  0
  5 29  1  0  0  0  0
  5 30  1  0  0  0  0
  6  7  1  0  0  0  0
  6 18  1  0  0  0  0
  7  8  2  0  0  0  0
  7  9  1  0  0  0  0
  9 10  1  0  0  0  0
  9 31  1  0  0  0  0
 10 11  1  0  0  0  0
 10 32  1  0  0  0  0
 10 33  1  0  0  0  0
 11 12  1  0  0  0  0
 11 34  1  0  0  0  0
 11 35  1  0  0  0  0
 12 16  1  0  0  0  0
 12 13  2  0  0  0  0
 13 14  1  0  0  0  0
 13 36  1  0  0  0  0
 14 15  2  0  0  0  0
 14 37  1  0  0  0  0
 15 16  1  0  0  0  0
 16 17  1  0  0  0  0
 17 38  1  0  0  0  0
 17 39  1  0  0  0  0
 17 40  1  0  0  0  0
 18 19  1  0  0  0  0
 18 41  1  0  0  0  0
 18 42  1  0  0  0  0
 19 20  1  0  0  0  0
 19 43  1  0  0  0  0
 19 44  1  0  0  0  0
M  END
> <s_m_source_file>
AV-unprocessed.smi

> <i_m_source_file_index>
2600

> <i_lp_mmshare_version>
43012

> <i_f3d_flags>
0

> <s_epik_input>
W0NIM11bQ0gyXVtDQEBdMShbQ0gzXSlbQ0gyXU4oW0NIMl1bQ0gyXU8xKUMoPU8pW05IXVtDSDJdW0NIMl1jMltjSF1bY0hdbm4yW0NIM10=

> <s_epik_cmdline>
J2VwaWtfcHl0aG9uJywgJy1waCcsICc3LjAnLCAnLXRuJywgJzgnLCAnLW1hJywgJzIwMCcsICctbWV0YWxfYmluZGluZycsICctaW1hZScsICc8aW5maWxlLm1hZT4nLCAnLW9tYWUnLCAnPG91dGZpbGUubWFlPic=

> <r_lp_tautomer_probability>
1

> <r_epik_Ionization_Penalty>
0.00252014

> <r_epik_Ionization_Penalty_Charging>
0

> <r_epik_Ionization_Penalty_Neutral>
0.00252014

> <r_epik_State_Penalty>
0.00172506

> <r_epik_Charging_Adjusted_Penalty>
0.00172506

> <i_epik_Tot_Q>
0

> <i_epik_Tot_abs_Q>
0

> <r_epik_Metal_State_Penalty>
-0

> <b_epik_Metal_Only>
0

> <s_lp_Force_Field>
OPLS_2005

> <r_lp_Energy>
28.913

> <b_lp_Chiralities_Consistent>
1

> <s_lp_Variant>
AV-unprocessed.smi:2600-1

> <Gold.Version>
5.8.1

> <Gold.Id.Protein>
6NUR|6NUR_protein|mol2

> <Gold.PLP.Fitness>
39.6692

> <Gold.PLP.PLP>
-28.8729

> <Gold.PLP.part.hbond>
-2.0000

> <Gold.PLP.part.metal>
0.0000

> <Gold.PLP.part.buried>
-5.8306

> <Gold.PLP.part.nonpolar>
-22.2529

> <Gold.PLP.part.repulsive>
0.2557

> <Gold.PLP.ligand.clash>
0.0000

> <Gold.PLP.ligand.torsion>
0.1208

> <Gold.PLP.Chemscore.Hbond>
1.9511

> <Gold.PLP.Chemscore.CHOScore>
1.7199

> <Gold.PLP.Chemscore.Metal>
0.0000

> <Gold.Chemscore.Hbonds>
donor molecule, donor type, donor heavy atom, donor atom, acceptor molecule, acceptor atom, score
      P1  H  6896  6908       L1     8  0.96
      P1  H  7989  7998       L1    15  1.00
      L1  C    14    37       P1  7948  0.93
      L1  C    14    37       P1  7957  0.88

> <Gold.PLP.Chemscore.Internal.Correction>
0.0251

> <Gold.Rescore>
     Score         DG    S(hbond)    S(metal)    S(lipo)     H(rot)  DE(clash)    DE(int)     intcor
     15.57     -15.66       1.98        0.00      62.60       1.47       0.01       0.08       ----

> <Gold.Chemscore.Fitness>
15.5661

> <Gold.Chemscore.DG>
-15.6562

> <Gold.Chemscore.ZeroCoef>
-5.4800

> <Gold.Chemscore.Hbond>
1.9834

> <Gold.Chemscore.Metal>
0.0000

> <Gold.Chemscore.Lipo>
62.5959

> <Gold.Chemscore.Internal_Hbond>
0.0000

> <Gold.Chemscore.DEClash>
0.0133

> <Gold.Chemscore.DEInternal>
0.0768

> <Gold.Chemscore.Rot>
1.4735

> <Gold.Chemscore.Internal.Correction>
   9.000000E+99

> <Gold.Chemscore.Hbonds>
donor molecule, donor type, donor heavy atom, donor atom, acceptor molecule, acceptor atom, score
      P1  H  6896  6908       L1     8  0.89
      P1  H  7989  7998       L1    15  0.99

> <Gold.Chemscore.Hbond.Weighted>
-6.6245

> <Gold.Chemscore.Metal.Weighted>
-0.0000

> <Gold.Chemscore.Lipo.Weighted>
-7.3237

> <Gold.Chemscore.Internal_Hbond.Weighted>
0.0000

> <Gold.Chemscore.DEClash.Weighted>
0.0133

> <Gold.Chemscore.DEInternal.Weighted>
0.0768

> <Gold.Chemscore.Rot.Weighted>
3.7721

> <Gold.Chemscore.Internal.Correction.Weighted>
   9.000000E+99

> <Gold.Protein.RotatedTorsions>
[ 6907 6896 6895 6894 ] final  153.88 input  -60.11 | X-H torsion
[ 7974 7965 7964 7962 ] final   95.87 input  175.53 | X-H torsion
[ 8008 7997 7996 7995 ] final  152.33 input   59.86 | X-H torsion
[ 10167 10162 10161 10158 ] final -167.36 input  -65.29 | X-H torsion
[ 10718 10713 10712 10709 ] final   73.00 input   66.30 | X-H torsion
[ 10763 10752 10751 10750 ] final -107.85 input  -60.55 | X-H torsion
[ 11005 11000 10999 10996 ] final  -78.64 input  -57.11 | X-H torsion

> <Gold.Protein.ActiveResidues>
 VAL166  LYS551  ARG553  GLY616  TRP617  ASP618  TYR619  PRO620  LYS621  CYS622 
 ASP623  PHE694  ASN695  SER759  ASP760  ASP761  ALA762  ILE779  LEU786  VAL792 
 PHE793  MET794  SER795  GLU796  ALA797  LYS798  CYS799  TRP800  GLU811  SER814 

> <Gold.Protein.RotatedAtoms>
  152.0664  133.4086  159.4439 H   0  0  0  0  0  0  0  0  0  0  0  0  # atno 6907 bound_to 6896
  150.6864  134.3142  159.4768 H   0  0  0  0  0  0  0  0  0  0  0  0  # atno 6908 bound_to 6896
  152.0969  134.9368  160.0621 H   0  0  0  0  0  0  0  0  0  0  0  0  # atno 6909 bound_to 6896
  145.4465  139.2297  143.3063 H   0  0  0  0  0  0  0  0  0  0  0  0  # atno 7974 bound_to 7965
  156.2634  140.2023  156.6317 H   0  0  0  0  0  0  0  0  0  0  0  0  # atno 8008 bound_to 7997
  154.6678  140.0553  157.0157 H   0  0  0  0  0  0  0  0  0  0  0  0  # atno 8009 bound_to 7997
  155.1182  140.3222  155.4507 H   0  0  0  0  0  0  0  0  0  0  0  0  # atno 8010 bound_to 7997
  139.6054  144.0924  152.1787 H   0  0  0  0  0  0  0  0  0  0  0  0  # atno 10167 bound_to 10162
  157.6527  130.9606  150.1007 H   0  0  0  0  0  0  0  0  0  0  0  0  # atno 10718 bound_to 10713
  154.8100  135.4659  154.0492 H   0  0  0  0  0  0  0  0  0  0  0  0  # atno 10763 bound_to 10752
  153.1930  135.6858  153.8334 H   0  0  0  0  0  0  0  0  0  0  0  0  # atno 10764 bound_to 10752
  153.7845  135.3252  155.3347 H   0  0  0  0  0  0  0  0  0  0  0  0  # atno 10765 bound_to 10752
  141.1665  133.7072  156.8002 H   0  0  0  0  0  0  0  0  0  0  0  0  # atno 11005 bound_to 11000
  146.2528  140.5219  142.8886 LP  0  0  0  0  0  0  0  0  0  0  0  0  # atno 17320 bound_to 7965
  144.8088  140.6349  143.6429 LP  0  0  0  0  0  0  0  0  0  0  0  0  # atno 17321 bound_to 7965
  140.0530  144.5918  150.7321 LP  0  0  0  0  0  0  0  0  0  0  0  0  # atno 17342 bound_to 10162
  140.7281  143.2658  151.4050 LP  0  0  0  0  0  0  0  0  0  0  0  0  # atno 17343 bound_to 10162
  156.1930  130.3656  149.8885 LP  0  0  0  0  0  0  0  0  0  0  0  0  # atno 17370 bound_to 10713
  156.6808  130.8857  151.3575 LP  0  0  0  0  0  0  0  0  0  0  0  0  # atno 17371 bound_to 10713
  140.2262  134.8720  157.3429 LP  0  0  0  0  0  0  0  0  0  0  0  0  # atno 17394 bound_to 11000
  140.1937  134.4339  155.7701 LP  0  0  0  0  0  0  0  0  0  0  0  0  # atno 17395 bound_to 11000

$$$$
