AV-unprocessed.smi:342|AV-procd|sdf|2384|dock2
  -GOLD-   2262022313D 1   1.00000     0.00000
 Structure written by MMmdl.
 41 43  0  0  0  0  0  0  0  0  1 V2000
  151.5551  138.9075  159.2866 O   0  0  0  0  0  0  0  0  0  0  0  0
  152.1495  139.9472  158.5383 C   0  0  2  0  0  0  0  0  0  0  0  0
  152.1211  139.5530  157.0452 C   0  0  0  0  0  0  0  0  0  0  0  0
  150.8361  139.7389  156.3702 N   0  0  0  0  0  0  0  0  0  0  0  0
  150.5711  141.1385  156.0381 C   0  0  0  0  0  0  0  0  0  0  0  0
  149.2348  141.3098  155.2945 C   0  0  0  0  0  0  0  0  0  0  0  0
  149.2290  140.5001  154.1237 O   0  0  0  0  0  0  0  0  0  0  0  0
  149.4369  139.1214  154.4105 C   0  0  0  0  0  0  0  0  0  0  0  0
  150.7765  138.9469  155.1459 C   0  0  0  0  0  0  0  0  0  0  0  0
  153.5723  140.1693  159.0914 C   0  0  0  0  0  0  0  0  0  0  0  0
  153.6208  141.1844  160.1370 N   0  0  0  0  0  0  0  0  0  0  0  0
  154.3756  141.2047  161.2677 C   0  0  0  0  0  0  0  0  0  0  0  0
  155.3240  140.0941  161.6276 C   0  0  0  0  0  0  0  0  0  0  0  0
  156.3094  140.0003  160.7334 F   0  0  0  0  0  0  0  0  0  0  0  0
  155.8770  140.3174  162.8199 F   0  0  0  0  0  0  0  0  0  0  0  0
  154.6933  138.9205  161.6578 F   0  0  0  0  0  0  0  0  0  0  0  0
  154.2117  142.2757  162.0480 N   0  0  0  0  0  0  0  0  0  0  0  0
  153.2592  143.0091  161.3705 C   0  0  0  0  0  0  0  0  0  0  0  0
  152.6605  144.2496  161.6866 C   0  0  0  0  0  0  0  0  0  0  0  0
  151.6895  144.8117  160.8324 C   0  0  0  0  0  0  0  0  0  0  0  0
  151.3012  144.1406  159.6549 C   0  0  0  0  0  0  0  0  0  0  0  0
  151.8856  142.9035  159.3222 C   0  0  0  0  0  0  0  0  0  0  0  0
  152.8601  142.3496  160.1746 C   0  0  0  0  0  0  0  0  0  0  0  0
  151.5393  139.1679  160.1953 H   0  0  0  0  0  0  0  0  0  0  0  0
  151.5701  140.8520  158.7095 H   0  0  0  0  0  0  0  0  0  0  0  0
  152.8803  140.1153  156.5005 H   0  0  0  0  0  0  0  0  0  0  0  0
  152.4212  138.5068  156.9698 H   0  0  0  0  0  0  0  0  0  0  0  0
  150.5422  141.7488  156.9395 H   0  0  0  0  0  0  0  0  0  0  0  0
  151.3798  141.5325  155.4204 H   0  0  0  0  0  0  0  0  0  0  0  0
  148.3974  141.0363  155.9383 H   0  0  0  0  0  0  0  0  0  0  0  0
  149.0913  142.3516  155.0077 H   0  0  0  0  0  0  0  0  0  0  0  0
  148.6119  138.7381  155.0129 H   0  0  0  0  0  0  0  0  0  0  0  0
  149.4407  138.5592  153.4766 H   0  0  0  0  0  0  0  0  0  0  0  0
  151.5919  139.2330  154.4794 H   0  0  0  0  0  0  0  0  0  0  0  0
  150.9215  137.8917  155.3801 H   0  0  0  0  0  0  0  0  0  0  0  0
  153.9581  139.2392  159.5109 H   0  0  0  0  0  0  0  0  0  0  0  0
  154.2497  140.4389  158.2825 H   0  0  0  0  0  0  0  0  0  0  0  0
  152.9482  144.7691  162.5887 H   0  0  0  0  0  0  0  0  0  0  0  0
  151.2385  145.7607  161.0831 H   0  0  0  0  0  0  0  0  0  0  0  0
  150.5540  144.5760  159.0076 H   0  0  0  0  0  0  0  0  0  0  0  0
  151.5860  142.3880  158.4221 H   0  0  0  0  0  0  0  0  0  0  0  0
  1  2  1  0  0  0  0
  1 24  1  0  0  0  0
  2  3  1  0  0  0  0
  2 10  1  0  0  0  0
  2 25  1  0  0  0  0
  3  4  1  0  0  0  0
  3 26  1  0  0  0  0
  3 27  1  0  0  0  0
  4  9  1  0  0  0  0
  4  5  1  0  0  0  0
  5  6  1  0  0  0  0
  5 28  1  0  0  0  0
  5 29  1  0  0  0  0
  6  7  1  0  0  0  0
  6 30  1  0  0  0  0
  6 31  1  0  0  0  0
  7  8  1  0  0  0  0
  8  9  1  0  0  0  0
  8 32  1  0  0  0  0
  8 33  1  0  0  0  0
  9 34  1  0  0  0  0
  9 35  1  0  0  0  0
 10 11  1  0  0  0  0
 10 36  1  0  0  0  0
 10 37  1  0  0  0  0
 11 23  1  0  0  0  0
 11 12  1  0  0  0  0
 12 13  1  0  0  0  0
 12 17  2  0  0  0  0
 13 14  1  0  0  0  0
 13 15  1  0  0  0  0
 13 16  1  0  0  0  0
 17 18  1  0  0  0  0
 18 23  2  0  0  0  0
 18 19  1  0  0  0  0
 19 20  2  0  0  0  0
 19 38  1  0  0  0  0
 20 21  1  0  0  0  0
 20 39  1  0  0  0  0
 21 22  2  0  0  0  0
 21 40  1  0  0  0  0
 22 23  1  0  0  0  0
 22 41  1  0  0  0  0
M  END
> <s_m_source_file>
AV-unprocessed.smi

> <i_m_source_file_index>
342

> <i_lp_mmshare_version>
43012

> <i_f3d_flags>
0

> <s_epik_input>
W2NIXTFbY0hdW2NIXVtjSF1jKGMxMiluKGMobjIpQyhGKShGKUYpW0NIMl1bQ0BIXShbT0hdKVtDSDJdTjNbQ0gyXVtDSDJdT1tDSDJdW0NIMl0z

> <s_epik_cmdline>
J2VwaWtfcHl0aG9uJywgJy1waCcsICc3LjAnLCAnLXRuJywgJzgnLCAnLW1hJywgJzIwMCcsICctbWV0YWxfYmluZGluZycsICctaW1hZScsICc8aW5maWxlLm1hZT4nLCAnLW9tYWUnLCAnPG91dGZpbGUubWFlPic=

> <r_epik_Ionization_Penalty>
0.263195

> <r_epik_Ionization_Penalty_Charging>
0

> <r_epik_Ionization_Penalty_Neutral>
0.263195

> <r_epik_State_Penalty>
0.254683

> <r_epik_Charging_Adjusted_Penalty>
0.254683

> <i_epik_Tot_Q>
0

> <i_epik_Tot_abs_Q>
0

> <r_epik_Metal_State_Penalty>
0.254691

> <b_epik_Metal_Only>
0

> <s_lp_Force_Field>
OPLS_2005

> <r_lp_Energy>
34.5918

> <b_lp_Chiralities_Consistent>
1

> <s_lp_Variant>
AV-unprocessed.smi:342-1

> <Gold.Version>
5.8.1

> <Gold.Id.Protein>
6NUR|6NUR_protein|mol2

> <Gold.PLP.Fitness>
49.8776

> <Gold.PLP.PLP>
-49.4324

> <Gold.PLP.part.hbond>
-2.9465

> <Gold.PLP.part.metal>
0.0000

> <Gold.PLP.part.buried>
-0.2561

> <Gold.PLP.part.nonpolar>
-45.2557

> <Gold.PLP.part.repulsive>
1.9575

> <Gold.PLP.ligand.clash>
0.0000

> <Gold.PLP.ligand.torsion>
1.1045

> <Gold.PLP.Chemscore.Hbond>
0.8394

> <Gold.PLP.Chemscore.CHOScore>
0.0000

> <Gold.PLP.Chemscore.Metal>
0.0000

> <Gold.PLP.Chemscore.Internal.Correction>
0.1360

> <Gold.Rescore>
     Score         DG    S(hbond)    S(metal)    S(lipo)     H(rot)  DE(clash)    DE(int)     intcor
     12.30     -13.41       0.00        0.00     116.81       2.24       0.30       0.81       ----

> <Gold.Chemscore.Fitness>
12.2988

> <Gold.Chemscore.DG>
-13.4074

> <Gold.Chemscore.ZeroCoef>
-5.4800

> <Gold.Chemscore.Hbond>
0.0000

> <Gold.Chemscore.Metal>
0.0000

> <Gold.Chemscore.Lipo>
116.8147

> <Gold.Chemscore.Internal_Hbond>
0.0000

> <Gold.Chemscore.DEClash>
0.2983

> <Gold.Chemscore.DEInternal>
0.8103

> <Gold.Chemscore.Rot>
2.2421

> <Gold.Chemscore.Internal.Correction>
   9.000000E+99

> <Gold.Chemscore.Hbond.Weighted>
-0.0000

> <Gold.Chemscore.Metal.Weighted>
-0.0000

> <Gold.Chemscore.Lipo.Weighted>
-13.6673

> <Gold.Chemscore.Internal_Hbond.Weighted>
0.0000

> <Gold.Chemscore.DEClash.Weighted>
0.2983

> <Gold.Chemscore.DEInternal.Weighted>
0.8103

> <Gold.Chemscore.Rot.Weighted>
5.7399

> <Gold.Chemscore.Internal.Correction.Weighted>
   9.000000E+99

> <Gold.Protein.RotatedTorsions>
[ 6907 6896 6895 6894 ] final  100.87 input  -60.11 | X-H torsion
[ 7974 7965 7964 7962 ] final  -24.22 input  175.53 | X-H torsion
[ 8008 7997 7996 7995 ] final   41.19 input   59.86 | X-H torsion
[ 10167 10162 10161 10158 ] final  103.87 input  -65.29 | X-H torsion
[ 10718 10713 10712 10709 ] final   65.96 input   66.30 | X-H torsion
[ 10763 10752 10751 10750 ] final   29.06 input  -60.55 | X-H torsion
[ 11005 11000 10999 10996 ] final -162.33 input  -57.11 | X-H torsion

> <Gold.Protein.ActiveResidues>
 VAL166  LYS551  ARG553  GLY616  TRP617  ASP618  TYR619  PRO620  LYS621  CYS622 
 ASP623  PHE694  ASN695  SER759  ASP760  ASP761  ALA762  ILE779  LEU786  VAL792 
 PHE793  MET794  SER795  GLU796  ALA797  LYS798  CYS799  TRP800  GLU811  SER814 

> <Gold.Protein.RotatedAtoms>
  152.5362  134.0211  159.7981 H   0  0  0  0  0  0  0  0  0  0  0  0  # atno 6907 bound_to 6896
  151.0397  133.5709  159.2659 H   0  0  0  0  0  0  0  0  0  0  0  0  # atno 6908 bound_to 6896
  151.2683  135.0684  159.9178 H   0  0  0  0  0  0  0  0  0  0  0  0  # atno 6909 bound_to 6896
  146.1568  140.4722  142.8588 H   0  0  0  0  0  0  0  0  0  0  0  0  # atno 7974 bound_to 7965
  155.2656  140.3362  155.4269 H   0  0  0  0  0  0  0  0  0  0  0  0  # atno 8008 bound_to 7997
  156.2155  140.1787  156.7640 H   0  0  0  0  0  0  0  0  0  0  0  0  # atno 8009 bound_to 7997
  154.5748  140.0664  156.9002 H   0  0  0  0  0  0  0  0  0  0  0  0  # atno 8010 bound_to 7997
  139.7226  144.7055  151.0849 H   0  0  0  0  0  0  0  0  0  0  0  0  # atno 10167 bound_to 10162
  157.6139  130.9242  150.0045 H   0  0  0  0  0  0  0  0  0  0  0  0  # atno 10718 bound_to 10713
  153.0453  135.6498  154.0833 H   0  0  0  0  0  0  0  0  0  0  0  0  # atno 10763 bound_to 10752
  154.0532  135.2894  155.3338 H   0  0  0  0  0  0  0  0  0  0  0  0  # atno 10764 bound_to 10752
  154.6706  135.5357  153.8199 H   0  0  0  0  0  0  0  0  0  0  0  0  # atno 10765 bound_to 10752
  140.6104  134.4855  157.5215 H   0  0  0  0  0  0  0  0  0  0  0  0  # atno 11005 bound_to 11000
  144.7974  140.6148  143.6501 LP  0  0  0  0  0  0  0  0  0  0  0  0  # atno 17320 bound_to 7965
  145.4688  139.1505  143.3825 LP  0  0  0  0  0  0  0  0  0  0  0  0  # atno 17321 bound_to 7965
  140.7756  143.5147  150.9610 LP  0  0  0  0  0  0  0  0  0  0  0  0  # atno 17342 bound_to 10162
  139.8834  143.7044  152.3154 LP  0  0  0  0  0  0  0  0  0  0  0  0  # atno 17343 bound_to 10162
  156.1252  130.3644  149.9821 LP  0  0  0  0  0  0  0  0  0  0  0  0  # atno 17370 bound_to 10713
  156.7893  130.9250  151.3646 LP  0  0  0  0  0  0  0  0  0  0  0  0  # atno 17371 bound_to 10713
  139.9194  134.8179  156.1259 LP  0  0  0  0  0  0  0  0  0  0  0  0  # atno 17394 bound_to 11000
  141.0811  133.6754  156.2339 LP  0  0  0  0  0  0  0  0  0  0  0  0  # atno 17395 bound_to 11000

$$$$
