#       Name:                AV-unprocessed.smi:1126
#       Creating user name   scv26
#       Creation time:       Fri Mar 27 03:40:09 2020


#       File generated by GOLD software.
#

@<TRIPOS>MOLECULE
AV-unprocessed.smi:1126
    53    54     1
SMALL
NO_CHARGES


@<TRIPOS>ATOM
      1 ****        -4.6108  -5.0895  -2.0897 C.3            1 S1                 0.0000
      2 ****        -4.1918  -4.0331  -1.2429 O.3            1 S1                 0.0000
      3 ****        -4.6525  -2.7668  -1.6844 C.3            1 S1                 0.0000
      4 ****        -4.1747  -1.6894  -0.6981 C.3            1 S1                 0.0000
      5 ****        -2.6941  -1.5952  -0.6247 N.4            1 S1                 1.0000
      6 ****        -2.2354  -0.9686   0.6414 C.3            1 S1                 0.0000
      7 ****        -0.7032  -1.0137   0.7641 C.3            1 S1                 0.0000
      8 ****        -0.0211  -0.3394  -0.4424 C.3            1 S1                 0.0000
      9 ****         1.5156  -0.4111  -0.3711 C.3            1 S1                 0.0000
     10 ****         2.0304   0.2995   0.7917 N.am           1 S1                 0.0000
     11 ****         3.3216   0.3297   1.1519 C.2            1 S1                 0.0000
     12 ****         4.2111  -0.2563   0.5355 O.2            1 S1                 0.0000
     13 ****         3.6630   1.1471   2.3981 C.3            1 S1                 0.0000
     14 ****         3.6491   2.5698   2.1089 N.pl3          1 S1                 0.0000
     15 ****         4.6392   3.3352   1.5293 C.2            1 S1                 0.0000
     16 ****         4.1759   4.6181   1.4533 C.2            1 S1                 0.0000
     17 ****         4.8667   5.8335   0.9050 C.3            1 S1                 0.0000
     18 ****         2.8723   4.5332   2.0199 C.2            1 S1                 0.0000
     19 ****         2.5590   3.3081   2.4100 N.2            1 S1                 0.0000
     20 ****        -0.5470  -0.9845  -1.7361 C.3            1 S1                 0.0000
     21 ****        -2.0822  -0.9347  -1.8077 C.3            1 S1                 0.0000
     22 ****        -4.2231  -6.0363  -1.7137 H              1 S1                 0.0000
     23 ****        -4.2375  -4.9535  -3.1055 H              1 S1                 0.0000
     24 ****        -5.6988  -5.1609  -2.1225 H              1 S1                 0.0000
     25 ****        -4.3100  -2.5635  -2.6991 H              1 S1                 0.0000
     26 ****        -5.7433  -2.7683  -1.7129 H              1 S1                 0.0000
     27 ****        -4.5910  -0.7168  -0.9644 H              1 S1                 0.0000
     28 ****        -4.5754  -1.9356   0.2863 H              1 S1                 0.0000
     29 ****        -2.5874   0.0633   0.6866 H              1 S1                 0.0000
     30 ****        -2.6750  -1.4911   1.4918 H              1 S1                 0.0000
     31 ****        -0.4045  -0.5268   1.6930 H              1 S1                 0.0000
     32 ****        -0.3748  -2.0514   0.8417 H              1 S1                 0.0000
     33 ****        -0.3084   0.7135  -0.4525 H              1 S1                 0.0000
     34 ****         1.8416  -1.4521  -0.3370 H              1 S1                 0.0000
     35 ****         1.9515   0.0298  -1.2691 H              1 S1                 0.0000
     36 ****         1.3670   0.8161   1.3511 H              1 S1                 0.0000
     37 ****         2.9531   0.9274   3.1974 H              1 S1                 0.0000
     38 ****         4.6536   0.8740   2.7642 H              1 S1                 0.0000
     39 ****         5.5812   2.9059   1.2206 H              1 S1                 0.0000
     40 ****         4.3368   6.7513   1.1605 H              1 S1                 0.0000
     41 ****         4.9404   5.7971  -0.1820 H              1 S1                 0.0000
     42 ****         5.8806   5.9298   1.2935 H              1 S1                 0.0000
     43 ****         2.1478   5.3222   2.1577 H              1 S1                 0.0000
     44 ****        -0.1256  -0.4757  -2.6039 H              1 S1                 0.0000
     45 ****        -0.2135  -2.0217  -1.7956 H              1 S1                 0.0000
     46 ****        -2.4040  -1.4226  -2.7267 H              1 S1                 0.0000
     47 ****        -2.4218   0.1008  -1.8653 H              1 S1                 0.0000
     48 ****        -2.3519  -2.5456  -0.6072 H              1 S1                 0.0000
     49 ****        -3.1922  -4.0197  -1.2178 LP             1 S1                 0.0000
     50 ****        -4.5460  -4.2001  -0.3228 LP             1 S1                 0.0000
     51 ****         3.9864  -0.7899  -0.2798 LP             1 S1                 0.0000
     52 ****         5.1586  -0.1989   0.8500 LP             1 S1                 0.0000
     53 ****         1.7071   2.9987   2.8325 LP             1 S1                 0.0000
@<TRIPOS>BOND
    1    1    2 1     
    2    1   22 1     
    3    1   23 1     
    4    1   24 1     
    5    2    3 1     
    6    3    4 1     
    7    3   25 1     
    8    3   26 1     
    9    4    5 1     
   10    4   27 1     
   11    4   28 1     
   12    5   21 1     
   13    5    6 1     
   14    5   48 1     
   15    6    7 1     
   16    6   29 1     
   17    6   30 1     
   18    7    8 1     
   19    7   31 1     
   20    7   32 1     
   21    8    9 1     
   22    8   20 1     
   23    8   33 1     
   24    9   10 1     
   25    9   34 1     
   26    9   35 1     
   27   10   11 am    
   28   10   36 1     
   29   11   12 2     
   30   11   13 1     
   31   13   14 1     
   32   13   37 1     
   33   13   38 1     
   34   14   19 1     
   35   14   15 1     
   36   15   16 2     
   37   15   39 1     
   38   16   17 1     
   39   16   18 1     
   40   17   40 1     
   41   17   41 1     
   42   17   42 1     
   43   18   19 2     
   44   18   43 1     
   45   20   21 1     
   46   20   44 1     
   47   20   45 1     
   48   21   46 1     
   49   21   47 1     
   50    2   49 1     
   51    2   50 1     
   52   12   51 1     
   53   12   52 1     
   54   19   53 1     
@<TRIPOS>SUBSTRUCTURE
      1 S1             1
@<TRIPOS>SET
LONE_PAIRS      STATIC     ATOMS    <user>   **** ""
5 49 50 51 52 53
DONOR_HYDROGENS      STATIC     ATOMS    <user>   **** ""
2 48 36
ATOM$BLUE        STATIC     ATOMS    COLORGROUP SYSTEM
5 49 50 51 52 53
ATOM$RED        STATIC     ATOMS    COLORGROUP SYSTEM
2 48 36
