AV-unprocessed.smi:2339|AV-procd|sdf|9336|dock9
  -GOLD-   2272012553D 1   1.00000     0.00000
 Structure written by MMmdl.
 49 52  0  0  0  0  0  0  0  0  1 V2000
  148.4813  131.3631  161.2103 C   0  0  0  0  0  0  0  0  0  0  0  0
  147.7601  132.3465  160.2819 C   0  0  0  0  0  0  0  0  0  0  0  0
  147.7219  133.6893  160.8429 N   0  0  0  0  0  0  0  0  0  0  0  0
  147.1074  133.9455  162.0641 C   0  0  0  0  0  0  0  0  0  0  0  0
  146.9884  135.1728  162.6059 C   0  0  0  0  0  0  0  0  0  0  0  0
  147.5290  136.3398  161.8803 C   0  0  0  0  0  0  0  0  0  0  0  0
  147.4394  137.4744  162.3486 O   0  0  0  0  0  0  0  0  0  0  0  0
  148.1779  136.0676  160.5703 C   0  0  0  0  0  0  0  0  0  0  0  0
  148.7023  137.1807  159.8935 N   0  0  0  0  0  0  0  0  0  0  0  0
  149.1107  137.2927  158.6130 C   0  0  0  0  0  0  0  0  0  0  0  0
  149.0369  136.4087  157.7623 O   0  0  0  0  0  0  0  0  0  0  0  0
  149.6360  138.4942  158.3148 N   0  0  0  0  0  0  0  0  0  0  0  0
  150.1693  138.9417  157.0268 C   0  0  2  0  0  0  0  0  0  0  0  0
  151.2682  138.0069  156.5012 C   0  0  1  0  0  0  0  0  0  0  0  0
  151.0189  137.1805  155.2691 C   0  0  0  0  0  0  0  0  0  0  0  0
  151.5907  138.0563  154.1500 C   0  0  0  0  0  0  0  0  0  0  0  0
  151.6087  139.3736  154.6960 O   0  0  0  0  0  0  0  0  0  0  0  0
  151.9992  139.2642  156.0631 C   0  0  1  0  0  0  0  0  0  0  0  0
  151.2000  140.1056  157.0841 C   0  0  0  0  0  0  0  0  0  0  0  0
  151.9395  140.4047  158.4072 C   0  0  0  0  0  0  0  0  0  0  0  0
  152.1519  141.9145  158.4907 C   0  0  0  0  0  0  0  0  0  0  0  0
  150.9632  142.4882  157.7350 C   0  0  0  0  0  0  0  0  0  0  0  0
  150.7342  141.4881  156.6039 C   0  0  0  0  0  0  0  0  0  0  0  0
  148.2345  134.7802  160.1434 C   0  0  0  0  0  0  0  0  0  0  0  0
  148.4971  130.3630  160.7774 H   0  0  0  0  0  0  0  0  0  0  0  0
  147.9845  131.2993  162.1787 H   0  0  0  0  0  0  0  0  0  0  0  0
  149.5140  131.6685  161.3811 H   0  0  0  0  0  0  0  0  0  0  0  0
  148.2567  132.3723  159.3113 H   0  0  0  0  0  0  0  0  0  0  0  0
  146.7428  132.0007  160.0955 H   0  0  0  0  0  0  0  0  0  0  0  0
  146.7272  133.0668  162.5647 H   0  0  0  0  0  0  0  0  0  0  0  0
  146.5050  135.3241  163.5600 H   0  0  0  0  0  0  0  0  0  0  0  0
  148.7887  138.0117  160.4607 H   0  0  0  0  0  0  0  0  0  0  0  0
  149.6859  139.1645  159.0681 H   0  0  0  0  0  0  0  0  0  0  0  0
  149.3984  139.1100  156.2709 H   0  0  0  0  0  0  0  0  0  0  0  0
  151.8022  137.4906  157.3011 H   0  0  0  0  0  0  0  0  0  0  0  0
  151.5116  136.2089  155.3086 H   0  0  0  0  0  0  0  0  0  0  0  0
  149.9517  137.0101  155.1234 H   0  0  0  0  0  0  0  0  0  0  0  0
  152.6127  137.7567  153.9137 H   0  0  0  0  0  0  0  0  0  0  0  0
  151.0006  138.0094  153.2348 H   0  0  0  0  0  0  0  0  0  0  0  0
  153.0803  139.2258  156.2041 H   0  0  0  0  0  0  0  0  0  0  0  0
  151.3560  140.1026  159.2751 H   0  0  0  0  0  0  0  0  0  0  0  0
  152.8900  139.8757  158.4825 H   0  0  0  0  0  0  0  0  0  0  0  0
  152.2163  142.2770  159.5171 H   0  0  0  0  0  0  0  0  0  0  0  0
  153.0768  142.1856  157.9799 H   0  0  0  0  0  0  0  0  0  0  0  0
  150.0896  142.5115  158.3880 H   0  0  0  0  0  0  0  0  0  0  0  0
  151.1389  143.5019  157.3742 H   0  0  0  0  0  0  0  0  0  0  0  0
  151.3195  141.7997  155.7380 H   0  0  0  0  0  0  0  0  0  0  0  0
  149.6922  141.4881  156.2859 H   0  0  0  0  0  0  0  0  0  0  0  0
  148.7061  134.4871  159.2192 H   0  0  0  0  0  0  0  0  0  0  0  0
  1  2  1  0  0  0  0
  1 25  1  0  0  0  0
  1 26  1  0  0  0  0
  1 27  1  0  0  0  0
  2  3  1  0  0  0  0
  2 28  1  0  0  0  0
  2 29  1  0  0  0  0
  3 24  1  0  0  0  0
  3  4  1  0  0  0  0
  4  5  2  0  0  0  0
  4 30  1  0  0  0  0
  5  6  1  0  0  0  0
  5 31  1  0  0  0  0
  6  7  2  0  0  0  0
  6  8  1  0  0  0  0
  8  9  1  0  0  0  0
  8 24  2  0  0  0  0
  9 10  1  0  0  0  0
  9 32  1  0  0  0  0
 10 11  2  0  0  0  0
 10 12  1  0  0  0  0
 12 13  1  0  0  0  0
 12 33  1  0  0  0  0
 13 19  1  0  0  0  0
 13 14  1  0  0  0  0
 13 34  1  0  0  0  0
 14 18  1  0  0  0  0
 14 15  1  0  0  0  0
 14 35  1  0  0  0  0
 15 16  1  0  0  0  0
 15 36  1  0  0  0  0
 15 37  1  0  0  0  0
 16 17  1  0  0  0  0
 16 38  1  0  0  0  0
 16 39  1  0  0  0  0
 17 18  1  0  0  0  0
 18 19  1  0  0  0  0
 18 40  1  0  0  0  0
 19 23  1  0  0  0  0
 19 20  1  0  0  0  0
 20 21  1  0  0  0  0
 20 41  1  0  0  0  0
 20 42  1  0  0  0  0
 21 22  1  0  0  0  0
 21 43  1  0  0  0  0
 21 44  1  0  0  0  0
 22 23  1  0  0  0  0
 22 45  1  0  0  0  0
 22 46  1  0  0  0  0
 23 47  1  0  0  0  0
 23 48  1  0  0  0  0
 24 49  1  0  0  0  0
M  END
> <s_m_source_file>
AV-unprocessed.smi

> <i_m_source_file_index>
2339

> <i_lp_mmshare_version>
43012

> <i_f3d_flags>
0

> <s_epik_input>
W0NIM11bQ0gyXW4xW2NIXVtjSF1jKD1PKWMoW2NIXTEpW05IXUMoPU8pW05IXVtDQEBIXTJbQ0BASF0oW0NIMl1bQ0gyXU8zKVtDQEBIXTNDMjRbQ0gyXVtDSDJdW0NIMl1bQ0gyXTQ=

> <s_epik_cmdline>
J2VwaWtfcHl0aG9uJywgJy1waCcsICc3LjAnLCAnLXRuJywgJzgnLCAnLW1hJywgJzIwMCcsICctbWV0YWxfYmluZGluZycsICctaW1hZScsICc8aW5maWxlLm1hZT4nLCAnLW9tYWUnLCAnPG91dGZpbGUubWFlPic=

> <r_lp_tautomer_probability>
1

> <r_epik_Ionization_Penalty>
0.00145966

> <r_epik_Ionization_Penalty_Charging>
0.00143969

> <r_epik_Ionization_Penalty_Neutral>
1.99697e-05

> <r_epik_State_Penalty>
0.000961843

> <r_epik_Charging_Adjusted_Penalty>
0.00240153

> <i_epik_Tot_Q>
0

> <i_epik_Tot_abs_Q>
0

> <r_epik_Metal_State_Penalty>
-0

> <b_epik_Metal_Only>
0

> <s_lp_Force_Field>
OPLS_2005

> <r_lp_Energy>
57.0786

> <b_lp_Chiralities_Consistent>
1

> <s_lp_Variant>
AV-unprocessed.smi:2339-1

> <Gold.Version>
5.8.1

> <Gold.Id.Protein>
6NUR|6NUR_protein|mol2

> <Gold.PLP.Fitness>
48.6387

> <Gold.PLP.PLP>
-42.2302

> <Gold.PLP.part.hbond>
-3.0000

> <Gold.PLP.part.metal>
0.0000

> <Gold.PLP.part.buried>
-5.7137

> <Gold.PLP.part.nonpolar>
-33.9664

> <Gold.PLP.part.repulsive>
1.1811

> <Gold.PLP.ligand.clash>
0.0000

> <Gold.PLP.ligand.torsion>
0.2339

> <Gold.PLP.Chemscore.Hbond>
2.2320

> <Gold.PLP.Chemscore.CHOScore>
0.0000

> <Gold.PLP.Chemscore.Metal>
0.0000

> <Gold.Chemscore.Hbonds>
donor molecule, donor type, donor heavy atom, donor atom, acceptor molecule, acceptor atom, score
      P1  H  6931  6943       L1     7  0.70
      P1  H  6934  6947       L1     7  0.42
      P1  H  7989  7998       L1    17  1.00

> <Gold.PLP.Chemscore.Internal.Correction>
0.1803

> <Gold.Rescore>
     Score         DG    S(hbond)    S(metal)    S(lipo)     H(rot)  DE(clash)    DE(int)     intcor
     19.28     -21.17       2.19        0.00      97.22       1.17       0.67       1.22       ----

> <Gold.Chemscore.Fitness>
19.2794

> <Gold.Chemscore.DG>
-21.1725

> <Gold.Chemscore.ZeroCoef>
-5.4800

> <Gold.Chemscore.Hbond>
2.1871

> <Gold.Chemscore.Metal>
0.0000

> <Gold.Chemscore.Lipo>
97.2230

> <Gold.Chemscore.Internal_Hbond>
0.0000

> <Gold.Chemscore.DEClash>
0.6721

> <Gold.Chemscore.DEInternal>
1.2209

> <Gold.Chemscore.Rot>
1.1670

> <Gold.Chemscore.Internal.Correction>
   9.000000E+99

> <Gold.Chemscore.Hbonds>
donor molecule, donor type, donor heavy atom, donor atom, acceptor molecule, acceptor atom, score
      P1  H  6931  6943       L1     7  0.35
      P1  H  6934  6947       L1     7  0.39
      P1  H  7989  7998       L1    17  0.94

> <Gold.Chemscore.Hbond.Weighted>
-7.3048

> <Gold.Chemscore.Metal.Weighted>
-0.0000

> <Gold.Chemscore.Lipo.Weighted>
-11.3751

> <Gold.Chemscore.Internal_Hbond.Weighted>
0.0000

> <Gold.Chemscore.DEClash.Weighted>
0.6721

> <Gold.Chemscore.DEInternal.Weighted>
1.2209

> <Gold.Chemscore.Rot.Weighted>
2.9874

> <Gold.Chemscore.Internal.Correction.Weighted>
   9.000000E+99

> <Gold.Protein.RotatedTorsions>
[ 6907 6896 6895 6894 ] final   67.27 input  -60.11 | X-H torsion
[ 7974 7965 7964 7962 ] final   16.54 input  175.53 | X-H torsion
[ 8008 7997 7996 7995 ] final  112.52 input   59.86 | X-H torsion
[ 10167 10162 10161 10158 ] final  109.25 input  -65.29 | X-H torsion
[ 10718 10713 10712 10709 ] final  146.87 input   66.30 | X-H torsion
[ 10763 10752 10751 10750 ] final   46.58 input  -60.55 | X-H torsion
[ 11005 11000 10999 10996 ] final  -44.95 input  -57.11 | X-H torsion

> <Gold.Protein.ActiveResidues>
 VAL166  LYS551  ARG553  GLY616  TRP617  ASP618  TYR619  PRO620  LYS621  CYS622 
 ASP623  PHE694  ASN695  SER759  ASP760  ASP761  ALA762  ILE779  LEU786  VAL792 
 PHE793  MET794  SER795  GLU796  ALA797  LYS798  CYS799  TRP800  GLU811  SER814 

> <Gold.Protein.RotatedAtoms>
  152.4540  134.5331  159.9816 H   0  0  0  0  0  0  0  0  0  0  0  0  # atno 6907 bound_to 6896
  151.5397  133.3429  159.2941 H   0  0  0  0  0  0  0  0  0  0  0  0  # atno 6908 bound_to 6896
  150.8478  134.7824  159.7048 H   0  0  0  0  0  0  0  0  0  0  0  0  # atno 6909 bound_to 6896
  146.2246  139.8733  142.8583 H   0  0  0  0  0  0  0  0  0  0  0  0  # atno 7974 bound_to 7965
  156.2198  140.2998  155.9925 H   0  0  0  0  0  0  0  0  0  0  0  0  # atno 8008 bound_to 7997
  155.2512  140.0426  157.3004 H   0  0  0  0  0  0  0  0  0  0  0  0  # atno 8009 bound_to 7997
  154.5823  140.2378  155.8045 H   0  0  0  0  0  0  0  0  0  0  0  0  # atno 8010 bound_to 7997
  139.6781  144.7120  151.1565 H   0  0  0  0  0  0  0  0  0  0  0  0  # atno 10167 bound_to 10162
  157.3279  131.0915  151.1187 H   0  0  0  0  0  0  0  0  0  0  0  0  # atno 10718 bound_to 10713
  152.9809  135.6003  154.3623 H   0  0  0  0  0  0  0  0  0  0  0  0  # atno 10763 bound_to 10752
  154.3304  135.2768  155.2476 H   0  0  0  0  0  0  0  0  0  0  0  0  # atno 10764 bound_to 10752
  154.4603  135.5967  153.6307 H   0  0  0  0  0  0  0  0  0  0  0  0  # atno 10765 bound_to 10752
  141.0484  133.6752  156.2945 H   0  0  0  0  0  0  0  0  0  0  0  0  # atno 11005 bound_to 11000
  145.2586  141.0069  143.3839 LP  0  0  0  0  0  0  0  0  0  0  0  0  # atno 17320 bound_to 7965
  144.9317  139.4291  143.6492 LP  0  0  0  0  0  0  0  0  0  0  0  0  # atno 17321 bound_to 7965
  140.7643  143.5740  150.8965 LP  0  0  0  0  0  0  0  0  0  0  0  0  # atno 17342 bound_to 10162
  139.9411  143.6381  152.3053 LP  0  0  0  0  0  0  0  0  0  0  0  0  # atno 17343 bound_to 10162
  157.2447  130.6586  149.5905 LP  0  0  0  0  0  0  0  0  0  0  0  0  # atno 17370 bound_to 10713
  155.9692  130.4557  150.5898 LP  0  0  0  0  0  0  0  0  0  0  0  0  # atno 17371 bound_to 10713
  140.6102  134.5466  157.5532 LP  0  0  0  0  0  0  0  0  0  0  0  0  # atno 17394 bound_to 11000
  139.9330  134.7927  156.0878 LP  0  0  0  0  0  0  0  0  0  0  0  0  # atno 17395 bound_to 11000

$$$$
