AV-unprocessed.smi:2409|AV-procd|sdf|9525|dock2
  -GOLD-   2272013153D 1   1.00000     0.00000
 Structure written by MMmdl.
 35 36  0  0  0  0  0  0  0  0  1 V2000
  147.1898  139.3058  153.3671 C   0  0  0  0  0  0  0  0  0  0  0  0
  147.7156  139.5654  154.6575 O   0  0  0  0  0  0  0  0  0  0  0  0
  149.0642  139.5244  154.7075 C   0  0  0  0  0  0  0  0  0  0  0  0
  149.9569  138.5115  154.4915 C   0  0  0  0  0  0  0  0  0  0  0  0
  149.7320  137.1551  154.1456 N   0  0  0  0  0  0  0  0  0  0  0  0
  149.9194  136.0681  154.9167 C   0  0  0  0  0  0  0  0  0  0  0  0
  150.2844  136.1048  156.0897 O   0  0  0  0  0  0  0  0  0  0  0  0
  149.6119  134.9042  154.3174 N   0  0  0  0  0  0  0  0  0  0  0  0
  149.7018  133.5850  154.8672 C   0  0  1  0  0  0  0  0  0  0  0  0
  148.3989  132.8385  155.0501 C   0  0  0  0  0  0  0  0  0  0  0  0
  149.3615  132.4094  153.9748 C   0  0  2  0  0  0  0  0  0  0  0  0
  150.1058  131.0984  154.1040 C   0  0  0  0  0  0  0  0  0  0  0  0
  151.2330  139.0821  154.7535 C   0  0  0  0  0  0  0  0  0  0  0  0
  152.5897  138.4394  154.7070 C   0  0  0  0  0  0  0  0  0  0  0  0
  151.1281  140.3697  155.0622 N   0  0  0  0  0  0  0  0  0  0  0  0
  149.8016  140.6453  155.0274 N   0  0  0  0  0  0  0  0  0  0  0  0
  149.3423  141.9839  155.3360 C   0  0  0  0  0  0  0  0  0  0  0  0
  146.1014  139.3478  153.4012 H   0  0  0  0  0  0  0  0  0  0  0  0
  147.4781  138.3124  153.0206 H   0  0  0  0  0  0  0  0  0  0  0  0
  147.5312  140.0415  152.6380 H   0  0  0  0  0  0  0  0  0  0  0  0
  149.3164  136.9958  153.2397 H   0  0  0  0  0  0  0  0  0  0  0  0
  149.2020  134.9679  153.3967 H   0  0  0  0  0  0  0  0  0  0  0  0
  150.4379  133.4135  155.6513 H   0  0  0  0  0  0  0  0  0  0  0  0
  148.3061  132.2056  155.9306 H   0  0  0  0  0  0  0  0  0  0  0  0
  147.4799  133.3279  154.7325 H   0  0  0  0  0  0  0  0  0  0  0  0
  149.0723  132.6480  152.9527 H   0  0  0  0  0  0  0  0  0  0  0  0
  150.3656  130.9001  155.1444 H   0  0  0  0  0  0  0  0  0  0  0  0
  151.0242  131.1314  153.5175 H   0  0  0  0  0  0  0  0  0  0  0  0
  149.4873  130.2791  153.7375 H   0  0  0  0  0  0  0  0  0  0  0  0
  152.5246  137.3869  154.4305 H   0  0  0  0  0  0  0  0  0  0  0  0
  153.0829  138.4958  155.6776 H   0  0  0  0  0  0  0  0  0  0  0  0
  153.2316  138.9328  153.9772 H   0  0  0  0  0  0  0  0  0  0  0  0
  148.3397  142.1384  154.9366 H   0  0  0  0  0  0  0  0  0  0  0  0
  150.0135  142.7206  154.8933 H   0  0  0  0  0  0  0  0  0  0  0  0
  149.3202  142.1227  156.4170 H   0  0  0  0  0  0  0  0  0  0  0  0
  1  2  1  0  0  0  0
  1 18  1  0  0  0  0
  1 19  1  0  0  0  0
  1 20  1  0  0  0  0
  2  3  1  0  0  0  0
  3 16  1  0  0  0  0
  3  4  2  0  0  0  0
  4  5  1  0  0  0  0
  4 13  1  0  0  0  0
  5  6  1  0  0  0  0
  5 21  1  0  0  0  0
  6  7  2  0  0  0  0
  6  8  1  0  0  0  0
  8  9  1  0  0  0  0
  8 22  1  0  0  0  0
  9 11  1  0  0  0  0
  9 10  1  0  0  0  0
  9 23  1  0  0  0  0
 10 11  1  0  0  0  0
 10 24  1  0  0  0  0
 10 25  1  0  0  0  0
 11 12  1  0  0  0  0
 11 26  1  0  0  0  0
 12 27  1  0  0  0  0
 12 28  1  0  0  0  0
 12 29  1  0  0  0  0
 13 14  1  0  0  0  0
 13 15  2  0  0  0  0
 14 30  1  0  0  0  0
 14 31  1  0  0  0  0
 14 32  1  0  0  0  0
 15 16  1  0  0  0  0
 16 17  1  0  0  0  0
 17 33  1  0  0  0  0
 17 34  1  0  0  0  0
 17 35  1  0  0  0  0
M  END
> <s_m_source_file>
AV-unprocessed.smi

> <i_m_source_file_index>
2409

> <i_lp_mmshare_version>
43012

> <i_f3d_flags>
0

> <s_epik_input>
W0NIM11uMW5jKFtDSDNdKWMoYzFPW0NIM10pW05IXUMoPU8pW05IXVtDQEBIXTJbQ0gyXVtDQEhdMltDSDNd

> <s_epik_cmdline>
J2VwaWtfcHl0aG9uJywgJy1waCcsICc3LjAnLCAnLXRuJywgJzgnLCAnLW1hJywgJzIwMCcsICctbWV0YWxfYmluZGluZycsICctaW1hZScsICc8aW5maWxlLm1hZT4nLCAnLW9tYWUnLCAnPG91dGZpbGUubWFlPic=

> <r_lp_tautomer_probability>
1

> <r_epik_Ionization_Penalty>
0.000417804

> <r_epik_Ionization_Penalty_Charging>
0

> <r_epik_Ionization_Penalty_Neutral>
0.000417804

> <r_epik_State_Penalty>
-0

> <r_epik_Charging_Adjusted_Penalty>
0

> <i_epik_Tot_Q>
0

> <i_epik_Tot_abs_Q>
0

> <r_epik_Metal_State_Penalty>
-0

> <b_epik_Metal_Only>
0

> <s_lp_Force_Field>
OPLS_2005

> <r_lp_Energy>
34.5155

> <b_lp_Chiralities_Consistent>
1

> <s_lp_Variant>
AV-unprocessed.smi:2409-4

> <Gold.Version>
5.8.1

> <Gold.Id.Protein>
6NUR|6NUR_protein|mol2

> <Gold.PLP.Fitness>
35.0066

> <Gold.PLP.PLP>
-28.5275

> <Gold.PLP.part.hbond>
-3.1038

> <Gold.PLP.part.metal>
0.0000

> <Gold.PLP.part.buried>
1.1875

> <Gold.PLP.part.nonpolar>
-26.6329

> <Gold.PLP.part.repulsive>
0.2241

> <Gold.PLP.ligand.clash>
0.0000

> <Gold.PLP.ligand.torsion>
0.6779

> <Gold.PLP.Chemscore.Hbond>
2.5980

> <Gold.PLP.Chemscore.CHOScore>
0.0000

> <Gold.PLP.Chemscore.Metal>
0.0000

> <Gold.Chemscore.Hbonds>
donor molecule, donor type, donor heavy atom, donor atom, acceptor molecule, acceptor atom, score
      L1  H     5    21       P1  7948  1.00
      L1  H     8    22       P1  7948  0.68
      P1  H  7989  7998       L1    15  0.65

> <Gold.PLP.Chemscore.Internal.Correction>
0.0409

> <Gold.Rescore>
     Score         DG    S(hbond)    S(metal)    S(lipo)     H(rot)  DE(clash)    DE(int)     intcor
     12.30     -14.51       1.62        0.00      57.81       1.23       1.53       0.68       ----

> <Gold.Chemscore.Fitness>
12.2975

> <Gold.Chemscore.DG>
-14.5058

> <Gold.Chemscore.ZeroCoef>
-5.4800

> <Gold.Chemscore.Hbond>
1.6192

> <Gold.Chemscore.Metal>
0.0000

> <Gold.Chemscore.Lipo>
57.8144

> <Gold.Chemscore.Internal_Hbond>
0.0000

> <Gold.Chemscore.DEClash>
1.5285

> <Gold.Chemscore.DEInternal>
0.6798

> <Gold.Chemscore.Rot>
1.2292

> <Gold.Chemscore.Internal.Correction>
   9.000000E+99

> <Gold.Chemscore.Hbonds>
donor molecule, donor type, donor heavy atom, donor atom, acceptor molecule, acceptor atom, score
      L1  H     5    21       P1  7948  0.93
      L1  H     8    22       P1  7948  0.10
      P1  H  7989  7998       L1    15  0.02

> <Gold.Chemscore.Hbond.Weighted>
-5.4082

> <Gold.Chemscore.Metal.Weighted>
-0.0000

> <Gold.Chemscore.Lipo.Weighted>
-6.7643

> <Gold.Chemscore.Internal_Hbond.Weighted>
0.0000

> <Gold.Chemscore.DEClash.Weighted>
1.5285

> <Gold.Chemscore.DEInternal.Weighted>
0.6798

> <Gold.Chemscore.Rot.Weighted>
3.1467

> <Gold.Chemscore.Internal.Correction.Weighted>
   9.000000E+99

> <Gold.Protein.RotatedTorsions>
[ 6907 6896 6895 6894 ] final  120.52 input  -60.11 | X-H torsion
[ 7974 7965 7964 7962 ] final -117.40 input  175.53 | X-H torsion
[ 8008 7997 7996 7995 ] final -144.76 input   59.86 | X-H torsion
[ 10167 10162 10161 10158 ] final -128.49 input  -65.29 | X-H torsion
[ 10718 10713 10712 10709 ] final   83.00 input   66.30 | X-H torsion
[ 10763 10752 10751 10750 ] final   42.19 input  -60.55 | X-H torsion
[ 11005 11000 10999 10996 ] final -116.17 input  -57.11 | X-H torsion

> <Gold.Protein.ActiveResidues>
 VAL166  LYS551  ARG553  GLY616  TRP617  ASP618  TYR619  PRO620  LYS621  CYS622 
 ASP623  PHE694  ASN695  SER759  ASP760  ASP761  ALA762  ILE779  LEU786  VAL792 
 PHE793  MET794  SER795  GLU796  ALA797  LYS798  CYS799  TRP800  GLU811  SER814 

> <Gold.Protein.RotatedAtoms>
  152.4392  133.7416  159.6643 H   0  0  0  0  0  0  0  0  0  0  0  0  # atno 6907 bound_to 6896
  150.8280  133.8129  159.3117 H   0  0  0  0  0  0  0  0  0  0  0  0  # atno 6908 bound_to 6896
  151.5792  135.1061  160.0065 H   0  0  0  0  0  0  0  0  0  0  0  0  # atno 6909 bound_to 6896
  145.0857  140.8456  143.4012 H   0  0  0  0  0  0  0  0  0  0  0  0  # atno 7974 bound_to 7965
  155.5322  140.0600  157.2887 H   0  0  0  0  0  0  0  0  0  0  0  0  # atno 8008 bound_to 7997
  154.4480  140.1934  156.0550 H   0  0  0  0  0  0  0  0  0  0  0  0  # atno 8009 bound_to 7997
  156.0644  140.3268  155.7504 H   0  0  0  0  0  0  0  0  0  0  0  0  # atno 8010 bound_to 7997
  139.9498  143.6069  152.2479 H   0  0  0  0  0  0  0  0  0  0  0  0  # atno 10167 bound_to 10162
  157.6869  131.0072  150.2458 H   0  0  0  0  0  0  0  0  0  0  0  0  # atno 10718 bound_to 10713
  152.9889  135.6139  154.2909 H   0  0  0  0  0  0  0  0  0  0  0  0  # atno 10763 bound_to 10752
  154.2634  135.2781  155.2770 H   0  0  0  0  0  0  0  0  0  0  0  0  # atno 10764 bound_to 10752
  154.5185  135.5821  153.6719 H   0  0  0  0  0  0  0  0  0  0  0  0  # atno 10765 bound_to 10752
  141.0440  133.9792  157.2948 H   0  0  0  0  0  0  0  0  0  0  0  0  # atno 11005 bound_to 11000
  145.1126  139.2747  143.5630 LP  0  0  0  0  0  0  0  0  0  0  0  0  # atno 17320 bound_to 7965
  146.3531  140.0726  142.8622 LP  0  0  0  0  0  0  0  0  0  0  0  0  # atno 17321 bound_to 7965
  139.6638  144.7662  151.1913 LP  0  0  0  0  0  0  0  0  0  0  0  0  # atno 17342 bound_to 10162
  140.7586  143.5970  150.8738 LP  0  0  0  0  0  0  0  0  0  0  0  0  # atno 17343 bound_to 10162
  156.3064  130.3765  149.7702 LP  0  0  0  0  0  0  0  0  0  0  0  0  # atno 17370 bound_to 10713
  156.5316  130.8260  151.3239 LP  0  0  0  0  0  0  0  0  0  0  0  0  # atno 17371 bound_to 10713
  139.9297  135.0200  156.8358 LP  0  0  0  0  0  0  0  0  0  0  0  0  # atno 17394 bound_to 11000
  140.6182  134.0019  155.7606 LP  0  0  0  0  0  0  0  0  0  0  0  0  # atno 17395 bound_to 11000

$$$$
