AV-unprocessed.smi:1964|AV-procd|sdf|7928|dock2
  -GOLD-   2272010 93D 1   1.00000     0.00000
 Structure written by MMmdl.
 46 48  0  0  0  0  0  0  0  0  1 V2000
  148.9195  130.7421  154.3567 C   0  0  0  0  0  0  0  0  0  0  0  0
  147.7787  131.5539  153.7167 C   0  0  2  0  0  0  0  0  0  0  0  0
  146.9785  130.6775  152.7315 C   0  0  0  0  0  0  0  0  0  0  0  0
  145.8209  131.4534  152.0850 C   0  0  0  0  0  0  0  0  0  0  0  0
  146.3302  132.7199  151.3837 C   0  0  0  0  0  0  0  0  0  0  0  0
  147.1182  133.6094  152.3561 C   0  0  0  0  0  0  0  0  0  0  0  0
  148.2829  132.8404  153.0158 C   0  0  1  0  0  0  0  0  0  0  0  0
  148.9709  133.7048  153.9725 N   0  0  0  0  0  0  0  0  0  0  0  0
  148.3888  134.3640  154.9854 C   0  0  0  0  0  0  0  0  0  0  0  0
  147.1830  134.2974  155.2291 O   0  0  0  0  0  0  0  0  0  0  0  0
  149.3265  135.2269  155.8438 C   0  0  0  0  0  0  0  0  0  0  0  0
  149.5417  136.5868  155.3021 N   0  0  0  0  0  0  0  0  0  0  0  0
  150.8665  137.0883  155.2323 C   0  0  0  0  0  0  0  0  0  0  0  0
  151.8251  136.4015  155.5894 O   0  0  0  0  0  0  0  0  0  0  0  0
  150.9962  138.4544  154.7304 C   0  0  0  0  0  0  0  0  0  0  0  0
  152.3098  139.0046  154.6725 C   0  0  0  0  0  0  0  0  0  0  0  0
  153.3673  139.4731  154.6327 N   0  0  0  0  0  0  0  0  0  0  0  0
  149.9123  139.1594  154.3458 C   0  0  0  0  0  0  0  0  0  0  0  0
  148.6369  138.6395  154.3865 N   0  0  0  0  0  0  0  0  0  0  0  0
  147.4858  139.4574  154.1261 C   0  0  0  0  0  0  0  0  0  0  0  0
  147.1147  139.8231  152.7022 C   0  0  0  0  0  0  0  0  0  0  0  0
  147.6870  140.8708  153.6253 C   0  0  0  0  0  0  0  0  0  0  0  0
  148.4129  137.3504  154.9174 C   0  0  0  0  0  0  0  0  0  0  0  0
  147.2701  136.9060  155.0539 O   0  0  0  0  0  0  0  0  0  0  0  0
  149.6506  130.4316  153.6098 H   0  0  0  0  0  0  0  0  0  0  0  0
  148.5352  129.8428  154.8389 H   0  0  0  0  0  0  0  0  0  0  0  0
  149.4462  131.3156  155.1195 H   0  0  0  0  0  0  0  0  0  0  0  0
  147.1002  131.8499  154.5186 H   0  0  0  0  0  0  0  0  0  0  0  0
  147.6419  130.3010  151.9515 H   0  0  0  0  0  0  0  0  0  0  0  0
  146.5835  129.8016  153.2476 H   0  0  0  0  0  0  0  0  0  0  0  0
  145.3004  130.8164  151.3693 H   0  0  0  0  0  0  0  0  0  0  0  0
  145.0894  131.7245  152.8474 H   0  0  0  0  0  0  0  0  0  0  0  0
  146.9681  132.4427  150.5435 H   0  0  0  0  0  0  0  0  0  0  0  0
  145.4914  133.2772  150.9655 H   0  0  0  0  0  0  0  0  0  0  0  0
  147.4965  134.4815  151.8213 H   0  0  0  0  0  0  0  0  0  0  0  0
  146.4442  133.9896  153.1251 H   0  0  0  0  0  0  0  0  0  0  0  0
  148.9893  132.5447  152.2372 H   0  0  0  0  0  0  0  0  0  0  0  0
  149.9664  133.8175  153.8464 H   0  0  0  0  0  0  0  0  0  0  0  0
  148.9270  135.2698  156.8582 H   0  0  0  0  0  0  0  0  0  0  0  0
  150.2743  134.6979  155.9562 H   0  0  0  0  0  0  0  0  0  0  0  0
  150.0467  140.1695  153.9862 H   0  0  0  0  0  0  0  0  0  0  0  0
  146.6514  139.3133  154.8103 H   0  0  0  0  0  0  0  0  0  0  0  0
  147.7546  139.4709  151.8953 H   0  0  0  0  0  0  0  0  0  0  0  0
  146.0554  139.8874  152.4620 H   0  0  0  0  0  0  0  0  0  0  0  0
  147.0095  141.6360  153.9983 H   0  0  0  0  0  0  0  0  0  0  0  0
  148.7038  141.2055  153.4285 H   0  0  0  0  0  0  0  0  0  0  0  0
  1  2  1  0  0  0  0
  1 25  1  0  0  0  0
  1 26  1  0  0  0  0
  1 27  1  0  0  0  0
  2  7  1  0  0  0  0
  2  3  1  0  0  0  0
  2 28  1  0  0  0  0
  3  4  1  0  0  0  0
  3 29  1  0  0  0  0
  3 30  1  0  0  0  0
  4  5  1  0  0  0  0
  4 31  1  0  0  0  0
  4 32  1  0  0  0  0
  5  6  1  0  0  0  0
  5 33  1  0  0  0  0
  5 34  1  0  0  0  0
  6  7  1  0  0  0  0
  6 35  1  0  0  0  0
  6 36  1  0  0  0  0
  7  8  1  0  0  0  0
  7 37  1  0  0  0  0
  8  9  1  0  0  0  0
  8 38  1  0  0  0  0
  9 10  2  0  0  0  0
  9 11  1  0  0  0  0
 11 12  1  0  0  0  0
 11 39  1  0  0  0  0
 11 40  1  0  0  0  0
 12 23  1  0  0  0  0
 12 13  1  0  0  0  0
 13 14  2  0  0  0  0
 13 15  1  0  0  0  0
 15 16  1  0  0  0  0
 15 18  2  0  0  0  0
 16 17  3  0  0  0  0
 18 19  1  0  0  0  0
 18 41  1  0  0  0  0
 19 20  1  0  0  0  0
 19 23  1  0  0  0  0
 20 22  1  0  0  0  0
 20 21  1  0  0  0  0
 20 42  1  0  0  0  0
 21 22  1  0  0  0  0
 21 43  1  0  0  0  0
 21 44  1  0  0  0  0
 22 45  1  0  0  0  0
 22 46  1  0  0  0  0
 23 24  2  0  0  0  0
M  END
> <s_m_source_file>
AV-unprocessed.smi

> <i_m_source_file_index>
1964

> <i_lp_mmshare_version>
43012

> <i_f3d_flags>
0

> <s_epik_input>
W0NIM11bQ0BASF0xW0NIMl1bQ0gyXVtDSDJdW0NIMl1bQ0BIXTFbTkhdQyg9TylbQ0gyXW4yYyg9TyljKEMjTilbY0hdbihjMj1PKVtDSF0zW0NIMl1bQ0gyXTM=

> <s_epik_cmdline>
J2VwaWtfcHl0aG9uJywgJy1waCcsICc3LjAnLCAnLXRuJywgJzgnLCAnLW1hJywgJzIwMCcsICctbWV0YWxfYmluZGluZycsICctaW1hZScsICc8aW5maWxlLm1hZT4nLCAnLW9tYWUnLCAnPG91dGZpbGUubWFlPic=

> <r_lp_tautomer_probability>
1

> <r_epik_Ionization_Penalty>
1.91372e-08

> <r_epik_Ionization_Penalty_Charging>
9.0283e-11

> <r_epik_Ionization_Penalty_Neutral>
1.90469e-08

> <r_epik_State_Penalty>
-0

> <r_epik_Charging_Adjusted_Penalty>
9.0283e-11

> <i_epik_Tot_Q>
0

> <i_epik_Tot_abs_Q>
0

> <r_epik_Metal_State_Penalty>
-0

> <b_epik_Metal_Only>
0

> <s_lp_Force_Field>
OPLS_2005

> <r_lp_Energy>
35.656

> <b_lp_Chiralities_Consistent>
1

> <s_lp_Variant>
AV-unprocessed.smi:1964-1

> <Gold.Version>
5.8.1

> <Gold.Id.Protein>
6NUR|6NUR_protein|mol2

> <Gold.PLP.Fitness>
43.0686

> <Gold.PLP.PLP>
-38.1342

> <Gold.PLP.part.hbond>
-3.3150

> <Gold.PLP.part.metal>
0.0000

> <Gold.PLP.part.buried>
-1.1469

> <Gold.PLP.part.nonpolar>
-33.8290

> <Gold.PLP.part.repulsive>
0.1873

> <Gold.PLP.ligand.clash>
0.0000

> <Gold.PLP.ligand.torsion>
0.7181

> <Gold.PLP.Chemscore.Hbond>
2.0000

> <Gold.PLP.Chemscore.CHOScore>
0.0482

> <Gold.PLP.Chemscore.Metal>
0.0000

> <Gold.Chemscore.Hbonds>
donor molecule, donor type, donor heavy atom, donor atom, acceptor molecule, acceptor atom, score
      P1  H  7997  8009       L1    17  1.00
      P1  H 10752 10765       L1    14  1.00
      L1  C    18    41       P1  7957  0.09

> <Gold.PLP.Chemscore.Internal.Correction>
0.2261

> <Gold.Rescore>
     Score         DG    S(hbond)    S(metal)    S(lipo)     H(rot)  DE(clash)    DE(int)     intcor
     12.08     -16.93       1.99        0.00      78.31       1.70       0.05       4.80       ----

> <Gold.Chemscore.Fitness>
12.0826

> <Gold.Chemscore.DG>
-16.9316

> <Gold.Chemscore.ZeroCoef>
-5.4800

> <Gold.Chemscore.Hbond>
1.9914

> <Gold.Chemscore.Metal>
0.0000

> <Gold.Chemscore.Lipo>
78.3083

> <Gold.Chemscore.Internal_Hbond>
0.0000

> <Gold.Chemscore.DEClash>
0.0534

> <Gold.Chemscore.DEInternal>
4.7957

> <Gold.Chemscore.Rot>
1.7038

> <Gold.Chemscore.Internal.Correction>
   9.000000E+99

> <Gold.Chemscore.Hbonds>
donor molecule, donor type, donor heavy atom, donor atom, acceptor molecule, acceptor atom, score
      P1  H  7997  8009       L1    17  1.00
      P1  H 10752 10765       L1    14  1.00

> <Gold.Chemscore.Hbond.Weighted>
-6.6513

> <Gold.Chemscore.Metal.Weighted>
-0.0000

> <Gold.Chemscore.Lipo.Weighted>
-9.1621

> <Gold.Chemscore.Internal_Hbond.Weighted>
0.0000

> <Gold.Chemscore.DEClash.Weighted>
0.0534

> <Gold.Chemscore.DEInternal.Weighted>
4.7957

> <Gold.Chemscore.Rot.Weighted>
4.3618

> <Gold.Chemscore.Internal.Correction.Weighted>
   9.000000E+99

> <Gold.Protein.RotatedTorsions>
[ 6907 6896 6895 6894 ] final  114.07 input  -60.11 | X-H torsion
[ 7974 7965 7964 7962 ] final   35.99 input  175.53 | X-H torsion
[ 8008 7997 7996 7995 ] final -120.82 input   59.86 | X-H torsion
[ 10167 10162 10161 10158 ] final -173.31 input  -65.29 | X-H torsion
[ 10718 10713 10712 10709 ] final   84.56 input   66.30 | X-H torsion
[ 10763 10752 10751 10750 ] final -166.29 input  -60.55 | X-H torsion
[ 11005 11000 10999 10996 ] final  122.40 input  -57.11 | X-H torsion

> <Gold.Protein.ActiveResidues>
 VAL166  LYS551  ARG553  GLY616  TRP617  ASP618  TYR619  PRO620  LYS621  CYS622 
 ASP623  PHE694  ASN695  SER759  ASP760  ASP761  ALA762  ILE779  LEU786  VAL792 
 PHE793  MET794  SER795  GLU796  ALA797  LYS798  CYS799  TRP800  GLU811  SER814 

> <Gold.Protein.RotatedAtoms>
  152.4824  133.8287  159.7091 H   0  0  0  0  0  0  0  0  0  0  0  0  # atno 6907 bound_to 6896
  150.8883  133.7268  159.2918 H   0  0  0  0  0  0  0  0  0  0  0  0  # atno 6908 bound_to 6896
  151.4749  135.1052  159.9814 H   0  0  0  0  0  0  0  0  0  0  0  0  # atno 6909 bound_to 6896
  146.1243  139.6073  142.9269 H   0  0  0  0  0  0  0  0  0  0  0  0  # atno 7974 bound_to 7965
  155.1380  140.0401  157.2791 H   0  0  0  0  0  0  0  0  0  0  0  0  # atno 8008 bound_to 7997
  154.6493  140.2565  155.7205 H   0  0  0  0  0  0  0  0  0  0  0  0  # atno 8009 bound_to 7997
  156.2570  140.2839  156.0920 H   0  0  0  0  0  0  0  0  0  0  0  0  # atno 8010 bound_to 7997
  139.5695  144.1674  152.1363 H   0  0  0  0  0  0  0  0  0  0  0  0  # atno 10167 bound_to 10162
  157.6900  131.0138  150.2691 H   0  0  0  0  0  0  0  0  0  0  0  0  # atno 10718 bound_to 10713
  154.6847  135.2960  154.9563 H   0  0  0  0  0  0  0  0  0  0  0  0  # atno 10763 bound_to 10752
  154.0546  135.6640  153.4808 H   0  0  0  0  0  0  0  0  0  0  0  0  # atno 10764 bound_to 10752
  153.0571  135.5138  154.7909 H   0  0  0  0  0  0  0  0  0  0  0  0  # atno 10765 bound_to 10752
  139.9266  134.9641  156.8103 H   0  0  0  0  0  0  0  0  0  0  0  0  # atno 11005 bound_to 11000
  145.5399  141.0421  143.2336 LP  0  0  0  0  0  0  0  0  0  0  0  0  # atno 17320 bound_to 7965
  144.7627  139.6918  143.7227 LP  0  0  0  0  0  0  0  0  0  0  0  0  # atno 17321 bound_to 7965
  140.1204  144.5378  150.6866 LP  0  0  0  0  0  0  0  0  0  0  0  0  # atno 17342 bound_to 10162
  140.6980  143.2416  151.4946 LP  0  0  0  0  0  0  0  0  0  0  0  0  # atno 17343 bound_to 10162
  156.3257  130.3792  149.7535 LP  0  0  0  0  0  0  0  0  0  0  0  0  # atno 17370 bound_to 10713
  156.5091  130.8164  151.3162 LP  0  0  0  0  0  0  0  0  0  0  0  0  # atno 17371 bound_to 10713
  140.6318  133.9899  155.7665 LP  0  0  0  0  0  0  0  0  0  0  0  0  # atno 17394 bound_to 11000
  141.0828  134.0036  157.3359 LP  0  0  0  0  0  0  0  0  0  0  0  0  # atno 17395 bound_to 11000

$$$$
