AV-unprocessed.smi:101|AV-procd|sdf|923|dock8
  -GOLD-   2262017433D 1   1.00000     0.00000
 Structure written by MMmdl.
 44 46  0  0  0  0  0  0  0  0  1 V2000
  144.7222  137.0643  155.8439 C   0  0  0  0  0  0  0  0  0  0  0  0
  145.2782  137.5988  154.5346 C   0  0  0  0  0  0  0  0  0  0  0  0
  146.3707  138.4029  154.4822 C   0  0  0  0  0  0  0  0  0  0  0  0
  146.8980  138.9099  153.3026 N   0  0  0  0  0  0  0  0  0  0  0  0
  148.1269  139.7931  153.3265 C   0  0  2  0  0  0  0  0  0  0  0  0
  149.0340  139.2392  154.2253 O   0  0  0  0  0  0  0  0  0  0  0  0
  149.7400  140.2864  154.8705 C   0  0  2  0  0  0  0  0  0  0  0  0
  150.3159  139.7779  156.1966 C   0  0  0  0  0  0  0  0  0  0  0  0
  150.7194  140.8873  156.9823 O   0  0  0  0  0  0  0  0  0  0  0  0
  151.9032  140.8636  157.6245 C   0  0  0  0  0  0  0  0  0  0  0  0
  152.7591  139.9949  157.4451 O   0  0  0  0  0  0  0  0  0  0  0  0
  152.0702  141.9996  158.5765 C   0  0  0  0  0  0  0  0  0  0  0  0
  151.5570  143.2722  158.2325 C   0  0  0  0  0  0  0  0  0  0  0  0
  151.6985  144.3641  159.1107 C   0  0  0  0  0  0  0  0  0  0  0  0
  152.3541  144.1968  160.3444 C   0  0  0  0  0  0  0  0  0  0  0  0
  152.8691  142.9360  160.6984 C   0  0  0  0  0  0  0  0  0  0  0  0
  152.7291  141.8429  159.8213 C   0  0  0  0  0  0  0  0  0  0  0  0
  148.6769  141.3747  155.0415 C   0  0  1  0  0  0  0  0  0  0  0  0
  149.2859  142.6488  155.1138 O   0  0  0  0  0  0  0  0  0  0  0  0
  147.8341  141.2439  153.7764 C   0  0  2  0  0  0  0  0  0  0  0  0
  146.4707  141.5114  154.0529 O   0  0  0  0  0  0  0  0  0  0  0  0
  146.2762  138.5999  152.0756 C   0  0  0  0  0  0  0  0  0  0  0  0
  146.6704  139.0336  150.9938 O   0  0  0  0  0  0  0  0  0  0  0  0
  145.1579  137.7697  152.1281 N   0  0  0  0  0  0  0  0  0  0  0  0
  144.5992  137.2291  153.2892 C   0  0  0  0  0  0  0  0  0  0  0  0
  143.6083  136.5055  153.2059 O   0  0  0  0  0  0  0  0  0  0  0  0
  144.7105  137.5416  151.2522 H   0  0  0  0  0  0  0  0  0  0  0  0
  145.2995  137.4129  156.7009 H   0  0  0  0  0  0  0  0  0  0  0  0
  144.7411  135.9739  155.8489 H   0  0  0  0  0  0  0  0  0  0  0  0
  143.6905  137.3905  155.9816 H   0  0  0  0  0  0  0  0  0  0  0  0
  146.8530  138.6715  155.4116 H   0  0  0  0  0  0  0  0  0  0  0  0
  148.5853  139.7499  152.3372 H   0  0  0  0  0  0  0  0  0  0  0  0
  150.5338  140.6348  154.2063 H   0  0  0  0  0  0  0  0  0  0  0  0
  149.5561  139.2169  156.7424 H   0  0  0  0  0  0  0  0  0  0  0  0
  151.1559  139.1060  156.0138 H   0  0  0  0  0  0  0  0  0  0  0  0
  151.0493  143.4250  157.2908 H   0  0  0  0  0  0  0  0  0  0  0  0
  151.3028  145.3310  158.8370 H   0  0  0  0  0  0  0  0  0  0  0  0
  152.4620  145.0342  161.0178 H   0  0  0  0  0  0  0  0  0  0  0  0
  153.3730  142.8066  161.6451 H   0  0  0  0  0  0  0  0  0  0  0  0
  153.1354  140.8889  160.1245 H   0  0  0  0  0  0  0  0  0  0  0  0
  148.0774  141.1809  155.9331 H   0  0  0  0  0  0  0  0  0  0  0  0
  148.6584  143.2649  155.4595 H   0  0  0  0  0  0  0  0  0  0  0  0
  148.1855  141.9122  152.9887 H   0  0  0  0  0  0  0  0  0  0  0  0
  146.3079  142.4285  153.8927 H   0  0  0  0  0  0  0  0  0  0  0  0
  1  2  1  0  0  0  0
  1 28  1  0  0  0  0
  1 29  1  0  0  0  0
  1 30  1  0  0  0  0
  2 25  1  0  0  0  0
  2  3  2  0  0  0  0
  3  4  1  0  0  0  0
  3 31  1  0  0  0  0
  4  5  1  0  0  0  0
  4 22  1  0  0  0  0
  5 20  1  0  0  0  0
  5  6  1  0  0  0  0
  5 32  1  0  0  0  0
  6  7  1  0  0  0  0
  7  8  1  0  0  0  0
  7 18  1  0  0  0  0
  7 33  1  0  0  0  0
  8  9  1  0  0  0  0
  8 34  1  0  0  0  0
  8 35  1  0  0  0  0
  9 10  1  0  0  0  0
 10 11  2  0  0  0  0
 10 12  1  0  0  0  0
 12 17  1  0  0  0  0
 12 13  2  0  0  0  0
 13 14  1  0  0  0  0
 13 36  1  0  0  0  0
 14 15  2  0  0  0  0
 14 37  1  0  0  0  0
 15 16  1  0  0  0  0
 15 38  1  0  0  0  0
 16 17  2  0  0  0  0
 16 39  1  0  0  0  0
 17 40  1  0  0  0  0
 18 19  1  0  0  0  0
 18 20  1  0  0  0  0
 18 41  1  0  0  0  0
 19 42  1  0  0  0  0
 20 21  1  0  0  0  0
 20 43  1  0  0  0  0
 21 44  1  0  0  0  0
 22 23  2  0  0  0  0
 22 24  1  0  0  0  0
 24 27  1  0  0  0  0
 24 25  1  0  0  0  0
 25 26  2  0  0  0  0
M  END
> <s_m_source_file>
AV-unprocessed.smi

> <i_m_source_file_index>
101

> <i_lp_mmshare_version>
43012

> <i_f3d_flags>
0

> <s_epik_input>
Tz1jMVtuSF1jKD1PKW4oW2NIXWMxW0NIM10pW0NAQEhdMk9bQ0BIXShbQ0BASF0oW09IXSlbQ0BIXTJbT0hdKVtDSDJdT0MoPU8pYzNbY0hdW2NIXVtjSF1bY0hdW2NIXTM=

> <s_epik_cmdline>
J2VwaWtfcHl0aG9uJywgJy1waCcsICc3LjAnLCAnLXRuJywgJzgnLCAnLW1hJywgJzIwMCcsICctbWV0YWxfYmluZGluZycsICctaW1hZScsICc8aW5maWxlLm1hZT4nLCAnLW9tYWUnLCAnPG91dGZpbGUubWFlPic=

> <r_lp_tautomer_probability>
0.999537

> <r_epik_Ionization_Penalty>
0.00263537

> <r_epik_Ionization_Penalty_Charging>
0.00263428

> <r_epik_Ionization_Penalty_Neutral>
1.09111e-06

> <r_epik_State_Penalty>
0.00183335

> <r_epik_Charging_Adjusted_Penalty>
0.00446763

> <i_epik_Tot_Q>
0

> <i_epik_Tot_abs_Q>
0

> <r_epik_Metal_State_Penalty>
1.00528

> <b_epik_Metal_Only>
0

> <s_epik_Chemistry_Notes>
This compound has an ester and may undergo hydrolysis at high or low pH. This compound contains an acetal/aminal-like group ( X-CH(R)-Y where X, Y are N, S, or O) that may be acid/base labile, releasing an aldehyde.

> <s_lp_Force_Field>
OPLS_2005

> <r_lp_Energy>
35.5527

> <b_lp_Chiralities_Consistent>
1

> <s_lp_Variant>
AV-unprocessed.smi:101-11

> <Gold.Version>
5.8.1

> <Gold.Id.Protein>
6NUR|6NUR_protein|mol2

> <Gold.PLP.Fitness>
50.3968

> <Gold.PLP.PLP>
-43.0570

> <Gold.PLP.part.hbond>
-5.0438

> <Gold.PLP.part.metal>
0.0000

> <Gold.PLP.part.buried>
-2.9015

> <Gold.PLP.part.nonpolar>
-37.5120

> <Gold.PLP.part.repulsive>
1.4291

> <Gold.PLP.ligand.clash>
0.0000

> <Gold.PLP.ligand.torsion>
1.4781

> <Gold.PLP.Chemscore.Hbond>
3.3075

> <Gold.PLP.Chemscore.CHOScore>
0.0000

> <Gold.PLP.Chemscore.Metal>
0.0000

> <Gold.Chemscore.Hbonds>
donor molecule, donor type, donor heavy atom, donor atom, acceptor molecule, acceptor atom, score
      L1  H    19    42       P1  8028  0.45
      L1  H    24    27       P1 10171  0.69
      P1  H  7954  7966       L1    23  0.49
      P1  H  7997  8010       L1    11  0.96

> <Gold.PLP.Chemscore.Internal.Correction>
0.3734

> <Gold.Rescore>
     Score         DG    S(hbond)    S(metal)    S(lipo)     H(rot)  DE(clash)    DE(int)     intcor
     14.46     -19.18       3.37        0.00      93.63       3.32       2.27       2.45       ----

> <Gold.Chemscore.Fitness>
14.4620

> <Gold.Chemscore.DG>
-19.1827

> <Gold.Chemscore.ZeroCoef>
-5.4800

> <Gold.Chemscore.Hbond>
3.3653

> <Gold.Chemscore.Metal>
0.0000

> <Gold.Chemscore.Lipo>
93.6297

> <Gold.Chemscore.Internal_Hbond>
0.0000

> <Gold.Chemscore.DEClash>
2.2710

> <Gold.Chemscore.DEInternal>
2.4497

> <Gold.Chemscore.Rot>
3.3172

> <Gold.Chemscore.Internal.Correction>
   9.000000E+99

> <Gold.Chemscore.Hbonds>
donor molecule, donor type, donor heavy atom, donor atom, acceptor molecule, acceptor atom, score
      L1  H    19    42       P1  8028  0.45
      L1  H    24    27       P1 10171  0.69
      P1  H  7954  7966       L1    23  0.48
      P1  H  7997  8010       L1    11  0.92

> <Gold.Chemscore.Hbond.Weighted>
-11.2401

> <Gold.Chemscore.Metal.Weighted>
-0.0000

> <Gold.Chemscore.Lipo.Weighted>
-10.9547

> <Gold.Chemscore.Internal_Hbond.Weighted>
0.0000

> <Gold.Chemscore.DEClash.Weighted>
2.2710

> <Gold.Chemscore.DEInternal.Weighted>
2.4497

> <Gold.Chemscore.Rot.Weighted>
8.4920

> <Gold.Chemscore.Internal.Correction.Weighted>
   9.000000E+99

> <Gold.Protein.RotatedTorsions>
[ 6907 6896 6895 6894 ] final  -20.23 input  -60.11 | X-H torsion
[ 7974 7965 7964 7962 ] final  -73.48 input  175.53 | X-H torsion
[ 8008 7997 7996 7995 ] final   37.88 input   59.86 | X-H torsion
[ 10167 10162 10161 10158 ] final   84.61 input  -65.29 | X-H torsion
[ 10718 10713 10712 10709 ] final  103.53 input   66.30 | X-H torsion
[ 10763 10752 10751 10750 ] final -179.64 input  -60.55 | X-H torsion
[ 11005 11000 10999 10996 ] final   40.90 input  -57.11 | X-H torsion

> <Gold.Protein.ActiveResidues>
 VAL166  LYS551  ARG553  GLY616  TRP617  ASP618  TYR619  PRO620  LYS621  CYS622 
 ASP623  PHE694  ASN695  SER759  ASP760  ASP761  ALA762  ILE779  LEU786  VAL792 
 PHE793  MET794  SER795  GLU796  ALA797  LYS798  CYS799  TRP800  GLU811  SER814 

> <Gold.Protein.RotatedAtoms>
  151.2513  135.0623  159.9062 H   0  0  0  0  0  0  0  0  0  0  0  0  # atno 6907 bound_to 6896
  152.5379  134.0329  159.8043 H   0  0  0  0  0  0  0  0  0  0  0  0  # atno 6908 bound_to 6896
  151.0538  133.5552  159.2671 H   0  0  0  0  0  0  0  0  0  0  0  0  # atno 6909 bound_to 6896
  145.6517  140.9280  143.0981 H   0  0  0  0  0  0  0  0  0  0  0  0  # atno 7974 bound_to 7965
  155.2110  140.3323  155.4329 H   0  0  0  0  0  0  0  0  0  0  0  0  # atno 8008 bound_to 7997
  156.2370  140.1877  156.7140 H   0  0  0  0  0  0  0  0  0  0  0  0  # atno 8009 bound_to 7997
  154.6078  140.0613  156.9440 H   0  0  0  0  0  0  0  0  0  0  0  0  # atno 8010 bound_to 7997
  139.9062  144.6299  150.8585 H   0  0  0  0  0  0  0  0  0  0  0  0  # atno 10167 bound_to 10162
  157.6769  131.0781  150.5569 H   0  0  0  0  0  0  0  0  0  0  0  0  # atno 10718 bound_to 10713
  154.5325  135.2800  155.1167 H   0  0  0  0  0  0  0  0  0  0  0  0  # atno 10763 bound_to 10752
  154.2682  135.6309  153.5303 H   0  0  0  0  0  0  0  0  0  0  0  0  # atno 10764 bound_to 10752
  152.9960  135.5622  154.5843 H   0  0  0  0  0  0  0  0  0  0  0  0  # atno 10765 bound_to 10752
  140.1886  134.4015  155.8159 H   0  0  0  0  0  0  0  0  0  0  0  0  # atno 11005 bound_to 11000
  144.7120  139.8334  143.7411 LP  0  0  0  0  0  0  0  0  0  0  0  0  # atno 17320 bound_to 7965
  146.1198  139.4215  143.0235 LP  0  0  0  0  0  0  0  0  0  0  0  0  # atno 17321 bound_to 7965
  140.7696  143.3399  151.2229 LP  0  0  0  0  0  0  0  0  0  0  0  0  # atno 17342 bound_to 10162
  139.6982  143.9577  152.2893 LP  0  0  0  0  0  0  0  0  0  0  0  0  # atno 17343 bound_to 10162
  156.5872  130.4320  149.5952 LP  0  0  0  0  0  0  0  0  0  0  0  0  # atno 17370 bound_to 10713
  156.2613  130.6964  151.1733 LP  0  0  0  0  0  0  0  0  0  0  0  0  # atno 17371 bound_to 10713
  141.2225  133.7035  156.8056 LP  0  0  0  0  0  0  0  0  0  0  0  0  # atno 17394 bound_to 11000
  140.2185  134.8774  157.3352 LP  0  0  0  0  0  0  0  0  0  0  0  0  # atno 17395 bound_to 11000

$$$$
