#       Name:                AV-unprocessed.smi:2761
#       Creating user name   scv26
#       Creation time:       Fri Mar 27 15:08:22 2020


#       File generated by GOLD software.
#

@<TRIPOS>MOLECULE
AV-unprocessed.smi:2761
    36    37     1
SMALL
NO_CHARGES


@<TRIPOS>ATOM
      1 ****        -0.7132   1.9264   0.6860 O.2            1 S1                 0.0000
      2 ****        -0.0920   0.8796   0.4901 C.2            1 S1                 0.0000
      3 ****        -0.6580  -0.3373   0.3322 N.am           1 S1                 0.0000
      4 ****        -2.0169  -0.6710   0.3357 C.2            1 S1                 0.0000
      5 ****        -2.2165  -2.0855   0.1302 C.2            1 S1                 0.0000
      6 ****        -3.4871  -2.5431   0.1105 C.2            1 S1                 0.0000
      7 ****        -4.6192  -1.6352   0.2916 C.2            1 S1                 0.0000
      8 ****        -5.7985  -1.9798   0.2858 O.2            1 S1                 0.0000
      9 ****        -4.2465  -0.3405   0.4724 N.am           1 S1                 0.0000
     10 ****        -2.9672   0.2022   0.5045 N.2            1 S1                 0.0000
     11 ****         1.4439   0.9095   0.4373 C.3            1 S1                 0.0000
     12 ****         1.9988   2.2642  -0.0611 C.3            1 S1                 0.0000
     13 ****         3.4180   2.2003  -0.1178 O.3            1 S1                 0.0000
     14 ****         3.8566   1.1757  -0.9984 C.3            1 S1                 0.0000
     15 ****         3.3199  -0.1740  -0.4967 C.3            1 S1                 0.0000
     16 ****         1.9009  -0.1158  -0.4433 O.3            1 S1                 0.0000
     17 ****        -0.0061  -1.0941   0.1855 H              1 S1                 0.0000
     18 ****        -1.4045  -2.7851  -0.0070 H              1 S1                 0.0000
     19 ****        -3.6729  -3.5961  -0.0412 H              1 S1                 0.0000
     20 ****        -4.9740   0.3475   0.6044 H              1 S1                 0.0000
     21 ****         1.8116   0.7087   1.4451 H              1 S1                 0.0000
     22 ****         1.5972   2.5186  -1.0437 H              1 S1                 0.0000
     23 ****         1.7212   3.0707   0.6185 H              1 S1                 0.0000
     24 ****         3.5149   1.3780  -2.0147 H              1 S1                 0.0000
     25 ****         4.9464   1.1666  -1.0201 H              1 S1                 0.0000
     26 ****         3.6184  -0.9756  -1.1724 H              1 S1                 0.0000
     27 ****         3.7254  -0.4140   0.4873 H              1 S1                 0.0000
     28 ****        -1.7118   1.9129   0.7380 LP             1 S1                 0.0000
     29 ****        -0.2185   2.7888   0.7928 LP             1 S1                 0.0000
     30 ****        -6.0378  -2.9413   0.1503 LP             1 S1                 0.0000
     31 ****        -6.5191  -1.2989   0.4166 LP             1 S1                 0.0000
     32 ****        -2.7926   1.1767   0.6448 LP             1 S1                 0.0000
     33 ****         3.7721   2.0149   0.7988 LP             1 S1                 0.0000
     34 ****         3.7705   3.0789  -0.4399 LP             1 S1                 0.0000
     35 ****         1.5499   0.0665  -1.3618 LP             1 S1                 0.0000
     36 ****         1.5529  -0.9967  -0.1223 LP             1 S1                 0.0000
@<TRIPOS>BOND
    1    1    2 2     
    2    2    3 am    
    3    2   11 1     
    4    3   17 1     
    5    3    4 1     
    6    4    5 1     
    7    4   10 2     
    8    5    6 2     
    9    5   18 1     
   10    6    7 1     
   11    6   19 1     
   12    7    8 2     
   13    7    9 am    
   14    9   10 1     
   15    9   20 1     
   16   11   16 1     
   17   11   12 1     
   18   11   21 1     
   19   12   13 1     
   20   12   22 1     
   21   12   23 1     
   22   13   14 1     
   23   14   15 1     
   24   14   24 1     
   25   14   25 1     
   26   15   16 1     
   27   15   26 1     
   28   15   27 1     
   29    1   28 1     
   30    1   29 1     
   31    8   30 1     
   32    8   31 1     
   33   10   32 1     
   34   13   33 1     
   35   13   34 1     
   36   16   35 1     
   37   16   36 1     
@<TRIPOS>SUBSTRUCTURE
      1 S1             1
@<TRIPOS>SET
LONE_PAIRS      STATIC     ATOMS    <user>   **** ""
9 28 29 30 31 32 33 34 35 36
DONOR_HYDROGENS      STATIC     ATOMS    <user>   **** ""
2 17 20
ATOM$BLUE        STATIC     ATOMS    COLORGROUP SYSTEM
9 28 29 30 31 32 33 34 35 36
ATOM$RED        STATIC     ATOMS    COLORGROUP SYSTEM
2 17 20
