AV-unprocessed.smi:1933|AV-procd|sdf|7822|dock8
  -GOLD-   22720 9563D 1   1.00000     0.00000
 Structure written by MMmdl.
 48 50  0  0  0  0  0  0  0  0  2 V2000
  144.5567  136.7543  152.3642 O   0  0  0  0  0  0  0  0  0  0  0  0
  145.7429  136.5043  152.1494 C   0  0  0  0  0  0  0  0  0  0  0  0
  146.7393  137.3630  152.4102 N   0  0  0  0  0  0  0  0  0  0  0  0
  146.5783  138.7017  152.9694 C   0  0  0  0  0  0  0  0  0  0  0  0
  147.9336  139.4290  153.1827 C   0  0  1  0  0  0  0  0  0  0  0  0
  147.8236  140.7252  154.0360 C   0  0  1  0  0  0  0  0  0  0  0  0
  146.7335  141.6821  153.5773 C   0  0  0  0  0  0  0  0  0  0  0  0
  146.5483  142.5677  154.8012 C   0  0  0  0  0  0  0  0  0  0  0  0
  146.6973  141.6875  155.9051 O   0  0  0  0  0  0  0  0  0  0  0  0
  147.4239  140.5286  155.5068 C   0  0  0  0  0  0  0  0  0  0  0  0
  148.9641  138.5210  153.7722 N   0  3  0  0  0  0  0  0  0  0  0  0
  150.2838  139.1335  154.0725 C   0  0  0  0  0  0  0  0  0  0  0  0
  151.2828  138.0435  154.4941 C   0  0  0  0  0  0  0  0  0  0  0  0
  150.7710  137.3400  155.6200 O   0  0  0  0  0  0  0  0  0  0  0  0
  149.5417  136.6847  155.3298 C   0  0  0  0  0  0  0  0  0  0  0  0
  148.4816  137.7238  154.9262 C   0  0  0  0  0  0  0  0  0  0  0  0
  146.2141  135.3581  151.6274 N   0  0  0  0  0  0  0  0  0  0  0  0
  145.4774  134.2208  151.2008 C   0  0  0  0  0  0  0  0  0  0  0  0
  144.2003  134.0791  151.7894 C   0  0  0  0  0  0  0  0  0  0  0  0
  143.3905  132.9836  151.4323 C   0  0  0  0  0  0  0  0  0  0  0  0
  143.8790  132.0563  150.4947 C   0  0  0  0  0  0  0  0  0  0  0  0
  145.1618  132.2703  149.9578 C   0  0  0  0  0  0  0  0  0  0  0  0
  145.9395  133.3195  150.2985 N   0  0  0  0  0  0  0  0  0  0  0  0
  147.6825  137.0675  152.2047 H   0  0  0  0  0  0  0  0  0  0  0  0
  145.9358  139.3047  152.3263 H   0  0  0  0  0  0  0  0  0  0  0  0
  146.0494  138.5875  153.9151 H   0  0  0  0  0  0  0  0  0  0  0  0
  148.3084  139.7302  152.2029 H   0  0  0  0  0  0  0  0  0  0  0  0
  148.7740  141.2603  154.0155 H   0  0  0  0  0  0  0  0  0  0  0  0
  147.0073  142.2542  152.6901 H   0  0  0  0  0  0  0  0  0  0  0  0
  145.8102  141.1406  153.3653 H   0  0  0  0  0  0  0  0  0  0  0  0
  147.3304  143.3267  154.8461 H   0  0  0  0  0  0  0  0  0  0  0  0
  145.5811  143.0708  154.8164 H   0  0  0  0  0  0  0  0  0  0  0  0
  146.7693  139.6646  155.6267 H   0  0  0  0  0  0  0  0  0  0  0  0
  148.2916  140.3869  156.1510 H   0  0  0  0  0  0  0  0  0  0  0  0
  150.6684  139.6626  153.2011 H   0  0  0  0  0  0  0  0  0  0  0  0
  150.1902  139.8617  154.8788 H   0  0  0  0  0  0  0  0  0  0  0  0
  151.4760  137.3514  153.6726 H   0  0  0  0  0  0  0  0  0  0  0  0
  152.2386  138.4936  154.7632 H   0  0  0  0  0  0  0  0  0  0  0  0
  149.6869  135.9485  154.5375 H   0  0  0  0  0  0  0  0  0  0  0  0
  149.2144  136.1391  156.2150 H   0  0  0  0  0  0  0  0  0  0  0  0
  148.2662  138.3778  155.7716 H   0  0  0  0  0  0  0  0  0  0  0  0
  147.5527  137.2139  154.6685 H   0  0  0  0  0  0  0  0  0  0  0  0
  147.2150  135.2912  151.5169 H   0  0  0  0  0  0  0  0  0  0  0  0
  143.8396  134.8005  152.5081 H   0  0  0  0  0  0  0  0  0  0  0  0
  142.4115  132.8579  151.8703 H   0  0  0  0  0  0  0  0  0  0  0  0
  143.2872  131.2040  150.1953 H   0  0  0  0  0  0  0  0  0  0  0  0
  145.5749  131.5814  149.2360 H   0  0  0  0  0  0  0  0  0  0  0  0
  149.1429  137.8398  153.0481 H   0  0  0  0  0  0  0  0  0  0  0  0
  1  2  2  0  0  0  0
  2  3  1  0  0  0  0
  2 17  1  0  0  0  0
  3  4  1  0  0  0  0
  3 24  1  0  0  0  0
  4  5  1  0  0  0  0
  4 25  1  0  0  0  0
  4 26  1  0  0  0  0
  5  6  1  0  0  0  0
  5 11  1  0  0  0  0
  5 27  1  0  0  0  0
  6 10  1  0  0  0  0
  6  7  1  0  0  0  0
  6 28  1  0  0  0  0
  7  8  1  0  0  0  0
  7 29  1  0  0  0  0
  7 30  1  0  0  0  0
  8  9  1  0  0  0  0
  8 31  1  0  0  0  0
  8 32  1  0  0  0  0
  9 10  1  0  0  0  0
 10 33  1  0  0  0  0
 10 34  1  0  0  0  0
 11 16  1  0  0  0  0
 11 12  1  0  0  0  0
 11 48  1  0  0  0  0
 12 13  1  0  0  0  0
 12 35  1  0  0  0  0
 12 36  1  0  0  0  0
 13 14  1  0  0  0  0
 13 37  1  0  0  0  0
 13 38  1  0  0  0  0
 14 15  1  0  0  0  0
 15 16  1  0  0  0  0
 15 39  1  0  0  0  0
 15 40  1  0  0  0  0
 16 41  1  0  0  0  0
 16 42  1  0  0  0  0
 17 18  1  0  0  0  0
 17 43  1  0  0  0  0
 18 23  1  0  0  0  0
 18 19  2  0  0  0  0
 19 20  1  0  0  0  0
 19 44  1  0  0  0  0
 20 21  2  0  0  0  0
 20 45  1  0  0  0  0
 21 22  1  0  0  0  0
 21 46  1  0  0  0  0
 22 23  2  0  0  0  0
 22 47  1  0  0  0  0
M  CHG  1  11   1
M  END
> <s_m_source_file>
AV-unprocessed.smi

> <i_m_source_file_index>
1933

> <i_lp_mmshare_version>
43012

> <i_f3d_flags>
0

> <s_epik_input>
bjFbY0hdW2NIXVtjSF1bY0hdYzFbTkhdQyg9TylbTkhdW0NIMl1bQ0BIXShbQ0BASF0yW0NIMl1bQ0gyXU9bQ0gyXTIpTjNbQ0gyXVtDSDJdT1tDSDJdW0NIMl0z

> <s_epik_cmdline>
J2VwaWtfcHl0aG9uJywgJy1waCcsICc3LjAnLCAnLXRuJywgJzgnLCAnLW1hJywgJzIwMCcsICctbWV0YWxfYmluZGluZycsICctaW1hZScsICc8aW5maWxlLm1hZT4nLCAnLW9tYWUnLCAnPG91dGZpbGUubWFlPic=

> <r_epik_Ionization_Penalty>
0.983294

> <r_epik_Ionization_Penalty_Charging>
0.98326

> <r_epik_Ionization_Penalty_Neutral>
3.39688e-05

> <r_epik_State_Penalty>
1.0303

> <r_epik_Charging_Adjusted_Penalty>
2.01356

> <i_epik_Tot_Q>
1

> <i_epik_Tot_abs_Q>
1

> <r_epik_Metal_State_Penalty>
1.0303

> <b_epik_Metal_Only>
0

> <s_lp_Force_Field>
OPLS_2005

> <r_lp_Energy>
40.1163

> <b_lp_Chiralities_Consistent>
1

> <s_lp_Variant>
AV-unprocessed.smi:1933-8

> <Gold.Version>
5.8.1

> <Gold.Id.Protein>
6NUR|6NUR_protein|mol2

> <Gold.PLP.Fitness>
48.1574

> <Gold.PLP.PLP>
-37.0724

> <Gold.PLP.part.hbond>
-3.7487

> <Gold.PLP.part.metal>
0.0000

> <Gold.PLP.part.buried>
-3.4755

> <Gold.PLP.part.nonpolar>
-31.2351

> <Gold.PLP.part.repulsive>
1.4700

> <Gold.PLP.ligand.clash>
0.0000

> <Gold.PLP.ligand.torsion>
0.4285

> <Gold.PLP.Chemscore.Hbond>
3.9120

> <Gold.PLP.Chemscore.CHOScore>
0.0000

> <Gold.PLP.Chemscore.Metal>
0.0000

> <Gold.Chemscore.Hbonds>
donor molecule, donor type, donor heavy atom, donor atom, acceptor molecule, acceptor atom, score
      L1  H     3    24       P1  7948  1.00
      L1  H    11    48       P1  7948  2.00
      L1  H    17    43       P1  7948  0.91

> <Gold.PLP.Chemscore.Internal.Correction>
0.2060

> <Gold.Rescore>
     Score         DG    S(hbond)    S(metal)    S(lipo)     H(rot)  DE(clash)    DE(int)     intcor
     16.47     -21.08       2.78        0.00      92.61       1.77       1.62       2.99       ----

> <Gold.Chemscore.Fitness>
16.4677

> <Gold.Chemscore.DG>
-21.0772

> <Gold.Chemscore.ZeroCoef>
-5.4800

> <Gold.Chemscore.Hbond>
2.7801

> <Gold.Chemscore.Metal>
0.0000

> <Gold.Chemscore.Lipo>
92.6113

> <Gold.Chemscore.Internal_Hbond>
0.0000

> <Gold.Chemscore.DEClash>
1.6207

> <Gold.Chemscore.DEInternal>
2.9889

> <Gold.Chemscore.Rot>
1.7671

> <Gold.Chemscore.Internal.Correction>
   9.000000E+99

> <Gold.Chemscore.Hbonds>
donor molecule, donor type, donor heavy atom, donor atom, acceptor molecule, acceptor atom, score
      L1  H     3    24       P1  7948  0.94
      L1  H    11    48       P1  7948  0.97
      L1  H    17    43       P1  7948  0.82

> <Gold.Chemscore.Hbond.Weighted>
-9.2855

> <Gold.Chemscore.Metal.Weighted>
-0.0000

> <Gold.Chemscore.Lipo.Weighted>
-10.8355

> <Gold.Chemscore.Internal_Hbond.Weighted>
0.0000

> <Gold.Chemscore.DEClash.Weighted>
1.6207

> <Gold.Chemscore.DEInternal.Weighted>
2.9889

> <Gold.Chemscore.Rot.Weighted>
4.5238

> <Gold.Chemscore.Internal.Correction.Weighted>
   9.000000E+99

> <Gold.Protein.RotatedTorsions>
[ 6907 6896 6895 6894 ] final -170.11 input  -60.11 | X-H torsion
[ 7974 7965 7964 7962 ] final -169.55 input  175.53 | X-H torsion
[ 8008 7997 7996 7995 ] final -174.67 input   59.86 | X-H torsion
[ 10167 10162 10161 10158 ] final   97.60 input  -65.29 | X-H torsion
[ 10718 10713 10712 10709 ] final  172.76 input   66.30 | X-H torsion
[ 10763 10752 10751 10750 ] final  -92.63 input  -60.55 | X-H torsion
[ 11005 11000 10999 10996 ] final -152.05 input  -57.11 | X-H torsion

> <Gold.Protein.ActiveResidues>
 VAL166  LYS551  ARG553  GLY616  TRP617  ASP618  TYR619  PRO620  LYS621  CYS622 
 ASP623  PHE694  ASN695  SER759  ASP760  ASP761  ALA762  ILE779  LEU786  VAL792 
 PHE793  MET794  SER795  GLU796  ALA797  LYS798  CYS799  TRP800  GLU811  SER814 

> <Gold.Protein.RotatedAtoms>
  151.5024  133.3502  159.2870 H   0  0  0  0  0  0  0  0  0  0  0  0  # atno 6907 bound_to 6896
  150.8765  134.8150  159.7204 H   0  0  0  0  0  0  0  0  0  0  0  0  # atno 6908 bound_to 6896
  152.4734  134.4915  159.9748 H   0  0  0  0  0  0  0  0  0  0  0  0  # atno 6909 bound_to 6896
  144.7183  140.2204  143.6316 H   0  0  0  0  0  0  0  0  0  0  0  0  # atno 7974 bound_to 7965
  155.9731  140.1167  157.0795 H   0  0  0  0  0  0  0  0  0  0  0  0  # atno 8008 bound_to 7997
  154.4161  140.1159  156.5400 H   0  0  0  0  0  0  0  0  0  0  0  0  # atno 8009 bound_to 7997
  155.6571  140.3473  155.4771 H   0  0  0  0  0  0  0  0  0  0  0  0  # atno 8010 bound_to 7997
  139.7786  144.6897  151.0055 H   0  0  0  0  0  0  0  0  0  0  0  0  # atno 10167 bound_to 10162
  156.9742  131.0099  151.2898 H   0  0  0  0  0  0  0  0  0  0  0  0  # atno 10718 bound_to 10713
  154.6880  135.5224  153.8353 H   0  0  0  0  0  0  0  0  0  0  0  0  # atno 10763 bound_to 10752
  153.0612  135.6569  154.0469 H   0  0  0  0  0  0  0  0  0  0  0  0  # atno 10764 bound_to 10752
  154.0347  135.2982  155.3343 H   0  0  0  0  0  0  0  0  0  0  0  0  # atno 10765 bound_to 10752
  140.7230  134.3706  157.5180 H   0  0  0  0  0  0  0  0  0  0  0  0  # atno 11005 bound_to 11000
  145.8506  139.2174  143.1774 LP  0  0  0  0  0  0  0  0  0  0  0  0  # atno 17320 bound_to 7965
  146.0264  140.8300  142.9898 LP  0  0  0  0  0  0  0  0  0  0  0  0  # atno 17321 bound_to 7965
  140.7817  143.4508  151.0415 LP  0  0  0  0  0  0  0  0  0  0  0  0  # atno 17342 bound_to 10162
  139.8190  143.7846  152.3176 LP  0  0  0  0  0  0  0  0  0  0  0  0  # atno 17343 bound_to 10162
  157.5571  130.8221  149.8219 LP  0  0  0  0  0  0  0  0  0  0  0  0  # atno 17370 bound_to 10713
  156.0270  130.3776  150.1794 LP  0  0  0  0  0  0  0  0  0  0  0  0  # atno 17371 bound_to 10713
  139.8843  134.8968  156.2708 LP  0  0  0  0  0  0  0  0  0  0  0  0  # atno 17394 bound_to 11000
  140.9987  133.7164  156.0926 LP  0  0  0  0  0  0  0  0  0  0  0  0  # atno 17395 bound_to 11000

$$$$
