AV-unprocessed.smi:1433|AV-procd|sdf|5839|dock7
  -GOLD-   22720 5503D 1   1.00000     0.00000
 Structure written by MMmdl.
 44 45  0  0  0  0  0  0  0  0  1 V2000
  152.8412  143.4466  162.2367 C   0  0  0  0  0  0  0  0  0  0  0  0
  152.7841  143.2930  160.7132 C   0  0  1  0  0  0  0  0  0  0  0  0
  152.3868  141.8665  160.2893 C   0  0  0  0  0  0  0  0  0  0  0  0
  152.2458  141.7369  158.8385 N   0  0  0  0  0  0  0  0  0  0  0  0
  151.9216  140.3616  158.4020 C   0  0  2  0  0  0  0  0  0  0  0  0
  152.9127  139.2943  158.9206 C   0  0  0  0  0  0  0  0  0  0  0  0
  151.8151  140.2065  156.8620 C   0  0  0  0  0  0  0  0  0  0  0  0
  150.7051  139.3349  156.4805 N   0  0  0  0  0  0  0  0  0  0  0  0
  150.3483  139.0181  155.2258 C   0  0  0  0  0  0  0  0  0  0  0  0
  150.8920  139.4785  154.2225 O   0  0  0  0  0  0  0  0  0  0  0  0
  149.2059  138.0128  155.0771 C   0  0  0  0  0  0  0  0  0  0  0  0
  149.6579  136.6573  155.3356 N   0  0  0  0  0  0  0  0  0  0  0  0
  150.6374  135.9408  154.6796 C   0  0  0  0  0  0  0  0  0  0  0  0
  150.7108  134.7137  155.2742 C   0  0  0  0  0  0  0  0  0  0  0  0
  149.7255  134.7755  156.2992 C   0  0  0  0  0  0  0  0  0  0  0  0
  149.0965  135.9393  156.3332 N   0  0  0  0  0  0  0  0  0  0  0  0
  151.2501  142.7168  158.3958 C   0  0  0  0  0  0  0  0  0  0  0  0
  151.6026  144.1589  158.8054 C   0  0  2  0  0  0  0  0  0  0  0  0
  152.7740  144.7466  157.9988 C   0  0  0  0  0  0  0  0  0  0  0  0
  151.8326  144.2276  160.2117 O   0  0  0  0  0  0  0  0  0  0  0  0
  153.5619  142.7554  162.6742 H   0  0  0  0  0  0  0  0  0  0  0  0
  151.8694  143.2487  162.6900 H   0  0  0  0  0  0  0  0  0  0  0  0
  153.1389  144.4576  162.5151 H   0  0  0  0  0  0  0  0  0  0  0  0
  153.7690  143.5291  160.3094 H   0  0  0  0  0  0  0  0  0  0  0  0
  153.1576  141.1931  160.6606 H   0  0  0  0  0  0  0  0  0  0  0  0
  151.4542  141.5801  160.7783 H   0  0  0  0  0  0  0  0  0  0  0  0
  150.9443  140.1010  158.8115 H   0  0  0  0  0  0  0  0  0  0  0  0
  152.7055  138.3167  158.4843 H   0  0  0  0  0  0  0  0  0  0  0  0
  152.8437  139.1620  159.9999 H   0  0  0  0  0  0  0  0  0  0  0  0
  153.9442  139.5516  158.6769 H   0  0  0  0  0  0  0  0  0  0  0  0
  151.6364  141.1809  156.4068 H   0  0  0  0  0  0  0  0  0  0  0  0
  152.7582  139.8749  156.4281 H   0  0  0  0  0  0  0  0  0  0  0  0
  150.1903  138.9046  157.2354 H   0  0  0  0  0  0  0  0  0  0  0  0
  148.4043  138.2525  155.7768 H   0  0  0  0  0  0  0  0  0  0  0  0
  148.7839  138.0763  154.0726 H   0  0  0  0  0  0  0  0  0  0  0  0
  151.1921  136.3595  153.8525 H   0  0  0  0  0  0  0  0  0  0  0  0
  151.3685  133.8969  155.0169 H   0  0  0  0  0  0  0  0  0  0  0  0
  149.4503  134.0146  157.0146 H   0  0  0  0  0  0  0  0  0  0  0  0
  151.1318  142.6984  157.3153 H   0  0  0  0  0  0  0  0  0  0  0  0
  150.2763  142.4563  158.8135 H   0  0  0  0  0  0  0  0  0  0  0  0
  150.7332  144.7860  158.6068 H   0  0  0  0  0  0  0  0  0  0  0  0
  152.5312  144.7854  156.9367 H   0  0  0  0  0  0  0  0  0  0  0  0
  153.6818  144.1521  158.1006 H   0  0  0  0  0  0  0  0  0  0  0  0
  152.9999  145.7623  158.3237 H   0  0  0  0  0  0  0  0  0  0  0  0
  1  2  1  0  0  0  0
  1 21  1  0  0  0  0
  1 22  1  0  0  0  0
  1 23  1  0  0  0  0
  2 20  1  0  0  0  0
  2  3  1  0  0  0  0
  2 24  1  0  0  0  0
  3  4  1  0  0  0  0
  3 25  1  0  0  0  0
  3 26  1  0  0  0  0
  4  5  1  0  0  0  0
  4 17  1  0  0  0  0
  5  6  1  0  0  0  0
  5  7  1  0  0  0  0
  5 27  1  0  0  0  0
  6 28  1  0  0  0  0
  6 29  1  0  0  0  0
  6 30  1  0  0  0  0
  7  8  1  0  0  0  0
  7 31  1  0  0  0  0
  7 32  1  0  0  0  0
  8  9  1  0  0  0  0
  8 33  1  0  0  0  0
  9 10  2  0  0  0  0
  9 11  1  0  0  0  0
 11 12  1  0  0  0  0
 11 34  1  0  0  0  0
 11 35  1  0  0  0  0
 12 16  1  0  0  0  0
 12 13  1  0  0  0  0
 13 14  2  0  0  0  0
 13 36  1  0  0  0  0
 14 15  1  0  0  0  0
 14 37  1  0  0  0  0
 15 16  2  0  0  0  0
 15 38  1  0  0  0  0
 17 18  1  0  0  0  0
 17 39  1  0  0  0  0
 17 40  1  0  0  0  0
 18 19  1  0  0  0  0
 18 20  1  0  0  0  0
 18 41  1  0  0  0  0
 19 42  1  0  0  0  0
 19 43  1  0  0  0  0
 19 44  1  0  0  0  0
M  END
> <s_m_source_file>
AV-unprocessed.smi

> <i_m_source_file_index>
1433

> <i_lp_mmshare_version>
43012

> <i_f3d_flags>
0

> <s_epik_input>
W0NIM11bQ0BASF0xW0NIMl1OKFtDSDJdW0NASF0oTzEpW0NIM10pW0NASF0oW0NIM10pW0NIMl1bTkhdQyg9TylbQ0gyXW4yW2NIXVtjSF1bY0hdbjI=

> <s_epik_cmdline>
J2VwaWtfcHl0aG9uJywgJy1waCcsICc3LjAnLCAnLXRuJywgJzgnLCAnLW1hJywgJzIwMCcsICctbWV0YWxfYmluZGluZycsICctaW1hZScsICc8aW5maWxlLm1hZT4nLCAnLW9tYWUnLCAnPG91dGZpbGUubWFlPic=

> <r_lp_tautomer_probability>
1

> <r_epik_Ionization_Penalty>
0.196927

> <r_epik_Ionization_Penalty_Charging>
0

> <r_epik_Ionization_Penalty_Neutral>
0.196927

> <r_epik_State_Penalty>
0.186684

> <r_epik_Charging_Adjusted_Penalty>
0.186684

> <i_epik_Tot_Q>
0

> <i_epik_Tot_abs_Q>
0

> <r_epik_Metal_State_Penalty>
0.186682

> <b_epik_Metal_Only>
0

> <s_lp_Force_Field>
OPLS_2005

> <r_lp_Energy>
34.0923

> <b_lp_Chiralities_Consistent>
1

> <s_lp_Variant>
AV-unprocessed.smi:1433-5

> <Gold.Version>
5.8.1

> <Gold.Id.Protein>
6NUR|6NUR_protein|mol2

> <Gold.PLP.Fitness>
40.9741

> <Gold.PLP.PLP>
-36.4317

> <Gold.PLP.part.hbond>
-1.0000

> <Gold.PLP.part.metal>
0.0000

> <Gold.PLP.part.buried>
-4.4826

> <Gold.PLP.part.nonpolar>
-29.9242

> <Gold.PLP.part.repulsive>
0.2919

> <Gold.PLP.ligand.clash>
0.0000

> <Gold.PLP.ligand.torsion>
0.7440

> <Gold.PLP.Chemscore.Hbond>
1.0000

> <Gold.PLP.Chemscore.CHOScore>
1.0000

> <Gold.PLP.Chemscore.Metal>
0.0000

> <Gold.Chemscore.Hbonds>
donor molecule, donor type, donor heavy atom, donor atom, acceptor molecule, acceptor atom, score
      P1  H  7989  7998       L1    10  1.00
      L1  C    13    36       P1  7949  1.00

> <Gold.PLP.Chemscore.Internal.Correction>
0.0303

> <Gold.Rescore>
     Score         DG    S(hbond)    S(metal)    S(lipo)     H(rot)  DE(clash)    DE(int)     intcor
     16.00     -16.81       1.00        0.00     107.75       1.80       0.04       0.77       ----

> <Gold.Chemscore.Fitness>
16.0026

> <Gold.Chemscore.DG>
-16.8088

> <Gold.Chemscore.ZeroCoef>
-5.4800

> <Gold.Chemscore.Hbond>
0.9998

> <Gold.Chemscore.Metal>
0.0000

> <Gold.Chemscore.Lipo>
107.7549

> <Gold.Chemscore.Internal_Hbond>
0.0000

> <Gold.Chemscore.DEClash>
0.0363

> <Gold.Chemscore.DEInternal>
0.7700

> <Gold.Chemscore.Rot>
1.8038

> <Gold.Chemscore.Internal.Correction>
   9.000000E+99

> <Gold.Chemscore.Hbonds>
donor molecule, donor type, donor heavy atom, donor atom, acceptor molecule, acceptor atom, score
      P1  H  7989  7998       L1    10  1.00

> <Gold.Chemscore.Hbond.Weighted>
-3.3393

> <Gold.Chemscore.Metal.Weighted>
-0.0000

> <Gold.Chemscore.Lipo.Weighted>
-12.6073

> <Gold.Chemscore.Internal_Hbond.Weighted>
0.0000

> <Gold.Chemscore.DEClash.Weighted>
0.0363

> <Gold.Chemscore.DEInternal.Weighted>
0.7700

> <Gold.Chemscore.Rot.Weighted>
4.6178

> <Gold.Chemscore.Internal.Correction.Weighted>
   9.000000E+99

> <Gold.Protein.RotatedTorsions>
[ 6907 6896 6895 6894 ] final  141.38 input  -60.11 | X-H torsion
[ 7974 7965 7964 7962 ] final -101.42 input  175.53 | X-H torsion
[ 8008 7997 7996 7995 ] final -171.51 input   59.86 | X-H torsion
[ 10167 10162 10161 10158 ] final  -92.72 input  -65.29 | X-H torsion
[ 10718 10713 10712 10709 ] final  -68.86 input   66.30 | X-H torsion
[ 10763 10752 10751 10750 ] final   -7.90 input  -60.55 | X-H torsion
[ 11005 11000 10999 10996 ] final -146.16 input  -57.11 | X-H torsion

> <Gold.Protein.ActiveResidues>
 VAL166  LYS551  ARG553  GLY616  TRP617  ASP618  TYR619  PRO620  LYS621  CYS622 
 ASP623  PHE694  ASN695  SER759  ASP760  ASP761  ALA762  ILE779  LEU786  VAL792 
 PHE793  MET794  SER795  GLU796  ALA797  LYS798  CYS799  TRP800  GLU811  SER814 

> <Gold.Protein.RotatedAtoms>
  152.2316  133.5063  159.5218 H   0  0  0  0  0  0  0  0  0  0  0  0  # atno 6907 bound_to 6896
  150.7039  134.1208  159.4043 H   0  0  0  0  0  0  0  0  0  0  0  0  # atno 6908 bound_to 6896
  151.9130  135.0331  160.0566 H   0  0  0  0  0  0  0  0  0  0  0  0  # atno 6909 bound_to 6896
  145.2818  140.9328  143.2927 H   0  0  0  0  0  0  0  0  0  0  0  0  # atno 7974 bound_to 7965
  155.9324  140.1093  157.1121 H   0  0  0  0  0  0  0  0  0  0  0  0  # atno 8008 bound_to 7997
  154.4073  140.1235  156.4886 H   0  0  0  0  0  0  0  0  0  0  0  0  # atno 8009 bound_to 7997
  155.7063  140.3471  155.4957 H   0  0  0  0  0  0  0  0  0  0  0  0  # atno 8010 bound_to 7997
  140.3319  143.2990  151.9932 H   0  0  0  0  0  0  0  0  0  0  0  0  # atno 10167 bound_to 10162
  156.0484  130.4302  150.2062 H   0  0  0  0  0  0  0  0  0  0  0  0  # atno 10718 bound_to 10713
  153.4328  135.7012  153.6219 H   0  0  0  0  0  0  0  0  0  0  0  0  # atno 10763 bound_to 10752
  153.4627  135.3732  155.2347 H   0  0  0  0  0  0  0  0  0  0  0  0  # atno 10764 bound_to 10752
  154.8726  135.4024  154.3714 H   0  0  0  0  0  0  0  0  0  0  0  0  # atno 10765 bound_to 10752
  140.7849  134.3036  157.5033 H   0  0  0  0  0  0  0  0  0  0  0  0  # atno 11005 bound_to 11000
  144.9247  139.4370  143.6524 LP  0  0  0  0  0  0  0  0  0  0  0  0  # atno 17320 bound_to 7965
  146.3214  139.8126  142.8943 LP  0  0  0  0  0  0  0  0  0  0  0  0  # atno 17321 bound_to 7965
  139.4855  144.6228  151.7223 LP  0  0  0  0  0  0  0  0  0  0  0  0  # atno 17342 bound_to 10162
  140.5389  144.0611  150.6081 LP  0  0  0  0  0  0  0  0  0  0  0  0  # atno 17343 bound_to 10162
  157.0149  130.9962  151.3356 LP  0  0  0  0  0  0  0  0  0  0  0  0  # atno 17370 bound_to 10713
  157.5385  130.8104  149.8000 LP  0  0  0  0  0  0  0  0  0  0  0  0  # atno 17371 bound_to 10713
  139.8738  134.9340  156.3596 LP  0  0  0  0  0  0  0  0  0  0  0  0  # atno 17394 bound_to 11000
  140.9446  133.7491  156.0192 LP  0  0  0  0  0  0  0  0  0  0  0  0  # atno 17395 bound_to 11000

$$$$
