AV-unprocessed.smi:848|AV-procd|sdf|3941|dock7
  -GOLD-   22720 1413D 1   1.00000     0.00000
 Structure written by MMmdl.
 47 49  0  0  0  0  0  0  0  0  2 V2000
  151.8971  145.4267  159.8992 C   0  0  0  0  0  0  0  0  0  0  0  0
  152.1463  143.9377  159.7740 C   0  0  0  0  0  0  0  0  0  0  0  0
  152.9592  143.2714  160.7124 C   0  0  0  0  0  0  0  0  0  0  0  0
  153.1891  141.8875  160.5904 C   0  0  0  0  0  0  0  0  0  0  0  0
  154.0643  141.1784  161.6034 C   0  0  0  0  0  0  0  0  0  0  0  0
  152.6035  141.1722  159.5258 C   0  0  0  0  0  0  0  0  0  0  0  0
  151.7877  141.8235  158.5781 C   0  0  0  0  0  0  0  0  0  0  0  0
  151.2594  141.0462  157.5694 O   0  0  0  0  0  0  0  0  0  0  0  0
  150.7262  141.6987  156.4244 C   0  0  0  0  0  0  0  0  0  0  0  0
  150.0908  140.6495  155.5004 C   0  0  2  0  0  0  0  0  0  0  0  0
  151.1241  139.8696  154.9321 O   0  0  0  0  0  0  0  0  0  0  0  0
  149.2303  141.2831  154.3883 C   0  0  0  0  0  0  0  0  0  0  0  0
  147.7898  141.0511  154.5812 N   0  0  0  0  0  0  0  0  0  0  0  0
  146.8815  140.4574  153.7544 C   0  0  0  0  0  0  0  0  0  0  0  0
  147.1447  139.8711  152.4068 C   0  0  0  0  0  0  0  0  0  0  0  0
  146.0612  139.0993  151.9387 O   0  0  0  0  0  0  0  0  0  0  0  0
  145.6771  140.4836  154.3912 N   0  3  0  0  0  0  0  0  0  0  0  0
  145.8135  141.1016  155.6347 C   0  0  0  0  0  0  0  0  0  0  0  0
  144.8761  141.3600  156.6302 C   0  0  0  0  0  0  0  0  0  0  0  0
  145.3461  142.0146  157.7874 C   0  0  0  0  0  0  0  0  0  0  0  0
  146.6998  142.3847  157.9226 C   0  0  0  0  0  0  0  0  0  0  0  0
  147.6414  142.1154  156.9076 C   0  0  0  0  0  0  0  0  0  0  0  0
  147.1690  141.4686  155.7653 C   0  0  0  0  0  0  0  0  0  0  0  0
  151.5622  143.2168  158.7123 C   0  0  0  0  0  0  0  0  0  0  0  0
  152.4108  145.8454  160.7651 H   0  0  0  0  0  0  0  0  0  0  0  0
  150.8303  145.6234  160.0082 H   0  0  0  0  0  0  0  0  0  0  0  0
  152.2529  145.9454  159.0088 H   0  0  0  0  0  0  0  0  0  0  0  0
  153.4087  143.8199  161.5275 H   0  0  0  0  0  0  0  0  0  0  0  0
  154.1465  140.1134  161.3842 H   0  0  0  0  0  0  0  0  0  0  0  0
  153.6479  141.2888  162.6049 H   0  0  0  0  0  0  0  0  0  0  0  0
  155.0675  141.6053  161.6001 H   0  0  0  0  0  0  0  0  0  0  0  0
  152.7797  140.1107  159.4306 H   0  0  0  0  0  0  0  0  0  0  0  0
  149.9830  142.4430  156.7157 H   0  0  0  0  0  0  0  0  0  0  0  0
  151.5299  142.2114  155.8924 H   0  0  0  0  0  0  0  0  0  0  0  0
  149.4742  139.9797  156.1005 H   0  0  0  0  0  0  0  0  0  0  0  0
  151.6989  139.5823  155.6248 H   0  0  0  0  0  0  0  0  0  0  0  0
  149.3797  142.3633  154.3717 H   0  0  0  0  0  0  0  0  0  0  0  0
  149.5273  140.9252  153.4026 H   0  0  0  0  0  0  0  0  0  0  0  0
  147.3446  140.6724  151.6951 H   0  0  0  0  0  0  0  0  0  0  0  0
  148.0376  139.2470  152.4449 H   0  0  0  0  0  0  0  0  0  0  0  0
  145.2847  139.6382  151.9402 H   0  0  0  0  0  0  0  0  0  0  0  0
  143.8384  141.0776  156.5286 H   0  0  0  0  0  0  0  0  0  0  0  0
  144.6542  142.2387  158.5867 H   0  0  0  0  0  0  0  0  0  0  0  0
  147.0231  142.8863  158.8232 H   0  0  0  0  0  0  0  0  0  0  0  0
  148.6745  142.4068  157.0231 H   0  0  0  0  0  0  0  0  0  0  0  0
  150.9450  143.7566  158.0100 H   0  0  0  0  0  0  0  0  0  0  0  0
  144.8253  140.1017  154.0008 H   0  0  0  0  0  0  0  0  0  0  0  0
  1  2  1  0  0  0  0
  1 25  1  0  0  0  0
  1 26  1  0  0  0  0
  1 27  1  0  0  0  0
  2 24  1  0  0  0  0
  2  3  2  0  0  0  0
  3  4  1  0  0  0  0
  3 28  1  0  0  0  0
  4  5  1  0  0  0  0
  4  6  2  0  0  0  0
  5 29  1  0  0  0  0
  5 30  1  0  0  0  0
  5 31  1  0  0  0  0
  6  7  1  0  0  0  0
  6 32  1  0  0  0  0
  7  8  1  0  0  0  0
  7 24  2  0  0  0  0
  8  9  1  0  0  0  0
  9 10  1  0  0  0  0
  9 33  1  0  0  0  0
  9 34  1  0  0  0  0
 10 11  1  0  0  0  0
 10 12  1  0  0  0  0
 10 35  1  0  0  0  0
 11 36  1  0  0  0  0
 12 13  1  0  0  0  0
 12 37  1  0  0  0  0
 12 38  1  0  0  0  0
 13 23  1  0  0  0  0
 13 14  1  0  0  0  0
 14 15  1  0  0  0  0
 14 17  2  0  0  0  0
 15 16  1  0  0  0  0
 15 39  1  0  0  0  0
 15 40  1  0  0  0  0
 16 41  1  0  0  0  0
 17 18  1  0  0  0  0
 17 47  1  0  0  0  0
 18 23  2  0  0  0  0
 18 19  1  0  0  0  0
 19 20  2  0  0  0  0
 19 42  1  0  0  0  0
 20 21  1  0  0  0  0
 20 43  1  0  0  0  0
 21 22  2  0  0  0  0
 21 44  1  0  0  0  0
 22 23  1  0  0  0  0
 22 45  1  0  0  0  0
 24 46  1  0  0  0  0
M  CHG  1  17   1
M  END
> <s_m_source_file>
AV-unprocessed.smi

> <i_m_source_file_index>
848

> <i_lp_mmshare_version>
43012

> <i_f3d_flags>
0

> <s_epik_input>
W0NIM11jMVtjSF1jKFtDSDNdKVtjSF1jKFtjSF0xKU9bQ0gyXVtDQEhdKFtPSF0pW0NIMl1uKGMobjIpW0NIMl1bT0hdKWMoYzIzKVtjSF1bY0hdW2NIXVtjSF0z

> <s_epik_cmdline>
J2VwaWtfcHl0aG9uJywgJy1waCcsICc3LjAnLCAnLXRuJywgJzgnLCAnLW1hJywgJzIwMCcsICctbWV0YWxfYmluZGluZycsICctaW1hZScsICc8aW5maWxlLm1hZT4nLCAnLW9tYWUnLCAnPG91dGZpbGUubWFlPic=

> <r_lp_tautomer_probability>
1

> <r_epik_Ionization_Penalty>
1.43292

> <r_epik_Ionization_Penalty_Charging>
1.43206

> <r_epik_Ionization_Penalty_Neutral>
0.000858184

> <r_epik_State_Penalty>
1.51673

> <r_epik_Charging_Adjusted_Penalty>
2.94879

> <i_epik_Tot_Q>
1

> <i_epik_Tot_abs_Q>
1

> <r_epik_Metal_State_Penalty>
5.56186

> <b_epik_Metal_Only>
0

> <s_lp_Force_Field>
OPLS_2005

> <r_lp_Energy>
18.3298

> <b_lp_Chiralities_Consistent>
1

> <s_lp_Variant>
AV-unprocessed.smi:848-3

> <Gold.Version>
5.8.1

> <Gold.Id.Protein>
6NUR|6NUR_protein|mol2

> <Gold.PLP.Fitness>
58.0874

> <Gold.PLP.PLP>
-49.2383

> <Gold.PLP.part.hbond>
-3.9662

> <Gold.PLP.part.metal>
0.0000

> <Gold.PLP.part.buried>
-2.6717

> <Gold.PLP.part.nonpolar>
-42.3623

> <Gold.PLP.part.repulsive>
0.0119

> <Gold.PLP.ligand.clash>
0.0000

> <Gold.PLP.ligand.torsion>
1.1053

> <Gold.PLP.Chemscore.Hbond>
3.6640

> <Gold.PLP.Chemscore.CHOScore>
0.0000

> <Gold.PLP.Chemscore.Metal>
0.0000

> <Gold.Chemscore.Hbonds>
donor molecule, donor type, donor heavy atom, donor atom, acceptor molecule, acceptor atom, score
      L1  H    16    41       P1 10175  1.00
      L1  H    17    47       P1 10175  1.47
      P1  H  7989  7998       L1    11  1.00

> <Gold.PLP.Chemscore.Internal.Correction>
0.0677

> <Gold.Rescore>
     Score         DG    S(hbond)    S(metal)    S(lipo)     H(rot)  DE(clash)    DE(int)     intcor
     19.15     -20.50       2.40        0.00     126.56       3.05       0.26       1.09       ----

> <Gold.Chemscore.Fitness>
19.1493

> <Gold.Chemscore.DG>
-20.4974

> <Gold.Chemscore.ZeroCoef>
-5.4800

> <Gold.Chemscore.Hbond>
2.3987

> <Gold.Chemscore.Metal>
0.0000

> <Gold.Chemscore.Lipo>
126.5604

> <Gold.Chemscore.Internal_Hbond>
0.0000

> <Gold.Chemscore.DEClash>
0.2592

> <Gold.Chemscore.DEInternal>
1.0889

> <Gold.Chemscore.Rot>
3.0476

> <Gold.Chemscore.Internal.Correction>
   9.000000E+99

> <Gold.Chemscore.Hbonds>
donor molecule, donor type, donor heavy atom, donor atom, acceptor molecule, acceptor atom, score
      L1  H    16    41       P1 10175  0.88
      L1  H    17    47       P1 10175  0.73
      P1  H  7989  7998       L1    11  0.40

> <Gold.Chemscore.Hbond.Weighted>
-8.0116

> <Gold.Chemscore.Metal.Weighted>
-0.0000

> <Gold.Chemscore.Lipo.Weighted>
-14.8076

> <Gold.Chemscore.Internal_Hbond.Weighted>
0.0000

> <Gold.Chemscore.DEClash.Weighted>
0.2592

> <Gold.Chemscore.DEInternal.Weighted>
1.0889

> <Gold.Chemscore.Rot.Weighted>
7.8018

> <Gold.Chemscore.Internal.Correction.Weighted>
   9.000000E+99

> <Gold.Protein.RotatedTorsions>
[ 6907 6896 6895 6894 ] final -160.17 input  -60.11 | X-H torsion
[ 7974 7965 7964 7962 ] final -115.43 input  175.53 | X-H torsion
[ 8008 7997 7996 7995 ] final   88.24 input   59.86 | X-H torsion
[ 10167 10162 10161 10158 ] final   -6.44 input  -65.29 | X-H torsion
[ 10718 10713 10712 10709 ] final   -9.36 input   66.30 | X-H torsion
[ 10763 10752 10751 10750 ] final  -71.27 input  -60.55 | X-H torsion
[ 11005 11000 10999 10996 ] final -156.06 input  -57.11 | X-H torsion

> <Gold.Protein.ActiveResidues>
 VAL166  LYS551  ARG553  GLY616  TRP617  ASP618  TYR619  PRO620  LYS621  CYS622 
 ASP623  PHE694  ASN695  SER759  ASP760  ASP761  ALA762  ILE779  LEU786  VAL792 
 PHE793  MET794  SER795  GLU796  ALA797  LYS798  CYS799  TRP800  GLU811  SER814 

> <Gold.Protein.RotatedAtoms>
  151.3450  133.3947  159.2674 H   0  0  0  0  0  0  0  0  0  0  0  0  # atno 6907 bound_to 6896
  150.9847  134.9196  159.7875 H   0  0  0  0  0  0  0  0  0  0  0  0  # atno 6908 bound_to 6896
  152.5228  134.3414  159.9271 H   0  0  0  0  0  0  0  0  0  0  0  0  # atno 6909 bound_to 6896
  145.1085  140.8597  143.3884 H   0  0  0  0  0  0  0  0  0  0  0  0  # atno 7974 bound_to 7965
  155.9853  140.3373  155.6701 H   0  0  0  0  0  0  0  0  0  0  0  0  # atno 8008 bound_to 7997
  155.6493  140.0704  157.2610 H   0  0  0  0  0  0  0  0  0  0  0  0  # atno 8009 bound_to 7997
  154.4203  140.1728  156.1645 H   0  0  0  0  0  0  0  0  0  0  0  0  # atno 8010 bound_to 7997
  140.6997  143.6193  150.8628 H   0  0  0  0  0  0  0  0  0  0  0  0  # atno 10167 bound_to 10162
  156.6891  130.5059  149.5949 H   0  0  0  0  0  0  0  0  0  0  0  0  # atno 10718 bound_to 10713
  154.4294  135.5967  153.6059 H   0  0  0  0  0  0  0  0  0  0  0  0  # atno 10763 bound_to 10752
  152.9798  135.5971  154.3857 H   0  0  0  0  0  0  0  0  0  0  0  0  # atno 10764 bound_to 10752
  154.3693  135.2841  155.2254 H   0  0  0  0  0  0  0  0  0  0  0  0  # atno 10765 bound_to 10752
  140.6797  134.4158  157.5227 H   0  0  0  0  0  0  0  0  0  0  0  0  # atno 11005 bound_to 11000
  145.0874  139.2915  143.5752 LP  0  0  0  0  0  0  0  0  0  0  0  0  # atno 17320 bound_to 7965
  146.3527  140.0400  142.8643 LP  0  0  0  0  0  0  0  0  0  0  0  0  # atno 17321 bound_to 7965
  139.9914  143.5842  152.2908 LP  0  0  0  0  0  0  0  0  0  0  0  0  # atno 17342 bound_to 10162
  139.6499  144.7660  151.2169 LP  0  0  0  0  0  0  0  0  0  0  0  0  # atno 17343 bound_to 10162
  156.1811  130.6499  151.0952 LP  0  0  0  0  0  0  0  0  0  0  0  0  # atno 17370 bound_to 10713
  157.7015  131.0774  150.6804 LP  0  0  0  0  0  0  0  0  0  0  0  0  # atno 17371 bound_to 10713
  139.8955  134.8680  156.2127 LP  0  0  0  0  0  0  0  0  0  0  0  0  # atno 17394 bound_to 11000
  141.0327  133.6980  156.1458 LP  0  0  0  0  0  0  0  0  0  0  0  0  # atno 17395 bound_to 11000

$$$$
