AV-unprocessed.smi:1639|AV-procd|sdf|6550|dock1
  -GOLD-   22720 7233D 1   1.00000     0.00000
 Structure written by MMmdl.
 38 39  0  0  0  0  0  0  0  0  2 V2000
  151.7585  144.7467  158.7833 C   0  0  0  0  0  0  0  0  0  0  0  0
  151.5497  143.5313  157.8773 C   0  0  0  0  0  0  0  0  0  0  0  0
  150.9192  142.5040  158.6245 O   0  0  0  0  0  0  0  0  0  0  0  0
  150.7395  141.2944  157.9018 C   0  0  2  0  0  0  0  0  0  0  0  0
  152.1042  140.8242  157.3715 C   0  0  0  0  0  0  0  0  0  0  0  0
  151.9240  139.6047  156.4525 C   0  0  0  0  0  0  0  0  0  0  0  0
  150.9164  139.9053  155.3285 C   0  0  0  0  0  0  0  0  0  0  0  0
  149.6526  140.3900  155.8786 N   0  0  0  0  0  0  0  0  0  0  0  0
  148.6442  140.5128  154.9146 C   0  0  0  0  0  0  0  0  0  0  0  0
  147.8068  141.6437  154.8867 C   0  0  0  0  0  0  0  0  0  0  0  0
  146.8284  141.6845  153.8784 C   0  0  0  0  0  0  0  0  0  0  0  0
  145.8752  142.8532  153.7446 C   0  0  0  0  0  0  0  0  0  0  0  0
  146.6964  140.6849  152.9825 N   0  0  0  0  0  0  0  0  0  0  0  0
  147.5214  139.6348  153.0633 C   0  0  0  0  0  0  0  0  0  0  0  0
  147.3793  138.6210  152.1462 N   0  0  0  0  0  0  0  0  0  0  0  0
  148.4797  139.5254  153.9951 N   0  3  0  0  0  0  0  0  0  0  0  0
  149.7736  141.5660  156.7363 C   0  0  0  0  0  0  0  0  0  0  0  0
  152.2421  145.5591  158.2405 H   0  0  0  0  0  0  0  0  0  0  0  0
  152.3880  144.4943  159.6370 H   0  0  0  0  0  0  0  0  0  0  0  0
  150.8077  145.1186  159.1656 H   0  0  0  0  0  0  0  0  0  0  0  0
  150.9317  143.8044  157.0206 H   0  0  0  0  0  0  0  0  0  0  0  0
  152.5114  143.1826  157.4978 H   0  0  0  0  0  0  0  0  0  0  0  0
  150.3160  140.5081  158.5309 H   0  0  0  0  0  0  0  0  0  0  0  0
  152.5824  141.6320  156.8160 H   0  0  0  0  0  0  0  0  0  0  0  0
  152.7679  140.5786  158.2010 H   0  0  0  0  0  0  0  0  0  0  0  0
  152.8840  139.3120  156.0261 H   0  0  0  0  0  0  0  0  0  0  0  0
  151.5727  138.7549  157.0394 H   0  0  0  0  0  0  0  0  0  0  0  0
  151.3302  140.6545  154.6519 H   0  0  0  0  0  0  0  0  0  0  0  0
  150.7405  139.0046  154.7387 H   0  0  0  0  0  0  0  0  0  0  0  0
  147.9167  142.4431  155.6054 H   0  0  0  0  0  0  0  0  0  0  0  0
  146.0663  143.6061  154.5101 H   0  0  0  0  0  0  0  0  0  0  0  0
  144.8435  142.5165  153.8486 H   0  0  0  0  0  0  0  0  0  0  0  0
  145.9871  143.3257  152.7683 H   0  0  0  0  0  0  0  0  0  0  0  0
  146.6675  138.6743  151.4319 H   0  0  0  0  0  0  0  0  0  0  0  0
  147.9801  137.8101  152.1784 H   0  0  0  0  0  0  0  0  0  0  0  0
  148.7921  141.8415  157.1245 H   0  0  0  0  0  0  0  0  0  0  0  0
  150.1344  142.4108  156.1473 H   0  0  0  0  0  0  0  0  0  0  0  0
  149.0914  138.7097  154.0234 H   0  0  0  0  0  0  0  0  0  0  0  0
  1  2  1  0  0  0  0
  1 18  1  0  0  0  0
  1 19  1  0  0  0  0
  1 20  1  0  0  0  0
  2  3  1  0  0  0  0
  2 21  1  0  0  0  0
  2 22  1  0  0  0  0
  3  4  1  0  0  0  0
  4 17  1  0  0  0  0
  4  5  1  0  0  0  0
  4 23  1  0  0  0  0
  5  6  1  0  0  0  0
  5 24  1  0  0  0  0
  5 25  1  0  0  0  0
  6  7  1  0  0  0  0
  6 26  1  0  0  0  0
  6 27  1  0  0  0  0
  7  8  1  0  0  0  0
  7 28  1  0  0  0  0
  7 29  1  0  0  0  0
  8  9  1  0  0  0  0
  8 17  1  0  0  0  0
  9 16  1  0  0  0  0
  9 10  2  0  0  0  0
 10 11  1  0  0  0  0
 10 30  1  0  0  0  0
 11 12  1  0  0  0  0
 11 13  2  0  0  0  0
 12 31  1  0  0  0  0
 12 32  1  0  0  0  0
 12 33  1  0  0  0  0
 13 14  1  0  0  0  0
 14 15  1  0  0  0  0
 14 16  2  0  0  0  0
 15 34  1  0  0  0  0
 15 35  1  0  0  0  0
 16 38  1  0  0  0  0
 17 36  1  0  0  0  0
 17 37  1  0  0  0  0
M  CHG  1  16   1
M  END
> <s_m_source_file>
AV-unprocessed.smi

> <i_m_source_file_index>
1639

> <i_lp_mmshare_version>
43012

> <i_f3d_flags>
0

> <s_epik_input>
W0NIM11bQ0gyXU9bQ0BASF0xW0NIMl1bQ0gyXVtDSDJdTihbQ0gyXTEpYzJbY0hdYyhbQ0gzXSluYyhuMilbTkgyXQ==

> <s_epik_cmdline>
J2VwaWtfcHl0aG9uJywgJy1waCcsICc3LjAnLCAnLXRuJywgJzgnLCAnLW1hJywgJzIwMCcsICctbWV0YWxfYmluZGluZycsICctaW1hZScsICc8aW5maWxlLm1hZT4nLCAnLW9tYWUnLCAnPG91dGZpbGUubWFlPic=

> <r_lp_tautomer_probability>
0.424989

> <r_epik_Ionization_Penalty>
0.443088

> <r_epik_Ionization_Penalty_Charging>
0.443085

> <r_epik_Ionization_Penalty_Neutral>
3.21819e-06

> <r_epik_State_Penalty>
1.26241

> <r_epik_Charging_Adjusted_Penalty>
1.70549

> <i_epik_Tot_Q>
1

> <i_epik_Tot_abs_Q>
1

> <r_epik_Metal_State_Penalty>
1.59997

> <b_epik_Metal_Only>
0

> <s_lp_Force_Field>
OPLS_2005

> <r_lp_Energy>
14.3037

> <b_lp_Chiralities_Consistent>
1

> <s_lp_Variant>
AV-unprocessed.smi:1639-3

> <Gold.Version>
5.8.1

> <Gold.Id.Protein>
6NUR|6NUR_protein|mol2

> <Gold.PLP.Fitness>
36.9472

> <Gold.PLP.PLP>
-33.0515

> <Gold.PLP.part.hbond>
-2.9960

> <Gold.PLP.part.metal>
0.0000

> <Gold.PLP.part.buried>
-1.6544

> <Gold.PLP.part.nonpolar>
-28.2834

> <Gold.PLP.part.repulsive>
0.4503

> <Gold.PLP.ligand.clash>
1.7668

> <Gold.PLP.ligand.torsion>
0.2468

> <Gold.PLP.Chemscore.Hbond>
2.0000

> <Gold.PLP.Chemscore.CHOScore>
0.0000

> <Gold.PLP.Chemscore.Metal>
0.0000

> <Gold.Chemscore.Hbonds>
donor molecule, donor type, donor heavy atom, donor atom, acceptor molecule, acceptor atom, score
      L1  H    15    35       P1  7948  2.00

> <Gold.PLP.Chemscore.Internal.Correction>
0.1560

> <Gold.Rescore>
     Score         DG    S(hbond)    S(metal)    S(lipo)     H(rot)  DE(clash)    DE(int)     intcor
     13.15     -14.04       0.99        0.00      76.69       1.46       0.68       0.21       ----

> <Gold.Chemscore.Fitness>
13.1453

> <Gold.Chemscore.DG>
-14.0388

> <Gold.Chemscore.ZeroCoef>
-5.4800

> <Gold.Chemscore.Hbond>
0.9921

> <Gold.Chemscore.Metal>
0.0000

> <Gold.Chemscore.Lipo>
76.6886

> <Gold.Chemscore.Internal_Hbond>
0.0000

> <Gold.Chemscore.DEClash>
0.6801

> <Gold.Chemscore.DEInternal>
0.2135

> <Gold.Chemscore.Rot>
1.4560

> <Gold.Chemscore.Internal.Correction>
   9.000000E+99

> <Gold.Chemscore.Hbonds>
donor molecule, donor type, donor heavy atom, donor atom, acceptor molecule, acceptor atom, score
      L1  H    15    35       P1  7948  1.00

> <Gold.Chemscore.Hbond.Weighted>
-3.3135

> <Gold.Chemscore.Metal.Weighted>
-0.0000

> <Gold.Chemscore.Lipo.Weighted>
-8.9726

> <Gold.Chemscore.Internal_Hbond.Weighted>
0.0000

> <Gold.Chemscore.DEClash.Weighted>
0.6801

> <Gold.Chemscore.DEInternal.Weighted>
0.2135

> <Gold.Chemscore.Rot.Weighted>
3.7272

> <Gold.Chemscore.Internal.Correction.Weighted>
   9.000000E+99

> <Gold.Protein.RotatedTorsions>
[ 6907 6896 6895 6894 ] final -125.45 input  -60.11 | X-H torsion
[ 7974 7965 7964 7962 ] final  -19.26 input  175.53 | X-H torsion
[ 8008 7997 7996 7995 ] final -116.44 input   59.86 | X-H torsion
[ 10167 10162 10161 10158 ] final  -46.17 input  -65.29 | X-H torsion
[ 10718 10713 10712 10709 ] final   74.67 input   66.30 | X-H torsion
[ 10763 10752 10751 10750 ] final   14.21 input  -60.55 | X-H torsion
[ 11005 11000 10999 10996 ] final  170.54 input  -57.11 | X-H torsion

> <Gold.Protein.ActiveResidues>
 VAL166  LYS551  ARG553  GLY616  TRP617  ASP618  TYR619  PRO620  LYS621  CYS622 
 ASP623  PHE694  ASN695  SER759  ASP760  ASP761  ALA762  ILE779  LEU786  VAL792 
 PHE793  MET794  SER795  GLU796  ALA797  LYS798  CYS799  TRP800  GLU811  SER814 

> <Gold.Protein.RotatedAtoms>
  150.8869  133.7296  159.2915 H   0  0  0  0  0  0  0  0  0  0  0  0  # atno 6907 bound_to 6896
  151.4859  135.1053  159.9800 H   0  0  0  0  0  0  0  0  0  0  0  0  # atno 6908 bound_to 6896
  152.4796  133.8174  159.7091 H   0  0  0  0  0  0  0  0  0  0  0  0  # atno 6909 bound_to 6896
  146.1850  140.4036  142.8479 H   0  0  0  0  0  0  0  0  0  0  0  0  # atno 7974 bound_to 7965
  155.0679  140.0393  157.2599 H   0  0  0  0  0  0  0  0  0  0  0  0  # atno 8008 bound_to 7997
  154.7006  140.2672  155.6698 H   0  0  0  0  0  0  0  0  0  0  0  0  # atno 8009 bound_to 7997
  156.2759  140.2741  156.1616 H   0  0  0  0  0  0  0  0  0  0  0  0  # atno 8010 bound_to 7997
  140.6828  143.2843  151.3745 H   0  0  0  0  0  0  0  0  0  0  0  0  # atno 10167 bound_to 10162
  157.6602  130.9689  150.1244 H   0  0  0  0  0  0  0  0  0  0  0  0  # atno 10718 bound_to 10713
  153.1644  135.6801  153.8696 H   0  0  0  0  0  0  0  0  0  0  0  0  # atno 10763 bound_to 10752
  153.8081  135.3146  155.3399 H   0  0  0  0  0  0  0  0  0  0  0  0  # atno 10764 bound_to 10752
  154.7955  135.4809  154.0241 H   0  0  0  0  0  0  0  0  0  0  0  0  # atno 10765 bound_to 10752
  140.3094  134.7529  157.3979 H   0  0  0  0  0  0  0  0  0  0  0  0  # atno 11005 bound_to 11000
  144.8382  140.6815  143.6246 LP  0  0  0  0  0  0  0  0  0  0  0  0  # atno 17320 bound_to 7965
  145.3964  139.1606  143.4201 LP  0  0  0  0  0  0  0  0  0  0  0  0  # atno 17321 bound_to 7965
  139.6163  144.0996  152.2349 LP  0  0  0  0  0  0  0  0  0  0  0  0  # atno 17342 bound_to 10162
  140.0426  144.5995  150.7399 LP  0  0  0  0  0  0  0  0  0  0  0  0  # atno 17343 bound_to 10162
  156.2107  130.3666  149.8674 LP  0  0  0  0  0  0  0  0  0  0  0  0  # atno 17370 bound_to 10713
  156.6553  130.8760  151.3538 LP  0  0  0  0  0  0  0  0  0  0  0  0  # atno 17371 bound_to 10713
  140.1038  134.5437  155.8328 LP  0  0  0  0  0  0  0  0  0  0  0  0  # atno 17394 bound_to 11000
  141.2111  133.6703  156.6560 LP  0  0  0  0  0  0  0  0  0  0  0  0  # atno 17395 bound_to 11000

$$$$
