AV-unprocessed.smi:1723|AV-procd|sdf|6946|dock1
  -GOLD-   22720 8153D 1   1.00000     0.00000
 Structure written by MMmdl.
 38 38  0  0  0  0  0  0  0  0  1 V2000
  149.1108  133.1826  153.8439 C   0  0  0  0  0  0  0  0  0  0  0  0
  149.2323  134.4006  154.7662 C   0  0  0  0  0  0  0  0  0  0  0  0
  150.6841  134.6877  155.1748 C   0  0  0  0  0  0  0  0  0  0  0  0
  150.8402  136.0351  155.8886 C   0  0  0  0  0  0  0  0  0  0  0  0
  152.2246  136.3593  155.9469 O   0  0  0  0  0  0  0  0  0  0  0  0
  152.6161  137.1842  157.0415 C   0  0  1  0  0  0  0  0  0  0  0  0
  154.0633  136.8174  157.4014 C   0  0  0  0  0  0  0  0  0  0  0  0
  152.4953  138.6680  156.6585 C   0  0  0  0  0  0  0  0  0  0  0  0
  153.0319  139.0733  155.6274 O   0  0  0  0  0  0  0  0  0  0  0  0
  151.7874  139.4320  157.5136 N   0  0  0  0  0  0  0  0  0  0  0  0
  151.4404  140.7886  157.4073 C   0  0  0  0  0  0  0  0  0  0  0  0
  151.6533  141.7171  158.3758 C   0  0  0  0  0  0  0  0  0  0  0  0
  151.2881  143.1126  158.2001 C   0  0  0  0  0  0  0  0  0  0  0  0
  151.5863  144.1519  159.2697 C   0  0  0  0  0  0  0  0  0  0  0  0
  152.3109  143.6335  160.2621 F   0  0  0  0  0  0  0  0  0  0  0  0
  152.2720  145.1633  158.7395 F   0  0  0  0  0  0  0  0  0  0  0  0
  150.4590  144.6413  159.7866 F   0  0  0  0  0  0  0  0  0  0  0  0
  150.7518  143.4473  157.0117 C   0  0  0  0  0  0  0  0  0  0  0  0
  150.5293  142.4984  156.0109 N   0  0  0  0  0  0  0  0  0  0  0  0
  150.8419  141.1879  156.1231 C   0  0  0  0  0  0  0  0  0  0  0  0
  150.6236  140.4147  155.1911 O   0  0  0  0  0  0  0  0  0  0  0  0
  150.1134  142.8266  155.1512 H   0  0  0  0  0  0  0  0  0  0  0  0
  148.0704  133.0029  153.5721 H   0  0  0  0  0  0  0  0  0  0  0  0
  149.4884  132.2821  154.3290 H   0  0  0  0  0  0  0  0  0  0  0  0
  149.6747  133.3293  152.9224 H   0  0  0  0  0  0  0  0  0  0  0  0
  148.8146  135.2735  154.2631 H   0  0  0  0  0  0  0  0  0  0  0  0
  148.6259  134.2384  155.6578 H   0  0  0  0  0  0  0  0  0  0  0  0
  151.0452  133.8899  155.8249 H   0  0  0  0  0  0  0  0  0  0  0  0
  151.3204  134.6761  154.2889 H   0  0  0  0  0  0  0  0  0  0  0  0
  150.2793  136.7992  155.3492 H   0  0  0  0  0  0  0  0  0  0  0  0
  150.4304  135.9750  156.8980 H   0  0  0  0  0  0  0  0  0  0  0  0
  151.9824  136.9678  157.9040 H   0  0  0  0  0  0  0  0  0  0  0  0
  154.4326  137.4258  158.2278 H   0  0  0  0  0  0  0  0  0  0  0  0
  154.7364  136.9571  156.5545 H   0  0  0  0  0  0  0  0  0  0  0  0
  154.1319  135.7728  157.7060 H   0  0  0  0  0  0  0  0  0  0  0  0
  151.4844  138.9850  158.3671 H   0  0  0  0  0  0  0  0  0  0  0  0
  152.1222  141.4460  159.3078 H   0  0  0  0  0  0  0  0  0  0  0  0
  150.4619  144.4504  156.7356 H   0  0  0  0  0  0  0  0  0  0  0  0
  1  2  1  0  0  0  0
  1 23  1  0  0  0  0
  1 24  1  0  0  0  0
  1 25  1  0  0  0  0
  2  3  1  0  0  0  0
  2 26  1  0  0  0  0
  2 27  1  0  0  0  0
  3  4  1  0  0  0  0
  3 28  1  0  0  0  0
  3 29  1  0  0  0  0
  4  5  1  0  0  0  0
  4 30  1  0  0  0  0
  4 31  1  0  0  0  0
  5  6  1  0  0  0  0
  6  7  1  0  0  0  0
  6  8  1  0  0  0  0
  6 32  1  0  0  0  0
  7 33  1  0  0  0  0
  7 34  1  0  0  0  0
  7 35  1  0  0  0  0
  8  9  2  0  0  0  0
  8 10  1  0  0  0  0
 10 11  1  0  0  0  0
 10 36  1  0  0  0  0
 11 20  1  0  0  0  0
 11 12  2  0  0  0  0
 12 13  1  0  0  0  0
 12 37  1  0  0  0  0
 13 14  1  0  0  0  0
 13 18  2  0  0  0  0
 14 15  1  0  0  0  0
 14 16  1  0  0  0  0
 14 17  1  0  0  0  0
 18 19  1  0  0  0  0
 18 38  1  0  0  0  0
 19 22  1  0  0  0  0
 19 20  1  0  0  0  0
 20 21  2  0  0  0  0
M  END
> <s_m_source_file>
AV-unprocessed.smi

> <i_m_source_file_index>
1723

> <i_lp_mmshare_version>
43012

> <i_f3d_flags>
0

> <s_epik_input>
W0NIM11bQ0gyXVtDSDJdW0NIMl1PW0NASF0oW0NIM10pQyg9TylbTkhdYzFbY0hdYyhDKEYpKEYpRilbY0hdW25IXWMxPU8=

> <s_epik_cmdline>
J2VwaWtfcHl0aG9uJywgJy1waCcsICc3LjAnLCAnLXRuJywgJzgnLCAnLW1hJywgJzIwMCcsICctbWV0YWxfYmluZGluZycsICctaW1hZScsICc8aW5maWxlLm1hZT4nLCAnLW9tYWUnLCAnPG91dGZpbGUubWFlPic=

> <r_lp_tautomer_probability>
0.999

> <r_epik_Ionization_Penalty>
0.00763408

> <r_epik_Ionization_Penalty_Charging>
0.00763398

> <r_epik_Ionization_Penalty_Neutral>
9.29819e-08

> <r_epik_State_Penalty>
0.00571302

> <r_epik_Charging_Adjusted_Penalty>
0.013347

> <i_epik_Tot_Q>
0

> <i_epik_Tot_abs_Q>
0

> <r_epik_Metal_State_Penalty>
0.392814

> <b_epik_Metal_Only>
0

> <s_lp_Force_Field>
OPLS_2005

> <r_lp_Energy>
18.7704

> <b_lp_Chiralities_Consistent>
1

> <s_lp_Variant>
AV-unprocessed.smi:1723-2

> <Gold.Version>
5.8.1

> <Gold.Id.Protein>
6NUR|6NUR_protein|mol2

> <Gold.PLP.Fitness>
48.6719

> <Gold.PLP.PLP>
-39.7183

> <Gold.PLP.part.hbond>
-4.0000

> <Gold.PLP.part.metal>
0.0000

> <Gold.PLP.part.buried>
-3.5628

> <Gold.PLP.part.nonpolar>
-32.0855

> <Gold.PLP.part.repulsive>
0.2554

> <Gold.PLP.ligand.clash>
0.0000

> <Gold.PLP.ligand.torsion>
1.3490

> <Gold.PLP.Chemscore.Hbond>
3.0832

> <Gold.PLP.Chemscore.CHOScore>
0.7482

> <Gold.PLP.Chemscore.Metal>
0.0000

> <Gold.Chemscore.Hbonds>
donor molecule, donor type, donor heavy atom, donor atom, acceptor molecule, acceptor atom, score
      L1  H    19    22       P1  8028  0.05
      P1  H  7989  7998       L1    21  1.00
      P1  H  7997  8009       L1     9  1.00
      P1  H 10752 10765       L1     5  1.00
      L1  C    18    38       P1  8028  0.55

> <Gold.PLP.Chemscore.Internal.Correction>
0.1573

> <Gold.Rescore>
     Score         DG    S(hbond)    S(metal)    S(lipo)     H(rot)  DE(clash)    DE(int)     intcor
     14.20     -18.71       2.93        0.00      73.03       1.99       1.30       3.21       ----

> <Gold.Chemscore.Fitness>
14.2003

> <Gold.Chemscore.DG>
-18.7078

> <Gold.Chemscore.ZeroCoef>
-5.4800

> <Gold.Chemscore.Hbond>
2.9309

> <Gold.Chemscore.Metal>
0.0000

> <Gold.Chemscore.Lipo>
73.0314

> <Gold.Chemscore.Internal_Hbond>
0.0000

> <Gold.Chemscore.DEClash>
1.3001

> <Gold.Chemscore.DEInternal>
3.2074

> <Gold.Chemscore.Rot>
1.9946

> <Gold.Chemscore.Internal.Correction>
   9.000000E+99

> <Gold.Chemscore.Hbonds>
donor molecule, donor type, donor heavy atom, donor atom, acceptor molecule, acceptor atom, score
      L1  H    19    22       P1  8028  0.05
      P1  H  7989  7998       L1    21  0.78
      P1  H  7997  8009       L1     9  0.86
      P1  H 10752 10765       L1     5  0.92

> <Gold.Chemscore.Hbond.Weighted>
-9.7894

> <Gold.Chemscore.Metal.Weighted>
-0.0000

> <Gold.Chemscore.Lipo.Weighted>
-8.5447

> <Gold.Chemscore.Internal_Hbond.Weighted>
0.0000

> <Gold.Chemscore.DEClash.Weighted>
1.3001

> <Gold.Chemscore.DEInternal.Weighted>
3.2074

> <Gold.Chemscore.Rot.Weighted>
5.1062

> <Gold.Chemscore.Internal.Correction.Weighted>
   9.000000E+99

> <Gold.Protein.RotatedTorsions>
[ 6907 6896 6895 6894 ] final   78.71 input  -60.11 | X-H torsion
[ 7974 7965 7964 7962 ] final  147.89 input  175.53 | X-H torsion
[ 8008 7997 7996 7995 ] final -136.43 input   59.86 | X-H torsion
[ 10167 10162 10161 10158 ] final  160.31 input  -65.29 | X-H torsion
[ 10718 10713 10712 10709 ] final -148.70 input   66.30 | X-H torsion
[ 10763 10752 10751 10750 ] final -142.47 input  -60.55 | X-H torsion
[ 11005 11000 10999 10996 ] final  -18.58 input  -57.11 | X-H torsion

> <Gold.Protein.ActiveResidues>
 VAL166  LYS551  ARG553  GLY616  TRP617  ASP618  TYR619  PRO620  LYS621  CYS622 
 ASP623  PHE694  ASN695  SER759  ASP760  ASP761  ALA762  ILE779  LEU786  VAL792 
 PHE793  MET794  SER795  GLU796  ALA797  LYS798  CYS799  TRP800  GLU811  SER814 

> <Gold.Protein.RotatedAtoms>
  152.5170  134.3622  159.9288 H   0  0  0  0  0  0  0  0  0  0  0  0  # atno 6907 bound_to 6896
  151.3575  133.3896  159.2694 H   0  0  0  0  0  0  0  0  0  0  0  0  # atno 6908 bound_to 6896
  150.9678  134.9075  159.7828 H   0  0  0  0  0  0  0  0  0  0  0  0  # atno 6909 bound_to 6896
  144.8556  139.6085  143.5954 H   0  0  0  0  0  0  0  0  0  0  0  0  # atno 7974 bound_to 7965
  155.3952  140.0502  157.3039 H   0  0  0  0  0  0  0  0  0  0  0  0  # atno 8008 bound_to 7997
  154.5017  140.2159  155.9294 H   0  0  0  0  0  0  0  0  0  0  0  0  # atno 8009 bound_to 7997
  156.1476  140.3142  155.8600 H   0  0  0  0  0  0  0  0  0  0  0  0  # atno 8010 bound_to 7997
  139.4839  144.4646  151.8659 H   0  0  0  0  0  0  0  0  0  0  0  0  # atno 10167 bound_to 10162
  156.4237  130.8041  151.2265 H   0  0  0  0  0  0  0  0  0  0  0  0  # atno 10718 bound_to 10713
  154.8508  135.3495  154.6032 H   0  0  0  0  0  0  0  0  0  0  0  0  # atno 10763 bound_to 10752
  153.6641  135.6988  153.5172 H   0  0  0  0  0  0  0  0  0  0  0  0  # atno 10764 bound_to 10752
  153.2794  135.4268  155.1021 H   0  0  0  0  0  0  0  0  0  0  0  0  # atno 10765 bound_to 10752
  140.8282  133.8016  155.9731 H   0  0  0  0  0  0  0  0  0  0  0  0  # atno 11005 bound_to 11000
  146.2820  139.6903  142.9222 LP  0  0  0  0  0  0  0  0  0  0  0  0  # atno 17320 bound_to 7965
  145.4413  141.0422  143.2856 LP  0  0  0  0  0  0  0  0  0  0  0  0  # atno 17321 bound_to 7965
  140.4110  144.2368  150.5889 LP  0  0  0  0  0  0  0  0  0  0  0  0  # atno 17342 bound_to 10162
  140.4966  143.2331  151.8741 LP  0  0  0  0  0  0  0  0  0  0  0  0  # atno 17343 bound_to 10162
  157.7508  131.0220  150.3774 LP  0  0  0  0  0  0  0  0  0  0  0  0  # atno 17370 bound_to 10713
  156.4096  130.3931  149.6901 LP  0  0  0  0  0  0  0  0  0  0  0  0  # atno 17371 bound_to 10713
  140.9026  134.2359  157.5033 LP  0  0  0  0  0  0  0  0  0  0  0  0  # atno 17394 bound_to 11000
  139.8706  134.9713  156.4734 LP  0  0  0  0  0  0  0  0  0  0  0  0  # atno 17395 bound_to 11000

$$$$
