AV-unprocessed.smi:1703|AV-procd|sdf|6880|dock1
  -GOLD-   22720 8 83D 1   1.00000     0.00000
 Structure written by MMmdl.
 50 52  0  0  0  0  0  0  0  0  3 V2000
  149.9500  133.7814  154.4506 C   0  0  0  0  0  0  0  0  0  0  0  0
  150.1382  134.7195  155.6561 C   0  0  1  0  0  0  0  0  0  0  0  0
  150.9666  135.9788  155.3325 C   0  0  0  0  0  0  0  0  0  0  0  0
  150.1791  136.9457  154.5277 N   0  3  2  0  0  0  0  0  0  0  0  0
  150.9436  138.1598  154.1453 C   0  0  0  0  0  0  0  0  0  0  0  0
  151.7745  138.7358  155.3134 C   0  0  1  0  0  0  0  0  0  0  0  0
  152.5144  139.8478  154.8524 O   0  0  0  0  0  0  0  0  0  0  0  0
  150.9182  139.2165  156.5017 C   0  0  0  0  0  0  0  0  0  0  0  0
  150.8562  140.6839  156.6104 N   0  0  0  0  0  0  0  0  0  0  0  0
  150.1259  141.5843  155.8896 C   0  0  0  0  0  0  0  0  0  0  0  0
  149.1908  141.2904  154.7627 C   0  0  0  0  0  0  0  0  0  0  0  0
  149.8696  141.0849  153.5433 O   0  0  0  0  0  0  0  0  0  0  0  0
  150.4170  142.8230  156.3761 N   0  3  0  0  0  0  0  0  0  0  0  0
  151.3400  142.7185  157.4165 C   0  0  0  0  0  0  0  0  0  0  0  0
  151.9303  143.6980  158.2090 C   0  0  0  0  0  0  0  0  0  0  0  0
  152.8425  143.2549  159.1886 C   0  0  0  0  0  0  0  0  0  0  0  0
  153.1378  141.8860  159.3497 C   0  0  0  0  0  0  0  0  0  0  0  0
  152.5331  140.9019  158.5401 C   0  0  0  0  0  0  0  0  0  0  0  0
  151.6286  141.3467  157.5746 C   0  0  0  0  0  0  0  0  0  0  0  0
  148.9092  137.2708  155.2163 C   0  0  0  0  0  0  0  0  0  0  0  0
  148.1027  135.9891  155.4901 C   0  0  2  0  0  0  0  0  0  0  0  0
  146.8189  136.2753  156.2767 C   0  0  0  0  0  0  0  0  0  0  0  0
  148.8955  135.0858  156.2560 O   0  0  0  0  0  0  0  0  0  0  0  0
  150.9122  133.4098  154.0973 H   0  0  0  0  0  0  0  0  0  0  0  0
  149.4666  134.2773  153.6096 H   0  0  0  0  0  0  0  0  0  0  0  0
  149.3446  132.9163  154.7225 H   0  0  0  0  0  0  0  0  0  0  0  0
  150.6811  134.1523  156.4128 H   0  0  0  0  0  0  0  0  0  0  0  0
  151.2742  136.4588  156.2628 H   0  0  0  0  0  0  0  0  0  0  0  0
  151.8808  135.6918  154.8137 H   0  0  0  0  0  0  0  0  0  0  0  0
  151.6213  137.9296  153.3214 H   0  0  0  0  0  0  0  0  0  0  0  0
  150.2406  138.8987  153.7594 H   0  0  0  0  0  0  0  0  0  0  0  0
  152.4825  137.9946  155.6802 H   0  0  0  0  0  0  0  0  0  0  0  0
  152.7955  140.3604  155.5946 H   0  0  0  0  0  0  0  0  0  0  0  0
  149.8937  138.8591  156.3923 H   0  0  0  0  0  0  0  0  0  0  0  0
  151.2790  138.7946  157.4391 H   0  0  0  0  0  0  0  0  0  0  0  0
  148.5961  140.4074  154.9962 H   0  0  0  0  0  0  0  0  0  0  0  0
  148.4954  142.1217  154.6439 H   0  0  0  0  0  0  0  0  0  0  0  0
  149.4983  140.3263  153.1181 H   0  0  0  0  0  0  0  0  0  0  0  0
  151.7067  144.7478  158.0861 H   0  0  0  0  0  0  0  0  0  0  0  0
  153.3258  143.9793  159.8283 H   0  0  0  0  0  0  0  0  0  0  0  0
  153.8431  141.5840  160.1106 H   0  0  0  0  0  0  0  0  0  0  0  0
  152.7740  139.8585  158.6769 H   0  0  0  0  0  0  0  0  0  0  0  0
  149.1238  137.7940  156.1499 H   0  0  0  0  0  0  0  0  0  0  0  0
  148.3174  137.9473  154.5981 H   0  0  0  0  0  0  0  0  0  0  0  0
  147.8223  135.5235  154.5451 H   0  0  0  0  0  0  0  0  0  0  0  0
  146.1694  136.9621  155.7332 H   0  0  0  0  0  0  0  0  0  0  0  0
  147.0402  136.7205  157.2472 H   0  0  0  0  0  0  0  0  0  0  0  0
  146.2572  135.3574  156.4521 H   0  0  0  0  0  0  0  0  0  0  0  0
  149.9221  136.4826  153.6678 H   0  0  0  0  0  0  0  0  0  0  0  0
  150.0116  143.6786  156.0180 H   0  0  0  0  0  0  0  0  0  0  0  0
  1  2  1  0  0  0  0
  1 24  1  0  0  0  0
  1 25  1  0  0  0  0
  1 26  1  0  0  0  0
  2 23  1  0  0  0  0
  2  3  1  0  0  0  0
  2 27  1  0  0  0  0
  3  4  1  0  0  0  0
  3 28  1  0  0  0  0
  3 29  1  0  0  0  0
  4  5  1  0  0  0  0
  4 20  1  0  0  0  0
  4 49  1  0  0  0  0
  5  6  1  0  0  0  0
  5 30  1  0  0  0  0
  5 31  1  0  0  0  0
  6  7  1  0  0  0  0
  6  8  1  0  0  0  0
  6 32  1  0  0  0  0
  7 33  1  0  0  0  0
  8  9  1  0  0  0  0
  8 34  1  0  0  0  0
  8 35  1  0  0  0  0
  9 19  1  0  0  0  0
  9 10  1  0  0  0  0
 10 11  1  0  0  0  0
 10 13  2  0  0  0  0
 11 12  1  0  0  0  0
 11 36  1  0  0  0  0
 11 37  1  0  0  0  0
 12 38  1  0  0  0  0
 13 14  1  0  0  0  0
 13 50  1  0  0  0  0
 14 19  2  0  0  0  0
 14 15  1  0  0  0  0
 15 16  2  0  0  0  0
 15 39  1  0  0  0  0
 16 17  1  0  0  0  0
 16 40  1  0  0  0  0
 17 18  2  0  0  0  0
 17 41  1  0  0  0  0
 18 19  1  0  0  0  0
 18 42  1  0  0  0  0
 20 21  1  0  0  0  0
 20 43  1  0  0  0  0
 20 44  1  0  0  0  0
 21 22  1  0  0  0  0
 21 23  1  0  0  0  0
 21 45  1  0  0  0  0
 22 46  1  0  0  0  0
 22 47  1  0  0  0  0
 22 48  1  0  0  0  0
M  CHG  1   4   1
M  CHG  1  13   1
M  END
> <s_m_source_file>
AV-unprocessed.smi

> <i_m_source_file_index>
1703

> <i_lp_mmshare_version>
43012

> <i_f3d_flags>
0

> <s_epik_input>
W0NIM11bQ0BASF0xW0NIMl1OKFtDSDJdW0NASF0oTzEpW0NIM10pW0NIMl1bQ0BIXShbT0hdKVtDSDJdbihjKG4yKVtDSDJdW09IXSljKGMyMylbY0hdW2NIXVtjSF1bY0hdMw==

> <s_epik_cmdline>
J2VwaWtfcHl0aG9uJywgJy1waCcsICc3LjAnLCAnLXRuJywgJzgnLCAnLW1hJywgJzIwMCcsICctbWV0YWxfYmluZGluZycsICctaW1hZScsICc8aW5maWxlLm1hZT4nLCAnLW9tYWUnLCAnPG91dGZpbGUubWFlPic=

> <r_epik_Ionization_Penalty>
2.22579

> <r_epik_Ionization_Penalty_Charging>
2.22492

> <r_epik_Ionization_Penalty_Neutral>
0.000870007

> <r_epik_State_Penalty>
2.3141

> <r_epik_Charging_Adjusted_Penalty>
4.53902

> <i_epik_Tot_Q>
2

> <i_epik_Tot_abs_Q>
2

> <r_epik_Metal_State_Penalty>
6.36517

> <b_epik_Metal_Only>
0

> <s_lp_Force_Field>
OPLS_2005

> <r_lp_Energy>
31.7221

> <b_lp_Chiralities_Consistent>
1

> <s_lp_Variant>
AV-unprocessed.smi:1703-28

> <Gold.Version>
5.8.1

> <Gold.Id.Protein>
6NUR|6NUR_protein|mol2

> <Gold.PLP.Fitness>
60.0299

> <Gold.PLP.PLP>
-44.3566

> <Gold.PLP.part.hbond>
-5.5182

> <Gold.PLP.part.metal>
0.0000

> <Gold.PLP.part.buried>
-5.2752

> <Gold.PLP.part.nonpolar>
-33.5944

> <Gold.PLP.part.repulsive>
0.1574

> <Gold.PLP.ligand.clash>
0.0000

> <Gold.PLP.ligand.torsion>
1.3631

> <Gold.PLP.Chemscore.Hbond>
6.0545

> <Gold.PLP.Chemscore.CHOScore>
0.0000

> <Gold.PLP.Chemscore.Metal>
0.0000

> <Gold.Chemscore.Hbonds>
donor molecule, donor type, donor heavy atom, donor atom, acceptor molecule, acceptor atom, score
      L1  H     4    49       P1  7948  1.90
      L1  H    12    38       P1  7957  0.45
      L1  H    13    50       P1  8028  2.00
      P1  H  7989  7998       L1     7  0.59
      P1  H  8011  8017       L1    12  0.96

> <Gold.PLP.Chemscore.Internal.Correction>
0.2361

> <Gold.Rescore>
     Score         DG    S(hbond)    S(metal)    S(lipo)     H(rot)  DE(clash)    DE(int)     intcor
     20.37     -22.04       3.79        0.00      99.70       3.04       0.25       1.42       ----

> <Gold.Chemscore.Fitness>
20.3693

> <Gold.Chemscore.DG>
-22.0382

> <Gold.Chemscore.ZeroCoef>
-5.4800

> <Gold.Chemscore.Hbond>
3.7934

> <Gold.Chemscore.Metal>
0.0000

> <Gold.Chemscore.Lipo>
99.6989

> <Gold.Chemscore.Internal_Hbond>
0.0000

> <Gold.Chemscore.DEClash>
0.2504

> <Gold.Chemscore.DEInternal>
1.4185

> <Gold.Chemscore.Rot>
3.0378

> <Gold.Chemscore.Internal.Correction>
   9.000000E+99

> <Gold.Chemscore.Hbonds>
donor molecule, donor type, donor heavy atom, donor atom, acceptor molecule, acceptor atom, score
      L1  H     4    49       P1  7948  0.20
      L1  H    12    38       P1  7957  0.43
      L1  H    13    50       P1  8028  0.96
      P1  H  7989  7998       L1     7  0.47
      P1  H  8011  8017       L1    12  0.49

> <Gold.Chemscore.Hbond.Weighted>
-12.6701

> <Gold.Chemscore.Metal.Weighted>
-0.0000

> <Gold.Chemscore.Lipo.Weighted>
-11.6648

> <Gold.Chemscore.Internal_Hbond.Weighted>
0.0000

> <Gold.Chemscore.DEClash.Weighted>
0.2504

> <Gold.Chemscore.DEInternal.Weighted>
1.4185

> <Gold.Chemscore.Rot.Weighted>
7.7767

> <Gold.Chemscore.Internal.Correction.Weighted>
   9.000000E+99

> <Gold.Protein.RotatedTorsions>
[ 6907 6896 6895 6894 ] final   63.65 input  -60.11 | X-H torsion
[ 7974 7965 7964 7962 ] final   46.04 input  175.53 | X-H torsion
[ 8008 7997 7996 7995 ] final  -39.33 input   59.86 | X-H torsion
[ 10167 10162 10161 10158 ] final  -58.32 input  -65.29 | X-H torsion
[ 10718 10713 10712 10709 ] final  153.54 input   66.30 | X-H torsion
[ 10763 10752 10751 10750 ] final -107.17 input  -60.55 | X-H torsion
[ 11005 11000 10999 10996 ] final  -30.11 input  -57.11 | X-H torsion

> <Gold.Protein.ActiveResidues>
 VAL166  LYS551  ARG553  GLY616  TRP617  ASP618  TYR619  PRO620  LYS621  CYS622 
 ASP623  PHE694  ASN695  SER759  ASP760  ASP761  ALA762  ILE779  LEU786  VAL792 
 PHE793  MET794  SER795  GLU796  ALA797  LYS798  CYS799  TRP800  GLU811  SER814 

> <Gold.Protein.RotatedAtoms>
  152.4270  134.5850  159.9958 H   0  0  0  0  0  0  0  0  0  0  0  0  # atno 6907 bound_to 6896
  151.5984  133.3353  159.3050 H   0  0  0  0  0  0  0  0  0  0  0  0  # atno 6908 bound_to 6896
  150.8160  134.7378  159.6795 H   0  0  0  0  0  0  0  0  0  0  0  0  # atno 6909 bound_to 6896
  146.0426  139.4899  142.9769 H   0  0  0  0  0  0  0  0  0  0  0  0  # atno 7974 bound_to 7965
  154.4024  140.1554  156.2846 H   0  0  0  0  0  0  0  0  0  0  0  0  # atno 8008 bound_to 7997
  155.8839  140.3442  155.5885 H   0  0  0  0  0  0  0  0  0  0  0  0  # atno 8009 bound_to 7997
  155.7636  140.0821  157.2134 H   0  0  0  0  0  0  0  0  0  0  0  0  # atno 8010 bound_to 7997
  140.6204  143.2417  151.5493 H   0  0  0  0  0  0  0  0  0  0  0  0  # atno 10167 bound_to 10162
  157.2434  131.0764  151.1777 H   0  0  0  0  0  0  0  0  0  0  0  0  # atno 10718 bound_to 10713
  154.8058  135.4685  154.0389 H   0  0  0  0  0  0  0  0  0  0  0  0  # atno 10763 bound_to 10752
  153.1859  135.6848  153.8423 H   0  0  0  0  0  0  0  0  0  0  0  0  # atno 10764 bound_to 10752
  153.7957  135.3237  155.3361 H   0  0  0  0  0  0  0  0  0  0  0  0  # atno 10765 bound_to 10752
  140.9355  133.7311  156.0998 H   0  0  0  0  0  0  0  0  0  0  0  0  # atno 11005 bound_to 11000
  145.6859  141.0178  143.1581 LP  0  0  0  0  0  0  0  0  0  0  0  0  # atno 17320 bound_to 7965
  144.7082  139.8476  143.7423 LP  0  0  0  0  0  0  0  0  0  0  0  0  # atno 17321 bound_to 7965
  139.5434  144.2586  152.1395 LP  0  0  0  0  0  0  0  0  0  0  0  0  # atno 17342 bound_to 10162
  140.1805  144.4849  150.6531 LP  0  0  0  0  0  0  0  0  0  0  0  0  # atno 17343 bound_to 10162
  157.3354  130.7006  149.6349 LP  0  0  0  0  0  0  0  0  0  0  0  0  # atno 17370 bound_to 10713
  155.9669  130.4295  150.4836 LP  0  0  0  0  0  0  0  0  0  0  0  0  # atno 17371 bound_to 10713
  140.7806  134.3730  157.5488 LP  0  0  0  0  0  0  0  0  0  0  0  0  # atno 17394 bound_to 11000
  139.8807  134.9079  156.2955 LP  0  0  0  0  0  0  0  0  0  0  0  0  # atno 17395 bound_to 11000

$$$$
