AV-unprocessed.smi:2523|AV-procd|sdf|9921|dock1
  -GOLD-   2272013553D 1   1.00000     0.00000
 Structure written by MMmdl.
 34 36  0  0  0  0  0  0  0  0  1 V2000
  145.4290  141.2795  155.2241 C   0  0  0  0  0  0  0  0  0  0  0  0
  146.6869  140.6209  154.8793 N   0  0  0  0  0  0  0  0  0  0  0  0
  146.5670  139.5706  153.9619 N   0  0  0  0  0  0  0  0  0  0  0  0
  147.6040  138.9022  153.5637 C   0  0  0  0  0  0  0  0  0  0  0  0
  148.9109  139.2709  154.0993 C   0  0  0  0  0  0  0  0  0  0  0  0
  150.2423  138.8050  153.9197 C   0  0  0  0  0  0  0  0  0  0  0  0
  151.1152  139.4917  154.6545 N   0  0  0  0  0  0  0  0  0  0  0  0
  150.3835  140.4153  155.3297 N   0  0  0  0  0  0  0  0  0  0  0  0
  151.0514  141.3391  156.2335 C   0  0  0  0  0  0  0  0  0  0  0  0
  151.7263  140.6285  157.4241 C   0  0  1  0  0  0  0  0  0  0  0  0
  152.8266  139.8583  156.9789 O   0  0  0  0  0  0  0  0  0  0  0  0
  152.1278  141.6237  158.5012 C   0  0  0  0  0  0  0  0  0  0  0  0
  151.7901  142.9893  158.3758 C   0  0  0  0  0  0  0  0  0  0  0  0
  152.1543  143.9061  159.3809 C   0  0  0  0  0  0  0  0  0  0  0  0
  152.8575  143.4630  160.5174 C   0  0  0  0  0  0  0  0  0  0  0  0
  153.1959  142.1022  160.6485 C   0  0  0  0  0  0  0  0  0  0  0  0
  154.0563  141.5576  162.0413 Cl  0  0  0  0  0  0  0  0  0  0  0  0
  152.8311  141.1847  159.6433 C   0  0  0  0  0  0  0  0  0  0  0  0
  149.0511  140.2821  154.9917 C   0  0  0  0  0  0  0  0  0  0  0  0
  147.8601  141.0442  155.4389 C   0  0  0  0  0  0  0  0  0  0  0  0
  147.9440  141.9730  156.2426 O   0  0  0  0  0  0  0  0  0  0  0  0
  145.2447  141.2200  156.2976 H   0  0  0  0  0  0  0  0  0  0  0  0
  144.5765  140.8239  154.7177 H   0  0  0  0  0  0  0  0  0  0  0  0
  145.4575  142.3324  154.9398 H   0  0  0  0  0  0  0  0  0  0  0  0
  147.5088  138.0856  152.8483 H   0  0  0  0  0  0  0  0  0  0  0  0
  150.6006  138.0043  153.2897 H   0  0  0  0  0  0  0  0  0  0  0  0
  151.7752  141.9273  155.6702 H   0  0  0  0  0  0  0  0  0  0  0  0
  150.3104  142.0506  156.6016 H   0  0  0  0  0  0  0  0  0  0  0  0
  151.0128  139.9254  157.8562 H   0  0  0  0  0  0  0  0  0  0  0  0
  152.5147  139.2277  156.3481 H   0  0  0  0  0  0  0  0  0  0  0  0
  151.2469  143.3364  157.5088 H   0  0  0  0  0  0  0  0  0  0  0  0
  151.8928  144.9492  159.2803 H   0  0  0  0  0  0  0  0  0  0  0  0
  153.1353  144.1675  161.2875 H   0  0  0  0  0  0  0  0  0  0  0  0
  153.0908  140.1419  159.7532 H   0  0  0  0  0  0  0  0  0  0  0  0
  1  2  1  0  0  0  0
  1 22  1  0  0  0  0
  1 23  1  0  0  0  0
  1 24  1  0  0  0  0
  2 20  1  0  0  0  0
  2  3  1  0  0  0  0
  3  4  2  0  0  0  0
  4  5  1  0  0  0  0
  4 25  1  0  0  0  0
  5 19  2  0  0  0  0
  5  6  1  0  0  0  0
  6  7  2  0  0  0  0
  6 26  1  0  0  0  0
  7  8  1  0  0  0  0
  8  9  1  0  0  0  0
  8 19  1  0  0  0  0
  9 10  1  0  0  0  0
  9 27  1  0  0  0  0
  9 28  1  0  0  0  0
 10 11  1  0  0  0  0
 10 12  1  0  0  0  0
 10 29  1  0  0  0  0
 11 30  1  0  0  0  0
 12 18  1  0  0  0  0
 12 13  2  0  0  0  0
 13 14  1  0  0  0  0
 13 31  1  0  0  0  0
 14 15  2  0  0  0  0
 14 32  1  0  0  0  0
 15 16  1  0  0  0  0
 15 33  1  0  0  0  0
 16 17  1  0  0  0  0
 16 18  2  0  0  0  0
 18 34  1  0  0  0  0
 19 20  1  0  0  0  0
 20 21  2  0  0  0  0
M  END
> <s_m_source_file>
AV-unprocessed.smi

> <i_m_source_file_index>
2523

> <i_lp_mmshare_version>
43012

> <i_f3d_flags>
0

> <s_epik_input>
W2NIXTFubihbQ0gzXSljKD1PKWMoYzEyKW4obltjSF0yKVtDSDJdW0NASF0oW09IXSljM1tjSF1bY0hdW2NIXWMoQ2wpW2NIXTM=

> <s_epik_cmdline>
J2VwaWtfcHl0aG9uJywgJy1waCcsICc3LjAnLCAnLXRuJywgJzgnLCAnLW1hJywgJzIwMCcsICctbWV0YWxfYmluZGluZycsICctaW1hZScsICc8aW5maWxlLm1hZT4nLCAnLW9tYWUnLCAnPG91dGZpbGUubWFlPic=

> <r_lp_tautomer_probability>
1

> <r_epik_Ionization_Penalty>
8.52698e-06

> <r_epik_Ionization_Penalty_Charging>
1.65421e-10

> <r_epik_Ionization_Penalty_Neutral>
8.52681e-06

> <r_epik_State_Penalty>
-0

> <r_epik_Charging_Adjusted_Penalty>
1.65421e-10

> <i_epik_Tot_Q>
0

> <i_epik_Tot_abs_Q>
0

> <r_epik_Metal_State_Penalty>
-0

> <b_epik_Metal_Only>
0

> <s_lp_Force_Field>
OPLS_2005

> <r_lp_Energy>
26.9154

> <b_lp_Chiralities_Consistent>
1

> <s_lp_Variant>
AV-unprocessed.smi:2523-2

> <Gold.Version>
5.8.1

> <Gold.Id.Protein>
6NUR|6NUR_protein|mol2

> <Gold.PLP.Fitness>
48.5876

> <Gold.PLP.PLP>
-39.9286

> <Gold.PLP.part.hbond>
-2.0000

> <Gold.PLP.part.metal>
0.0000

> <Gold.PLP.part.buried>
-1.3315

> <Gold.PLP.part.nonpolar>
-36.7639

> <Gold.PLP.part.repulsive>
1.6423

> <Gold.PLP.ligand.clash>
0.0000

> <Gold.PLP.ligand.torsion>
0.1474

> <Gold.PLP.Chemscore.Hbond>
1.4000

> <Gold.PLP.Chemscore.CHOScore>
1.5747

> <Gold.PLP.Chemscore.Metal>
0.0000

> <Gold.Chemscore.Hbonds>
donor molecule, donor type, donor heavy atom, donor atom, acceptor molecule, acceptor atom, score
      P1  H  7989  7998       L1     7  0.40
      P1  H  7997  8008       L1    11  1.00
      L1  C     4    25       P1  7948  0.99
      L1  C     6    26       P1  7948  0.28
      L1  C     6    26       P1  7949  0.29

> <Gold.PLP.Chemscore.Internal.Correction>
0.0297

> <Gold.Rescore>
     Score         DG    S(hbond)    S(metal)    S(lipo)     H(rot)  DE(clash)    DE(int)     intcor
     16.53     -16.78       0.97        0.00     111.06       1.93       0.11       0.13       ----

> <Gold.Chemscore.Fitness>
16.5311

> <Gold.Chemscore.DG>
-16.7776

> <Gold.Chemscore.ZeroCoef>
-5.4800

> <Gold.Chemscore.Hbond>
0.9686

> <Gold.Chemscore.Metal>
0.0000

> <Gold.Chemscore.Lipo>
111.0618

> <Gold.Chemscore.Internal_Hbond>
0.0000

> <Gold.Chemscore.DEClash>
0.1125

> <Gold.Chemscore.DEInternal>
0.1341

> <Gold.Chemscore.Rot>
1.9265

> <Gold.Chemscore.Internal.Correction>
   9.000000E+99

> <Gold.Chemscore.Hbonds>
donor molecule, donor type, donor heavy atom, donor atom, acceptor molecule, acceptor atom, score
      P1  H  7997  8008       L1    11  0.39

> <Gold.Chemscore.Hbond.Weighted>
-3.2351

> <Gold.Chemscore.Metal.Weighted>
-0.0000

> <Gold.Chemscore.Lipo.Weighted>
-12.9942

> <Gold.Chemscore.Internal_Hbond.Weighted>
0.0000

> <Gold.Chemscore.DEClash.Weighted>
0.1125

> <Gold.Chemscore.DEInternal.Weighted>
0.1341

> <Gold.Chemscore.Rot.Weighted>
4.9317

> <Gold.Chemscore.Internal.Correction.Weighted>
   9.000000E+99

> <Gold.Protein.RotatedTorsions>
[ 6907 6896 6895 6894 ] final  133.79 input  -60.11 | X-H torsion
[ 7974 7965 7964 7962 ] final -109.41 input  175.53 | X-H torsion
[ 8008 7997 7996 7995 ] final  -52.02 input   59.86 | X-H torsion
[ 10167 10162 10161 10158 ] final  129.93 input  -65.29 | X-H torsion
[ 10718 10713 10712 10709 ] final -107.90 input   66.30 | X-H torsion
[ 10763 10752 10751 10750 ] final -102.25 input  -60.55 | X-H torsion
[ 11005 11000 10999 10996 ] final  -76.12 input  -57.11 | X-H torsion

> <Gold.Protein.ActiveResidues>
 VAL166  LYS551  ARG553  GLY616  TRP617  ASP618  TYR619  PRO620  LYS621  CYS622 
 ASP623  PHE694  ASN695  SER759  ASP760  ASP761  ALA762  ILE779  LEU786  VAL792 
 PHE793  MET794  SER795  GLU796  ALA797  LYS798  CYS799  TRP800  GLU811  SER814 

> <Gold.Protein.RotatedAtoms>
  152.3183  133.5826  159.5726 H   0  0  0  0  0  0  0  0  0  0  0  0  # atno 6907 bound_to 6896
  150.7358  134.0050  159.3659 H   0  0  0  0  0  0  0  0  0  0  0  0  # atno 6908 bound_to 6896
  151.7937  135.0729  160.0441 H   0  0  0  0  0  0  0  0  0  0  0  0  # atno 6909 bound_to 6896
  145.1808  140.8970  143.3481 H   0  0  0  0  0  0  0  0  0  0  0  0  # atno 7974 bound_to 7965
  154.4096  140.1234  156.4924 H   0  0  0  0  0  0  0  0  0  0  0  0  # atno 8008 bound_to 7997
  155.6977  140.3495  155.4900 H   0  0  0  0  0  0  0  0  0  0  0  0  # atno 8009 bound_to 7997
  155.9413  140.1087  157.1043 H   0  0  0  0  0  0  0  0  0  0  0  0  # atno 8010 bound_to 7997
  139.5454  144.6768  151.4490 H   0  0  0  0  0  0  0  0  0  0  0  0  # atno 10167 bound_to 10162
  156.0459  130.5686  150.7887 H   0  0  0  0  0  0  0  0  0  0  0  0  # atno 10718 bound_to 10713
  154.7719  135.4868  153.9666 H   0  0  0  0  0  0  0  0  0  0  0  0  # atno 10763 bound_to 10752
  153.1379  135.6766  153.9081 H   0  0  0  0  0  0  0  0  0  0  0  0  # atno 10764 bound_to 10752
  153.8765  135.3137  155.3422 H   0  0  0  0  0  0  0  0  0  0  0  0  # atno 10765 bound_to 10752
  141.1651  133.6971  156.7620 H   0  0  0  0  0  0  0  0  0  0  0  0  # atno 11005 bound_to 11000
  145.0138  139.3486  143.6106 LP  0  0  0  0  0  0  0  0  0  0  0  0  # atno 17320 bound_to 7965
  146.3453  139.9411  142.8741 LP  0  0  0  0  0  0  0  0  0  0  0  0  # atno 17321 bound_to 7965
  140.6700  143.8315  150.6988 LP  0  0  0  0  0  0  0  0  0  0  0  0  # atno 17342 bound_to 10162
  140.1736  143.4174  152.1983 LP  0  0  0  0  0  0  0  0  0  0  0  0  # atno 17343 bound_to 10162
  157.5334  131.0937  150.9925 LP  0  0  0  0  0  0  0  0  0  0  0  0  # atno 17370 bound_to 10713
  157.0226  130.5680  149.5333 LP  0  0  0  0  0  0  0  0  0  0  0  0  # atno 17371 bound_to 10713
  140.2527  134.8528  157.3683 LP  0  0  0  0  0  0  0  0  0  0  0  0  # atno 17394 bound_to 11000
  140.1687  134.4636  155.7846 LP  0  0  0  0  0  0  0  0  0  0  0  0  # atno 17395 bound_to 11000

$$$$
