#       Name:                AV-unprocessed.smi:2266
#       Creating user name   scv26
#       Creation time:       Fri Mar 27 12:35:24 2020


#       File generated by GOLD software.
#

@<TRIPOS>MOLECULE
AV-unprocessed.smi:2266
    38    39     1
SMALL
NO_CHARGES


@<TRIPOS>ATOM
      1 ****        -4.6120   3.2148  -0.7633 C.3            1 S1                 0.0000
      2 ****        -3.9049   1.9855  -0.4035 N.am           1 S1                 0.0000
      3 ****        -4.6607   0.8567  -0.0569 C.2            1 S1                 0.0000
      4 ****        -4.0566  -0.2966   0.2807 C.2            1 S1                 0.0000
      5 ****        -2.6655  -0.3984   0.2938 N.2            1 S1                 0.0000
      6 ****        -1.9003   0.6106  -0.0170 C.2            1 S1                 0.0000
      7 ****        -0.5010   0.5437  -0.0141 N.am           1 S1                 0.0000
      8 ****         0.2816  -0.5143   0.2781 C.2            1 S1                 0.0000
      9 ****        -0.1111  -1.6371   0.6011 O.2            1 S1                 0.0000
     10 ****         1.5805  -0.1899   0.1717 N.am           1 S1                 0.0000
     11 ****         2.7220  -1.0762   0.4109 C.3            1 S1                 0.0000
     12 ****         2.8772  -1.3392   1.9125 C.3            1 S1                 0.0000
     13 ****         2.7435  -2.2775  -0.5588 C.3            1 S1                 0.0000
     14 ****         4.2395  -2.0206  -0.7579 C.3            1 S1                 0.0000
     15 ****         3.9569  -0.5696  -0.3583 C.3            1 S1                 0.0000
     16 ****        -2.5448   1.9444  -0.4061 C.2            1 S1                 0.0000
     17 ****        -1.8389   2.9108  -0.7013 O.2            1 S1                 0.0000
     18 ****        -5.6958   3.0979  -0.7308 H              1 S1                 0.0000
     19 ****        -4.3472   3.5267  -1.7746 H              1 S1                 0.0000
     20 ****        -4.3485   4.0218  -0.0785 H              1 S1                 0.0000
     21 ****        -5.7332   0.9836  -0.0813 H              1 S1                 0.0000
     22 ****        -4.6114  -1.1824   0.5527 H              1 S1                 0.0000
     23 ****        -0.0125   1.3913  -0.2634 H              1 S1                 0.0000
     24 ****         1.8034   0.7566  -0.0997 H              1 S1                 0.0000
     25 ****         3.7688  -1.9291   2.1253 H              1 S1                 0.0000
     26 ****         2.0270  -1.8888   2.3170 H              1 S1                 0.0000
     27 ****         2.9647  -0.4079   2.4727 H              1 S1                 0.0000
     28 ****         2.5061  -3.2384  -0.1016 H              1 S1                 0.0000
     29 ****         2.1695  -2.1183  -1.4742 H              1 S1                 0.0000
     30 ****         4.8647  -2.5501  -0.0373 H              1 S1                 0.0000
     31 ****         4.5948  -2.1535  -1.7800 H              1 S1                 0.0000
     32 ****         3.7148   0.0580  -1.2184 H              1 S1                 0.0000
     33 ****         4.7292  -0.1139   0.2621 H              1 S1                 0.0000
     34 ****        -2.2437  -1.2686   0.5484 LP             1 S1                 0.0000
     35 ****        -1.0912  -1.8249   0.6647 LP             1 S1                 0.0000
     36 ****         0.5505  -2.3603   0.7994 LP             1 S1                 0.0000
     37 ****        -2.2624   3.7803  -0.9554 LP             1 S1                 0.0000
     38 ****        -0.8427   2.8253  -0.6868 LP             1 S1                 0.0000
@<TRIPOS>BOND
    1    1    2 1     
    2    1   18 1     
    3    1   19 1     
    4    1   20 1     
    5    2   16 am    
    6    2    3 1     
    7    3    4 2     
    8    3   21 1     
    9    4    5 1     
   10    4   22 1     
   11    5    6 2     
   12    6    7 1     
   13    6   16 1     
   14    7    8 am    
   15    7   23 1     
   16    8    9 2     
   17    8   10 am    
   18   10   11 1     
   19   10   24 1     
   20   11   15 1     
   21   11   12 1     
   22   11   13 1     
   23   12   25 1     
   24   12   26 1     
   25   12   27 1     
   26   13   14 1     
   27   13   28 1     
   28   13   29 1     
   29   14   15 1     
   30   14   30 1     
   31   14   31 1     
   32   15   32 1     
   33   15   33 1     
   34   16   17 2     
   35    5   34 1     
   36    9   35 1     
   37    9   36 1     
   38   17   37 1     
   39   17   38 1     
@<TRIPOS>SUBSTRUCTURE
      1 S1             1
@<TRIPOS>SET
LONE_PAIRS      STATIC     ATOMS    <user>   **** ""
5 34 35 36 37 38
DONOR_HYDROGENS      STATIC     ATOMS    <user>   **** ""
2 23 24
ATOM$BLUE        STATIC     ATOMS    COLORGROUP SYSTEM
5 34 35 36 37 38
ATOM$RED        STATIC     ATOMS    COLORGROUP SYSTEM
2 23 24
