AV-unprocessed.smi:2412|AV-procd|sdf|9532|dock6
  -GOLD-   2272013163D 1   1.00000     0.00000
 Structure written by MMmdl.
 37 38  0  0  0  0  0  0  0  0  1 V2000
  148.3092  142.9329  153.3129 C   0  0  0  0  0  0  0  0  0  0  0  0
  148.5240  141.4979  153.7616 C   0  0  0  0  0  0  0  0  0  0  0  0
  147.7538  140.4605  153.1929 C   0  0  0  0  0  0  0  0  0  0  0  0
  147.8848  139.1616  153.5322 N   0  0  0  0  0  0  0  0  0  0  0  0
  148.8082  138.8455  154.4627 C   0  0  0  0  0  0  0  0  0  0  0  0
  149.6307  139.7985  155.0942 C   0  0  0  0  0  0  0  0  0  0  0  0
  149.4823  141.1639  154.7495 C   0  0  0  0  0  0  0  0  0  0  0  0
  150.2772  142.2029  155.3120 N   0  0  0  0  0  0  0  0  0  0  0  0
  151.3280  142.1042  156.1447 C   0  0  0  0  0  0  0  0  0  0  0  0
  151.7781  141.0558  156.6069 O   0  0  0  0  0  0  0  0  0  0  0  0
  151.8316  143.3135  156.4341 N   0  0  0  0  0  0  0  0  0  0  0  0
  152.9912  143.5583  157.2901 C   0  0  0  0  0  0  0  0  0  0  0  0
  152.7427  144.6363  158.3618 C   0  0  0  0  0  0  0  0  0  0  0  0
  152.4103  145.7743  158.0248 O   0  0  0  0  0  0  0  0  0  0  0  0
  152.8868  144.2901  159.6580 N   0  0  0  0  0  0  0  0  0  0  0  0
  152.6941  145.1745  160.8071 C   0  0  0  0  0  0  0  0  0  0  0  0
  152.7741  144.2747  162.0411 C   0  0  0  0  0  0  0  0  0  0  0  0
  153.6076  143.0856  161.5850 C   0  0  0  0  0  0  0  0  0  0  0  0
  153.2875  142.9544  160.0960 C   0  0  0  0  0  0  0  0  0  0  0  0
  147.5113  143.0019  152.5730 H   0  0  0  0  0  0  0  0  0  0  0  0
  149.2196  143.3321  152.8651 H   0  0  0  0  0  0  0  0  0  0  0  0
  148.0357  143.5607  154.1615 H   0  0  0  0  0  0  0  0  0  0  0  0
  147.0103  140.6766  152.4396 H   0  0  0  0  0  0  0  0  0  0  0  0
  148.9009  137.7978  154.7075 H   0  0  0  0  0  0  0  0  0  0  0  0
  150.3613  139.4621  155.8132 H   0  0  0  0  0  0  0  0  0  0  0  0
  149.9763  143.1405  155.0910 H   0  0  0  0  0  0  0  0  0  0  0  0
  151.4005  144.1230  156.0124 H   0  0  0  0  0  0  0  0  0  0  0  0
  153.2478  142.6220  157.7862 H   0  0  0  0  0  0  0  0  0  0  0  0
  153.8474  143.8349  156.6733 H   0  0  0  0  0  0  0  0  0  0  0  0
  153.4931  145.9171  160.8237 H   0  0  0  0  0  0  0  0  0  0  0  0
  151.7390  145.7002  160.7743 H   0  0  0  0  0  0  0  0  0  0  0  0
  153.1990  144.7818  162.9078 H   0  0  0  0  0  0  0  0  0  0  0  0
  151.7732  143.9348  162.3109 H   0  0  0  0  0  0  0  0  0  0  0  0
  154.6668  143.3130  161.7130 H   0  0  0  0  0  0  0  0  0  0  0  0
  153.3908  142.1761  162.1458 H   0  0  0  0  0  0  0  0  0  0  0  0
  152.4541  142.2674  159.9418 H   0  0  0  0  0  0  0  0  0  0  0  0
  154.1461  142.5765  159.5383 H   0  0  0  0  0  0  0  0  0  0  0  0
  1  2  1  0  0  0  0
  1 20  1  0  0  0  0
  1 21  1  0  0  0  0
  1 22  1  0  0  0  0
  2  7  1  0  0  0  0
  2  3  2  0  0  0  0
  3  4  1  0  0  0  0
  3 23  1  0  0  0  0
  4  5  2  0  0  0  0
  5  6  1  0  0  0  0
  5 24  1  0  0  0  0
  6  7  2  0  0  0  0
  6 25  1  0  0  0  0
  7  8  1  0  0  0  0
  8  9  1  0  0  0  0
  8 26  1  0  0  0  0
  9 10  2  0  0  0  0
  9 11  1  0  0  0  0
 11 12  1  0  0  0  0
 11 27  1  0  0  0  0
 12 13  1  0  0  0  0
 12 28  1  0  0  0  0
 12 29  1  0  0  0  0
 13 14  2  0  0  0  0
 13 15  1  0  0  0  0
 15 19  1  0  0  0  0
 15 16  1  0  0  0  0
 16 17  1  0  0  0  0
 16 30  1  0  0  0  0
 16 31  1  0  0  0  0
 17 18  1  0  0  0  0
 17 32  1  0  0  0  0
 17 33  1  0  0  0  0
 18 19  1  0  0  0  0
 18 34  1  0  0  0  0
 18 35  1  0  0  0  0
 19 36  1  0  0  0  0
 19 37  1  0  0  0  0
M  END
> <s_m_source_file>
AV-unprocessed.smi

> <i_m_source_file_index>
2412

> <i_lp_mmshare_version>
43012

> <i_f3d_flags>
0

> <s_epik_input>
W0NIM11jMVtjSF1uW2NIXVtjSF1jMVtOSF1DKD1PKVtOSF1bQ0gyXUMoPU8pTjJbQ0gyXVtDSDJdW0NIMl1bQ0gyXTI=

> <s_epik_cmdline>
J2VwaWtfcHl0aG9uJywgJy1waCcsICc3LjAnLCAnLXRuJywgJzgnLCAnLW1hJywgJzIwMCcsICctbWV0YWxfYmluZGluZycsICctaW1hZScsICc8aW5maWxlLm1hZT4nLCAnLW9tYWUnLCAnPG91dGZpbGUubWFlPic=

> <r_epik_Ionization_Penalty>
0.157619

> <r_epik_Ionization_Penalty_Charging>
0

> <r_epik_Ionization_Penalty_Neutral>
0.157619

> <r_epik_State_Penalty>
0.146889

> <r_epik_Charging_Adjusted_Penalty>
0.146889

> <i_epik_Tot_Q>
0

> <i_epik_Tot_abs_Q>
0

> <r_epik_Metal_State_Penalty>
0.115729

> <b_epik_Metal_Only>
0

> <s_lp_Force_Field>
OPLS_2005

> <r_lp_Energy>
29.7149

> <b_lp_Chiralities_Consistent>
1

> <s_lp_Variant>
AV-unprocessed.smi:2412-1

> <Gold.Version>
5.8.1

> <Gold.Id.Protein>
6NUR|6NUR_protein|mol2

> <Gold.PLP.Fitness>
57.8244

> <Gold.PLP.PLP>
-46.0276

> <Gold.PLP.part.hbond>
-2.0000

> <Gold.PLP.part.metal>
0.0000

> <Gold.PLP.part.buried>
-4.0861

> <Gold.PLP.part.nonpolar>
-39.3586

> <Gold.PLP.part.repulsive>
1.2768

> <Gold.PLP.ligand.clash>
0.0000

> <Gold.PLP.ligand.torsion>
0.0682

> <Gold.PLP.Chemscore.Hbond>
1.9840

> <Gold.PLP.Chemscore.CHOScore>
1.9933

> <Gold.PLP.Chemscore.Metal>
0.0000

> <Gold.Chemscore.Hbonds>
donor molecule, donor type, donor heavy atom, donor atom, acceptor molecule, acceptor atom, score
      L1  H     8    26       P1  8028  0.94

> <Gold.PLP.Chemscore.Internal.Correction>
0.0014

> <Gold.Rescore>
     Score         DG    S(hbond)    S(metal)    S(lipo)     H(rot)  DE(clash)    DE(int)     intcor
     15.91     -19.57       1.81        0.00      96.52       1.26       2.07       1.58       ----

> <Gold.Chemscore.Fitness>
15.9148

> <Gold.Chemscore.DG>
-19.5679

> <Gold.Chemscore.ZeroCoef>
-5.4800

> <Gold.Chemscore.Hbond>
1.8050

> <Gold.Chemscore.Metal>
0.0000

> <Gold.Chemscore.Lipo>
96.5229

> <Gold.Chemscore.Internal_Hbond>
0.0000

> <Gold.Chemscore.DEClash>
2.0729

> <Gold.Chemscore.DEInternal>
1.5803

> <Gold.Chemscore.Rot>
1.2633

> <Gold.Chemscore.Internal.Correction>
   9.000000E+99

> <Gold.Chemscore.Hbonds>
donor molecule, donor type, donor heavy atom, donor atom, acceptor molecule, acceptor atom, score
      L1  H     8    26       P1  8028  0.89

> <Gold.Chemscore.Hbond.Weighted>
-6.0288

> <Gold.Chemscore.Metal.Weighted>
-0.0000

> <Gold.Chemscore.Lipo.Weighted>
-11.2932

> <Gold.Chemscore.Internal_Hbond.Weighted>
0.0000

> <Gold.Chemscore.DEClash.Weighted>
2.0729

> <Gold.Chemscore.DEInternal.Weighted>
1.5803

> <Gold.Chemscore.Rot.Weighted>
3.2341

> <Gold.Chemscore.Internal.Correction.Weighted>
   9.000000E+99

> <Gold.Protein.RotatedTorsions>
[ 6907 6896 6895 6894 ] final  175.57 input  -60.11 | X-H torsion
[ 7974 7965 7964 7962 ] final  174.80 input  175.53 | X-H torsion
[ 8008 7997 7996 7995 ] final  -60.11 input   59.86 | X-H torsion
[ 10167 10162 10161 10158 ] final  105.21 input  -65.29 | X-H torsion
[ 10718 10713 10712 10709 ] final  -46.56 input   66.30 | X-H torsion
[ 10763 10752 10751 10750 ] final  -22.47 input  -60.55 | X-H torsion
[ 11005 11000 10999 10996 ] final  -99.48 input  -57.11 | X-H torsion

> <Gold.Protein.ActiveResidues>
 VAL166  LYS551  ARG553  GLY616  TRP617  ASP618  TYR619  PRO620  LYS621  CYS622 
 ASP623  PHE694  ASN695  SER759  ASP760  ASP761  ALA762  ILE779  LEU786  VAL792 
 PHE793  MET794  SER795  GLU796  ALA797  LYS798  CYS799  TRP800  GLU811  SER814 

> <Gold.Protein.RotatedAtoms>
  151.7342  133.3319  159.3348 H   0  0  0  0  0  0  0  0  0  0  0  0  # atno 6907 bound_to 6896
  150.7600  134.6336  159.6209 H   0  0  0  0  0  0  0  0  0  0  0  0  # atno 6908 bound_to 6896
  152.3572  134.6925  160.0270 H   0  0  0  0  0  0  0  0  0  0  0  0  # atno 6909 bound_to 6896
  144.7214  139.9852  143.6439 H   0  0  0  0  0  0  0  0  0  0  0  0  # atno 7974 bound_to 7965
  154.4383  140.1047  156.6222 H   0  0  0  0  0  0  0  0  0  0  0  0  # atno 8008 bound_to 7997
  155.5695  140.3489  155.4493 H   0  0  0  0  0  0  0  0  0  0  0  0  # atno 8009 bound_to 7997
  156.0400  140.1280  157.0155 H   0  0  0  0  0  0  0  0  0  0  0  0  # atno 8010 bound_to 7997
  139.7111  144.7077  151.1025 H   0  0  0  0  0  0  0  0  0  0  0  0  # atno 10167 bound_to 10162
  156.2171  130.4164  149.9040 H   0  0  0  0  0  0  0  0  0  0  0  0  # atno 10718 bound_to 10713
  153.6525  135.6980  153.5204 H   0  0  0  0  0  0  0  0  0  0  0  0  # atno 10763 bound_to 10752
  153.2695  135.4219  155.0973 H   0  0  0  0  0  0  0  0  0  0  0  0  # atno 10764 bound_to 10752
  154.8473  135.3575  154.6069 H   0  0  0  0  0  0  0  0  0  0  0  0  # atno 10765 bound_to 10752
  141.1307  133.8325  157.0978 H   0  0  0  0  0  0  0  0  0  0  0  0  # atno 11005 bound_to 11000
  146.0456  139.3462  143.0671 LP  0  0  0  0  0  0  0  0  0  0  0  0  # atno 17320 bound_to 7965
  145.8280  140.9645  143.0864 LP  0  0  0  0  0  0  0  0  0  0  0  0  # atno 17321 bound_to 7965
  140.7733  143.5291  150.9444 LP  0  0  0  0  0  0  0  0  0  0  0  0  # atno 17342 bound_to 10162
  139.8976  143.6875  152.3136 LP  0  0  0  0  0  0  0  0  0  0  0  0  # atno 17343 bound_to 10162
  156.6699  130.8816  151.3560 LP  0  0  0  0  0  0  0  0  0  0  0  0  # atno 17370 bound_to 10713
  157.7069  130.9395  150.0959 LP  0  0  0  0  0  0  0  0  0  0  0  0  # atno 17371 bound_to 10713
  140.0352  134.9881  157.0858 LP  0  0  0  0  0  0  0  0  0  0  0  0  # atno 17394 bound_to 11000
  140.4221  134.1869  155.7165 LP  0  0  0  0  0  0  0  0  0  0  0  0  # atno 17395 bound_to 11000

$$$$
