AV-unprocessed.smi:3161|AV-procd|sdf|12057|dock7
  -GOLD-   2272017483D 1   1.00000     0.00000
 Structure written by MMmdl.
 41 42  0  0  0  0  0  0  0  0  2 V2000
  150.9733  135.9703  154.8734 C   0  0  0  0  0  0  0  0  0  0  0  0
  150.8795  137.4423  154.5917 C   0  0  0  0  0  0  0  0  0  0  0  0
  151.9464  138.3759  154.4598 C   0  0  0  0  0  0  0  0  0  0  0  0
  151.5254  139.6065  154.2178 N   0  0  0  0  0  0  0  0  0  0  0  0
  150.1795  139.5022  154.1834 N   0  0  0  0  0  0  0  0  0  0  0  0
  149.3690  140.6864  153.9558 C   0  0  0  0  0  0  0  0  0  0  0  0
  148.7408  141.2169  155.2589 C   0  0  2  0  0  0  0  0  0  0  0  0
  147.4652  142.0244  154.9709 C   0  0  0  0  0  0  0  0  0  0  0  0
  149.7255  142.0364  156.0002 N   0  3  0  0  0  0  0  0  0  0  0  0
  149.8186  141.7595  157.4478 C   0  0  0  0  0  0  0  0  0  0  0  0
  151.1019  142.3650  158.0324 C   0  0  1  0  0  0  0  0  0  0  0  0
  151.2387  143.8621  157.6944 C   0  0  0  0  0  0  0  0  0  0  0  0
  152.4720  144.4604  158.3811 C   0  0  0  0  0  0  0  0  0  0  0  0
  152.4282  144.1550  159.8822 C   0  0  0  0  0  0  0  0  0  0  0  0
  152.2285  142.6493  160.1143 C   0  0  0  0  0  0  0  0  0  0  0  0
  151.0472  142.2119  159.4499 O   0  0  0  0  0  0  0  0  0  0  0  0
  149.7625  138.2068  154.4047 C   0  0  0  0  0  0  0  0  0  0  0  0
  151.9157  135.5503  154.5212 H   0  0  0  0  0  0  0  0  0  0  0  0
  150.1726  135.4130  154.3868 H   0  0  0  0  0  0  0  0  0  0  0  0
  150.9075  135.7619  155.9412 H   0  0  0  0  0  0  0  0  0  0  0  0
  153.0089  138.1966  154.5357 H   0  0  0  0  0  0  0  0  0  0  0  0
  149.9827  141.4534  153.4800 H   0  0  0  0  0  0  0  0  0  0  0  0
  148.5877  140.4254  153.2407 H   0  0  0  0  0  0  0  0  0  0  0  0
  148.4735  140.3544  155.8718 H   0  0  0  0  0  0  0  0  0  0  0  0
  146.7392  141.4247  154.4214 H   0  0  0  0  0  0  0  0  0  0  0  0
  147.6833  142.9100  154.3730 H   0  0  0  0  0  0  0  0  0  0  0  0
  146.9813  142.3539  155.8904 H   0  0  0  0  0  0  0  0  0  0  0  0
  150.6342  141.8337  155.6061 H   0  0  0  0  0  0  0  0  0  0  0  0
  148.9452  142.1779  157.9485 H   0  0  0  0  0  0  0  0  0  0  0  0
  149.8067  140.6827  157.6214 H   0  0  0  0  0  0  0  0  0  0  0  0
  151.9652  141.8239  157.6403 H   0  0  0  0  0  0  0  0  0  0  0  0
  151.3099  144.0024  156.6153 H   0  0  0  0  0  0  0  0  0  0  0  0
  150.3458  144.3969  158.0209 H   0  0  0  0  0  0  0  0  0  0  0  0
  153.3773  144.0357  157.9456 H   0  0  0  0  0  0  0  0  0  0  0  0
  152.5175  145.5366  158.2124 H   0  0  0  0  0  0  0  0  0  0  0  0
  153.3456  144.4945  160.3641 H   0  0  0  0  0  0  0  0  0  0  0  0
  151.6085  144.7056  160.3453 H   0  0  0  0  0  0  0  0  0  0  0  0
  153.0904  142.0819  159.7599 H   0  0  0  0  0  0  0  0  0  0  0  0
  152.1298  142.4440  161.1804 H   0  0  0  0  0  0  0  0  0  0  0  0
  148.7161  137.9391  154.4160 H   0  0  0  0  0  0  0  0  0  0  0  0
  149.5277  143.0156  155.8509 H   0  0  0  0  0  0  0  0  0  0  0  0
  1  2  1  0  0  0  0
  1 18  1  0  0  0  0
  1 19  1  0  0  0  0
  1 20  1  0  0  0  0
  2 17  2  0  0  0  0
  2  3  1  0  0  0  0
  3  4  2  0  0  0  0
  3 21  1  0  0  0  0
  4  5  1  0  0  0  0
  5  6  1  0  0  0  0
  5 17  1  0  0  0  0
  6  7  1  0  0  0  0
  6 22  1  0  0  0  0
  6 23  1  0  0  0  0
  7  8  1  0  0  0  0
  7  9  1  0  0  0  0
  7 24  1  0  0  0  0
  8 25  1  0  0  0  0
  8 26  1  0  0  0  0
  8 27  1  0  0  0  0
  9 10  1  0  0  0  0
  9 28  1  0  0  0  0
  9 41  1  0  0  0  0
 10 11  1  0  0  0  0
 10 29  1  0  0  0  0
 10 30  1  0  0  0  0
 11 16  1  0  0  0  0
 11 12  1  0  0  0  0
 11 31  1  0  0  0  0
 12 13  1  0  0  0  0
 12 32  1  0  0  0  0
 12 33  1  0  0  0  0
 13 14  1  0  0  0  0
 13 34  1  0  0  0  0
 13 35  1  0  0  0  0
 14 15  1  0  0  0  0
 14 36  1  0  0  0  0
 14 37  1  0  0  0  0
 15 16  1  0  0  0  0
 15 38  1  0  0  0  0
 15 39  1  0  0  0  0
 17 40  1  0  0  0  0
M  CHG  1   9   1
M  END
> <s_m_source_file>
AV-unprocessed.smi

> <i_m_source_file_index>
3161

> <i_lp_mmshare_version>
43012

> <i_f3d_flags>
0

> <s_epik_input>
W0NIM11jMVtjSF1ubihbY0hdMSlbQ0gyXVtDQEhdKFtDSDNdKVtOSF1bQ0gyXVtDQEBIXTJbQ0gyXVtDSDJdW0NIMl1bQ0gyXU8y

> <s_epik_cmdline>
J2VwaWtfcHl0aG9uJywgJy1waCcsICc3LjAnLCAnLXRuJywgJzgnLCAnLW1hJywgJzIwMCcsICctbWV0YWxfYmluZGluZycsICctaW1hZScsICc8aW5maWxlLm1hZT4nLCAnLW9tYWUnLCAnPG91dGZpbGUubWFlPic=

> <r_lp_tautomer_probability>
1

> <r_epik_Ionization_Penalty>
0.00849661

> <r_epik_Ionization_Penalty_Charging>
0.00848754

> <r_epik_Ionization_Penalty_Neutral>
9.06711e-06

> <r_epik_State_Penalty>
0.00639836

> <r_epik_Charging_Adjusted_Penalty>
0.0148859

> <i_epik_Tot_Q>
1

> <i_epik_Tot_abs_Q>
1

> <r_epik_Metal_State_Penalty>
0.00639921

> <b_epik_Metal_Only>
0

> <s_lp_Force_Field>
OPLS_2005

> <r_lp_Energy>
12.1076

> <b_lp_Chiralities_Consistent>
1

> <s_lp_Variant>
AV-unprocessed.smi:3161-3

> <Gold.Version>
5.8.1

> <Gold.Id.Protein>
6NUR|6NUR_protein|mol2

> <Gold.PLP.Fitness>
45.7629

> <Gold.PLP.PLP>
-39.1176

> <Gold.PLP.part.hbond>
-2.9684

> <Gold.PLP.part.metal>
0.0000

> <Gold.PLP.part.buried>
-1.2153

> <Gold.PLP.part.nonpolar>
-35.3597

> <Gold.PLP.part.repulsive>
0.2193

> <Gold.PLP.ligand.clash>
0.0000

> <Gold.PLP.ligand.torsion>
1.1861

> <Gold.PLP.Chemscore.Hbond>
3.0000

> <Gold.PLP.Chemscore.CHOScore>
0.0000

> <Gold.PLP.Chemscore.Metal>
0.0000

> <Gold.Chemscore.Hbonds>
donor molecule, donor type, donor heavy atom, donor atom, acceptor molecule, acceptor atom, score
      L1  H     9    41       P1  8028  2.00
      P1  H  7989  7998       L1     4  0.72

> <Gold.PLP.Chemscore.Internal.Correction>
0.0174

> <Gold.Rescore>
     Score         DG    S(hbond)    S(metal)    S(lipo)     H(rot)  DE(clash)    DE(int)     intcor
     18.90     -19.97       1.94        0.00     102.76       1.57       0.28       0.80       ----

> <Gold.Chemscore.Fitness>
18.8966

> <Gold.Chemscore.DG>
-19.9698

> <Gold.Chemscore.ZeroCoef>
-5.4800

> <Gold.Chemscore.Hbond>
1.9429

> <Gold.Chemscore.Metal>
0.0000

> <Gold.Chemscore.Lipo>
102.7645

> <Gold.Chemscore.Internal_Hbond>
0.0000

> <Gold.Chemscore.DEClash>
0.2753

> <Gold.Chemscore.DEInternal>
0.7979

> <Gold.Chemscore.Rot>
1.5714

> <Gold.Chemscore.Internal.Correction>
   9.000000E+99

> <Gold.Chemscore.Hbonds>
donor molecule, donor type, donor heavy atom, donor atom, acceptor molecule, acceptor atom, score
      L1  H     9    41       P1  8028  1.00
      P1  H  7989  7998       L1     4  0.14

> <Gold.Chemscore.Hbond.Weighted>
-6.4892

> <Gold.Chemscore.Metal.Weighted>
-0.0000

> <Gold.Chemscore.Lipo.Weighted>
-12.0235

> <Gold.Chemscore.Internal_Hbond.Weighted>
0.0000

> <Gold.Chemscore.DEClash.Weighted>
0.2753

> <Gold.Chemscore.DEInternal.Weighted>
0.7979

> <Gold.Chemscore.Rot.Weighted>
4.0228

> <Gold.Chemscore.Internal.Correction.Weighted>
   9.000000E+99

> <Gold.Protein.RotatedTorsions>
[ 6907 6896 6895 6894 ] final  127.01 input  -60.11 | X-H torsion
[ 7974 7965 7964 7962 ] final    9.33 input  175.53 | X-H torsion
[ 8008 7997 7996 7995 ] final   41.50 input   59.86 | X-H torsion
[ 10167 10162 10161 10158 ] final   21.08 input  -65.29 | X-H torsion
[ 10718 10713 10712 10709 ] final -111.60 input   66.30 | X-H torsion
[ 10763 10752 10751 10750 ] final   20.69 input  -60.55 | X-H torsion
[ 11005 11000 10999 10996 ] final -175.33 input  -57.11 | X-H torsion

> <Gold.Protein.ActiveResidues>
 VAL166  LYS551  ARG553  GLY616  TRP617  ASP618  TYR619  PRO620  LYS621  CYS622 
 ASP623  PHE694  ASN695  SER759  ASP760  ASP761  ALA762  ILE779  LEU786  VAL792 
 PHE793  MET794  SER795  GLU796  ALA797  LYS798  CYS799  TRP800  GLU811  SER814 

> <Gold.Protein.RotatedAtoms>
  152.3851  133.6600  159.6192 H   0  0  0  0  0  0  0  0  0  0  0  0  # atno 6907 bound_to 6896
  150.7772  133.9048  159.3361 H   0  0  0  0  0  0  0  0  0  0  0  0  # atno 6908 bound_to 6896
  151.6846  135.0957  160.0273 H   0  0  0  0  0  0  0  0  0  0  0  0  # atno 6909 bound_to 6896
  146.2405  139.9799  142.8437 H   0  0  0  0  0  0  0  0  0  0  0  0  # atno 7974 bound_to 7965
  155.2706  140.3365  155.4265 H   0  0  0  0  0  0  0  0  0  0  0  0  # atno 8008 bound_to 7997
  156.2134  140.1779  156.7685 H   0  0  0  0  0  0  0  0  0  0  0  0  # atno 8009 bound_to 7997
  154.5719  140.0668  156.8961 H   0  0  0  0  0  0  0  0  0  0  0  0  # atno 8010 bound_to 7997
  140.5455  143.9603  150.6545 H   0  0  0  0  0  0  0  0  0  0  0  0  # atno 10167 bound_to 10162
  156.0656  130.5876  150.8395 H   0  0  0  0  0  0  0  0  0  0  0  0  # atno 10718 bound_to 10713
  153.1057  135.6684  153.9591 H   0  0  0  0  0  0  0  0  0  0  0  0  # atno 10763 bound_to 10752
  153.9149  135.3021  155.3449 H   0  0  0  0  0  0  0  0  0  0  0  0  # atno 10764 bound_to 10752
  154.7478  135.5049  153.9310 H   0  0  0  0  0  0  0  0  0  0  0  0  # atno 10765 bound_to 10752
  140.4645  134.6224  157.4856 H   0  0  0  0  0  0  0  0  0  0  0  0  # atno 11005 bound_to 11000
  145.1601  140.9668  143.4382 LP  0  0  0  0  0  0  0  0  0  0  0  0  # atno 17320 bound_to 7965
  145.0124  139.3498  143.6113 LP  0  0  0  0  0  0  0  0  0  0  0  0  # atno 17321 bound_to 7965
  140.3014  143.3258  152.0967 LP  0  0  0  0  0  0  0  0  0  0  0  0  # atno 17342 bound_to 10162
  139.5005  144.6694  151.6279 LP  0  0  0  0  0  0  0  0  0  0  0  0  # atno 17343 bound_to 10162
  157.5696  131.0946  150.9438 LP  0  0  0  0  0  0  0  0  0  0  0  0  # atno 17370 bound_to 10713
  156.9657  130.5472  149.5288 LP  0  0  0  0  0  0  0  0  0  0  0  0  # atno 17371 bound_to 10713
  139.9924  134.6964  155.9666 LP  0  0  0  0  0  0  0  0  0  0  0  0  # atno 17394 bound_to 11000
  141.1606  133.6539  156.4306 LP  0  0  0  0  0  0  0  0  0  0  0  0  # atno 17395 bound_to 11000

$$$$
