#       Name:                AV-unprocessed.smi:3347
#       Creating user name   scv26
#       Creation time:       Fri Mar 27 19:32:44 2020


#       File generated by GOLD software.
#

@<TRIPOS>MOLECULE
AV-unprocessed.smi:3347
    43    45     1
SMALL
NO_CHARGES


@<TRIPOS>ATOM
      1 ****        -0.5820   1.4172   1.3409 O.2            1 S1                 0.0000
      2 ****        -1.0439   0.3589   1.7656 C.2            1 S1                 0.0000
      3 ****        -0.2878  -0.7098   2.0553 N.am           1 S1                 0.0000
      4 ****         1.1673  -0.7711   1.9534 C.3            1 S1                 0.0000
      5 ****         1.6332  -1.3426   0.6006 C.3            1 S1                 0.0000
      6 ****         3.1490  -1.4937   0.4889 C.3            1 S1                 0.0000
      7 ****         3.4165  -1.5335  -1.0205 C.3            1 S1                 0.0000
      8 ****         2.2301  -0.9402  -1.6804 N.4            1 S1                 1.0000
      9 ****         2.5499   0.0913  -2.6899 C.3            1 S1                 0.0000
     10 ****         1.5242   0.1944  -3.7931 C.3            1 S1                 0.0000
     11 ****         2.8564  -0.4747  -4.0557 C.3            1 S1                 0.0000
     12 ****         1.3135  -0.4753  -0.6193 C.3            1 S1                 0.0000
     13 ****        -2.3431   0.1082   2.0029 N.am           1 S1                 0.0000
     14 ****        -3.4695   0.9671   1.8708 C.ar           1 S1                 0.0000
     15 ****        -3.4507   2.2444   1.2579 C.ar           1 S1                 0.0000
     16 ****        -4.6465   2.9858   1.1940 C.ar           1 S1                 0.0000
     17 ****        -5.8172   2.4253   1.7397 C.ar           1 S1                 0.0000
     18 ****        -5.8524   1.2078   2.3201 N.ar           1 S1                 0.0000
     19 ****        -4.7025   0.5032   2.3779 C.ar           1 S1                 0.0000
     20 ****        -0.7526  -1.5371   2.4004 H              1 S1                 0.0000
     21 ****         1.6088   0.2114   2.1300 H              1 S1                 0.0000
     22 ****         1.5250  -1.4127   2.7592 H              1 S1                 0.0000
     23 ****         1.1822  -2.3257   0.4538 H              1 S1                 0.0000
     24 ****         3.6433  -0.6222   0.9215 H              1 S1                 0.0000
     25 ****         3.5243  -2.3778   1.0055 H              1 S1                 0.0000
     26 ****         4.3385  -1.0050  -1.2682 H              1 S1                 0.0000
     27 ****         3.5234  -2.5617  -1.3674 H              1 S1                 0.0000
     28 ****         3.0672   0.9794  -2.3307 H              1 S1                 0.0000
     29 ****         0.6434  -0.4429  -3.7392 H              1 S1                 0.0000
     30 ****         1.3624   1.1746  -4.2370 H              1 S1                 0.0000
     31 ****         3.5716   0.0648  -4.6734 H              1 S1                 0.0000
     32 ****         2.8611  -1.5566  -4.1764 H              1 S1                 0.0000
     33 ****         0.2721  -0.5553  -0.9324 H              1 S1                 0.0000
     34 ****         1.5169   0.5730  -0.3932 H              1 S1                 0.0000
     35 ****        -2.5507  -0.8081   2.3722 H              1 S1                 0.0000
     36 ****        -2.5584   2.6727   0.8309 H              1 S1                 0.0000
     37 ****        -4.6658   3.9631   0.7347 H              1 S1                 0.0000
     38 ****        -6.7504   2.9680   1.7071 H              1 S1                 0.0000
     39 ****        -4.7698  -0.4669   2.8486 H              1 S1                 0.0000
     40 ****         1.7617  -1.6977  -2.1566 H              1 S1                 0.0000
     41 ****         0.4031   1.5104   1.1960 LP             1 S1                 0.0000
     42 ****        -1.1916   2.1842   1.1407 LP             1 S1                 0.0000
     43 ****        -6.7029   0.8393   2.6954 LP             1 S1                 0.0000
@<TRIPOS>BOND
    1    1    2 2     
    2    2    3 am    
    3    2   13 am    
    4    3    4 1     
    5    3   20 1     
    6    4    5 1     
    7    4   21 1     
    8    4   22 1     
    9    5   12 1     
   10    5    6 1     
   11    5   23 1     
   12    6    7 1     
   13    6   24 1     
   14    6   25 1     
   15    7    8 1     
   16    7   26 1     
   17    7   27 1     
   18    8    9 1     
   19    8   12 1     
   20    8   40 1     
   21    9   11 1     
   22    9   10 1     
   23    9   28 1     
   24   10   11 1     
   25   10   29 1     
   26   10   30 1     
   27   11   31 1     
   28   11   32 1     
   29   12   33 1     
   30   12   34 1     
   31   13   14 1     
   32   13   35 1     
   33   14   19 ar    
   34   14   15 ar    
   35   15   16 ar    
   36   15   36 1     
   37   16   17 ar    
   38   16   37 1     
   39   17   18 ar    
   40   17   38 1     
   41   18   19 ar    
   42   19   39 1     
   43    1   41 1     
   44    1   42 1     
   45   18   43 1     
@<TRIPOS>SUBSTRUCTURE
      1 S1             1
@<TRIPOS>SET
LONE_PAIRS      STATIC     ATOMS    <user>   **** ""
3 41 42 43
DONOR_HYDROGENS      STATIC     ATOMS    <user>   **** ""
3 20 40 35
ATOM$BLUE        STATIC     ATOMS    COLORGROUP SYSTEM
3 41 42 43
ATOM$RED        STATIC     ATOMS    COLORGROUP SYSTEM
3 20 40 35
