AV-unprocessed.smi:1258|AV-procd|sdf|5287|dock2
  -GOLD-   22720 4403D 1   1.00000     0.00000
 Structure written by MMmdl.
 33 34  0  0  0  0  0  0  0  0  1 V2000
  151.3342  145.2231  159.7272 C   0  0  0  0  0  0  0  0  0  0  0  0
  151.9214  143.8438  160.0578 C   0  0  2  0  0  0  0  0  0  0  0  0
  152.6143  143.8417  161.4341 C   0  0  0  0  0  0  0  0  0  0  0  0
  153.2113  142.4651  161.7677 C   0  0  0  0  0  0  0  0  0  0  0  0
  154.1753  141.9878  160.6665 C   0  0  0  0  0  0  0  0  0  0  0  0
  153.5104  141.9848  159.2766 C   0  0  1  0  0  0  0  0  0  0  0  0
  152.4957  140.9364  159.2154 N   0  0  0  0  0  0  0  0  0  0  0  0
  152.6283  139.7468  158.6079 C   0  0  0  0  0  0  0  0  0  0  0  0
  153.6807  139.3560  158.1046 O   0  0  0  0  0  0  0  0  0  0  0  0
  151.3772  138.8669  158.5479 C   0  0  0  0  0  0  0  0  0  0  0  0
  151.6574  137.5899  157.9142 N   0  0  0  0  0  0  0  0  0  0  0  0
  151.2958  137.1041  156.7248 C   0  0  0  0  0  0  0  0  0  0  0  0
  151.7941  135.8951  156.5178 N   0  0  0  0  0  0  0  0  0  0  0  0
  152.5047  135.6449  157.6798 N   0  0  0  0  0  0  0  0  0  0  0  0
  152.4266  136.6463  158.5127 N   0  0  0  0  0  0  0  0  0  0  0  0
  152.9011  143.3699  158.9630 C   0  0  0  0  0  0  0  0  0  0  0  0
  152.1134  145.9838  159.6699 H   0  0  0  0  0  0  0  0  0  0  0  0
  150.6179  145.5367  160.4871 H   0  0  0  0  0  0  0  0  0  0  0  0
  150.8123  145.2081  158.7699 H   0  0  0  0  0  0  0  0  0  0  0  0
  151.0878  143.1408  160.0985 H   0  0  0  0  0  0  0  0  0  0  0  0
  153.4057  144.5924  161.4489 H   0  0  0  0  0  0  0  0  0  0  0  0
  151.9037  144.1283  162.2102 H   0  0  0  0  0  0  0  0  0  0  0  0
  153.7361  142.5119  162.7222 H   0  0  0  0  0  0  0  0  0  0  0  0
  152.4069  141.7397  161.8968 H   0  0  0  0  0  0  0  0  0  0  0  0
  155.0449  142.6460  160.6453 H   0  0  0  0  0  0  0  0  0  0  0  0
  154.5539  140.9935  160.9065 H   0  0  0  0  0  0  0  0  0  0  0  0
  154.2774  141.7592  158.5336 H   0  0  0  0  0  0  0  0  0  0  0  0
  151.5953  141.1637  159.6112 H   0  0  0  0  0  0  0  0  0  0  0  0
  150.9915  138.6883  159.5528 H   0  0  0  0  0  0  0  0  0  0  0  0
  150.5958  139.3787  157.9853 H   0  0  0  0  0  0  0  0  0  0  0  0
  150.6822  137.6366  156.0131 H   0  0  0  0  0  0  0  0  0  0  0  0
  152.3990  143.3511  157.9949 H   0  0  0  0  0  0  0  0  0  0  0  0
  153.7086  144.0968  158.8648 H   0  0  0  0  0  0  0  0  0  0  0  0
  1  2  1  0  0  0  0
  1 17  1  0  0  0  0
  1 18  1  0  0  0  0
  1 19  1  0  0  0  0
  2 16  1  0  0  0  0
  2  3  1  0  0  0  0
  2 20  1  0  0  0  0
  3  4  1  0  0  0  0
  3 21  1  0  0  0  0
  3 22  1  0  0  0  0
  4  5  1  0  0  0  0
  4 23  1  0  0  0  0
  4 24  1  0  0  0  0
  5  6  1  0  0  0  0
  5 25  1  0  0  0  0
  5 26  1  0  0  0  0
  6  7  1  0  0  0  0
  6 16  1  0  0  0  0
  6 27  1  0  0  0  0
  7  8  1  0  0  0  0
  7 28  1  0  0  0  0
  8  9  2  0  0  0  0
  8 10  1  0  0  0  0
 10 11  1  0  0  0  0
 10 29  1  0  0  0  0
 10 30  1  0  0  0  0
 11 15  1  0  0  0  0
 11 12  1  0  0  0  0
 12 13  2  0  0  0  0
 12 31  1  0  0  0  0
 13 14  1  0  0  0  0
 14 15  2  0  0  0  0
 16 32  1  0  0  0  0
 16 33  1  0  0  0  0
M  END
> <s_m_source_file>
AV-unprocessed.smi

> <i_m_source_file_index>
1258

> <i_lp_mmshare_version>
43012

> <i_f3d_flags>
0

> <s_epik_input>
W0NIM11bQ0BASF0xW0NIMl1bQ0gyXVtDSDJdW0NASF0oW0NIMl0xKVtOSF1DKD1PKVtDSDJdbjJbY0hdbm5uMg==

> <s_epik_cmdline>
J2VwaWtfcHl0aG9uJywgJy1waCcsICc3LjAnLCAnLXRuJywgJzgnLCAnLW1hJywgJzIwMCcsICctbWV0YWxfYmluZGluZycsICctaW1hZScsICc8aW5maWxlLm1hZT4nLCAnLW9tYWUnLCAnPG91dGZpbGUubWFlPic=

> <r_lp_tautomer_probability>
1

> <r_epik_Ionization_Penalty>
5.03816e-07

> <r_epik_Ionization_Penalty_Charging>
0

> <r_epik_Ionization_Penalty_Neutral>
5.03816e-07

> <r_epik_State_Penalty>
-0

> <r_epik_Charging_Adjusted_Penalty>
0

> <i_epik_Tot_Q>
0

> <i_epik_Tot_abs_Q>
0

> <r_epik_Metal_State_Penalty>
-0

> <b_epik_Metal_Only>
0

> <s_lp_Force_Field>
OPLS_2005

> <r_lp_Energy>
9.71314

> <b_lp_Chiralities_Consistent>
1

> <s_lp_Variant>
AV-unprocessed.smi:1258-1

> <Gold.Version>
5.8.1

> <Gold.Id.Protein>
6NUR|6NUR_protein|mol2

> <Gold.PLP.Fitness>
42.2344

> <Gold.PLP.PLP>
-36.4195

> <Gold.PLP.part.hbond>
-4.0000

> <Gold.PLP.part.metal>
0.0000

> <Gold.PLP.part.buried>
-5.2102

> <Gold.PLP.part.nonpolar>
-27.7878

> <Gold.PLP.part.repulsive>
0.1289

> <Gold.PLP.ligand.clash>
0.0000

> <Gold.PLP.ligand.torsion>
0.3095

> <Gold.PLP.Chemscore.Hbond>
2.1420

> <Gold.PLP.Chemscore.CHOScore>
0.0000

> <Gold.PLP.Chemscore.Metal>
0.0000

> <Gold.Chemscore.Hbonds>
donor molecule, donor type, donor heavy atom, donor atom, acceptor molecule, acceptor atom, score
      P1  H  6896  6909       L1    15  0.09
      P1  H  7997  8010       L1     9  1.00
      P1  H 10752 10764       L1    13  0.73

> <Gold.PLP.Chemscore.Internal.Correction>
0.0079

> <Gold.Rescore>
     Score         DG    S(hbond)    S(metal)    S(lipo)     H(rot)  DE(clash)    DE(int)     intcor
     16.80     -17.24       1.95        0.00      86.90       1.92       0.00       0.44       ----

> <Gold.Chemscore.Fitness>
16.7986

> <Gold.Chemscore.DG>
-17.2438

> <Gold.Chemscore.ZeroCoef>
-5.4800

> <Gold.Chemscore.Hbond>
1.9472

> <Gold.Chemscore.Metal>
0.0000

> <Gold.Chemscore.Lipo>
86.9016

> <Gold.Chemscore.Internal_Hbond>
0.0000

> <Gold.Chemscore.DEClash>
0.0038

> <Gold.Chemscore.DEInternal>
0.4414

> <Gold.Chemscore.Rot>
1.9169

> <Gold.Chemscore.Internal.Correction>
   9.000000E+99

> <Gold.Chemscore.Hbonds>
donor molecule, donor type, donor heavy atom, donor atom, acceptor molecule, acceptor atom, score
      P1  H  7997  8010       L1     9  0.95
      P1  H 10752 10764       L1    13  0.54

> <Gold.Chemscore.Hbond.Weighted>
-6.5035

> <Gold.Chemscore.Metal.Weighted>
-0.0000

> <Gold.Chemscore.Lipo.Weighted>
-10.1675

> <Gold.Chemscore.Internal_Hbond.Weighted>
0.0000

> <Gold.Chemscore.DEClash.Weighted>
0.0038

> <Gold.Chemscore.DEInternal.Weighted>
0.4414

> <Gold.Chemscore.Rot.Weighted>
4.9073

> <Gold.Chemscore.Internal.Correction.Weighted>
   9.000000E+99

> <Gold.Protein.RotatedTorsions>
[ 6907 6896 6895 6894 ] final  122.25 input  -60.11 | X-H torsion
[ 7974 7965 7964 7962 ] final    9.65 input  175.53 | X-H torsion
[ 8008 7997 7996 7995 ] final    9.51 input   59.86 | X-H torsion
[ 10167 10162 10161 10158 ] final  168.51 input  -65.29 | X-H torsion
[ 10718 10713 10712 10709 ] final   43.38 input   66.30 | X-H torsion
[ 10763 10752 10751 10750 ] final  -49.05 input  -60.55 | X-H torsion
[ 11005 11000 10999 10996 ] final   93.08 input  -57.11 | X-H torsion

> <Gold.Protein.ActiveResidues>
 VAL166  LYS551  ARG553  GLY616  TRP617  ASP618  TYR619  PRO620  LYS621  CYS622 
 ASP623  PHE694  ASN695  SER759  ASP760  ASP761  ALA762  ILE779  LEU786  VAL792 
 PHE793  MET794  SER795  GLU796  ALA797  LYS798  CYS799  TRP800  GLU811  SER814 

> <Gold.Protein.RotatedAtoms>
  152.4258  133.7192  159.6523 H   0  0  0  0  0  0  0  0  0  0  0  0  # atno 6907 bound_to 6896
  150.8134  133.8369  159.3177 H   0  0  0  0  0  0  0  0  0  0  0  0  # atno 6908 bound_to 6896
  151.6073  135.1045  160.0125 H   0  0  0  0  0  0  0  0  0  0  0  0  # atno 6909 bound_to 6896
  146.2400  139.9751  142.8442 H   0  0  0  0  0  0  0  0  0  0  0  0  # atno 7974 bound_to 7965
  154.7810  140.2819  155.6064 H   0  0  0  0  0  0  0  0  0  0  0  0  # atno 8008 bound_to 7997
  156.2950  140.2623  156.2563 H   0  0  0  0  0  0  0  0  0  0  0  0  # atno 8009 bound_to 7997
  154.9784  140.0375  157.2256 H   0  0  0  0  0  0  0  0  0  0  0  0  # atno 8010 bound_to 7997
  139.4970  144.3806  151.9626 H   0  0  0  0  0  0  0  0  0  0  0  0  # atno 10167 bound_to 10162
  157.4152  130.7937  149.7466 H   0  0  0  0  0  0  0  0  0  0  0  0  # atno 10718 bound_to 10713
  154.0877  135.6582  153.4847 H   0  0  0  0  0  0  0  0  0  0  0  0  # atno 10763 bound_to 10752
  153.0333  135.5195  154.7411 H   0  0  0  0  0  0  0  0  0  0  0  0  # atno 10764 bound_to 10752
  154.6525  135.3003  154.9937 H   0  0  0  0  0  0  0  0  0  0  0  0  # atno 10765 bound_to 10752
  139.8814  134.8770  156.3666 H   0  0  0  0  0  0  0  0  0  0  0  0  # atno 11005 bound_to 11000
  145.1644  140.9689  143.4358 LP  0  0  0  0  0  0  0  0  0  0  0  0  # atno 17320 bound_to 7965
  145.0086  139.3531  143.6131 LP  0  0  0  0  0  0  0  0  0  0  0  0  # atno 17321 bound_to 7965
  140.3243  144.3391  150.6002 LP  0  0  0  0  0  0  0  0  0  0  0  0  # atno 17342 bound_to 10162
  140.5697  143.2182  151.7620 LP  0  0  0  0  0  0  0  0  0  0  0  0  # atno 17343 bound_to 10162
  155.9863  130.3976  150.3219 LP  0  0  0  0  0  0  0  0  0  0  0  0  # atno 17370 bound_to 10713
  157.1362  131.0284  151.2948 LP  0  0  0  0  0  0  0  0  0  0  0  0  # atno 17371 bound_to 10713
  140.9493  133.7462  156.0250 LP  0  0  0  0  0  0  0  0  0  0  0  0  # atno 17394 bound_to 11000
  140.8125  134.3383  157.5407 LP  0  0  0  0  0  0  0  0  0  0  0  0  # atno 17395 bound_to 11000

$$$$
