AV-unprocessed.smi:85|AV-procd|sdf|810|dock1
  -GOLD-   2262017203D 1   1.00000     0.00000
 Structure written by MMmdl.
 62 65  0  0  0  0  0  0  0  0  1 V2000
  153.3680  138.2910  160.2878 C   0  0  0  0  0  0  0  0  0  0  0  0
  153.6095  138.8934  158.8935 C   0  0  0  0  0  0  0  0  0  0  0  0
  152.6058  139.8853  158.5018 N   0  0  0  0  0  0  0  0  0  0  0  0
  152.1716  139.7991  157.2198 C   0  0  0  0  0  0  0  0  0  0  0  0
  153.0771  139.4177  156.2843 N   0  0  0  0  0  0  0  0  0  0  0  0
  152.7145  139.3142  155.0028 C   0  0  0  0  0  0  0  0  0  0  0  0
  151.5199  139.5394  154.4529 N   0  0  0  0  0  0  0  0  0  0  0  0
  150.6065  139.9262  155.3890 C   0  0  0  0  0  0  0  0  0  0  0  0
  150.8480  140.0938  156.7818 C   0  0  0  0  0  0  0  0  0  0  0  0
  149.6845  140.5155  157.4144 N   0  0  0  0  0  0  0  0  0  0  0  0
  148.8047  140.5821  156.4539 C   0  0  0  0  0  0  0  0  0  0  0  0
  149.2665  140.2237  155.2075 N   0  0  0  0  0  0  0  0  0  0  0  0
  148.4969  140.1957  153.9718 C   0  0  0  0  0  0  0  0  0  0  0  0
  147.3185  139.1758  153.9572 C   0  0  0  0  0  0  0  0  0  0  0  0
  146.0969  139.7237  154.7499 C   0  0  0  0  0  0  0  0  0  0  0  0
  145.6973  141.0029  154.3000 O   0  0  0  0  0  0  0  0  0  0  0  0
  146.9475  138.8827  152.4818 C   0  0  0  0  0  0  0  0  0  0  0  0
  146.0007  137.6793  152.3278 C   0  0  0  0  0  0  0  0  0  0  0  0
  146.5843  136.5267  152.9206 O   0  0  0  0  0  0  0  0  0  0  0  0
  146.8004  136.6753  154.3176 C   0  0  0  0  0  0  0  0  0  0  0  0
  147.7786  137.8345  154.5828 C   0  0  0  0  0  0  0  0  0  0  0  0
  152.7754  141.2423  159.0445 C   0  0  2  0  0  0  0  0  0  0  0  0
  153.1896  141.2806  160.5263 C   0  0  0  0  0  0  0  0  0  0  0  0
  153.4140  142.7309  160.9741 C   0  0  0  0  0  0  0  0  0  0  0  0
  152.2366  143.5065  160.7543 O   0  0  0  0  0  0  0  0  0  0  0  0
  151.7625  143.5749  159.4051 C   0  0  0  0  0  0  0  0  0  0  0  0
  150.4155  144.3119  159.4897 C   0  0  0  0  0  0  0  0  0  0  0  0
  152.7283  144.3972  158.5250 C   0  0  0  0  0  0  0  0  0  0  0  0
  151.5377  142.1442  158.8600 C   0  0  0  0  0  0  0  0  0  0  0  0
  154.1795  137.6156  160.5590 H   0  0  0  0  0  0  0  0  0  0  0  0
  152.4412  137.7184  160.3306 H   0  0  0  0  0  0  0  0  0  0  0  0
  153.3181  139.0710  161.0478 H   0  0  0  0  0  0  0  0  0  0  0  0
  154.5874  139.3757  158.8894 H   0  0  0  0  0  0  0  0  0  0  0  0
  153.6640  138.0980  158.1513 H   0  0  0  0  0  0  0  0  0  0  0  0
  153.4921  139.0032  154.3209 H   0  0  0  0  0  0  0  0  0  0  0  0
  147.7834  140.8860  156.6319 H   0  0  0  0  0  0  0  0  0  0  0  0
  148.1223  141.2041  153.7915 H   0  0  0  0  0  0  0  0  0  0  0  0
  149.1865  139.9897  153.1521 H   0  0  0  0  0  0  0  0  0  0  0  0
  145.2345  139.0647  154.6676 H   0  0  0  0  0  0  0  0  0  0  0  0
  146.3199  139.7863  155.8150 H   0  0  0  0  0  0  0  0  0  0  0  0
  145.1328  140.8938  153.5500 H   0  0  0  0  0  0  0  0  0  0  0  0
  146.5073  139.7622  152.0110 H   0  0  0  0  0  0  0  0  0  0  0  0
  147.8557  138.6685  151.9169 H   0  0  0  0  0  0  0  0  0  0  0  0
  145.0224  137.8776  152.7663 H   0  0  0  0  0  0  0  0  0  0  0  0
  145.8309  137.4764  151.2703 H   0  0  0  0  0  0  0  0  0  0  0  0
  145.8510  136.8231  154.8329 H   0  0  0  0  0  0  0  0  0  0  0  0
  147.2190  135.7453  154.7032 H   0  0  0  0  0  0  0  0  0  0  0  0
  148.7481  137.5552  154.1684 H   0  0  0  0  0  0  0  0  0  0  0  0
  147.9268  137.9419  155.6576 H   0  0  0  0  0  0  0  0  0  0  0  0
  153.5968  141.6786  158.4761 H   0  0  0  0  0  0  0  0  0  0  0  0
  152.4165  140.8384  161.1559 H   0  0  0  0  0  0  0  0  0  0  0  0
  154.0987  140.6988  160.6826 H   0  0  0  0  0  0  0  0  0  0  0  0
  153.6477  142.7562  162.0386 H   0  0  0  0  0  0  0  0  0  0  0  0
  154.2707  143.1695  160.4627 H   0  0  0  0  0  0  0  0  0  0  0  0
  149.9511  144.4046  158.5072 H   0  0  0  0  0  0  0  0  0  0  0  0
  150.5397  145.3171  159.8935 H   0  0  0  0  0  0  0  0  0  0  0  0
  149.7148  143.7844  160.1381 H   0  0  0  0  0  0  0  0  0  0  0  0
  152.3231  144.5290  157.5213 H   0  0  0  0  0  0  0  0  0  0  0  0
  153.7043  143.9274  158.4144 H   0  0  0  0  0  0  0  0  0  0  0  0
  152.8911  145.3901  158.9452 H   0  0  0  0  0  0  0  0  0  0  0  0
  151.2458  142.1904  157.8104 H   0  0  0  0  0  0  0  0  0  0  0  0
  150.6963  141.7026  159.3937 H   0  0  0  0  0  0  0  0  0  0  0  0
  1  2  1  0  0  0  0
  1 30  1  0  0  0  0
  1 31  1  0  0  0  0
  1 32  1  0  0  0  0
  2  3  1  0  0  0  0
  2 33  1  0  0  0  0
  2 34  1  0  0  0  0
  3  4  1  0  0  0  0
  3 22  1  0  0  0  0
  4  9  1  0  0  0  0
  4  5  2  0  0  0  0
  5  6  1  0  0  0  0
  6  7  2  0  0  0  0
  6 35  1  0  0  0  0
  7  8  1  0  0  0  0
  8 12  1  0  0  0  0
  8  9  2  0  0  0  0
  9 10  1  0  0  0  0
 10 11  2  0  0  0  0
 11 12  1  0  0  0  0
 11 36  1  0  0  0  0
 12 13  1  0  0  0  0
 13 14  1  0  0  0  0
 13 37  1  0  0  0  0
 13 38  1  0  0  0  0
 14 21  1  0  0  0  0
 14 15  1  0  0  0  0
 14 17  1  0  0  0  0
 15 16  1  0  0  0  0
 15 39  1  0  0  0  0
 15 40  1  0  0  0  0
 16 41  1  0  0  0  0
 17 18  1  0  0  0  0
 17 42  1  0  0  0  0
 17 43  1  0  0  0  0
 18 19  1  0  0  0  0
 18 44  1  0  0  0  0
 18 45  1  0  0  0  0
 19 20  1  0  0  0  0
 20 21  1  0  0  0  0
 20 46  1  0  0  0  0
 20 47  1  0  0  0  0
 21 48  1  0  0  0  0
 21 49  1  0  0  0  0
 22 29  1  0  0  0  0
 22 23  1  0  0  0  0
 22 50  1  0  0  0  0
 23 24  1  0  0  0  0
 23 51  1  0  0  0  0
 23 52  1  0  0  0  0
 24 25  1  0  0  0  0
 24 53  1  0  0  0  0
 24 54  1  0  0  0  0
 25 26  1  0  0  0  0
 26 27  1  0  0  0  0
 26 28  1  0  0  0  0
 26 29  1  0  0  0  0
 27 55  1  0  0  0  0
 27 56  1  0  0  0  0
 27 57  1  0  0  0  0
 28 58  1  0  0  0  0
 28 59  1  0  0  0  0
 28 60  1  0  0  0  0
 29 61  1  0  0  0  0
 29 62  1  0  0  0  0
M  END
> <s_m_source_file>
AV-unprocessed.smi

> <i_m_source_file_index>
85

> <i_lp_mmshare_version>
43012

> <i_f3d_flags>
0

> <s_epik_input>
W0NIM11DMShbQ0gzXSlPW0NIMl1bQ0gyXVtDQEhdKFtDSDJdMSlOKFtDSDJdW0NIM10pYyhuW2NIXW4yKWMoYzIzKW5bY0hdbjNbQ0gyXUM0KFtDSDJdW09IXSlbQ0gyXVtDSDJdT1tDSDJdW0NIMl00

> <s_epik_cmdline>
J2VwaWtfcHl0aG9uJywgJy1waCcsICc3LjAnLCAnLXRuJywgJzgnLCAnLW1hJywgJzIwMCcsICctbWV0YWxfYmluZGluZycsICctaW1hZScsICc8aW5maWxlLm1hZT4nLCAnLW9tYWUnLCAnPG91dGZpbGUubWFlPic=

> <r_lp_tautomer_probability>
1

> <r_epik_Ionization_Penalty>
0.00336056

> <r_epik_Ionization_Penalty_Charging>
0

> <r_epik_Ionization_Penalty_Neutral>
0.00336056

> <r_epik_State_Penalty>
0.00222191

> <r_epik_Charging_Adjusted_Penalty>
0.00222191

> <i_epik_Tot_Q>
0

> <i_epik_Tot_abs_Q>
0

> <r_epik_Metal_State_Penalty>
-0

> <b_epik_Metal_Only>
0

> <s_lp_Force_Field>
OPLS_2005

> <r_lp_Energy>
35.7443

> <b_lp_Chiralities_Consistent>
1

> <s_lp_Variant>
AV-unprocessed.smi:85-1

> <Gold.Version>
5.8.1

> <Gold.Id.Protein>
6NUR|6NUR_protein|mol2

> <Gold.PLP.Fitness>
52.3828

> <Gold.PLP.PLP>
-45.1631

> <Gold.PLP.part.hbond>
-3.0000

> <Gold.PLP.part.metal>
0.0000

> <Gold.PLP.part.buried>
-5.1474

> <Gold.PLP.part.nonpolar>
-39.2020

> <Gold.PLP.part.repulsive>
2.0914

> <Gold.PLP.ligand.clash>
0.0063

> <Gold.PLP.ligand.torsion>
1.3189

> <Gold.PLP.Chemscore.Hbond>
3.0000

> <Gold.PLP.Chemscore.CHOScore>
0.0000

> <Gold.PLP.Chemscore.Metal>
0.0000

> <Gold.Chemscore.Hbonds>
donor molecule, donor type, donor heavy atom, donor atom, acceptor molecule, acceptor atom, score
      L1  H    16    41       P1 10175  1.00
      P1  H  7989  7998       L1     7  1.00
      P1  H  7997  8009       L1     5  0.78

> <Gold.PLP.Chemscore.Internal.Correction>
0.8637

> <Gold.Rescore>
     Score         DG    S(hbond)    S(metal)    S(lipo)     H(rot)  DE(clash)    DE(int)     intcor
     14.89     -19.28       1.94        0.00     120.58       2.65       0.83       3.56       ----

> <Gold.Chemscore.Fitness>
14.8928

> <Gold.Chemscore.DG>
-19.2755

> <Gold.Chemscore.ZeroCoef>
-5.4800

> <Gold.Chemscore.Hbond>
1.9351

> <Gold.Chemscore.Metal>
0.0000

> <Gold.Chemscore.Lipo>
120.5847

> <Gold.Chemscore.Internal_Hbond>
0.0000

> <Gold.Chemscore.DEClash>
0.8275

> <Gold.Chemscore.DEInternal>
3.5552

> <Gold.Chemscore.Rot>
2.6469

> <Gold.Chemscore.Internal.Correction>
   9.000000E+99

> <Gold.Chemscore.Hbonds>
donor molecule, donor type, donor heavy atom, donor atom, acceptor molecule, acceptor atom, score
      L1  H    16    41       P1 10175  0.78
      P1  H  7989  7998       L1     7  0.29
      P1  H  7997  8009       L1     5  0.49

> <Gold.Chemscore.Hbond.Weighted>
-6.4632

> <Gold.Chemscore.Metal.Weighted>
-0.0000

> <Gold.Chemscore.Lipo.Weighted>
-14.1084

> <Gold.Chemscore.Internal_Hbond.Weighted>
0.0000

> <Gold.Chemscore.DEClash.Weighted>
0.8275

> <Gold.Chemscore.DEInternal.Weighted>
3.5552

> <Gold.Chemscore.Rot.Weighted>
6.7761

> <Gold.Chemscore.Internal.Correction.Weighted>
   9.000000E+99

> <Gold.Protein.RotatedTorsions>
[ 6907 6896 6895 6894 ] final  -39.40 input  -60.11 | X-H torsion
[ 7974 7965 7964 7962 ] final  -70.69 input  175.53 | X-H torsion
[ 8008 7997 7996 7995 ] final -166.04 input   59.86 | X-H torsion
[ 10167 10162 10161 10158 ] final -145.13 input  -65.29 | X-H torsion
[ 10718 10713 10712 10709 ] final  -82.31 input   66.30 | X-H torsion
[ 10763 10752 10751 10750 ] final  109.24 input  -60.55 | X-H torsion
[ 11005 11000 10999 10996 ] final  -14.01 input  -57.11 | X-H torsion

> <Gold.Protein.ActiveResidues>
 VAL166  LYS551  ARG553  GLY616  TRP617  ASP618  TYR619  PRO620  LYS621  CYS622 
 ASP623  PHE694  ASN695  SER759  ASP760  ASP761  ALA762  ILE779  LEU786  VAL792 
 PHE793  MET794  SER795  GLU796  ALA797  LYS798  CYS799  TRP800  GLU811  SER814 

> <Gold.Protein.RotatedAtoms>
  150.9908  134.9243  159.7898 H   0  0  0  0  0  0  0  0  0  0  0  0  # atno 6907 bound_to 6896
  152.5250  134.3284  159.9184 H   0  0  0  0  0  0  0  0  0  0  0  0  # atno 6908 bound_to 6896
  151.3290  133.3967  159.2695 H   0  0  0  0  0  0  0  0  0  0  0  0  # atno 6909 bound_to 6896
  145.6877  140.9164  143.0798 H   0  0  0  0  0  0  0  0  0  0  0  0  # atno 7974 bound_to 7965
  155.8582  140.0974  157.1631 H   0  0  0  0  0  0  0  0  0  0  0  0  # atno 8008 bound_to 7997
  154.3989  140.1370  156.3990 H   0  0  0  0  0  0  0  0  0  0  0  0  # atno 8009 bound_to 7997
  155.7886  140.3456  155.5339 H   0  0  0  0  0  0  0  0  0  0  0  0  # atno 8010 bound_to 7997
  139.7835  143.8068  152.2641 H   0  0  0  0  0  0  0  0  0  0  0  0  # atno 10167 bound_to 10162
  156.0035  130.4630  150.4085 H   0  0  0  0  0  0  0  0  0  0  0  0  # atno 10718 bound_to 10713
  153.4319  135.3786  155.2176 H   0  0  0  0  0  0  0  0  0  0  0  0  # atno 10763 bound_to 10752
  154.8750  135.3842  154.4257 H   0  0  0  0  0  0  0  0  0  0  0  0  # atno 10764 bound_to 10752
  153.4791  135.7088  153.6012 H   0  0  0  0  0  0  0  0  0  0  0  0  # atno 10765 bound_to 10752
  140.7820  133.8355  155.9300 H   0  0  0  0  0  0  0  0  0  0  0  0  # atno 11005 bound_to 11000
  144.7006  139.8780  143.7445 LP  0  0  0  0  0  0  0  0  0  0  0  0  # atno 17320 bound_to 7965
  146.0909  139.3899  143.0406 LP  0  0  0  0  0  0  0  0  0  0  0  0  # atno 17321 bound_to 7965
  139.8137  144.7325  150.9663 LP  0  0  0  0  0  0  0  0  0  0  0  0  # atno 17342 bound_to 10162
  140.7819  143.4225  151.0818 LP  0  0  0  0  0  0  0  0  0  0  0  0  # atno 17343 bound_to 10162
  157.2150  131.0469  151.2578 LP  0  0  0  0  0  0  0  0  0  0  0  0  # atno 17370 bound_to 10713
  157.3854  130.7253  149.6659 LP  0  0  0  0  0  0  0  0  0  0  0  0  # atno 17371 bound_to 10713
  140.9473  134.1824  157.4754 LP  0  0  0  0  0  0  0  0  0  0  0  0  # atno 17394 bound_to 11000
  139.8741  134.9895  156.5462 LP  0  0  0  0  0  0  0  0  0  0  0  0  # atno 17395 bound_to 11000

$$$$
