AV-unprocessed.smi:3260|AV-procd|sdf|12476|dock8
  -GOLD-   2272018373D 1   1.00000     0.00000
 Structure written by MMmdl.
 38 39  0  0  0  0  0  0  0  0  1 V2000
  146.2133  131.8579  152.4487 C   0  0  0  0  0  0  0  0  0  0  0  0
  145.6221  132.9364  151.6861 N   0  0  0  0  0  0  0  0  0  0  0  0
  146.1129  134.2053  151.4696 C   0  0  0  0  0  0  0  0  0  0  0  0
  145.2011  134.8731  150.7012 C   0  0  0  0  0  0  0  0  0  0  0  0
  145.2556  136.2966  150.2088 C   0  0  0  0  0  0  0  0  0  0  0  0
  145.2695  137.3350  151.3518 C   0  0  0  0  0  0  0  0  0  0  0  0
  146.5777  137.4871  151.9838 N   0  0  0  0  0  0  0  0  0  0  0  0
  146.9210  138.4682  152.8290 C   0  0  0  0  0  0  0  0  0  0  0  0
  146.1470  139.3360  153.2330 O   0  0  0  0  0  0  0  0  0  0  0  0
  148.2227  138.4173  153.1411 N   0  0  0  0  0  0  0  0  0  0  0  0
  148.9358  139.4373  153.9010 C   0  0  0  0  0  0  0  0  0  0  0  0
  150.4148  139.0609  154.1011 C   0  0  2  0  0  0  0  0  0  0  0  0
  150.6490  137.8567  155.0117 C   0  0  0  0  0  0  0  0  0  0  0  0
  152.0872  138.0711  155.4230 C   0  0  0  0  0  0  0  0  0  0  0  0
  152.1605  139.5918  155.5580 C   0  0  0  0  0  0  0  0  0  0  0  0
  151.1230  140.1208  154.7337 O   0  0  0  0  0  0  0  0  0  0  0  0
  144.1768  133.9070  150.4899 C   0  0  0  0  0  0  0  0  0  0  0  0
  144.4299  132.7511  151.0828 N   0  0  0  0  0  0  0  0  0  0  0  0
  147.2351  132.1150  152.7284 H   0  0  0  0  0  0  0  0  0  0  0  0
  146.2285  130.9452  151.8523 H   0  0  0  0  0  0  0  0  0  0  0  0
  145.6303  131.6860  153.3541 H   0  0  0  0  0  0  0  0  0  0  0  0
  147.0551  134.5310  151.8858 H   0  0  0  0  0  0  0  0  0  0  0  0
  146.1416  136.4432  149.5902 H   0  0  0  0  0  0  0  0  0  0  0  0
  144.4122  136.5080  149.5510 H   0  0  0  0  0  0  0  0  0  0  0  0
  144.9066  138.3007  150.9974 H   0  0  0  0  0  0  0  0  0  0  0  0
  144.5796  137.0138  152.1328 H   0  0  0  0  0  0  0  0  0  0  0  0
  147.2909  136.8268  151.7111 H   0  0  0  0  0  0  0  0  0  0  0  0
  148.7750  137.6618  152.7628 H   0  0  0  0  0  0  0  0  0  0  0  0
  148.8540  140.4046  153.4030 H   0  0  0  0  0  0  0  0  0  0  0  0
  148.4452  139.5445  154.8686 H   0  0  0  0  0  0  0  0  0  0  0  0
  150.8906  138.8774  153.1360 H   0  0  0  0  0  0  0  0  0  0  0  0
  149.9980  137.9022  155.8858 H   0  0  0  0  0  0  0  0  0  0  0  0
  150.4842  136.9035  154.5101 H   0  0  0  0  0  0  0  0  0  0  0  0
  152.3545  137.5464  156.3405 H   0  0  0  0  0  0  0  0  0  0  0  0
  152.7540  137.7322  154.6288 H   0  0  0  0  0  0  0  0  0  0  0  0
  151.9730  139.8967  156.5882 H   0  0  0  0  0  0  0  0  0  0  0  0
  153.1353  139.9805  155.2628 H   0  0  0  0  0  0  0  0  0  0  0  0
  143.2578  134.0146  149.9328 H   0  0  0  0  0  0  0  0  0  0  0  0
  1  2  1  0  0  0  0
  1 19  1  0  0  0  0
  1 20  1  0  0  0  0
  1 21  1  0  0  0  0
  2 18  1  0  0  0  0
  2  3  1  0  0  0  0
  3  4  2  0  0  0  0
  3 22  1  0  0  0  0
  4  5  1  0  0  0  0
  4 17  1  0  0  0  0
  5  6  1  0  0  0  0
  5 23  1  0  0  0  0
  5 24  1  0  0  0  0
  6  7  1  0  0  0  0
  6 25  1  0  0  0  0
  6 26  1  0  0  0  0
  7  8  1  0  0  0  0
  7 27  1  0  0  0  0
  8  9  2  0  0  0  0
  8 10  1  0  0  0  0
 10 11  1  0  0  0  0
 10 28  1  0  0  0  0
 11 12  1  0  0  0  0
 11 29  1  0  0  0  0
 11 30  1  0  0  0  0
 12 16  1  0  0  0  0
 12 13  1  0  0  0  0
 12 31  1  0  0  0  0
 13 14  1  0  0  0  0
 13 32  1  0  0  0  0
 13 33  1  0  0  0  0
 14 15  1  0  0  0  0
 14 34  1  0  0  0  0
 14 35  1  0  0  0  0
 15 16  1  0  0  0  0
 15 36  1  0  0  0  0
 15 37  1  0  0  0  0
 17 18  2  0  0  0  0
 17 38  1  0  0  0  0
M  END
> <s_m_source_file>
AV-unprocessed.smi

> <i_m_source_file_index>
3260

> <i_lp_mmshare_version>
43012

> <i_f3d_flags>
0

> <s_epik_input>
W0NIM11uMVtjSF1jKFtjSF1uMSlbQ0gyXVtDSDJdW05IXUMoPU8pW05IXVtDSDJdW0NAQEhdMltDSDJdW0NIMl1bQ0gyXU8y

> <s_epik_cmdline>
J2VwaWtfcHl0aG9uJywgJy1waCcsICc3LjAnLCAnLXRuJywgJzgnLCAnLW1hJywgJzIwMCcsICctbWV0YWxfYmluZGluZycsICctaW1hZScsICc8aW5maWxlLm1hZT4nLCAnLW9tYWUnLCAnPG91dGZpbGUubWFlPic=

> <r_lp_tautomer_probability>
1

> <r_epik_Ionization_Penalty>
0.000550106

> <r_epik_Ionization_Penalty_Charging>
0

> <r_epik_Ionization_Penalty_Neutral>
0.000550106

> <r_epik_State_Penalty>
-0

> <r_epik_Charging_Adjusted_Penalty>
0

> <i_epik_Tot_Q>
0

> <i_epik_Tot_abs_Q>
0

> <r_epik_Metal_State_Penalty>
-0

> <b_epik_Metal_Only>
0

> <s_lp_Force_Field>
OPLS_2005

> <r_lp_Energy>
10.4749

> <b_lp_Chiralities_Consistent>
1

> <s_lp_Variant>
AV-unprocessed.smi:3260-1

> <Gold.Version>
5.8.1

> <Gold.Id.Protein>
6NUR|6NUR_protein|mol2

> <Gold.PLP.Fitness>
44.5924

> <Gold.PLP.PLP>
-29.9586

> <Gold.PLP.part.hbond>
-3.4970

> <Gold.PLP.part.metal>
0.0000

> <Gold.PLP.part.buried>
2.2392

> <Gold.PLP.part.nonpolar>
-28.4455

> <Gold.PLP.part.repulsive>
0.7317

> <Gold.PLP.ligand.clash>
0.0000

> <Gold.PLP.ligand.torsion>
0.1787

> <Gold.PLP.Chemscore.Hbond>
2.9920

> <Gold.PLP.Chemscore.CHOScore>
1.9922

> <Gold.PLP.Chemscore.Metal>
0.0000

> <Gold.Chemscore.Hbonds>
donor molecule, donor type, donor heavy atom, donor atom, acceptor molecule, acceptor atom, score
      L1  H     7    27       P1  7948  1.00
      L1  H    10    28       P1  7948  1.00
      P1  H  7989  7998       L1    16  1.00
      L1  C     3    22       P1  7948  1.00
      L1  C    17    38       P1 10186  1.00

> <Gold.PLP.Chemscore.Internal.Correction>
0.0386

> <Gold.Rescore>
     Score         DG    S(hbond)    S(metal)    S(lipo)     H(rot)  DE(clash)    DE(int)     intcor
     16.38     -18.20       2.68        0.00      72.66       1.85       1.46       0.35       ----

> <Gold.Chemscore.Fitness>
16.3814

> <Gold.Chemscore.DG>
-18.1956

> <Gold.Chemscore.ZeroCoef>
-5.4800

> <Gold.Chemscore.Hbond>
2.6820

> <Gold.Chemscore.Metal>
0.0000

> <Gold.Chemscore.Lipo>
72.6596

> <Gold.Chemscore.Internal_Hbond>
0.0000

> <Gold.Chemscore.DEClash>
1.4595

> <Gold.Chemscore.DEInternal>
0.3547

> <Gold.Chemscore.Rot>
1.8528

> <Gold.Chemscore.Internal.Correction>
   9.000000E+99

> <Gold.Chemscore.Hbonds>
donor molecule, donor type, donor heavy atom, donor atom, acceptor molecule, acceptor atom, score
      L1  H     7    27       P1  7948  0.94
      L1  H    10    28       P1  7948  0.97
      P1  H  7989  7998       L1    16  0.21

> <Gold.Chemscore.Hbond.Weighted>
-8.9577

> <Gold.Chemscore.Metal.Weighted>
-0.0000

> <Gold.Chemscore.Lipo.Weighted>
-8.5012

> <Gold.Chemscore.Internal_Hbond.Weighted>
0.0000

> <Gold.Chemscore.DEClash.Weighted>
1.4595

> <Gold.Chemscore.DEInternal.Weighted>
0.3547

> <Gold.Chemscore.Rot.Weighted>
4.7433

> <Gold.Chemscore.Internal.Correction.Weighted>
   9.000000E+99

> <Gold.Protein.RotatedTorsions>
[ 6907 6896 6895 6894 ] final  142.91 input  -60.11 | X-H torsion
[ 7974 7965 7964 7962 ] final  -55.71 input  175.53 | X-H torsion
[ 8008 7997 7996 7995 ] final  -96.48 input   59.86 | X-H torsion
[ 10167 10162 10161 10158 ] final  -26.95 input  -65.29 | X-H torsion
[ 10718 10713 10712 10709 ] final   87.96 input   66.30 | X-H torsion
[ 10763 10752 10751 10750 ] final  -37.57 input  -60.55 | X-H torsion
[ 11005 11000 10999 10996 ] final -174.02 input  -57.11 | X-H torsion

> <Gold.Protein.ActiveResidues>
 VAL166  LYS551  ARG553  GLY616  TRP617  ASP618  TYR619  PRO620  LYS621  CYS622 
 ASP623  PHE694  ASN695  SER759  ASP760  ASP761  ALA762  ILE779  LEU786  VAL792 
 PHE793  MET794  SER795  GLU796  ALA797  LYS798  CYS799  TRP800  GLU811  SER814 

> <Gold.Protein.RotatedAtoms>
  152.2129  133.4924  159.5119 H   0  0  0  0  0  0  0  0  0  0  0  0  # atno 6907 bound_to 6896
  150.6994  134.1444  159.4126 H   0  0  0  0  0  0  0  0  0  0  0  0  # atno 6908 bound_to 6896
  151.9364  135.0233  160.0583 H   0  0  0  0  0  0  0  0  0  0  0  0  # atno 6909 bound_to 6896
  145.8711  140.8216  142.9888 H   0  0  0  0  0  0  0  0  0  0  0  0  # atno 7974 bound_to 7965
  154.7751  140.0471  157.1082 H   0  0  0  0  0  0  0  0  0  0  0  0  # atno 8008 bound_to 7997
  154.9773  140.3097  155.4942 H   0  0  0  0  0  0  0  0  0  0  0  0  # atno 8009 bound_to 7997
  156.2927  140.2242  156.4870 H   0  0  0  0  0  0  0  0  0  0  0  0  # atno 8010 bound_to 7997
  140.7280  143.4134  151.1067 H   0  0  0  0  0  0  0  0  0  0  0  0  # atno 10167 bound_to 10162
  157.6945  131.0276  150.3203 H   0  0  0  0  0  0  0  0  0  0  0  0  # atno 10718 bound_to 10713
  153.8985  135.6805  153.4756 H   0  0  0  0  0  0  0  0  0  0  0  0  # atno 10763 bound_to 10752
  153.1142  135.4769  154.9085 H   0  0  0  0  0  0  0  0  0  0  0  0  # atno 10764 bound_to 10752
  154.7587  135.3204  154.8374 H   0  0  0  0  0  0  0  0  0  0  0  0  # atno 10765 bound_to 10752
  140.4792  134.6092  157.4912 H   0  0  0  0  0  0  0  0  0  0  0  0  # atno 11005 bound_to 11000
  144.6726  140.1240  143.7448 LP  0  0  0  0  0  0  0  0  0  0  0  0  # atno 17320 bound_to 7965
  145.9136  139.2502  143.1423 LP  0  0  0  0  0  0  0  0  0  0  0  0  # atno 17321 bound_to 7965
  139.7771  143.8409  152.3131 LP  0  0  0  0  0  0  0  0  0  0  0  0  # atno 17342 bound_to 10162
  139.8348  144.7237  150.9405 LP  0  0  0  0  0  0  0  0  0  0  0  0  # atno 17343 bound_to 10162
  156.3691  130.3860  149.7190 LP  0  0  0  0  0  0  0  0  0  0  0  0  # atno 17370 bound_to 10713
  156.4610  130.7952  151.2972 LP  0  0  0  0  0  0  0  0  0  0  0  0  # atno 17371 bound_to 10713
  139.9837  134.7096  155.9813 LP  0  0  0  0  0  0  0  0  0  0  0  0  # atno 17394 bound_to 11000
  141.1539  133.6545  156.4101 LP  0  0  0  0  0  0  0  0  0  0  0  0  # atno 17395 bound_to 11000

$$$$
