AV-unprocessed.smi:2387|AV-procd|sdf|9469|dock10
  -GOLD-   2272013 93D 1   1.00000     0.00000
 Structure written by MMmdl.
 47 49  0  0  0  0  0  0  0  0  1 V2000
  145.7247  132.9606  150.8616 C   0  0  0  0  0  0  0  0  0  0  0  0
  145.7605  134.3617  151.4353 C   0  0  0  0  0  0  0  0  0  0  0  0
  145.9798  134.5757  152.8116 C   0  0  0  0  0  0  0  0  0  0  0  0
  146.0012  135.8992  153.2925 C   0  0  0  0  0  0  0  0  0  0  0  0
  145.7941  136.9619  152.3800 C   0  0  0  0  0  0  0  0  0  0  0  0
  145.8099  138.3378  152.7352 N   0  0  0  0  0  0  0  0  0  0  0  0
  146.5912  138.9621  153.6327 C   0  0  0  0  0  0  0  0  0  0  0  0
  147.4407  138.4174  154.3370 O   0  0  0  0  0  0  0  0  0  0  0  0
  146.3184  140.2780  153.6768 N   0  0  0  0  0  0  0  0  0  0  0  0
  146.9291  141.2969  154.5501 C   0  0  0  0  0  0  0  0  0  0  0  0
  148.4824  141.2459  154.5465 C   0  0  0  0  0  0  0  0  0  0  0  0
  149.0934  141.2690  153.4771 O   0  0  0  0  0  0  0  0  0  0  0  0
  149.1160  141.1543  155.7285 N   0  0  0  0  0  0  0  0  0  0  0  0
  150.5596  141.0765  155.9065 C   0  0  0  0  0  0  0  0  0  0  0  0
  151.0094  140.3677  157.1699 C   0  0  0  0  0  0  0  0  0  0  0  0
  150.8762  141.0282  158.5217 C   0  0  0  0  0  0  0  0  0  0  0  0
  152.2425  140.8292  157.9101 C   0  0  0  0  0  0  0  0  0  0  0  0
  146.4627  142.7002  154.0667 C   0  0  0  0  0  0  0  0  0  0  0  0
  145.6012  143.3087  155.1776 C   0  0  0  0  0  0  0  0  0  0  0  0
  146.0717  142.6222  156.4515 C   0  0  0  0  0  0  0  0  0  0  0  0
  146.3663  141.1944  155.9974 C   0  0  0  0  0  0  0  0  0  0  0  0
  145.5982  136.6332  151.0221 C   0  0  0  0  0  0  0  0  0  0  0  0
  145.5756  135.3675  150.5533 N   0  0  0  0  0  0  0  0  0  0  0  0
  145.9258  132.2130  151.6294 H   0  0  0  0  0  0  0  0  0  0  0  0
  146.4742  132.8516  150.0771 H   0  0  0  0  0  0  0  0  0  0  0  0
  144.7444  132.7521  150.4323 H   0  0  0  0  0  0  0  0  0  0  0  0
  146.1330  133.7467  153.4868 H   0  0  0  0  0  0  0  0  0  0  0  0
  146.1884  136.0695  154.3412 H   0  0  0  0  0  0  0  0  0  0  0  0
  145.1022  138.9053  152.2922 H   0  0  0  0  0  0  0  0  0  0  0  0
  145.6010  140.6160  153.0524 H   0  0  0  0  0  0  0  0  0  0  0  0
  148.5520  141.1401  156.5656 H   0  0  0  0  0  0  0  0  0  0  0  0
  151.0075  140.5767  155.0463 H   0  0  0  0  0  0  0  0  0  0  0  0
  150.9539  142.0933  155.9064 H   0  0  0  0  0  0  0  0  0  0  0  0
  150.8589  139.2899  157.1457 H   0  0  0  0  0  0  0  0  0  0  0  0
  150.4837  142.0426  158.5547 H   0  0  0  0  0  0  0  0  0  0  0  0
  150.6042  140.3953  159.3642 H   0  0  0  0  0  0  0  0  0  0  0  0
  152.8822  140.0643  158.3457 H   0  0  0  0  0  0  0  0  0  0  0  0
  152.7583  141.7118  157.5372 H   0  0  0  0  0  0  0  0  0  0  0  0
  147.3091  143.3639  153.8793 H   0  0  0  0  0  0  0  0  0  0  0  0
  145.9045  142.6598  153.1300 H   0  0  0  0  0  0  0  0  0  0  0  0
  145.6878  144.3944  155.2296 H   0  0  0  0  0  0  0  0  0  0  0  0
  144.5522  143.0675  155.0010 H   0  0  0  0  0  0  0  0  0  0  0  0
  146.9846  143.0957  156.8147 H   0  0  0  0  0  0  0  0  0  0  0  0
  145.3309  142.6649  157.2504 H   0  0  0  0  0  0  0  0  0  0  0  0
  145.4294  140.6350  156.0078 H   0  0  0  0  0  0  0  0  0  0  0  0
  147.0367  140.6824  156.6899 H   0  0  0  0  0  0  0  0  0  0  0  0
  145.4496  137.4101  150.2863 H   0  0  0  0  0  0  0  0  0  0  0  0
  1  2  1  0  0  0  0
  1 24  1  0  0  0  0
  1 25  1  0  0  0  0
  1 26  1  0  0  0  0
  2 23  1  0  0  0  0
  2  3  2  0  0  0  0
  3  4  1  0  0  0  0
  3 27  1  0  0  0  0
  4  5  2  0  0  0  0
  4 28  1  0  0  0  0
  5  6  1  0  0  0  0
  5 22  1  0  0  0  0
  6  7  1  0  0  0  0
  6 29  1  0  0  0  0
  7  8  2  0  0  0  0
  7  9  1  0  0  0  0
  9 10  1  0  0  0  0
  9 30  1  0  0  0  0
 10 21  1  0  0  0  0
 10 11  1  0  0  0  0
 10 18  1  0  0  0  0
 11 12  2  0  0  0  0
 11 13  1  0  0  0  0
 13 14  1  0  0  0  0
 13 31  1  0  0  0  0
 14 15  1  0  0  0  0
 14 32  1  0  0  0  0
 14 33  1  0  0  0  0
 15 17  1  0  0  0  0
 15 16  1  0  0  0  0
 15 34  1  0  0  0  0
 16 17  1  0  0  0  0
 16 35  1  0  0  0  0
 16 36  1  0  0  0  0
 17 37  1  0  0  0  0
 17 38  1  0  0  0  0
 18 19  1  0  0  0  0
 18 39  1  0  0  0  0
 18 40  1  0  0  0  0
 19 20  1  0  0  0  0
 19 41  1  0  0  0  0
 19 42  1  0  0  0  0
 20 21  1  0  0  0  0
 20 43  1  0  0  0  0
 20 44  1  0  0  0  0
 21 45  1  0  0  0  0
 21 46  1  0  0  0  0
 22 23  2  0  0  0  0
 22 47  1  0  0  0  0
M  END
> <s_m_source_file>
AV-unprocessed.smi

> <i_m_source_file_index>
2387

> <i_lp_mmshare_version>
43012

> <i_f3d_flags>
0

> <s_epik_input>
W0NIM11jMVtjSF1bY0hdYyhbY0hdbjEpW05IXUMoPU8pW05IXUMyKFtDSDJdW0NIMl1bQ0gyXVtDSDJdMilDKD1PKVtOSF1bQ0gyXVtDSF0zW0NIMl1bQ0gyXTM=

> <s_epik_cmdline>
J2VwaWtfcHl0aG9uJywgJy1waCcsICc3LjAnLCAnLXRuJywgJzgnLCAnLW1hJywgJzIwMCcsICctbWV0YWxfYmluZGluZycsICctaW1hZScsICc8aW5maWxlLm1hZT4nLCAnLW9tYWUnLCAnPG91dGZpbGUubWFlPic=

> <r_epik_Ionization_Penalty>
0.0173464

> <r_epik_Ionization_Penalty_Charging>
0

> <r_epik_Ionization_Penalty_Neutral>
0.0173464

> <r_epik_State_Penalty>
0.0137159

> <r_epik_Charging_Adjusted_Penalty>
0.0137159

> <i_epik_Tot_Q>
0

> <i_epik_Tot_abs_Q>
0

> <r_epik_Metal_State_Penalty>
0.0133255

> <b_epik_Metal_Only>
0

> <s_lp_Force_Field>
OPLS_2005

> <r_lp_Energy>
29.6161

> <b_lp_Chiralities_Consistent>
1

> <s_lp_Variant>
AV-unprocessed.smi:2387-1

> <Gold.Version>
5.8.1

> <Gold.Id.Protein>
6NUR|6NUR_protein|mol2

> <Gold.PLP.Fitness>
43.3510

> <Gold.PLP.PLP>
-33.5688

> <Gold.PLP.part.hbond>
-4.0000

> <Gold.PLP.part.metal>
0.0000

> <Gold.PLP.part.buried>
-5.7173

> <Gold.PLP.part.nonpolar>
-28.1976

> <Gold.PLP.part.repulsive>
2.8619

> <Gold.PLP.ligand.clash>
0.0000

> <Gold.PLP.ligand.torsion>
1.0586

> <Gold.PLP.Chemscore.Hbond>
2.7591

> <Gold.PLP.Chemscore.CHOScore>
1.0000

> <Gold.PLP.Chemscore.Metal>
0.0000

> <Gold.Chemscore.Hbonds>
donor molecule, donor type, donor heavy atom, donor atom, acceptor molecule, acceptor atom, score
      L1  H     6    29       P1 10175  0.78
      L1  H     9    30       P1 10175  0.94
      P1  H  8011  8017       L1    12  0.96
      L1  C    22    47       P1 10171  0.96

> <Gold.PLP.Chemscore.Internal.Correction>
0.6222

> <Gold.Rescore>
     Score         DG    S(hbond)    S(metal)    S(lipo)     H(rot)  DE(clash)    DE(int)     intcor
     15.65     -17.62       2.53        0.00      66.48       1.59       0.28       1.68       ----

> <Gold.Chemscore.Fitness>
15.6541

> <Gold.Chemscore.DG>
-17.6218

> <Gold.Chemscore.ZeroCoef>
-5.4800

> <Gold.Chemscore.Hbond>
2.5283

> <Gold.Chemscore.Metal>
0.0000

> <Gold.Chemscore.Lipo>
66.4816

> <Gold.Chemscore.Internal_Hbond>
0.0000

> <Gold.Chemscore.DEClash>
0.2836

> <Gold.Chemscore.DEInternal>
1.6841

> <Gold.Chemscore.Rot>
1.5941

> <Gold.Chemscore.Internal.Correction>
   9.000000E+99

> <Gold.Chemscore.Hbonds>
donor molecule, donor type, donor heavy atom, donor atom, acceptor molecule, acceptor atom, score
      L1  H     6    29       P1 10175  0.73
      L1  H     9    30       P1 10175  0.69
      P1  H  8011  8017       L1    12  0.92

> <Gold.Chemscore.Hbond.Weighted>
-8.4444

> <Gold.Chemscore.Metal.Weighted>
-0.0000

> <Gold.Chemscore.Lipo.Weighted>
-7.7783

> <Gold.Chemscore.Internal_Hbond.Weighted>
0.0000

> <Gold.Chemscore.DEClash.Weighted>
0.2836

> <Gold.Chemscore.DEInternal.Weighted>
1.6841

> <Gold.Chemscore.Rot.Weighted>
4.0809

> <Gold.Chemscore.Internal.Correction.Weighted>
   9.000000E+99

> <Gold.Protein.RotatedTorsions>
[ 6907 6896 6895 6894 ] final -104.50 input  -60.11 | X-H torsion
[ 7974 7965 7964 7962 ] final -175.42 input  175.53 | X-H torsion
[ 8008 7997 7996 7995 ] final  148.50 input   59.86 | X-H torsion
[ 10167 10162 10161 10158 ] final  122.52 input  -65.29 | X-H torsion
[ 10718 10713 10712 10709 ] final -152.70 input   66.30 | X-H torsion
[ 10763 10752 10751 10750 ] final  127.67 input  -60.55 | X-H torsion
[ 11005 11000 10999 10996 ] final    9.74 input  -57.11 | X-H torsion

> <Gold.Protein.ActiveResidues>
 VAL166  LYS551  ARG553  GLY616  TRP617  ASP618  TYR619  PRO620  LYS621  CYS622 
 ASP623  PHE694  ASN695  SER759  ASP760  ASP761  ALA762  ILE779  LEU786  VAL792 
 PHE793  MET794  SER795  GLU796  ALA797  LYS798  CYS799  TRP800  GLU811  SER814 

> <Gold.Protein.RotatedAtoms>
  150.7290  134.0268  159.3719 H   0  0  0  0  0  0  0  0  0  0  0  0  # atno 6907 bound_to 6896
  151.8235  135.0642  160.0437 H   0  0  0  0  0  0  0  0  0  0  0  0  # atno 6908 bound_to 6896
  152.2986  133.5596  159.5640 H   0  0  0  0  0  0  0  0  0  0  0  0  # atno 6909 bound_to 6896
  144.7128  140.1323  143.6398 H   0  0  0  0  0  0  0  0  0  0  0  0  # atno 7974 bound_to 7965
  156.2789  140.2127  156.5708 H   0  0  0  0  0  0  0  0  0  0  0  0  # atno 8008 bound_to 7997
  154.7137  140.0510  157.0597 H   0  0  0  0  0  0  0  0  0  0  0  0  # atno 8009 bound_to 7997
  155.0571  140.3162  155.4676 H   0  0  0  0  0  0  0  0  0  0  0  0  # atno 8010 bound_to 7997
  139.5853  144.7004  151.3424 H   0  0  0  0  0  0  0  0  0  0  0  0  # atno 10167 bound_to 10162
  156.4760  130.8281  151.2509 H   0  0  0  0  0  0  0  0  0  0  0  0  # atno 10718 bound_to 10713
  153.7132  135.3265  155.3251 H   0  0  0  0  0  0  0  0  0  0  0  0  # atno 10763 bound_to 10752
  154.8378  135.4482  154.1292 H   0  0  0  0  0  0  0  0  0  0  0  0  # atno 10764 bound_to 10752
  153.2392  135.6969  153.7881 H   0  0  0  0  0  0  0  0  0  0  0  0  # atno 10765 bound_to 10752
  140.5223  134.0547  155.7848 H   0  0  0  0  0  0  0  0  0  0  0  0  # atno 11005 bound_to 11000
  145.9276  139.2585  143.1344 LP  0  0  0  0  0  0  0  0  0  0  0  0  # atno 17320 bound_to 7965
  145.9556  140.8875  143.0237 LP  0  0  0  0  0  0  0  0  0  0  0  0  # atno 17321 bound_to 7965
  140.7126  143.7351  150.7595 LP  0  0  0  0  0  0  0  0  0  0  0  0  # atno 17342 bound_to 10162
  140.0893  143.4893  152.2487 LP  0  0  0  0  0  0  0  0  0  0  0  0  # atno 17343 bound_to 10162
  157.7487  131.0060  150.3137 LP  0  0  0  0  0  0  0  0  0  0  0  0  # atno 17370 bound_to 10713
  156.3570  130.3840  149.7282 LP  0  0  0  0  0  0  0  0  0  0  0  0  # atno 17371 bound_to 10713
  141.1327  133.9274  157.2500 LP  0  0  0  0  0  0  0  0  0  0  0  0  # atno 17394 bound_to 11000
  139.9599  135.0157  156.9232 LP  0  0  0  0  0  0  0  0  0  0  0  0  # atno 17395 bound_to 11000

$$$$
