AV-unprocessed.smi:1015|AV-procd|sdf|4436|dock7
  -GOLD-   22720 2393D 1   1.00000     0.00000
 Structure written by MMmdl.
 42 43  0  0  0  0  0  0  0  0  1 V2000
  152.4110  144.8485  158.2129 C   0  0  0  0  0  0  0  0  0  0  0  0
  151.7856  145.5669  159.2615 O   0  0  0  0  0  0  0  0  0  0  0  0
  151.1041  144.7192  160.1723 C   0  0  0  0  0  0  0  0  0  0  0  0
  152.0903  143.7393  160.8303 C   0  0  0  0  0  0  0  0  0  0  0  0
  152.6064  142.6799  159.9609 N   0  0  0  0  0  0  0  0  0  0  0  0
  151.5334  142.1286  159.1330 C   0  0  0  0  0  0  0  0  0  0  0  0
  152.0359  141.0695  158.1381 C   0  0  0  0  0  0  0  0  0  0  0  0
  152.7446  139.9191  158.8749 C   0  0  0  0  0  0  0  0  0  0  0  0
  153.2987  138.8727  157.8847 C   0  0  0  0  0  0  0  0  0  0  0  0
  152.2631  138.3663  156.9923 N   0  0  0  0  0  0  0  0  0  0  0  0
  152.0522  138.7887  155.7364 C   0  0  0  0  0  0  0  0  0  0  0  0
  152.7880  139.5834  155.1522 O   0  0  0  0  0  0  0  0  0  0  0  0
  150.7967  138.2581  155.0462 C   0  0  0  0  0  0  0  0  0  0  0  0
  149.9725  139.3586  154.5817 N   0  0  0  0  0  0  0  0  0  0  0  0
  148.7238  139.3807  154.1106 C   0  0  0  0  0  0  0  0  0  0  0  0
  148.3528  140.6045  153.7665 N   0  0  0  0  0  0  0  0  0  0  0  0
  149.4718  141.3666  154.0585 N   0  0  0  0  0  0  0  0  0  0  0  0
  150.4362  140.6327  154.5423 N   0  0  0  0  0  0  0  0  0  0  0  0
  153.8329  140.5074  159.7975 C   0  0  0  0  0  0  0  0  0  0  0  0
  153.2529  141.6002  160.7106 C   0  0  0  0  0  0  0  0  0  0  0  0
  152.9115  145.5448  157.5402 H   0  0  0  0  0  0  0  0  0  0  0  0
  151.6819  144.2831  157.6311 H   0  0  0  0  0  0  0  0  0  0  0  0
  153.1607  144.1583  158.6016 H   0  0  0  0  0  0  0  0  0  0  0  0
  150.6443  145.3373  160.9449 H   0  0  0  0  0  0  0  0  0  0  0  0
  150.3002  144.1738  159.6749 H   0  0  0  0  0  0  0  0  0  0  0  0
  152.9131  144.2911  161.2871 H   0  0  0  0  0  0  0  0  0  0  0  0
  151.5576  143.2668  161.6565 H   0  0  0  0  0  0  0  0  0  0  0  0
  150.7618  141.6924  159.7698 H   0  0  0  0  0  0  0  0  0  0  0  0
  151.0518  142.9314  158.5735 H   0  0  0  0  0  0  0  0  0  0  0  0
  151.1978  140.6831  157.5571 H   0  0  0  0  0  0  0  0  0  0  0  0
  152.7197  141.5347  157.4266 H   0  0  0  0  0  0  0  0  0  0  0  0
  152.0025  139.4284  159.5067 H   0  0  0  0  0  0  0  0  0  0  0  0
  154.1180  139.2952  157.3004 H   0  0  0  0  0  0  0  0  0  0  0  0
  153.7150  138.0259  158.4310 H   0  0  0  0  0  0  0  0  0  0  0  0
  151.6076  137.7066  157.3862 H   0  0  0  0  0  0  0  0  0  0  0  0
  151.0694  137.6381  154.1913 H   0  0  0  0  0  0  0  0  0  0  0  0
  150.2228  137.6336  155.7329 H   0  0  0  0  0  0  0  0  0  0  0  0
  148.0966  138.5069  154.0123 H   0  0  0  0  0  0  0  0  0  0  0  0
  154.2782  139.7260  160.4145 H   0  0  0  0  0  0  0  0  0  0  0  0
  154.6411  140.9268  159.1967 H   0  0  0  0  0  0  0  0  0  0  0  0
  154.0708  141.9973  161.3099 H   0  0  0  0  0  0  0  0  0  0  0  0
  152.5423  141.1553  161.4090 H   0  0  0  0  0  0  0  0  0  0  0  0
  1  2  1  0  0  0  0
  1 21  1  0  0  0  0
  1 22  1  0  0  0  0
  1 23  1  0  0  0  0
  2  3  1  0  0  0  0
  3  4  1  0  0  0  0
  3 24  1  0  0  0  0
  3 25  1  0  0  0  0
  4  5  1  0  0  0  0
  4 26  1  0  0  0  0
  4 27  1  0  0  0  0
  5 20  1  0  0  0  0
  5  6  1  0  0  0  0
  6  7  1  0  0  0  0
  6 28  1  0  0  0  0
  6 29  1  0  0  0  0
  7  8  1  0  0  0  0
  7 30  1  0  0  0  0
  7 31  1  0  0  0  0
  8  9  1  0  0  0  0
  8 19  1  0  0  0  0
  8 32  1  0  0  0  0
  9 10  1  0  0  0  0
  9 33  1  0  0  0  0
  9 34  1  0  0  0  0
 10 11  1  0  0  0  0
 10 35  1  0  0  0  0
 11 12  2  0  0  0  0
 11 13  1  0  0  0  0
 13 14  1  0  0  0  0
 13 36  1  0  0  0  0
 13 37  1  0  0  0  0
 14 18  1  0  0  0  0
 14 15  1  0  0  0  0
 15 16  2  0  0  0  0
 15 38  1  0  0  0  0
 16 17  1  0  0  0  0
 17 18  2  0  0  0  0
 19 20  1  0  0  0  0
 19 39  1  0  0  0  0
 19 40  1  0  0  0  0
 20 41  1  0  0  0  0
 20 42  1  0  0  0  0
M  END
> <s_m_source_file>
AV-unprocessed.smi

> <i_m_source_file_index>
1015

> <i_lp_mmshare_version>
43012

> <i_f3d_flags>
0

> <s_epik_input>
W0NIM11PW0NIMl1bQ0gyXU4xW0NIMl1bQ0gyXVtDSF0oW0NIMl1bQ0gyXTEpW0NIMl1bTkhdQyg9TylbQ0gyXW4yW2NIXW5ubjI=

> <s_epik_cmdline>
J2VwaWtfcHl0aG9uJywgJy1waCcsICc3LjAnLCAnLXRuJywgJzgnLCAnLW1hJywgJzIwMCcsICctbWV0YWxfYmluZGluZycsICctaW1hZScsICc8aW5maWxlLm1hZT4nLCAnLW9tYWUnLCAnPG91dGZpbGUubWFlPic=

> <r_lp_tautomer_probability>
1

> <r_epik_Ionization_Penalty>
2.39972

> <r_epik_Ionization_Penalty_Charging>
0

> <r_epik_Ionization_Penalty_Neutral>
2.39972

> <r_epik_State_Penalty>
2.55755

> <r_epik_Charging_Adjusted_Penalty>
2.55755

> <i_epik_Tot_Q>
0

> <i_epik_Tot_abs_Q>
0

> <r_epik_Metal_State_Penalty>
2.55755

> <b_epik_Metal_Only>
0

> <s_lp_Force_Field>
OPLS_2005

> <r_lp_Energy>
27.1713

> <b_lp_Chiralities_Consistent>
1

> <s_lp_Variant>
AV-unprocessed.smi:1015-3

> <Gold.Version>
5.8.1

> <Gold.Id.Protein>
6NUR|6NUR_protein|mol2

> <Gold.PLP.Fitness>
46.9263

> <Gold.PLP.PLP>
-39.9750

> <Gold.PLP.part.hbond>
-5.4204

> <Gold.PLP.part.metal>
0.0000

> <Gold.PLP.part.buried>
-5.2993

> <Gold.PLP.part.nonpolar>
-29.9234

> <Gold.PLP.part.repulsive>
1.4602

> <Gold.PLP.ligand.clash>
0.0000

> <Gold.PLP.ligand.torsion>
0.4694

> <Gold.PLP.Chemscore.Hbond>
2.6023

> <Gold.PLP.Chemscore.CHOScore>
0.0000

> <Gold.PLP.Chemscore.Metal>
0.0000

> <Gold.Chemscore.Hbonds>
donor molecule, donor type, donor heavy atom, donor atom, acceptor molecule, acceptor atom, score
      P1  H  7989  7998       L1    18  0.91
      P1  H  7997  8009       L1    12  1.00
      P1  H  8011  8017       L1    17  0.70

> <Gold.PLP.Chemscore.Internal.Correction>
0.0831

> <Gold.Rescore>
     Score         DG    S(hbond)    S(metal)    S(lipo)     H(rot)  DE(clash)    DE(int)     intcor
     10.39     -14.54       2.05        0.00      87.08       3.12       0.51       3.64       ----

> <Gold.Chemscore.Fitness>
10.3900

> <Gold.Chemscore.DG>
-14.5368

> <Gold.Chemscore.ZeroCoef>
-5.4800

> <Gold.Chemscore.Hbond>
2.0527

> <Gold.Chemscore.Metal>
0.0000

> <Gold.Chemscore.Lipo>
87.0786

> <Gold.Chemscore.Internal_Hbond>
0.0000

> <Gold.Chemscore.DEClash>
0.5067

> <Gold.Chemscore.DEInternal>
3.6402

> <Gold.Chemscore.Rot>
3.1201

> <Gold.Chemscore.Internal.Correction>
   9.000000E+99

> <Gold.Chemscore.Hbonds>
donor molecule, donor type, donor heavy atom, donor atom, acceptor molecule, acceptor atom, score
      P1  H  7989  7998       L1    18  0.27
      P1  H  7997  8009       L1    12  0.94
      P1  H  8011  8017       L1    17  0.28

> <Gold.Chemscore.Hbond.Weighted>
-6.8560

> <Gold.Chemscore.Metal.Weighted>
-0.0000

> <Gold.Chemscore.Lipo.Weighted>
-10.1882

> <Gold.Chemscore.Internal_Hbond.Weighted>
0.0000

> <Gold.Chemscore.DEClash.Weighted>
0.5067

> <Gold.Chemscore.DEInternal.Weighted>
3.6402

> <Gold.Chemscore.Rot.Weighted>
7.9874

> <Gold.Chemscore.Internal.Correction.Weighted>
   9.000000E+99

> <Gold.Protein.RotatedTorsions>
[ 6907 6896 6895 6894 ] final -104.34 input  -60.11 | X-H torsion
[ 7974 7965 7964 7962 ] final -131.16 input  175.53 | X-H torsion
[ 8008 7997 7996 7995 ] final -149.23 input   59.86 | X-H torsion
[ 10167 10162 10161 10158 ] final  156.47 input  -65.29 | X-H torsion
[ 10718 10713 10712 10709 ] final   53.64 input   66.30 | X-H torsion
[ 10763 10752 10751 10750 ] final -115.27 input  -60.55 | X-H torsion
[ 11005 11000 10999 10996 ] final  -90.84 input  -57.11 | X-H torsion

> <Gold.Protein.ActiveResidues>
 VAL166  LYS551  ARG553  GLY616  TRP617  ASP618  TYR619  PRO620  LYS621  CYS622 
 ASP623  PHE694  ASN695  SER759  ASP760  ASP761  ALA762  ILE779  LEU786  VAL792 
 PHE793  MET794  SER795  GLU796  ALA797  LYS798  CYS799  TRP800  GLU811  SER814 

> <Gold.Protein.RotatedAtoms>
  150.7283  134.0292  159.3727 H   0  0  0  0  0  0  0  0  0  0  0  0  # atno 6907 bound_to 6896
  151.8260  135.0634  160.0440 H   0  0  0  0  0  0  0  0  0  0  0  0  # atno 6908 bound_to 6896
  152.2968  133.5580  159.5629 H   0  0  0  0  0  0  0  0  0  0  0  0  # atno 6909 bound_to 6896
  144.9406  140.7234  143.4849 H   0  0  0  0  0  0  0  0  0  0  0  0  # atno 7974 bound_to 7965
  155.6042  140.0665  157.2724 H   0  0  0  0  0  0  0  0  0  0  0  0  # atno 8008 bound_to 7997
  154.4270  140.1813  156.1252 H   0  0  0  0  0  0  0  0  0  0  0  0  # atno 8009 bound_to 7997
  156.0135  140.3324  155.6969 H   0  0  0  0  0  0  0  0  0  0  0  0  # atno 8010 bound_to 7997
  139.4821  144.5005  151.8175 H   0  0  0  0  0  0  0  0  0  0  0  0  # atno 10167 bound_to 10162
  157.5185  130.8549  149.8528 H   0  0  0  0  0  0  0  0  0  0  0  0  # atno 10718 bound_to 10713
  154.8474  135.4388  154.1636 H   0  0  0  0  0  0  0  0  0  0  0  0  # atno 10763 bound_to 10752
  153.2767  135.6950  153.7432 H   0  0  0  0  0  0  0  0  0  0  0  0  # atno 10764 bound_to 10752
  153.6652  135.3428  155.3113 H   0  0  0  0  0  0  0  0  0  0  0  0  # atno 10765 bound_to 10752
  141.1557  133.7717  156.9794 H   0  0  0  0  0  0  0  0  0  0  0  0  # atno 11005 bound_to 11000
  145.2997  139.1854  143.4696 LP  0  0  0  0  0  0  0  0  0  0  0  0  # atno 17320 bound_to 7965
  146.3284  140.2986  142.8619 LP  0  0  0  0  0  0  0  0  0  0  0  0  # atno 17321 bound_to 7965
  140.4498  144.1871  150.5896 LP  0  0  0  0  0  0  0  0  0  0  0  0  # atno 17342 bound_to 10162
  140.4596  143.2454  151.9237 LP  0  0  0  0  0  0  0  0  0  0  0  0  # atno 17343 bound_to 10162
  156.0337  130.3757  150.1618 LP  0  0  0  0  0  0  0  0  0  0  0  0  # atno 17370 bound_to 10713
  156.9806  130.9863  151.3438 LP  0  0  0  0  0  0  0  0  0  0  0  0  # atno 17371 bound_to 10713
  140.1076  134.9497  157.2017 LP  0  0  0  0  0  0  0  0  0  0  0  0  # atno 17394 bound_to 11000
  140.3236  134.2888  155.7241 LP  0  0  0  0  0  0  0  0  0  0  0  0  # atno 17395 bound_to 11000

$$$$
