AV-unprocessed.smi:1554|AV-procd|sdf|6245|dock9
  -GOLD-   22720 6423D 1   1.00000     0.00000
 Structure written by MMmdl.
 48 50  0  0  0  0  0  0  0  0  2 V2000
  151.9874  144.0866  159.0868 C   0  0  0  0  0  0  0  0  0  0  0  0
  151.7856  142.7594  158.3769 C   0  0  0  0  0  0  0  0  0  0  0  0
  151.0265  142.7260  157.1854 C   0  0  0  0  0  0  0  0  0  0  0  0
  150.8179  141.5130  156.4930 C   0  0  0  0  0  0  0  0  0  0  0  0
  150.1211  141.2525  155.3254 N   0  0  0  0  0  0  0  0  0  0  0  0
  150.2959  139.9408  155.1957 C   0  0  0  0  0  0  0  0  0  0  0  0
  151.0257  139.3190  156.1417 N   0  0  0  0  0  0  0  0  0  0  0  0
  151.3518  137.9051  156.2040 C   0  0  0  0  0  0  0  0  0  0  0  0
  150.6499  137.0889  155.1010 C   0  0  1  0  0  0  0  0  0  0  0  0
  151.6136  136.6079  154.1829 O   0  0  0  0  0  0  0  0  0  0  0  0
  149.8769  135.8868  155.6783 C   0  0  0  0  0  0  0  0  0  0  0  0
  149.2141  135.0805  154.6214 N   0  3  1  0  0  0  0  0  0  0  0  0
  149.8876  133.7822  154.3848 C   0  0  0  0  0  0  0  0  0  0  0  0
  149.2032  133.0270  153.2336 C   0  0  0  0  0  0  0  0  0  0  0  0
  147.8239  132.8504  153.5324 O   0  0  0  0  0  0  0  0  0  0  0  0
  147.1396  134.0903  153.6775 C   0  0  1  0  0  0  0  0  0  0  0  0
  145.6535  133.7932  153.9056 C   0  0  0  0  0  0  0  0  0  0  0  0
  147.7622  134.8748  154.8489 C   0  0  0  0  0  0  0  0  0  0  0  0
  151.3939  140.3244  157.0300 C   0  0  0  0  0  0  0  0  0  0  0  0
  152.1497  140.3447  158.2157 C   0  0  0  0  0  0  0  0  0  0  0  0
  152.3486  141.5651  158.8944 C   0  0  0  0  0  0  0  0  0  0  0  0
  153.1660  141.5760  160.1741 C   0  0  0  0  0  0  0  0  0  0  0  0
  151.4861  144.9002  158.5613 H   0  0  0  0  0  0  0  0  0  0  0  0
  153.0484  144.3307  159.1449 H   0  0  0  0  0  0  0  0  0  0  0  0
  151.5851  144.0438  160.0992 H   0  0  0  0  0  0  0  0  0  0  0  0
  150.5973  143.6354  156.7910 H   0  0  0  0  0  0  0  0  0  0  0  0
  149.8707  139.3995  154.3632 H   0  0  0  0  0  0  0  0  0  0  0  0
  152.4348  137.7940  156.1361 H   0  0  0  0  0  0  0  0  0  0  0  0
  151.0634  137.5326  157.1878 H   0  0  0  0  0  0  0  0  0  0  0  0
  149.9715  137.7505  154.5626 H   0  0  0  0  0  0  0  0  0  0  0  0
  151.1799  136.3971  153.3698 H   0  0  0  0  0  0  0  0  0  0  0  0
  150.5762  135.2607  156.2351 H   0  0  0  0  0  0  0  0  0  0  0  0
  149.1292  136.2210  156.3993 H   0  0  0  0  0  0  0  0  0  0  0  0
  150.9376  133.9471  154.1393 H   0  0  0  0  0  0  0  0  0  0  0  0
  149.8601  133.1827  155.2962 H   0  0  0  0  0  0  0  0  0  0  0  0
  149.3180  133.5650  152.2910 H   0  0  0  0  0  0  0  0  0  0  0  0
  149.6637  132.0482  153.0990 H   0  0  0  0  0  0  0  0  0  0  0  0
  147.2400  134.6653  152.7551 H   0  0  0  0  0  0  0  0  0  0  0  0
  145.0808  134.7145  154.0142 H   0  0  0  0  0  0  0  0  0  0  0  0
  145.5036  133.1972  154.8064 H   0  0  0  0  0  0  0  0  0  0  0  0
  145.2334  133.2388  153.0660 H   0  0  0  0  0  0  0  0  0  0  0  0
  147.6136  134.3333  155.7848 H   0  0  0  0  0  0  0  0  0  0  0  0
  147.2547  135.8334  154.9518 H   0  0  0  0  0  0  0  0  0  0  0  0
  152.5744  139.4290  158.5988 H   0  0  0  0  0  0  0  0  0  0  0  0
  153.5520  140.5834  160.4081 H   0  0  0  0  0  0  0  0  0  0  0  0
  152.5533  141.9042  161.0141 H   0  0  0  0  0  0  0  0  0  0  0  0
  154.0169  142.2510  160.0805 H   0  0  0  0  0  0  0  0  0  0  0  0
  149.3081  135.6072  153.7641 H   0  0  0  0  0  0  0  0  0  0  0  0
  1  2  1  0  0  0  0
  1 23  1  0  0  0  0
  1 24  1  0  0  0  0
  1 25  1  0  0  0  0
  2 21  1  0  0  0  0
  2  3  2  0  0  0  0
  3  4  1  0  0  0  0
  3 26  1  0  0  0  0
  4 19  2  0  0  0  0
  4  5  1  0  0  0  0
  5  6  2  0  0  0  0
  6  7  1  0  0  0  0
  6 27  1  0  0  0  0
  7  8  1  0  0  0  0
  7 19  1  0  0  0  0
  8  9  1  0  0  0  0
  8 28  1  0  0  0  0
  8 29  1  0  0  0  0
  9 10  1  0  0  0  0
  9 11  1  0  0  0  0
  9 30  1  0  0  0  0
 10 31  1  0  0  0  0
 11 12  1  0  0  0  0
 11 32  1  0  0  0  0
 11 33  1  0  0  0  0
 12 18  1  0  0  0  0
 12 13  1  0  0  0  0
 12 48  1  0  0  0  0
 13 14  1  0  0  0  0
 13 34  1  0  0  0  0
 13 35  1  0  0  0  0
 14 15  1  0  0  0  0
 14 36  1  0  0  0  0
 14 37  1  0  0  0  0
 15 16  1  0  0  0  0
 16 17  1  0  0  0  0
 16 18  1  0  0  0  0
 16 38  1  0  0  0  0
 17 39  1  0  0  0  0
 17 40  1  0  0  0  0
 17 41  1  0  0  0  0
 18 42  1  0  0  0  0
 18 43  1  0  0  0  0
 19 20  1  0  0  0  0
 20 21  2  0  0  0  0
 20 44  1  0  0  0  0
 21 22  1  0  0  0  0
 22 45  1  0  0  0  0
 22 46  1  0  0  0  0
 22 47  1  0  0  0  0
M  CHG  1  12   1
M  END
> <s_m_source_file>
AV-unprocessed.smi

> <i_m_source_file_index>
1554

> <i_lp_mmshare_version>
43012

> <i_f3d_flags>
0

> <s_epik_input>
W0NIM11jKFtjSF0xKWMoW0NIM10pW2NIXWMoYzEyKW4oW2NIXW4yKVtDSDJdW0NASF0oW09IXSlbQ0gyXU4zW0NIMl1bQ0gyXU9bQ0BASF0oW0NIM10pW0NIMl0z

> <s_epik_cmdline>
J2VwaWtfcHl0aG9uJywgJy1waCcsICc3LjAnLCAnLXRuJywgJzgnLCAnLW1hJywgJzIwMCcsICctbWV0YWxfYmluZGluZycsICctaW1hZScsICc8aW5maWxlLm1hZT4nLCAnLW9tYWUnLCAnPG91dGZpbGUubWFlPic=

> <r_epik_Ionization_Penalty>
0.695251

> <r_epik_Ionization_Penalty_Charging>
0.608065

> <r_epik_Ionization_Penalty_Neutral>
0.0871863

> <r_epik_State_Penalty>
0.731955

> <r_epik_Charging_Adjusted_Penalty>
1.34002

> <i_epik_Tot_Q>
1

> <i_epik_Tot_abs_Q>
1

> <r_epik_Metal_State_Penalty>
0.652186

> <b_epik_Metal_Only>
0

> <s_lp_Force_Field>
OPLS_2005

> <r_lp_Energy>
21.5252

> <b_lp_Chiralities_Consistent>
1

> <s_lp_Variant>
AV-unprocessed.smi:1554-6

> <Gold.Version>
5.8.1

> <Gold.Id.Protein>
6NUR|6NUR_protein|mol2

> <Gold.PLP.Fitness>
49.7112

> <Gold.PLP.PLP>
-40.5837

> <Gold.PLP.part.hbond>
-4.0000

> <Gold.PLP.part.metal>
0.0000

> <Gold.PLP.part.buried>
-4.5930

> <Gold.PLP.part.nonpolar>
-32.1376

> <Gold.PLP.part.repulsive>
0.2320

> <Gold.PLP.ligand.clash>
0.0000

> <Gold.PLP.ligand.torsion>
1.4476

> <Gold.PLP.Chemscore.Hbond>
4.0000

> <Gold.PLP.Chemscore.CHOScore>
0.0000

> <Gold.PLP.Chemscore.Metal>
0.0000

> <Gold.Chemscore.Hbonds>
donor molecule, donor type, donor heavy atom, donor atom, acceptor molecule, acceptor atom, score
      L1  H    10    31       P1  7949  1.00
      L1  H    12    48       P1  7948  2.00
      P1  H 10752 10765       L1    10  1.00

> <Gold.PLP.Chemscore.Internal.Correction>
0.0227

> <Gold.Rescore>
     Score         DG    S(hbond)    S(metal)    S(lipo)     H(rot)  DE(clash)    DE(int)     intcor
     18.63     -20.07       2.15        0.00     108.16       2.05       0.04       1.40       ----

> <Gold.Chemscore.Fitness>
18.6259

> <Gold.Chemscore.DG>
-20.0688

> <Gold.Chemscore.ZeroCoef>
-5.4800

> <Gold.Chemscore.Hbond>
2.1538

> <Gold.Chemscore.Metal>
0.0000

> <Gold.Chemscore.Lipo>
108.1620

> <Gold.Chemscore.Internal_Hbond>
0.0000

> <Gold.Chemscore.DEClash>
0.0404

> <Gold.Chemscore.DEInternal>
1.4025

> <Gold.Chemscore.Rot>
2.0546

> <Gold.Chemscore.Internal.Correction>
   9.000000E+99

> <Gold.Chemscore.Hbonds>
donor molecule, donor type, donor heavy atom, donor atom, acceptor molecule, acceptor atom, score
      L1  H    10    31       P1  7949  0.43
      L1  H    12    48       P1  7948  0.48
      P1  H 10752 10765       L1    10  0.45

> <Gold.Chemscore.Hbond.Weighted>
-7.1935

> <Gold.Chemscore.Metal.Weighted>
-0.0000

> <Gold.Chemscore.Lipo.Weighted>
-12.6550

> <Gold.Chemscore.Internal_Hbond.Weighted>
0.0000

> <Gold.Chemscore.DEClash.Weighted>
0.0404

> <Gold.Chemscore.DEInternal.Weighted>
1.4025

> <Gold.Chemscore.Rot.Weighted>
5.2597

> <Gold.Chemscore.Internal.Correction.Weighted>
   9.000000E+99

> <Gold.Protein.RotatedTorsions>
[ 6907 6896 6895 6894 ] final   68.33 input  -60.11 | X-H torsion
[ 7974 7965 7964 7962 ] final  157.90 input  175.53 | X-H torsion
[ 8008 7997 7996 7995 ] final -120.69 input   59.86 | X-H torsion
[ 10167 10162 10161 10158 ] final  -48.85 input  -65.29 | X-H torsion
[ 10718 10713 10712 10709 ] final  176.23 input   66.30 | X-H torsion
[ 10763 10752 10751 10750 ] final  153.50 input  -60.55 | X-H torsion
[ 11005 11000 10999 10996 ] final   25.61 input  -57.11 | X-H torsion

> <Gold.Protein.ActiveResidues>
 VAL166  LYS551  ARG553  GLY616  TRP617  ASP618  TYR619  PRO620  LYS621  CYS622 
 ASP623  PHE694  ASN695  SER759  ASP760  ASP761  ALA762  ILE779  LEU786  VAL792 
 PHE793  MET794  SER795  GLU796  ALA797  LYS798  CYS799  TRP800  GLU811  SER814 

> <Gold.Protein.RotatedAtoms>
  152.4613  134.5178  159.9773 H   0  0  0  0  0  0  0  0  0  0  0  0  # atno 6907 bound_to 6896
  151.5227  133.3458  159.2912 H   0  0  0  0  0  0  0  0  0  0  0  0  # atno 6908 bound_to 6896
  150.8577  134.7950  159.7120 H   0  0  0  0  0  0  0  0  0  0  0  0  # atno 6909 bound_to 6896
  144.7877  139.7404  143.6234 H   0  0  0  0  0  0  0  0  0  0  0  0  # atno 7974 bound_to 7965
  155.1359  140.0401  157.2786 H   0  0  0  0  0  0  0  0  0  0  0  0  # atno 8008 bound_to 7997
  154.6508  140.2569  155.7189 H   0  0  0  0  0  0  0  0  0  0  0  0  # atno 8009 bound_to 7997
  156.2576  140.2836  156.0941 H   0  0  0  0  0  0  0  0  0  0  0  0  # atno 8010 bound_to 7997
  140.6712  143.2722  151.4130 H   0  0  0  0  0  0  0  0  0  0  0  0  # atno 10167 bound_to 10162
  156.9232  130.9947  151.3001 H   0  0  0  0  0  0  0  0  0  0  0  0  # atno 10718 bound_to 10713
  154.1371  135.2823  155.3170 H   0  0  0  0  0  0  0  0  0  0  0  0  # atno 10763 bound_to 10752
  154.6313  135.5434  153.7687 H   0  0  0  0  0  0  0  0  0  0  0  0  # atno 10764 bound_to 10752
  153.0262  135.6463  154.1520 H   0  0  0  0  0  0  0  0  0  0  0  0  # atno 10765 bound_to 10752
  140.3460  134.2281  155.7685 H   0  0  0  0  0  0  0  0  0  0  0  0  # atno 11005 bound_to 11000
  146.2115  139.5475  142.9678 LP  0  0  0  0  0  0  0  0  0  0  0  0  # atno 17320 bound_to 7965
  145.5878  141.0374  143.2086 LP  0  0  0  0  0  0  0  0  0  0  0  0  # atno 17321 bound_to 7965
  139.5981  144.1353  152.2167 LP  0  0  0  0  0  0  0  0  0  0  0  0  # atno 17342 bound_to 10162
  140.0729  144.5764  150.7179 LP  0  0  0  0  0  0  0  0  0  0  0  0  # atno 17343 bound_to 10162
  157.5894  130.8433  149.8637 LP  0  0  0  0  0  0  0  0  0  0  0  0  # atno 17370 bound_to 10713
  156.0481  130.3723  150.1267 LP  0  0  0  0  0  0  0  0  0  0  0  0  # atno 17371 bound_to 10713
  141.2025  133.7935  157.0386 LP  0  0  0  0  0  0  0  0  0  0  0  0  # atno 17394 bound_to 11000
  140.0742  134.9685  157.1517 LP  0  0  0  0  0  0  0  0  0  0  0  0  # atno 17395 bound_to 11000

$$$$
