AV-unprocessed.smi:710|AV-procd|sdf|3462|dock10
  -GOLD-   22720 0453D 1   1.00000     0.00000
 Structure written by MMmdl.
 40 41  0  0  0  0  0  0  0  0  1 V2000
  151.9325  145.0849  159.9196 C   0  0  0  0  0  0  0  0  0  0  0  0
  152.4755  143.6854  159.9714 C   0  0  0  0  0  0  0  0  0  0  0  0
  153.0612  143.2560  161.0769 N   0  0  0  0  0  0  0  0  0  0  0  0
  153.4215  141.9858  160.8043 N   0  0  0  0  0  0  0  0  0  0  0  0
  154.0943  141.2032  161.8226 C   0  0  0  0  0  0  0  0  0  0  0  0
  153.0691  141.6143  159.5214 C   0  0  0  0  0  0  0  0  0  0  0  0
  153.3543  140.2492  158.9818 C   0  0  0  0  0  0  0  0  0  0  0  0
  152.4500  142.6935  158.9477 C   0  0  0  0  0  0  0  0  0  0  0  0
  151.8627  142.8244  157.5639 C   0  0  0  0  0  0  0  0  0  0  0  0
  150.7650  141.7790  157.3601 C   0  0  0  0  0  0  0  0  0  0  0  0
  149.7275  141.8329  158.0196 O   0  0  0  0  0  0  0  0  0  0  0  0
  151.0072  140.8347  156.4404 N   0  0  0  0  0  0  0  0  0  0  0  0
  150.1119  139.7322  156.1167 C   0  0  0  0  0  0  0  0  0  0  0  0
  149.3111  140.0148  154.8274 C   0  0  1  0  0  0  0  0  0  0  0  0
  150.2103  139.9380  153.7346 O   0  0  0  0  0  0  0  0  0  0  0  0
  148.2095  138.9685  154.5911 C   0  0  0  0  0  0  0  0  0  0  0  0
  147.2940  139.4915  153.4789 C   0  0  0  0  0  0  0  0  0  0  0  0
  147.2409  141.2967  153.6136 S   0  0  0  0  0  0  0  0  0  0  0  0
  148.6005  141.3805  154.8098 C   0  0  0  0  0  0  0  0  0  0  0  0
  150.9316  145.0989  159.4877 H   0  0  0  0  0  0  0  0  0  0  0  0
  152.5672  145.7254  159.3070 H   0  0  0  0  0  0  0  0  0  0  0  0
  151.8684  145.5316  160.9126 H   0  0  0  0  0  0  0  0  0  0  0  0
  153.5732  140.2554  161.9615 H   0  0  0  0  0  0  0  0  0  0  0  0
  154.1086  141.7382  162.7734 H   0  0  0  0  0  0  0  0  0  0  0  0
  155.1205  141.0047  161.5126 H   0  0  0  0  0  0  0  0  0  0  0  0
  153.1759  140.2021  157.9080 H   0  0  0  0  0  0  0  0  0  0  0  0
  152.7151  139.5061  159.4590 H   0  0  0  0  0  0  0  0  0  0  0  0
  154.3925  139.9677  159.1580 H   0  0  0  0  0  0  0  0  0  0  0  0
  151.4418  143.8181  157.4062 H   0  0  0  0  0  0  0  0  0  0  0  0
  152.6211  142.6953  156.7912 H   0  0  0  0  0  0  0  0  0  0  0  0
  151.8908  140.8625  155.9527 H   0  0  0  0  0  0  0  0  0  0  0  0
  150.6775  138.8030  156.0248 H   0  0  0  0  0  0  0  0  0  0  0  0
  149.4256  139.6011  156.9550 H   0  0  0  0  0  0  0  0  0  0  0  0
  149.7312  140.1175  152.9400 H   0  0  0  0  0  0  0  0  0  0  0  0
  148.6144  137.9838  154.3530 H   0  0  0  0  0  0  0  0  0  0  0  0
  147.6194  138.8543  155.5015 H   0  0  0  0  0  0  0  0  0  0  0  0
  147.7053  139.2358  152.5019 H   0  0  0  0  0  0  0  0  0  0  0  0
  146.2925  139.0649  153.5381 H   0  0  0  0  0  0  0  0  0  0  0  0
  148.1606  141.5834  155.7869 H   0  0  0  0  0  0  0  0  0  0  0  0
  149.2745  142.2062  154.5781 H   0  0  0  0  0  0  0  0  0  0  0  0
  1  2  1  0  0  0  0
  1 20  1  0  0  0  0
  1 21  1  0  0  0  0
  1 22  1  0  0  0  0
  2  8  1  0  0  0  0
  2  3  2  0  0  0  0
  3  4  1  0  0  0  0
  4  5  1  0  0  0  0
  4  6  1  0  0  0  0
  5 23  1  0  0  0  0
  5 24  1  0  0  0  0
  5 25  1  0  0  0  0
  6  7  1  0  0  0  0
  6  8  2  0  0  0  0
  7 26  1  0  0  0  0
  7 27  1  0  0  0  0
  7 28  1  0  0  0  0
  8  9  1  0  0  0  0
  9 10  1  0  0  0  0
  9 29  1  0  0  0  0
  9 30  1  0  0  0  0
 10 11  2  0  0  0  0
 10 12  1  0  0  0  0
 12 13  1  0  0  0  0
 12 31  1  0  0  0  0
 13 14  1  0  0  0  0
 13 32  1  0  0  0  0
 13 33  1  0  0  0  0
 14 19  1  0  0  0  0
 14 15  1  0  0  0  0
 14 16  1  0  0  0  0
 15 34  1  0  0  0  0
 16 17  1  0  0  0  0
 16 35  1  0  0  0  0
 16 36  1  0  0  0  0
 17 18  1  0  0  0  0
 17 37  1  0  0  0  0
 17 38  1  0  0  0  0
 18 19  1  0  0  0  0
 19 39  1  0  0  0  0
 19 40  1  0  0  0  0
M  END
> <s_m_source_file>
AV-unprocessed.smi

> <i_m_source_file_index>
710

> <i_lp_mmshare_version>
43012

> <i_f3d_flags>
0

> <s_epik_input>
W0NIM11jMW5uKFtDSDNdKWMoW0NIM10pYzFbQ0gyXUMoPU8pW05IXVtDSDJdW0NAQF0yKFtPSF0pW0NIMl1bQ0gyXVNbQ0gyXTI=

> <s_epik_cmdline>
J2VwaWtfcHl0aG9uJywgJy1waCcsICc3LjAnLCAnLXRuJywgJzgnLCAnLW1hJywgJzIwMCcsICctbWV0YWxfYmluZGluZycsICctaW1hZScsICc8aW5maWxlLm1hZT4nLCAnLW9tYWUnLCAnPG91dGZpbGUubWFlPic=

> <r_lp_tautomer_probability>
1

> <r_epik_Ionization_Penalty>
0.00343686

> <r_epik_Ionization_Penalty_Charging>
0

> <r_epik_Ionization_Penalty_Neutral>
0.00343686

> <r_epik_State_Penalty>
0.00243544

> <r_epik_Charging_Adjusted_Penalty>
0.00243544

> <i_epik_Tot_Q>
0

> <i_epik_Tot_abs_Q>
0

> <r_epik_Metal_State_Penalty>
-0

> <b_epik_Metal_Only>
0

> <s_lp_Force_Field>
OPLS_2005

> <r_lp_Energy>
10.7161

> <b_lp_Chiralities_Consistent>
1

> <s_lp_Variant>
AV-unprocessed.smi:710-1

> <Gold.Version>
5.8.1

> <Gold.Id.Protein>
6NUR|6NUR_protein|mol2

> <Gold.PLP.Fitness>
48.4486

> <Gold.PLP.PLP>
-43.3737

> <Gold.PLP.part.hbond>
-1.9714

> <Gold.PLP.part.metal>
0.0000

> <Gold.PLP.part.buried>
-4.8865

> <Gold.PLP.part.nonpolar>
-36.1492

> <Gold.PLP.part.repulsive>
0.3112

> <Gold.PLP.ligand.clash>
0.0000

> <Gold.PLP.ligand.torsion>
0.2408

> <Gold.PLP.Chemscore.Hbond>
1.8480

> <Gold.PLP.Chemscore.CHOScore>
0.0000

> <Gold.PLP.Chemscore.Metal>
0.0000

> <Gold.Chemscore.Hbonds>
donor molecule, donor type, donor heavy atom, donor atom, acceptor molecule, acceptor atom, score
      L1  H    15    34       P1  7957  0.99
      P1  H  7989  7998       L1    15  0.86

> <Gold.PLP.Chemscore.Internal.Correction>
0.0125

> <Gold.Rescore>
     Score         DG    S(hbond)    S(metal)    S(lipo)     H(rot)  DE(clash)    DE(int)     intcor
     17.26     -17.67       1.33        0.00     111.60       2.07       0.03       0.38       ----

> <Gold.Chemscore.Fitness>
17.2554

> <Gold.Chemscore.DG>
-17.6664

> <Gold.Chemscore.ZeroCoef>
-5.4800

> <Gold.Chemscore.Hbond>
1.3297

> <Gold.Chemscore.Metal>
0.0000

> <Gold.Chemscore.Lipo>
111.5989

> <Gold.Chemscore.Internal_Hbond>
0.0000

> <Gold.Chemscore.DEClash>
0.0325

> <Gold.Chemscore.DEInternal>
0.3784

> <Gold.Chemscore.Rot>
2.0750

> <Gold.Chemscore.Internal.Correction>
   9.000000E+99

> <Gold.Chemscore.Hbonds>
donor molecule, donor type, donor heavy atom, donor atom, acceptor molecule, acceptor atom, score
      L1  H    15    34       P1  7957  0.93
      P1  H  7989  7998       L1    15  0.22

> <Gold.Chemscore.Hbond.Weighted>
-4.4413

> <Gold.Chemscore.Metal.Weighted>
-0.0000

> <Gold.Chemscore.Lipo.Weighted>
-13.0571

> <Gold.Chemscore.Internal_Hbond.Weighted>
0.0000

> <Gold.Chemscore.DEClash.Weighted>
0.0325

> <Gold.Chemscore.DEInternal.Weighted>
0.3784

> <Gold.Chemscore.Rot.Weighted>
5.3120

> <Gold.Chemscore.Internal.Correction.Weighted>
   9.000000E+99

> <Gold.Protein.RotatedTorsions>
[ 6907 6896 6895 6894 ] final  145.38 input  -60.11 | X-H torsion
[ 7974 7965 7964 7962 ] final -147.77 input  175.53 | X-H torsion
[ 8008 7997 7996 7995 ] final  166.98 input   59.86 | X-H torsion
[ 10167 10162 10161 10158 ] final   97.78 input  -65.29 | X-H torsion
[ 10718 10713 10712 10709 ] final  158.76 input   66.30 | X-H torsion
[ 10763 10752 10751 10750 ] final -117.53 input  -60.55 | X-H torsion
[ 11005 11000 10999 10996 ] final  -95.01 input  -57.11 | X-H torsion

> <Gold.Protein.ActiveResidues>
 VAL166  LYS551  ARG553  GLY616  TRP617  ASP618  TYR619  PRO620  LYS621  CYS622 
 ASP623  PHE694  ASN695  SER759  ASP760  ASP761  ALA762  ILE779  LEU786  VAL792 
 PHE793  MET794  SER795  GLU796  ALA797  LYS798  CYS799  TRP800  GLU811  SER814 

> <Gold.Protein.RotatedAtoms>
  152.1816  133.4711  159.4960 H   0  0  0  0  0  0  0  0  0  0  0  0  # atno 6907 bound_to 6896
  150.6935  134.1826  159.4263 H   0  0  0  0  0  0  0  0  0  0  0  0  # atno 6908 bound_to 6896
  151.9738  135.0063  160.0605 H   0  0  0  0  0  0  0  0  0  0  0  0  # atno 6909 bound_to 6896
  144.8072  140.5283  143.5667 H   0  0  0  0  0  0  0  0  0  0  0  0  # atno 7974 bound_to 7965
  156.1673  140.1629  156.8509 H   0  0  0  0  0  0  0  0  0  0  0  0  # atno 8008 bound_to 7997
  154.5220  140.0776  156.8224 H   0  0  0  0  0  0  0  0  0  0  0  0  # atno 8009 bound_to 7997
  155.3586  140.3394  155.4242 H   0  0  0  0  0  0  0  0  0  0  0  0  # atno 8010 bound_to 7997
  139.7770  144.6902  151.0076 H   0  0  0  0  0  0  0  0  0  0  0  0  # atno 10167 bound_to 10162
  157.1735  131.0615  151.2170 H   0  0  0  0  0  0  0  0  0  0  0  0  # atno 10718 bound_to 10713
  154.8558  135.4306  154.1994 H   0  0  0  0  0  0  0  0  0  0  0  0  # atno 10763 bound_to 10752
  153.3044  135.6971  153.7179 H   0  0  0  0  0  0  0  0  0  0  0  0  # atno 10764 bound_to 10752
  153.6296  135.3487  155.3011 H   0  0  0  0  0  0  0  0  0  0  0  0  # atno 10765 bound_to 10752
  141.1454  133.7996  157.0377 H   0  0  0  0  0  0  0  0  0  0  0  0  # atno 11005 bound_to 11000
  145.5411  139.1475  143.3446 LP  0  0  0  0  0  0  0  0  0  0  0  0  # atno 17320 bound_to 7965
  146.2365  140.5550  142.8953 LP  0  0  0  0  0  0  0  0  0  0  0  0  # atno 17321 bound_to 7965
  140.7817  143.4525  151.0392 LP  0  0  0  0  0  0  0  0  0  0  0  0  # atno 17342 bound_to 10162
  139.8207  143.7824  152.3176 LP  0  0  0  0  0  0  0  0  0  0  0  0  # atno 17343 bound_to 10162
  157.4020  130.7339  149.6774 LP  0  0  0  0  0  0  0  0  0  0  0  0  # atno 17370 bound_to 10713
  155.9735  130.4118  150.4000 LP  0  0  0  0  0  0  0  0  0  0  0  0  # atno 17371 bound_to 10713
  140.0713  134.9701  157.1472 LP  0  0  0  0  0  0  0  0  0  0  0  0  # atno 17394 bound_to 11000
  140.3707  134.2393  155.7178 LP  0  0  0  0  0  0  0  0  0  0  0  0  # atno 17395 bound_to 11000

$$$$
