AV-unprocessed.smi:2281|AV-procd|sdf|9194|dock4
  -GOLD-   2272012413D 1   1.00000     0.00000
 Structure written by MMmdl.
 40 41  0  0  0  0  0  0  0  0  1 V2000
  152.3430  143.5783  161.4740 C   0  0  0  0  0  0  0  0  0  0  0  0
  152.0809  142.9294  160.1266 C   0  0  0  0  0  0  0  0  0  0  0  0
  151.0463  143.4933  159.3756 N   0  0  0  0  0  0  0  0  0  0  0  0
  150.7671  143.0201  158.2056 C   0  0  0  0  0  0  0  0  0  0  0  0
  151.4818  141.9414  157.6522 N   0  0  0  0  0  0  0  0  0  0  0  0
  151.0914  141.4996  156.2957 C   0  0  0  0  0  0  0  0  0  0  0  0
  149.8774  140.5220  156.2478 C   0  0  2  0  0  0  0  0  0  0  0  0
  149.6540  139.8920  157.6391 C   0  0  0  0  0  0  0  0  0  0  0  0
  150.2723  139.4066  155.4684 O   0  0  0  0  0  0  0  0  0  0  0  0
  148.5926  141.1812  155.7227 C   0  0  0  0  0  0  0  0  0  0  0  0
  148.4822  141.5954  154.3741 C   0  0  0  0  0  0  0  0  0  0  0  0
  147.3116  142.2260  153.9131 C   0  0  0  0  0  0  0  0  0  0  0  0
  146.2369  142.4527  154.7920 C   0  0  0  0  0  0  0  0  0  0  0  0
  146.3291  142.0495  156.1411 C   0  0  0  0  0  0  0  0  0  0  0  0
  145.1887  142.2951  157.1172 C   0  0  0  0  0  0  0  0  0  0  0  0
  144.7576  141.1327  157.6071 F   0  0  0  0  0  0  0  0  0  0  0  0
  145.6267  143.0495  158.1248 F   0  0  0  0  0  0  0  0  0  0  0  0
  144.1602  142.9144  156.5368 F   0  0  0  0  0  0  0  0  0  0  0  0
  147.5065  141.4204  156.5963 C   0  0  0  0  0  0  0  0  0  0  0  0
  152.4725  141.3037  158.3410 C   0  0  0  0  0  0  0  0  0  0  0  0
  153.0558  140.3223  157.8776 O   0  0  0  0  0  0  0  0  0  0  0  0
  152.7945  141.8682  159.6615 C   0  0  0  0  0  0  0  0  0  0  0  0
  153.9367  141.2169  160.4316 C   0  0  0  0  0  0  0  0  0  0  0  0
  152.2175  142.8530  162.2784 H   0  0  0  0  0  0  0  0  0  0  0  0
  151.6539  144.4035  161.6585 H   0  0  0  0  0  0  0  0  0  0  0  0
  153.3579  143.9745  161.5156 H   0  0  0  0  0  0  0  0  0  0  0  0
  149.9737  143.4320  157.5796 H   0  0  0  0  0  0  0  0  0  0  0  0
  150.9207  142.3603  155.6455 H   0  0  0  0  0  0  0  0  0  0  0  0
  151.9453  141.0004  155.8331 H   0  0  0  0  0  0  0  0  0  0  0  0
  149.4134  140.6371  158.3969 H   0  0  0  0  0  0  0  0  0  0  0  0
  150.5465  139.3697  157.9872 H   0  0  0  0  0  0  0  0  0  0  0  0
  148.8371  139.1689  157.6205 H   0  0  0  0  0  0  0  0  0  0  0  0
  151.1000  139.0881  155.7948 H   0  0  0  0  0  0  0  0  0  0  0  0
  149.2959  141.4472  153.6799 H   0  0  0  0  0  0  0  0  0  0  0  0
  147.2403  142.5405  152.8823 H   0  0  0  0  0  0  0  0  0  0  0  0
  145.3482  142.9421  154.4221 H   0  0  0  0  0  0  0  0  0  0  0  0
  147.5734  141.1376  157.6358 H   0  0  0  0  0  0  0  0  0  0  0  0
  154.8630  141.2899  159.8608 H   0  0  0  0  0  0  0  0  0  0  0  0
  153.7242  140.1604  160.5990 H   0  0  0  0  0  0  0  0  0  0  0  0
  154.1148  141.6726  161.4044 H   0  0  0  0  0  0  0  0  0  0  0  0
  1  2  1  0  0  0  0
  1 24  1  0  0  0  0
  1 25  1  0  0  0  0
  1 26  1  0  0  0  0
  2 22  2  0  0  0  0
  2  3  1  0  0  0  0
  3  4  2  0  0  0  0
  4  5  1  0  0  0  0
  4 27  1  0  0  0  0
  5  6  1  0  0  0  0
  5 20  1  0  0  0  0
  6  7  1  0  0  0  0
  6 28  1  0  0  0  0
  6 29  1  0  0  0  0
  7  8  1  0  0  0  0
  7  9  1  0  0  0  0
  7 10  1  0  0  0  0
  8 30  1  0  0  0  0
  8 31  1  0  0  0  0
  8 32  1  0  0  0  0
  9 33  1  0  0  0  0
 10 19  1  0  0  0  0
 10 11  2  0  0  0  0
 11 12  1  0  0  0  0
 11 34  1  0  0  0  0
 12 13  2  0  0  0  0
 12 35  1  0  0  0  0
 13 14  1  0  0  0  0
 13 36  1  0  0  0  0
 14 15  1  0  0  0  0
 14 19  2  0  0  0  0
 15 16  1  0  0  0  0
 15 17  1  0  0  0  0
 15 18  1  0  0  0  0
 19 37  1  0  0  0  0
 20 21  2  0  0  0  0
 20 22  1  0  0  0  0
 22 23  1  0  0  0  0
 23 38  1  0  0  0  0
 23 39  1  0  0  0  0
 23 40  1  0  0  0  0
M  END
> <s_m_source_file>
AV-unprocessed.smi

> <i_m_source_file_index>
2281

> <i_lp_mmshare_version>
43012

> <i_f3d_flags>
0

> <s_epik_input>
W0NIM11jMW5bY0hdbihjKD1PKWMxW0NIM10pW0NIMl1bQ0BAXShbQ0gzXSkoW09IXSljMltjSF1bY0hdW2NIXWMoQyhGKShGKUYpW2NIXTI=

> <s_epik_cmdline>
J2VwaWtfcHl0aG9uJywgJy1waCcsICc3LjAnLCAnLXRuJywgJzgnLCAnLW1hJywgJzIwMCcsICctbWV0YWxfYmluZGluZycsICctaW1hZScsICc8aW5maWxlLm1hZT4nLCAnLW9tYWUnLCAnPG91dGZpbGUubWFlPic=

> <r_lp_tautomer_probability>
1

> <r_epik_Ionization_Penalty>
5.68222e-05

> <r_epik_Ionization_Penalty_Charging>
9.07816e-08

> <r_epik_Ionization_Penalty_Neutral>
5.67314e-05

> <r_epik_State_Penalty>
-0

> <r_epik_Charging_Adjusted_Penalty>
9.07816e-08

> <i_epik_Tot_Q>
0

> <i_epik_Tot_abs_Q>
0

> <r_epik_Metal_State_Penalty>
-0

> <b_epik_Metal_Only>
0

> <s_lp_Force_Field>
OPLS_2005

> <r_lp_Energy>
21.2776

> <b_lp_Chiralities_Consistent>
1

> <s_lp_Variant>
AV-unprocessed.smi:2281-2

> <Gold.Version>
5.8.1

> <Gold.Id.Protein>
6NUR|6NUR_protein|mol2

> <Gold.PLP.Fitness>
44.6101

> <Gold.PLP.PLP>
-41.8465

> <Gold.PLP.part.hbond>
-1.0000

> <Gold.PLP.part.metal>
0.0000

> <Gold.PLP.part.buried>
-5.7005

> <Gold.PLP.part.nonpolar>
-34.8190

> <Gold.PLP.part.repulsive>
0.0712

> <Gold.PLP.ligand.clash>
0.0000

> <Gold.PLP.ligand.torsion>
1.6036

> <Gold.PLP.Chemscore.Hbond>
0.8892

> <Gold.PLP.Chemscore.CHOScore>
1.0000

> <Gold.PLP.Chemscore.Metal>
0.0000

> <Gold.Chemscore.Hbonds>
donor molecule, donor type, donor heavy atom, donor atom, acceptor molecule, acceptor atom, score
      P1  H  7997  8009       L1    21  0.88
      L1  C     4    27       P1  8028  0.98

> <Gold.PLP.Chemscore.Internal.Correction>
0.3033

> <Gold.Rescore>
     Score         DG    S(hbond)    S(metal)    S(lipo)     H(rot)  DE(clash)    DE(int)     intcor
     11.74     -13.52       0.93        0.00      87.69       2.09       0.00       1.78       ----

> <Gold.Chemscore.Fitness>
11.7357

> <Gold.Chemscore.DG>
-13.5196

> <Gold.Chemscore.ZeroCoef>
-5.4800

> <Gold.Chemscore.Hbond>
0.9341

> <Gold.Chemscore.Metal>
0.0000

> <Gold.Chemscore.Lipo>
87.6914

> <Gold.Chemscore.Internal_Hbond>
0.0000

> <Gold.Chemscore.DEClash>
0.0038

> <Gold.Chemscore.DEInternal>
1.7801

> <Gold.Chemscore.Rot>
2.0860

> <Gold.Chemscore.Internal.Correction>
   9.000000E+99

> <Gold.Chemscore.Hbonds>
donor molecule, donor type, donor heavy atom, donor atom, acceptor molecule, acceptor atom, score
      P1  H  7997  8009       L1    21  0.87

> <Gold.Chemscore.Hbond.Weighted>
-3.1199

> <Gold.Chemscore.Metal.Weighted>
-0.0000

> <Gold.Chemscore.Lipo.Weighted>
-10.2599

> <Gold.Chemscore.Internal_Hbond.Weighted>
0.0000

> <Gold.Chemscore.DEClash.Weighted>
0.0038

> <Gold.Chemscore.DEInternal.Weighted>
1.7801

> <Gold.Chemscore.Rot.Weighted>
5.3402

> <Gold.Chemscore.Internal.Correction.Weighted>
   9.000000E+99

> <Gold.Protein.RotatedTorsions>
[ 6907 6896 6895 6894 ] final   65.64 input  -60.11 | X-H torsion
[ 7974 7965 7964 7962 ] final  -63.12 input  175.53 | X-H torsion
[ 8008 7997 7996 7995 ] final  158.20 input   59.86 | X-H torsion
[ 10167 10162 10161 10158 ] final  -92.47 input  -65.29 | X-H torsion
[ 10718 10713 10712 10709 ] final    1.78 input   66.30 | X-H torsion
[ 10763 10752 10751 10750 ] final -141.54 input  -60.55 | X-H torsion
[ 11005 11000 10999 10996 ] final  -79.34 input  -57.11 | X-H torsion

> <Gold.Protein.ActiveResidues>
 VAL166  LYS551  ARG553  GLY616  TRP617  ASP618  TYR619  PRO620  LYS621  CYS622 
 ASP623  PHE694  ASN695  SER759  ASP760  ASP761  ALA762  ILE779  LEU786  VAL792 
 PHE793  MET794  SER795  GLU796  ALA797  LYS798  CYS799  TRP800  GLU811  SER814 

> <Gold.Protein.RotatedAtoms>
  152.4422  134.5567  159.9882 H   0  0  0  0  0  0  0  0  0  0  0  0  # atno 6907 bound_to 6896
  151.5661  133.3390  159.2988 H   0  0  0  0  0  0  0  0  0  0  0  0  # atno 6908 bound_to 6896
  150.8331  134.7626  159.6934 H   0  0  0  0  0  0  0  0  0  0  0  0  # atno 6909 bound_to 6896
  145.7830  140.8752  143.0320 H   0  0  0  0  0  0  0  0  0  0  0  0  # atno 7974 bound_to 7965
  156.2318  140.1865  156.7224 H   0  0  0  0  0  0  0  0  0  0  0  0  # atno 8008 bound_to 7997
  154.6035  140.0632  156.9427 H   0  0  0  0  0  0  0  0  0  0  0  0  # atno 8009 bound_to 7997
  155.2134  140.3302  155.4328 H   0  0  0  0  0  0  0  0  0  0  0  0  # atno 8010 bound_to 7997
  140.3345  143.2976  151.9905 H   0  0  0  0  0  0  0  0  0  0  0  0  # atno 10167 bound_to 10162
  156.8532  130.5561  149.5668 H   0  0  0  0  0  0  0  0  0  0  0  0  # atno 10718 bound_to 10713
  154.8541  135.3521  154.5884 H   0  0  0  0  0  0  0  0  0  0  0  0  # atno 10763 bound_to 10752
  153.6494  135.6995  153.5219 H   0  0  0  0  0  0  0  0  0  0  0  0  # atno 10764 bound_to 10752
  153.2906  135.4236  155.1122 H   0  0  0  0  0  0  0  0  0  0  0  0  # atno 10765 bound_to 10752
  141.1667  133.7102  156.8108 H   0  0  0  0  0  0  0  0  0  0  0  0  # atno 11005 bound_to 11000
  144.6793  140.0015  143.7484 LP  0  0  0  0  0  0  0  0  0  0  0  0  # atno 17320 bound_to 7965
  146.0055  139.3126  143.0902 LP  0  0  0  0  0  0  0  0  0  0  0  0  # atno 17321 bound_to 7965
  139.4851  144.6208  151.7259 LP  0  0  0  0  0  0  0  0  0  0  0  0  # atno 17342 bound_to 10162
  140.5366  144.0645  150.6073 LP  0  0  0  0  0  0  0  0  0  0  0  0  # atno 17343 bound_to 10162
  156.0817  130.5825  150.9574 LP  0  0  0  0  0  0  0  0  0  0  0  0  # atno 17370 bound_to 10713
  157.6291  131.0923  150.8475 LP  0  0  0  0  0  0  0  0  0  0  0  0  # atno 17371 bound_to 10713
  140.2189  134.8772  157.3355 LP  0  0  0  0  0  0  0  0  0  0  0  0  # atno 17394 bound_to 11000
  140.2009  134.4256  155.7663 LP  0  0  0  0  0  0  0  0  0  0  0  0  # atno 17395 bound_to 11000

$$$$
