AV-unprocessed.smi:229|AV-procd|sdf|1749|dock3
  -GOLD-   2262020263D 1   1.00000     0.00000
 Structure written by MMmdl.
 58 62  0  0  0  0  0  0  0  0  1 V2000
  145.4479  134.5636  162.6450 C   0  0  0  0  0  0  0  0  0  0  0  0
  146.9440  134.2225  162.6507 C   0  0  0  0  0  0  0  0  0  0  0  0
  147.5976  134.2789  161.2600 C   0  0  2  0  0  0  0  0  0  0  0  0
  147.6148  135.6974  160.6623 C   0  0  0  0  0  0  0  0  0  0  0  0
  148.1372  135.6592  159.3019 N   0  0  0  0  0  0  0  0  0  0  0  0
  148.5048  136.8639  158.7958 C   0  0  0  0  0  0  0  0  0  0  0  0
  147.5693  137.6884  158.2521 N   0  0  0  0  0  0  0  0  0  0  0  0
  147.9208  138.8832  157.7670 C   0  0  0  0  0  0  0  0  0  0  0  0
  149.1312  139.4429  157.7228 N   0  0  0  0  0  0  0  0  0  0  0  0
  150.0758  138.6167  158.2559 C   0  0  0  0  0  0  0  0  0  0  0  0
  149.8525  137.3230  158.8069 C   0  0  0  0  0  0  0  0  0  0  0  0
  151.0573  136.7801  159.2394 N   0  0  0  0  0  0  0  0  0  0  0  0
  151.9386  137.7053  158.9731 C   0  0  0  0  0  0  0  0  0  0  0  0
  151.4341  138.8421  158.3843 N   0  0  0  0  0  0  0  0  0  0  0  0
  152.1809  140.0235  157.9898 C   0  0  0  0  0  0  0  0  0  0  0  0
  152.8627  140.7127  159.1884 C   0  0  1  0  0  0  0  0  0  0  0  0
  154.2212  140.3187  159.2420 O   0  0  0  0  0  0  0  0  0  0  0  0
  152.7970  142.2478  159.0938 C   0  0  2  0  0  0  0  0  0  0  0  0
  152.9452  142.9720  160.4307 C   0  0  0  0  0  0  0  0  0  0  0  0
  152.3399  144.3310  160.1379 C   0  0  0  0  0  0  0  0  0  0  0  0
  151.3468  144.0472  159.0070 C   0  0  0  0  0  0  0  0  0  0  0  0
  151.5066  142.6709  158.6790 O   0  0  0  0  0  0  0  0  0  0  0  0
  147.3963  134.7457  158.4379 C   0  0  0  0  0  0  0  0  0  0  0  0
  147.3344  133.3308  159.0586 C   0  0  1  0  0  0  0  0  0  0  0  0
  146.3820  132.4312  158.2776 C   0  0  0  0  0  0  0  0  0  0  0  0
  147.3046  131.6958  157.3177 C   0  0  0  0  0  0  0  0  0  0  0  0
  148.4317  131.4252  158.1297 O   0  0  0  0  0  0  0  0  0  0  0  0
  148.6723  132.5611  158.9525 C   0  0  0  0  0  0  0  0  0  0  0  0
  146.8466  133.4191  160.4008 O   0  0  0  0  0  0  0  0  0  0  0  0
  145.0505  134.5702  163.6601 H   0  0  0  0  0  0  0  0  0  0  0  0
  144.8717  133.8364  162.0733 H   0  0  0  0  0  0  0  0  0  0  0  0
  145.2705  135.5488  162.2130 H   0  0  0  0  0  0  0  0  0  0  0  0
  147.4542  134.9283  163.3070 H   0  0  0  0  0  0  0  0  0  0  0  0
  147.0944  133.2362  163.0913 H   0  0  0  0  0  0  0  0  0  0  0  0
  148.6203  133.9104  161.3447 H   0  0  0  0  0  0  0  0  0  0  0  0
  146.6049  136.1095  160.6409 H   0  0  0  0  0  0  0  0  0  0  0  0
  148.2099  136.3556  161.2928 H   0  0  0  0  0  0  0  0  0  0  0  0
  147.1162  139.4762  157.3579 H   0  0  0  0  0  0  0  0  0  0  0  0
  152.9869  137.5854  159.2047 H   0  0  0  0  0  0  0  0  0  0  0  0
  152.9210  139.7346  157.2422 H   0  0  0  0  0  0  0  0  0  0  0  0
  151.4925  140.7113  157.4973 H   0  0  0  0  0  0  0  0  0  0  0  0
  152.3821  140.3862  160.1119 H   0  0  0  0  0  0  0  0  0  0  0  0
  154.5635  140.5417  160.0942 H   0  0  0  0  0  0  0  0  0  0  0  0
  153.5362  142.6225  158.3830 H   0  0  0  0  0  0  0  0  0  0  0  0
  152.3614  142.4664  161.2013 H   0  0  0  0  0  0  0  0  0  0  0  0
  153.9791  143.0332  160.7714 H   0  0  0  0  0  0  0  0  0  0  0  0
  151.8635  144.7671  161.0163 H   0  0  0  0  0  0  0  0  0  0  0  0
  153.1100  145.0224  159.7936 H   0  0  0  0  0  0  0  0  0  0  0  0
  150.3165  144.2398  159.3078 H   0  0  0  0  0  0  0  0  0  0  0  0
  151.5662  144.6640  158.1347 H   0  0  0  0  0  0  0  0  0  0  0  0
  146.3862  135.1369  158.3066 H   0  0  0  0  0  0  0  0  0  0  0  0
  147.8545  134.7018  157.4488 H   0  0  0  0  0  0  0  0  0  0  0  0
  145.9166  131.7055  158.9464 H   0  0  0  0  0  0  0  0  0  0  0  0
  145.5824  132.9720  157.7702 H   0  0  0  0  0  0  0  0  0  0  0  0
  146.8629  130.7806  156.9231 H   0  0  0  0  0  0  0  0  0  0  0  0
  147.5936  132.3331  156.4805 H   0  0  0  0  0  0  0  0  0  0  0  0
  149.4522  133.1753  158.5008 H   0  0  0  0  0  0  0  0  0  0  0  0
  149.0417  132.2166  159.9181 H   0  0  0  0  0  0  0  0  0  0  0  0
  1  2  1  0  0  0  0
  1 30  1  0  0  0  0
  1 31  1  0  0  0  0
  1 32  1  0  0  0  0
  2  3  1  0  0  0  0
  2 33  1  0  0  0  0
  2 34  1  0  0  0  0
  3 29  1  0  0  0  0
  3  4  1  0  0  0  0
  3 35  1  0  0  0  0
  4  5  1  0  0  0  0
  4 36  1  0  0  0  0
  4 37  1  0  0  0  0
  5  6  1  0  0  0  0
  5 23  1  0  0  0  0
  6 11  1  0  0  0  0
  6  7  2  0  0  0  0
  7  8  1  0  0  0  0
  8  9  2  0  0  0  0
  8 38  1  0  0  0  0
  9 10  1  0  0  0  0
 10 14  1  0  0  0  0
 10 11  2  0  0  0  0
 11 12  1  0  0  0  0
 12 13  2  0  0  0  0
 13 14  1  0  0  0  0
 13 39  1  0  0  0  0
 14 15  1  0  0  0  0
 15 16  1  0  0  0  0
 15 40  1  0  0  0  0
 15 41  1  0  0  0  0
 16 17  1  0  0  0  0
 16 18  1  0  0  0  0
 16 42  1  0  0  0  0
 17 43  1  0  0  0  0
 18 22  1  0  0  0  0
 18 19  1  0  0  0  0
 18 44  1  0  0  0  0
 19 20  1  0  0  0  0
 19 45  1  0  0  0  0
 19 46  1  0  0  0  0
 20 21  1  0  0  0  0
 20 47  1  0  0  0  0
 20 48  1  0  0  0  0
 21 22  1  0  0  0  0
 21 49  1  0  0  0  0
 21 50  1  0  0  0  0
 23 24  1  0  0  0  0
 23 51  1  0  0  0  0
 23 52  1  0  0  0  0
 24 28  1  0  0  0  0
 24 25  1  0  0  0  0
 24 29  1  0  0  0  0
 25 26  1  0  0  0  0
 25 53  1  0  0  0  0
 25 54  1  0  0  0  0
 26 27  1  0  0  0  0
 26 55  1  0  0  0  0
 26 56  1  0  0  0  0
 27 28  1  0  0  0  0
 28 57  1  0  0  0  0
 28 58  1  0  0  0  0
M  END
> <s_m_source_file>
AV-unprocessed.smi

> <i_m_source_file_index>
229

> <i_lp_mmshare_version>
43012

> <i_f3d_flags>
0

> <s_epik_input>
W0NIMl0xT1tDSDJdW0NIMl1bQ0BdMTJbQ0gyXU4oW0NIMl1bQ0BIXShPMilbQ0gyXVtDSDNdKWMobltjSF1uMyljKGMzNCluW2NIXW40W0NIMl1bQ0BIXShbT0hdKVtDQEBIXTVbQ0gyXVtDSDJdW0NIMl1PNQ==

> <s_epik_cmdline>
J2VwaWtfcHl0aG9uJywgJy1waCcsICc3LjAnLCAnLXRuJywgJzgnLCAnLW1hJywgJzIwMCcsICctbWV0YWxfYmluZGluZycsICctaW1hZScsICc8aW5maWxlLm1hZT4nLCAnLW9tYWUnLCAnPG91dGZpbGUubWFlPic=

> <r_lp_tautomer_probability>
1

> <r_epik_Ionization_Penalty>
0.00318402

> <r_epik_Ionization_Penalty_Charging>
0

> <r_epik_Ionization_Penalty_Neutral>
0.00318402

> <r_epik_State_Penalty>
0.00215642

> <r_epik_Charging_Adjusted_Penalty>
0.00215642

> <i_epik_Tot_Q>
0

> <i_epik_Tot_abs_Q>
0

> <r_epik_Metal_State_Penalty>
-0

> <b_epik_Metal_Only>
0

> <s_lp_Force_Field>
OPLS_2005

> <r_lp_Energy>
54.6587

> <b_lp_Chiralities_Consistent>
1

> <s_lp_Variant>
AV-unprocessed.smi:229-3

> <Gold.Version>
5.8.1

> <Gold.Id.Protein>
6NUR|6NUR_protein|mol2

> <Gold.PLP.Fitness>
44.6416

> <Gold.PLP.PLP>
-40.9921

> <Gold.PLP.part.hbond>
-2.0000

> <Gold.PLP.part.metal>
0.0000

> <Gold.PLP.part.buried>
-5.9421

> <Gold.PLP.part.nonpolar>
-31.9344

> <Gold.PLP.part.repulsive>
0.0219

> <Gold.PLP.ligand.clash>
0.0000

> <Gold.PLP.ligand.torsion>
1.2639

> <Gold.PLP.Chemscore.Hbond>
1.9280

> <Gold.PLP.Chemscore.CHOScore>
0.0000

> <Gold.PLP.Chemscore.Metal>
0.0000

> <Gold.Chemscore.Hbonds>
donor molecule, donor type, donor heavy atom, donor atom, acceptor molecule, acceptor atom, score
      P1  H  6896  6908       L1    12  1.00
      P1  H  7997  8008       L1    17  0.73

> <Gold.PLP.Chemscore.Internal.Correction>
0.3932

> <Gold.Rescore>
     Score         DG    S(hbond)    S(metal)    S(lipo)     H(rot)  DE(clash)    DE(int)     intcor
     15.84     -17.07       1.75        0.00     102.87       2.46       0.05       1.18       ----

> <Gold.Chemscore.Fitness>
15.8404

> <Gold.Chemscore.DG>
-17.0720

> <Gold.Chemscore.ZeroCoef>
-5.4800

> <Gold.Chemscore.Hbond>
1.7519

> <Gold.Chemscore.Metal>
0.0000

> <Gold.Chemscore.Lipo>
102.8711

> <Gold.Chemscore.Internal_Hbond>
0.0000

> <Gold.Chemscore.DEClash>
0.0479

> <Gold.Chemscore.DEInternal>
1.1838

> <Gold.Chemscore.Rot>
2.4591

> <Gold.Chemscore.Internal.Correction>
   9.000000E+99

> <Gold.Chemscore.Hbonds>
donor molecule, donor type, donor heavy atom, donor atom, acceptor molecule, acceptor atom, score
      P1  H  6896  6908       L1    12  0.99
      P1  H  7997  8008       L1    17  0.55

> <Gold.Chemscore.Hbond.Weighted>
-5.8514

> <Gold.Chemscore.Metal.Weighted>
-0.0000

> <Gold.Chemscore.Lipo.Weighted>
-12.0359

> <Gold.Chemscore.Internal_Hbond.Weighted>
0.0000

> <Gold.Chemscore.DEClash.Weighted>
0.0479

> <Gold.Chemscore.DEInternal.Weighted>
1.1838

> <Gold.Chemscore.Rot.Weighted>
6.2953

> <Gold.Chemscore.Internal.Correction.Weighted>
   9.000000E+99

> <Gold.Protein.RotatedTorsions>
[ 6907 6896 6895 6894 ] final -141.54 input  -60.11 | X-H torsion
[ 7974 7965 7964 7962 ] final   94.74 input  175.53 | X-H torsion
[ 8008 7997 7996 7995 ] final -113.92 input   59.86 | X-H torsion
[ 10167 10162 10161 10158 ] final   34.31 input  -65.29 | X-H torsion
[ 10718 10713 10712 10709 ] final    6.48 input   66.30 | X-H torsion
[ 10763 10752 10751 10750 ] final -150.90 input  -60.55 | X-H torsion
[ 11005 11000 10999 10996 ] final   -8.37 input  -57.11 | X-H torsion

> <Gold.Protein.ActiveResidues>
 VAL166  LYS551  ARG553  GLY616  TRP617  ASP618  TYR619  PRO620  LYS621  CYS622 
 ASP623  PHE694  ASN695  SER759  ASP760  ASP761  ALA762  ILE779  LEU786  VAL792 
 PHE793  MET794  SER795  GLU796  ALA797  LYS798  CYS799  TRP800  GLU811  SER814 

> <Gold.Protein.RotatedAtoms>
  151.0752  133.5434  159.2624 H   0  0  0  0  0  0  0  0  0  0  0  0  # atno 6907 bound_to 6896
  151.2359  135.0570  159.9016 H   0  0  0  0  0  0  0  0  0  0  0  0  # atno 6908 bound_to 6896
  152.5417  134.0534  159.8173 H   0  0  0  0  0  0  0  0  0  0  0  0  # atno 6909 bound_to 6896
  145.4615  139.2286  143.2984 H   0  0  0  0  0  0  0  0  0  0  0  0  # atno 7974 bound_to 7965
  155.0283  140.0393  157.2464 H   0  0  0  0  0  0  0  0  0  0  0  0  # atno 8008 bound_to 7997
  154.7319  140.2732  155.6425 H   0  0  0  0  0  0  0  0  0  0  0  0  # atno 8009 bound_to 7997
  156.2843  140.2682  156.2021 H   0  0  0  0  0  0  0  0  0  0  0  0  # atno 8010 bound_to 7997
  140.4327  144.1301  150.6162 H   0  0  0  0  0  0  0  0  0  0  0  0  # atno 10167 bound_to 10162
  156.9228  130.5797  149.5648 H   0  0  0  0  0  0  0  0  0  0  0  0  # atno 10718 bound_to 10713
  154.8091  135.3273  154.7354 H   0  0  0  0  0  0  0  0  0  0  0  0  # atno 10763 bound_to 10752
  153.8007  135.6903  153.4860 H   0  0  0  0  0  0  0  0  0  0  0  0  # atno 10764 bound_to 10752
  153.1856  135.4570  155.0030 H   0  0  0  0  0  0  0  0  0  0  0  0  # atno 10765 bound_to 10752
  140.7228  133.8814  155.8833 H   0  0  0  0  0  0  0  0  0  0  0  0  # atno 11005 bound_to 11000
  146.2448  140.5385  142.8918 LP  0  0  0  0  0  0  0  0  0  0  0  0  # atno 17320 bound_to 7965
  144.8000  140.6194  143.6485 LP  0  0  0  0  0  0  0  0  0  0  0  0  # atno 17321 bound_to 7965
  140.4409  143.2527  151.9474 LP  0  0  0  0  0  0  0  0  0  0  0  0  # atno 17342 bound_to 10162
  139.4785  144.5655  151.8171 LP  0  0  0  0  0  0  0  0  0  0  0  0  # atno 17343 bound_to 10162
  156.0483  130.5556  150.8931 LP  0  0  0  0  0  0  0  0  0  0  0  0  # atno 17370 bound_to 10713
  157.5897  131.0945  150.9139 LP  0  0  0  0  0  0  0  0  0  0  0  0  # atno 17371 bound_to 10713
  140.9989  134.1178  157.4337 LP  0  0  0  0  0  0  0  0  0  0  0  0  # atno 17394 bound_to 11000
  139.8844  135.0062  156.6367 LP  0  0  0  0  0  0  0  0  0  0  0  0  # atno 17395 bound_to 11000

$$$$
