AV-unprocessed.smi:1803|AV-procd|sdf|7283|dock6
  -GOLD-   22720 8543D 1   1.00000     0.00000
 Structure written by MMmdl.
 36 38  0  0  0  0  0  0  0  0  2 V2000
  150.4584  133.7516  155.7098 O   0  0  0  0  0  0  0  0  0  0  0  0
  149.9104  134.1551  154.6858 C   0  0  0  0  0  0  0  0  0  0  0  0
  150.1730  135.3824  154.1893 N   0  0  0  0  0  0  0  0  0  0  0  0
  151.0408  136.4142  154.6521 C   0  0  0  0  0  0  0  0  0  0  0  0
  152.0571  136.2209  155.5092 N   0  0  0  0  0  0  0  0  0  0  0  0
  152.7529  137.3937  155.7681 N   0  0  0  0  0  0  0  0  0  0  0  0
  152.2455  138.4245  155.0865 C   0  0  0  0  0  0  0  0  0  0  0  0
  150.8669  138.0616  154.0631 S   0  0  0  0  0  0  0  0  0  0  0  0
  149.0252  133.4169  153.9952 N   0  0  0  0  0  0  0  0  0  0  0  0
  148.5490  132.0855  154.3623 C   0  0  2  0  0  0  0  0  0  0  0  0
  149.5904  130.9842  154.0827 C   0  0  0  0  0  0  0  0  0  0  0  0
  148.7875  129.8340  153.4665 C   0  0  0  0  0  0  0  0  0  0  0  0
  147.7227  130.5306  152.7354 N   0  3  1  0  0  0  0  0  0  0  0  0
  146.5947  129.7360  152.2081 C   0  0  0  0  0  0  0  0  0  0  0  0
  145.7118  130.6570  151.3386 C   0  0  0  0  0  0  0  0  0  0  0  0
  145.2910  131.9416  152.0876 C   0  0  0  0  0  0  0  0  0  0  0  0
  146.5028  132.6572  152.7226 C   0  0  0  0  0  0  0  0  0  0  0  0
  147.2838  131.6499  153.5865 C   0  0  2  0  0  0  0  0  0  0  0  0
  149.7432  135.5730  153.2956 H   0  0  0  0  0  0  0  0  0  0  0  0
  152.6881  139.4047  155.1846 H   0  0  0  0  0  0  0  0  0  0  0  0
  148.6303  133.8260  153.1603 H   0  0  0  0  0  0  0  0  0  0  0  0
  148.3202  132.0684  155.4297 H   0  0  0  0  0  0  0  0  0  0  0  0
  150.3274  131.3343  153.3578 H   0  0  0  0  0  0  0  0  0  0  0  0
  150.1316  130.6803  154.9791 H   0  0  0  0  0  0  0  0  0  0  0  0
  149.3886  129.2031  152.8114 H   0  0  0  0  0  0  0  0  0  0  0  0
  148.3510  129.2090  154.2472 H   0  0  0  0  0  0  0  0  0  0  0  0
  146.9756  128.9066  151.6113 H   0  0  0  0  0  0  0  0  0  0  0  0
  146.0196  129.3076  153.0304 H   0  0  0  0  0  0  0  0  0  0  0  0
  146.2640  130.9359  150.4400 H   0  0  0  0  0  0  0  0  0  0  0  0
  144.8281  130.1162  150.9985 H   0  0  0  0  0  0  0  0  0  0  0  0
  144.7702  132.6175  151.4088 H   0  0  0  0  0  0  0  0  0  0  0  0
  144.5765  131.6817  152.8698 H   0  0  0  0  0  0  0  0  0  0  0  0
  147.1442  133.0687  151.9418 H   0  0  0  0  0  0  0  0  0  0  0  0
  146.1598  133.4963  153.3286 H   0  0  0  0  0  0  0  0  0  0  0  0
  146.5949  131.2437  154.3303 H   0  0  0  0  0  0  0  0  0  0  0  0
  148.1759  130.9504  151.9363 H   0  0  0  0  0  0  0  0  0  0  0  0
  1  2  2  0  0  0  0
  2  3  1  0  0  0  0
  2  9  1  0  0  0  0
  3  4  1  0  0  0  0
  3 19  1  0  0  0  0
  4  8  1  0  0  0  0
  4  5  2  0  0  0  0
  5  6  1  0  0  0  0
  6  7  2  0  0  0  0
  7  8  1  0  0  0  0
  7 20  1  0  0  0  0
  9 10  1  0  0  0  0
  9 21  1  0  0  0  0
 10 18  1  0  0  0  0
 10 11  1  0  0  0  0
 10 22  1  0  0  0  0
 11 12  1  0  0  0  0
 11 23  1  0  0  0  0
 11 24  1  0  0  0  0
 12 13  1  0  0  0  0
 12 25  1  0  0  0  0
 12 26  1  0  0  0  0
 13 18  1  0  0  0  0
 13 14  1  0  0  0  0
 13 36  1  0  0  0  0
 14 15  1  0  0  0  0
 14 27  1  0  0  0  0
 14 28  1  0  0  0  0
 15 16  1  0  0  0  0
 15 29  1  0  0  0  0
 15 30  1  0  0  0  0
 16 17  1  0  0  0  0
 16 31  1  0  0  0  0
 16 32  1  0  0  0  0
 17 18  1  0  0  0  0
 17 33  1  0  0  0  0
 17 34  1  0  0  0  0
 18 35  1  0  0  0  0
M  CHG  1  13   1
M  END
> <s_m_source_file>
AV-unprocessed.smi

> <i_m_source_file_index>
1803

> <i_lp_mmshare_version>
43012

> <i_f3d_flags>
0

> <s_epik_input>
czFbY0hdbm5jMVtOSF1DKD1PKVtOSF1bQ0BIXShbQ0gyXVtDSDJdMilbQ0BASF0oTjIzKVtDSDJdW0NIMl1bQ0gyXVtDSDJdMw==

> <s_epik_cmdline>
J2VwaWtfcHl0aG9uJywgJy1waCcsICc3LjAnLCAnLXRuJywgJzgnLCAnLW1hJywgJzIwMCcsICctbWV0YWxfYmluZGluZycsICctaW1hZScsICc8aW5maWxlLm1hZT4nLCAnLW9tYWUnLCAnPG91dGZpbGUubWFlPic=

> <r_lp_tautomer_probability>
1

> <r_epik_Ionization_Penalty>
0.00213286

> <r_epik_Ionization_Penalty_Charging>
0.00107044

> <r_epik_Ionization_Penalty_Neutral>
0.00106242

> <r_epik_State_Penalty>
-0

> <r_epik_Charging_Adjusted_Penalty>
0.00107044

> <i_epik_Tot_Q>
1

> <i_epik_Tot_abs_Q>
1

> <r_epik_Metal_State_Penalty>
0.292783

> <b_epik_Metal_Only>
0

> <s_lp_Force_Field>
OPLS_2005

> <r_lp_Energy>
42.6799

> <b_lp_Chiralities_Consistent>
1

> <s_lp_Variant>
AV-unprocessed.smi:1803-5

> <Gold.Version>
5.8.1

> <Gold.Id.Protein>
6NUR|6NUR_protein|mol2

> <Gold.PLP.Fitness>
37.9909

> <Gold.PLP.PLP>
-30.5871

> <Gold.PLP.part.hbond>
-4.8744

> <Gold.PLP.part.metal>
0.0000

> <Gold.PLP.part.buried>
-3.4636

> <Gold.PLP.part.nonpolar>
-23.1304

> <Gold.PLP.part.repulsive>
0.1386

> <Gold.PLP.ligand.clash>
0.0000

> <Gold.PLP.ligand.torsion>
0.2617

> <Gold.PLP.Chemscore.Hbond>
2.6420

> <Gold.PLP.Chemscore.CHOScore>
0.0000

> <Gold.PLP.Chemscore.Metal>
0.0000

> <Gold.Chemscore.Hbonds>
donor molecule, donor type, donor heavy atom, donor atom, acceptor molecule, acceptor atom, score
      L1  H     3    19       P1  7948  0.45
      L1  H    13    36       P1 10747  1.00
      P1  H 10752 10765       L1     5  0.55

> <Gold.PLP.Chemscore.Internal.Correction>
0.0013

> <Gold.Rescore>
     Score         DG    S(hbond)    S(metal)    S(lipo)     H(rot)  DE(clash)    DE(int)     intcor
     14.66     -16.24       1.76        0.00      63.47       1.00       0.06       1.52       ----

> <Gold.Chemscore.Fitness>
14.6614

> <Gold.Chemscore.DG>
-16.2381

> <Gold.Chemscore.ZeroCoef>
-5.4800

> <Gold.Chemscore.Hbond>
1.7642

> <Gold.Chemscore.Metal>
0.0000

> <Gold.Chemscore.Lipo>
63.4663

> <Gold.Chemscore.Internal_Hbond>
0.0000

> <Gold.Chemscore.DEClash>
0.0613

> <Gold.Chemscore.DEInternal>
1.5154

> <Gold.Chemscore.Rot>
1.0000

> <Gold.Chemscore.Internal.Correction>
   9.000000E+99

> <Gold.Chemscore.Hbonds>
donor molecule, donor type, donor heavy atom, donor atom, acceptor molecule, acceptor atom, score
      L1  H     3    19       P1  7948  0.02
      L1  H    13    36       P1 10747  0.96
      P1  H 10752 10765       L1     5  0.07

> <Gold.Chemscore.Hbond.Weighted>
-5.8926

> <Gold.Chemscore.Metal.Weighted>
-0.0000

> <Gold.Chemscore.Lipo.Weighted>
-7.4256

> <Gold.Chemscore.Internal_Hbond.Weighted>
0.0000

> <Gold.Chemscore.DEClash.Weighted>
0.0613

> <Gold.Chemscore.DEInternal.Weighted>
1.5154

> <Gold.Chemscore.Rot.Weighted>
2.5600

> <Gold.Chemscore.Internal.Correction.Weighted>
   9.000000E+99

> <Gold.Protein.RotatedTorsions>
[ 6907 6896 6895 6894 ] final  157.67 input  -60.11 | X-H torsion
[ 7974 7965 7964 7962 ] final   56.18 input  175.53 | X-H torsion
[ 8008 7997 7996 7995 ] final   25.39 input   59.86 | X-H torsion
[ 10167 10162 10161 10158 ] final -110.01 input  -65.29 | X-H torsion
[ 10718 10713 10712 10709 ] final   81.83 input   66.30 | X-H torsion
[ 10763 10752 10751 10750 ] final -148.09 input  -60.55 | X-H torsion
[ 11005 11000 10999 10996 ] final  107.97 input  -57.11 | X-H torsion

> <Gold.Protein.ActiveResidues>
 VAL166  LYS551  ARG553  GLY616  TRP617  ASP618  TYR619  PRO620  LYS621  CYS622 
 ASP623  PHE694  ASN695  SER759  ASP760  ASP761  ALA762  ILE779  LEU786  VAL792 
 PHE793  MET794  SER795  GLU796  ALA797  LYS798  CYS799  TRP800  GLU811  SER814 

> <Gold.Protein.RotatedAtoms>
  152.0117  133.3864  159.4222 H   0  0  0  0  0  0  0  0  0  0  0  0  # atno 6907 bound_to 6896
  150.6899  134.3723  159.5007 H   0  0  0  0  0  0  0  0  0  0  0  0  # atno 6908 bound_to 6896
  152.1485  134.9007  160.0600 H   0  0  0  0  0  0  0  0  0  0  0  0  # atno 6909 bound_to 6896
  145.9425  139.3901  143.0355 H   0  0  0  0  0  0  0  0  0  0  0  0  # atno 7974 bound_to 7965
  155.0110  140.3136  155.4830 H   0  0  0  0  0  0  0  0  0  0  0  0  # atno 8008 bound_to 7997
  156.2909  140.2214  156.5165 H   0  0  0  0  0  0  0  0  0  0  0  0  # atno 8009 bound_to 7997
  154.7535  140.0464  157.0901 H   0  0  0  0  0  0  0  0  0  0  0  0  # atno 8010 bound_to 7997
  140.1491  143.4214  152.1507 H   0  0  0  0  0  0  0  0  0  0  0  0  # atno 10167 bound_to 10162
  157.6842  131.0021  150.2284 H   0  0  0  0  0  0  0  0  0  0  0  0  # atno 10718 bound_to 10713
  154.8252  135.3343  154.6919 H   0  0  0  0  0  0  0  0  0  0  0  0  # atno 10763 bound_to 10752
  153.7546  135.6937  153.4943 H   0  0  0  0  0  0  0  0  0  0  0  0  # atno 10764 bound_to 10752
  153.2152  135.4468  155.0376 H   0  0  0  0  0  0  0  0  0  0  0  0  # atno 10765 bound_to 10752
  139.8836  134.9417  156.5901 H   0  0  0  0  0  0  0  0  0  0  0  0  # atno 11005 bound_to 11000
  145.8280  140.9645  143.0864 LP  0  0  0  0  0  0  0  0  0  0  0  0  # atno 17320 bound_to 7965
  144.6781  140.0126  143.7484 LP  0  0  0  0  0  0  0  0  0  0  0  0  # atno 17321 bound_to 7965
  139.5434  144.7277  151.4660 LP  0  0  0  0  0  0  0  0  0  0  0  0  # atno 17342 bound_to 10162
  140.6713  143.8287  150.7003 LP  0  0  0  0  0  0  0  0  0  0  0  0  # atno 17343 bound_to 10162
  156.2921  130.3747  149.7831 LP  0  0  0  0  0  0  0  0  0  0  0  0  # atno 17370 bound_to 10713
  156.5487  130.8332  151.3292 LP  0  0  0  0  0  0  0  0  0  0  0  0  # atno 17371 bound_to 10713
  140.7962  133.8542  155.8688 LP  0  0  0  0  0  0  0  0  0  0  0  0  # atno 17394 bound_to 11000
  140.9633  134.1627  157.4636 LP  0  0  0  0  0  0  0  0  0  0  0  0  # atno 17395 bound_to 11000

$$$$
