AV-unprocessed.smi:33|AV-procd|sdf|208|dock4
  -GOLD-   2262015503D 1   1.00000     0.00000
 Structure written by MMmdl.
 67 72  0  0  0  0  0  0  0  0  1 V2000
  152.3889  139.9488  157.8758 O   0  0  0  0  0  0  0  0  0  0  0  0
  151.3143  140.4744  158.1735 C   0  0  0  0  0  0  0  0  0  0  0  0
  150.1146  139.9001  157.9552 O   0  0  0  0  0  0  0  0  0  0  0  0
  149.9341  139.0116  156.8635 C   0  0  0  0  0  0  0  0  0  0  0  0
  150.1172  137.5676  157.3579 C   0  0  1  0  0  0  0  0  0  0  0  0
  148.8353  137.0322  157.7027 O   0  0  0  0  0  0  0  0  0  0  0  0
  148.4744  135.9958  156.8369 C   0  0  1  0  0  0  0  0  0  0  0  0
  147.0231  136.1075  156.4803 N   0  0  0  0  0  0  0  0  0  0  0  0
  146.3459  137.2469  156.1055 C   0  0  0  0  0  0  0  0  0  0  0  0
  145.0776  137.0860  155.8405 N   0  0  0  0  0  0  0  0  0  0  0  0
  144.8624  135.7300  156.0466 C   0  0  0  0  0  0  0  0  0  0  0  0
  143.7262  134.8829  155.9420 C   0  0  0  0  0  0  0  0  0  0  0  0
  142.5072  135.3300  155.5600 N   0  0  0  0  0  0  0  0  0  0  0  0
  141.4342  135.2830  156.5641 C   0  0  0  0  0  0  0  0  0  0  0  0
  141.7215  135.2773  157.7626 O   0  0  0  0  0  0  0  0  0  0  0  0
  139.9926  135.2848  156.1410 C   0  0  0  0  0  0  0  0  0  0  0  0
  139.6318  134.8149  154.8592 C   0  0  0  0  0  0  0  0  0  0  0  0
  138.2834  134.8268  154.4523 C   0  0  0  0  0  0  0  0  0  0  0  0
  137.2907  135.3273  155.3162 C   0  0  0  0  0  0  0  0  0  0  0  0
  137.6476  135.8242  156.5842 C   0  0  0  0  0  0  0  0  0  0  0  0
  138.9953  135.8108  156.9928 C   0  0  0  0  0  0  0  0  0  0  0  0
  142.3753  135.8319  154.1842 C   0  0  0  0  0  0  0  0  0  0  0  0
  141.4946  136.6526  153.9197 O   0  0  0  0  0  0  0  0  0  0  0  0
  143.3392  135.3973  153.1163 C   0  0  0  0  0  0  0  0  0  0  0  0
  143.2341  134.1068  152.5522 C   0  0  0  0  0  0  0  0  0  0  0  0
  144.1414  133.6901  151.5587 C   0  0  0  0  0  0  0  0  0  0  0  0
  145.1709  134.5531  151.1372 C   0  0  0  0  0  0  0  0  0  0  0  0
  145.2994  135.8296  151.7166 C   0  0  0  0  0  0  0  0  0  0  0  0
  144.3923  136.2474  152.7093 C   0  0  0  0  0  0  0  0  0  0  0  0
  143.8809  133.5663  156.2367 N   0  0  0  0  0  0  0  0  0  0  0  0
  145.0792  133.1072  156.6077 C   0  0  0  0  0  0  0  0  0  0  0  0
  146.2237  133.7800  156.7435 N   0  0  0  0  0  0  0  0  0  0  0  0
  146.0737  135.1040  156.4514 C   0  0  0  0  0  0  0  0  0  0  0  0
  149.4058  136.0642  155.6208 C   0  0  1  0  0  0  0  0  0  0  0  0
  148.9232  136.9051  154.5872 O   0  0  0  0  0  0  0  0  0  0  0  0
  150.6541  136.6112  156.2868 C   0  0  1  0  0  0  0  0  0  0  0  0
  151.5292  137.1474  155.4343 F   0  0  0  0  0  0  0  0  0  0  0  0
  151.2058  141.8227  158.8011 C   0  0  0  0  0  0  0  0  0  0  0  0
  152.0236  142.1376  159.9115 C   0  0  0  0  0  0  0  0  0  0  0  0
  151.9473  143.4044  160.5223 C   0  0  0  0  0  0  0  0  0  0  0  0
  151.0512  144.3715  160.0312 C   0  0  0  0  0  0  0  0  0  0  0  0
  150.2315  144.0703  158.9281 C   0  0  0  0  0  0  0  0  0  0  0  0
  150.3076  142.8045  158.3148 C   0  0  0  0  0  0  0  0  0  0  0  0
  148.9509  139.1378  156.4108 H   0  0  0  0  0  0  0  0  0  0  0  0
  150.6746  139.2480  156.0989 H   0  0  0  0  0  0  0  0  0  0  0  0
  150.7726  137.5614  158.2297 H   0  0  0  0  0  0  0  0  0  0  0  0
  148.5585  135.0484  157.3716 H   0  0  0  0  0  0  0  0  0  0  0  0
  146.8277  138.2113  156.0347 H   0  0  0  0  0  0  0  0  0  0  0  0
  140.3855  134.4282  154.1882 H   0  0  0  0  0  0  0  0  0  0  0  0
  138.0111  134.4530  153.4765 H   0  0  0  0  0  0  0  0  0  0  0  0
  136.2571  135.3366  155.0031 H   0  0  0  0  0  0  0  0  0  0  0  0
  136.8880  136.2175  157.2435 H   0  0  0  0  0  0  0  0  0  0  0  0
  139.2582  136.1996  157.9661 H   0  0  0  0  0  0  0  0  0  0  0  0
  142.4478  133.4361  152.8676 H   0  0  0  0  0  0  0  0  0  0  0  0
  144.0476  132.7074  151.1207 H   0  0  0  0  0  0  0  0  0  0  0  0
  145.8657  134.2331  150.3747 H   0  0  0  0  0  0  0  0  0  0  0  0
  146.0943  136.4890  151.4006 H   0  0  0  0  0  0  0  0  0  0  0  0
  144.5035  137.2280  153.1496 H   0  0  0  0  0  0  0  0  0  0  0  0
  145.1296  132.0505  156.8258 H   0  0  0  0  0  0  0  0  0  0  0  0
  149.5583  135.0637  155.2145 H   0  0  0  0  0  0  0  0  0  0  0  0
  148.9852  136.4386  153.7675 H   0  0  0  0  0  0  0  0  0  0  0  0
  151.1764  135.7903  156.7806 H   0  0  0  0  0  0  0  0  0  0  0  0
  152.7207  141.4119  160.3052 H   0  0  0  0  0  0  0  0  0  0  0  0
  152.5781  143.6342  161.3683 H   0  0  0  0  0  0  0  0  0  0  0  0
  150.9929  145.3428  160.4998 H   0  0  0  0  0  0  0  0  0  0  0  0
  149.5435  144.8120  158.5502 H   0  0  0  0  0  0  0  0  0  0  0  0
  149.6648  142.6065  157.4695 H   0  0  0  0  0  0  0  0  0  0  0  0
  1  2  2  0  0  0  0
  2  3  1  0  0  0  0
  2 38  1  0  0  0  0
  3  4  1  0  0  0  0
  4  5  1  0  0  0  0
  4 44  1  0  0  0  0
  4 45  1  0  0  0  0
  5 36  1  0  0  0  0
  5  6  1  0  0  0  0
  5 46  1  0  0  0  0
  6  7  1  0  0  0  0
  7  8  1  0  0  0  0
  7 34  1  0  0  0  0
  7 47  1  0  0  0  0
  8 33  1  0  0  0  0
  8  9  1  0  0  0  0
  9 10  2  0  0  0  0
  9 48  1  0  0  0  0
 10 11  1  0  0  0  0
 11 33  2  0  0  0  0
 11 12  1  0  0  0  0
 12 13  1  0  0  0  0
 12 30  2  0  0  0  0
 13 14  1  0  0  0  0
 13 22  1  0  0  0  0
 14 15  2  0  0  0  0
 14 16  1  0  0  0  0
 16 21  1  0  0  0  0
 16 17  2  0  0  0  0
 17 18  1  0  0  0  0
 17 49  1  0  0  0  0
 18 19  2  0  0  0  0
 18 50  1  0  0  0  0
 19 20  1  0  0  0  0
 19 51  1  0  0  0  0
 20 21  2  0  0  0  0
 20 52  1  0  0  0  0
 21 53  1  0  0  0  0
 22 23  2  0  0  0  0
 22 24  1  0  0  0  0
 24 29  1  0  0  0  0
 24 25  2  0  0  0  0
 25 26  1  0  0  0  0
 25 54  1  0  0  0  0
 26 27  2  0  0  0  0
 26 55  1  0  0  0  0
 27 28  1  0  0  0  0
 27 56  1  0  0  0  0
 28 29  2  0  0  0  0
 28 57  1  0  0  0  0
 29 58  1  0  0  0  0
 30 31  1  0  0  0  0
 31 32  2  0  0  0  0
 31 59  1  0  0  0  0
 32 33  1  0  0  0  0
 34 35  1  0  0  0  0
 34 36  1  0  0  0  0
 34 60  1  0  0  0  0
 35 61  1  0  0  0  0
 36 37  1  0  0  0  0
 36 62  1  0  0  0  0
 38 43  1  0  0  0  0
 38 39  2  0  0  0  0
 39 40  1  0  0  0  0
 39 63  1  0  0  0  0
 40 41  2  0  0  0  0
 40 64  1  0  0  0  0
 41 42  1  0  0  0  0
 41 65  1  0  0  0  0
 42 43  2  0  0  0  0
 42 66  1  0  0  0  0
 43 67  1  0  0  0  0
M  END
> <s_m_source_file>
AV-unprocessed.smi

> <i_m_source_file_index>
33

> <i_lp_mmshare_version>
43012

> <i_f3d_flags>
0

> <s_epik_input>
W2NIXTFbY0hdW2NIXVtjSF1bY0hdYzFDKD1PKU9bQ0gyXVtDQEBIXTJPW0NASF0oW0NAQEhdKFtPSF0pW0NAQEhdMkYpbihbY0hdbjMpYyhjMzQpbltjSF1uYzROKEMoPU8pYzVbY0hdW2NIXVtjSF1bY0hdW2NIXTUpQyg9TyljNltjSF1bY0hdW2NIXVtjSF1bY0hdNg==

> <s_epik_cmdline>
J2VwaWtfcHl0aG9uJywgJy1waCcsICc3LjAnLCAnLXRuJywgJzgnLCAnLW1hJywgJzIwMCcsICctbWV0YWxfYmluZGluZycsICctaW1hZScsICc8aW5maWxlLm1hZT4nLCAnLW9tYWUnLCAnPG91dGZpbGUubWFlPic=

> <r_lp_tautomer_probability>
1

> <r_epik_Ionization_Penalty>
0.00067664

> <r_epik_Ionization_Penalty_Charging>
0

> <r_epik_Ionization_Penalty_Neutral>
0.00067664

> <r_epik_State_Penalty>
0.000428095

> <r_epik_Charging_Adjusted_Penalty>
0.000428095

> <i_epik_Tot_Q>
0

> <i_epik_Tot_abs_Q>
0

> <r_epik_Metal_State_Penalty>
-0

> <b_epik_Metal_Only>
0

> <s_epik_Chemistry_Notes>
This compound has an ester and may undergo hydrolysis at high or low pH. This compound contains an acetal/aminal-like group ( X-CH(R)-Y where X, Y are N, S, or O) that may be acid/base labile, releasing an aldehyde.

> <s_lp_Force_Field>
OPLS_2005

> <r_lp_Energy>
79.915

> <b_lp_Chiralities_Consistent>
1

> <s_lp_Variant>
AV-unprocessed.smi:33-10

> <Gold.Version>
5.8.1

> <Gold.Id.Protein>
6NUR|6NUR_protein|mol2

> <Gold.PLP.Fitness>
53.9551

> <Gold.PLP.PLP>
-54.7841

> <Gold.PLP.part.hbond>
-2.4396

> <Gold.PLP.part.metal>
0.0000

> <Gold.PLP.part.buried>
-7.1539

> <Gold.PLP.part.nonpolar>
-46.8294

> <Gold.PLP.part.repulsive>
1.3282

> <Gold.PLP.ligand.clash>
0.0000

> <Gold.PLP.ligand.torsion>
5.5968

> <Gold.PLP.Chemscore.Hbond>
1.9920

> <Gold.PLP.Chemscore.CHOScore>
0.0000

> <Gold.PLP.Chemscore.Metal>
0.0000

> <Gold.Chemscore.Hbonds>
donor molecule, donor type, donor heavy atom, donor atom, acceptor molecule, acceptor atom, score
      L1  H    35    61       P1  7948  1.00
      P1  H  7997  8008       L1     1  0.24

> <Gold.PLP.Chemscore.Internal.Correction>
4.3886

> <Gold.Rescore>
     Score         DG    S(hbond)    S(metal)    S(lipo)     H(rot)  DE(clash)    DE(int)     intcor
     12.94     -20.85       1.92        0.00     131.77       2.52       0.04       7.87       ----

> <Gold.Chemscore.Fitness>
12.9375

> <Gold.Chemscore.DG>
-20.8472

> <Gold.Chemscore.ZeroCoef>
-5.4800

> <Gold.Chemscore.Hbond>
1.9200

> <Gold.Chemscore.Metal>
0.0000

> <Gold.Chemscore.Lipo>
131.7733

> <Gold.Chemscore.Internal_Hbond>
0.0000

> <Gold.Chemscore.DEClash>
0.0427

> <Gold.Chemscore.DEInternal>
7.8670

> <Gold.Chemscore.Rot>
2.5247

> <Gold.Chemscore.Internal.Correction>
   9.000000E+99

> <Gold.Chemscore.Hbonds>
donor molecule, donor type, donor heavy atom, donor atom, acceptor molecule, acceptor atom, score
      L1  H    35    61       P1  7948  0.98
      P1  H  7997  8008       L1     1  0.24

> <Gold.Chemscore.Hbond.Weighted>
-6.4129

> <Gold.Chemscore.Metal.Weighted>
-0.0000

> <Gold.Chemscore.Lipo.Weighted>
-15.4175

> <Gold.Chemscore.Internal_Hbond.Weighted>
0.0000

> <Gold.Chemscore.DEClash.Weighted>
0.0427

> <Gold.Chemscore.DEInternal.Weighted>
7.8670

> <Gold.Chemscore.Rot.Weighted>
6.4633

> <Gold.Chemscore.Internal.Correction.Weighted>
   9.000000E+99

> <Gold.Protein.RotatedTorsions>
[ 6907 6896 6895 6894 ] final  -20.32 input  -60.11 | X-H torsion
[ 7974 7965 7964 7962 ] final   62.11 input  175.53 | X-H torsion
[ 8008 7997 7996 7995 ] final  -81.56 input   59.86 | X-H torsion
[ 10167 10162 10161 10158 ] final   55.77 input  -65.29 | X-H torsion
[ 10718 10713 10712 10709 ] final  143.52 input   66.30 | X-H torsion
[ 10763 10752 10751 10750 ] final  -37.78 input  -60.55 | X-H torsion
[ 11005 11000 10999 10996 ] final -116.46 input  -57.11 | X-H torsion

> <Gold.Protein.ActiveResidues>
 VAL166  LYS551  ARG553  GLY616  TRP617  ASP618  TYR619  PRO620  LYS621  CYS622 
 ASP623  PHE694  ASN695  SER759  ASP760  ASP761  ALA762  ILE779  LEU786  VAL792 
 PHE793  MET794  SER795  GLU796  ALA797  LYS798  CYS799  TRP800  GLU811  SER814 

> <Gold.Protein.RotatedAtoms>
  151.2498  135.0618  159.9057 H   0  0  0  0  0  0  0  0  0  0  0  0  # atno 6907 bound_to 6896
  152.5381  134.0344  159.8049 H   0  0  0  0  0  0  0  0  0  0  0  0  # atno 6908 bound_to 6896
  151.0550  133.5542  159.2670 H   0  0  0  0  0  0  0  0  0  0  0  0  # atno 6909 bound_to 6896
  145.8770  139.3417  143.0728 H   0  0  0  0  0  0  0  0  0  0  0  0  # atno 7974 bound_to 7965
  154.5996  140.0646  156.9350 H   0  0  0  0  0  0  0  0  0  0  0  0  # atno 8008 bound_to 7997
  155.2155  140.3326  155.4304 H   0  0  0  0  0  0  0  0  0  0  0  0  # atno 8009 bound_to 7997
  156.2309  140.1841  156.7227 H   0  0  0  0  0  0  0  0  0  0  0  0  # atno 8010 bound_to 7997
  140.2159  144.3840  150.6470 H   0  0  0  0  0  0  0  0  0  0  0  0  # atno 10167 bound_to 10162
  157.3679  131.0974  151.0855 H   0  0  0  0  0  0  0  0  0  0  0  0  # atno 10718 bound_to 10713
  153.9019  135.6801  153.4755 H   0  0  0  0  0  0  0  0  0  0  0  0  # atno 10763 bound_to 10752
  153.1125  135.4777  154.9056 H   0  0  0  0  0  0  0  0  0  0  0  0  # atno 10764 bound_to 10752
  154.7571  135.3200  154.8404 H   0  0  0  0  0  0  0  0  0  0  0  0  # atno 10765 bound_to 10752
  141.0420  133.9820  157.2978 H   0  0  0  0  0  0  0  0  0  0  0  0  # atno 11005 bound_to 11000
  145.9068  140.9206  143.0474 LP  0  0  0  0  0  0  0  0  0  0  0  0  # atno 17320 bound_to 7965
  144.6726  140.1107  143.7455 LP  0  0  0  0  0  0  0  0  0  0  0  0  # atno 17321 bound_to 7965
  140.6290  143.2185  151.6536 LP  0  0  0  0  0  0  0  0  0  0  0  0  # atno 17342 bound_to 10162
  139.5162  144.3354  152.0789 LP  0  0  0  0  0  0  0  0  0  0  0  0  # atno 17343 bound_to 10162
  157.1970  130.6377  149.5725 LP  0  0  0  0  0  0  0  0  0  0  0  0  # atno 17370 bound_to 10713
  155.9750  130.4703  150.6426 LP  0  0  0  0  0  0  0  0  0  0  0  0  # atno 17371 bound_to 10713
  139.9283  135.0201  156.8313 LP  0  0  0  0  0  0  0  0  0  0  0  0  # atno 17394 bound_to 11000
  140.6216  133.9989  155.7621 LP  0  0  0  0  0  0  0  0  0  0  0  0  # atno 17395 bound_to 11000

$$$$
