AV-unprocessed.smi:748|AV-procd|sdf|3582|dock9
  -GOLD-   22720 0573D 1   1.00000     0.00000
 Structure written by MMmdl.
 50 51  0  0  0  0  0  0  0  0  1 V2000
  143.3451  137.3084  154.1261 C   0  0  0  0  0  0  0  0  0  0  0  0
  143.5687  136.9551  152.6466 C   0  0  0  0  0  0  0  0  0  0  0  0
  143.9547  135.4802  152.4709 C   0  0  0  0  0  0  0  0  0  0  0  0
  144.6086  137.7998  152.0660 N   0  0  0  0  0  0  0  0  0  0  0  0
  145.8853  137.8589  152.4769 C   0  0  0  0  0  0  0  0  0  0  0  0
  146.3281  137.1888  153.4097 O   0  0  0  0  0  0  0  0  0  0  0  0
  146.8004  138.8255  151.7217 C   0  0  0  0  0  0  0  0  0  0  0  0
  147.0503  140.1266  152.5061 C   0  0  0  0  0  0  0  0  0  0  0  0
  148.2491  140.0244  153.3293 N   0  0  0  0  0  0  0  0  0  0  0  0
  148.4827  140.7345  154.4451 C   0  0  0  0  0  0  0  0  0  0  0  0
  147.7000  141.5738  154.8913 O   0  0  0  0  0  0  0  0  0  0  0  0
  149.8143  140.4954  155.1000 C   0  0  0  0  0  0  0  0  0  0  0  0
  150.6168  139.3842  154.7578 C   0  0  0  0  0  0  0  0  0  0  0  0
  151.8403  139.2085  155.4290 C   0  0  0  0  0  0  0  0  0  0  0  0
  152.2860  140.0454  156.3880 N   0  0  0  0  0  0  0  0  0  0  0  0
  151.5254  141.1131  156.7336 C   0  0  0  0  0  0  0  0  0  0  0  0
  152.0027  141.9728  157.7474 N   0  0  0  0  0  0  0  0  0  0  0  0
  151.3826  143.2895  157.8825 C   0  0  0  0  0  0  0  0  0  0  0  0
  152.2261  144.1856  158.8039 C   0  0  0  0  0  0  0  0  0  0  0  0
  152.4232  143.5358  160.0553 O   0  0  0  0  0  0  0  0  0  0  0  0
  153.1300  142.3064  159.9155 C   0  0  1  0  0  0  0  0  0  0  0  0
  153.3762  141.7311  161.3139 C   0  0  0  0  0  0  0  0  0  0  0  0
  152.3116  141.3462  159.0305 C   0  0  0  0  0  0  0  0  0  0  0  0
  150.2782  141.3644  156.1127 C   0  0  0  0  0  0  0  0  0  0  0  0
  142.5716  136.6781  154.5655 H   0  0  0  0  0  0  0  0  0  0  0  0
  143.0264  138.3446  154.2443 H   0  0  0  0  0  0  0  0  0  0  0  0
  144.2563  137.1718  154.7093 H   0  0  0  0  0  0  0  0  0  0  0  0
  142.6364  137.1225  152.1042 H   0  0  0  0  0  0  0  0  0  0  0  0
  143.1805  134.8230  152.8678 H   0  0  0  0  0  0  0  0  0  0  0  0
  144.8855  135.2480  152.9899 H   0  0  0  0  0  0  0  0  0  0  0  0
  144.0888  135.2306  151.4177 H   0  0  0  0  0  0  0  0  0  0  0  0
  144.3337  138.3889  151.2934 H   0  0  0  0  0  0  0  0  0  0  0  0
  147.7521  138.3374  151.5055 H   0  0  0  0  0  0  0  0  0  0  0  0
  146.3393  139.0497  150.7590 H   0  0  0  0  0  0  0  0  0  0  0  0
  147.1305  140.9814  151.8314 H   0  0  0  0  0  0  0  0  0  0  0  0
  146.2077  140.3325  153.1673 H   0  0  0  0  0  0  0  0  0  0  0  0
  148.9591  139.3734  153.0266 H   0  0  0  0  0  0  0  0  0  0  0  0
  150.3108  138.6715  154.0059 H   0  0  0  0  0  0  0  0  0  0  0  0
  152.4777  138.3696  155.1922 H   0  0  0  0  0  0  0  0  0  0  0  0
  151.2864  143.7670  156.9063 H   0  0  0  0  0  0  0  0  0  0  0  0
  150.3778  143.1743  158.2911 H   0  0  0  0  0  0  0  0  0  0  0  0
  153.1892  144.4176  158.3461 H   0  0  0  0  0  0  0  0  0  0  0  0
  151.7175  145.1349  158.9723 H   0  0  0  0  0  0  0  0  0  0  0  0
  154.0964  142.5017  159.4468 H   0  0  0  0  0  0  0  0  0  0  0  0
  153.9234  140.7898  161.2602 H   0  0  0  0  0  0  0  0  0  0  0  0
  152.4368  141.5435  161.8347 H   0  0  0  0  0  0  0  0  0  0  0  0
  153.9620  142.4218  161.9211 H   0  0  0  0  0  0  0  0  0  0  0  0
  151.3753  141.0848  159.5253 H   0  0  0  0  0  0  0  0  0  0  0  0
  152.8702  140.4202  158.9044 H   0  0  0  0  0  0  0  0  0  0  0  0
  149.6707  142.2043  156.4161 H   0  0  0  0  0  0  0  0  0  0  0  0
  1  2  1  0  0  0  0
  1 25  1  0  0  0  0
  1 26  1  0  0  0  0
  1 27  1  0  0  0  0
  2  3  1  0  0  0  0
  2  4  1  0  0  0  0
  2 28  1  0  0  0  0
  3 29  1  0  0  0  0
  3 30  1  0  0  0  0
  3 31  1  0  0  0  0
  4  5  1  0  0  0  0
  4 32  1  0  0  0  0
  5  6  2  0  0  0  0
  5  7  1  0  0  0  0
  7  8  1  0  0  0  0
  7 33  1  0  0  0  0
  7 34  1  0  0  0  0
  8  9  1  0  0  0  0
  8 35  1  0  0  0  0
  8 36  1  0  0  0  0
  9 10  1  0  0  0  0
  9 37  1  0  0  0  0
 10 11  2  0  0  0  0
 10 12  1  0  0  0  0
 12 24  1  0  0  0  0
 12 13  2  0  0  0  0
 13 14  1  0  0  0  0
 13 38  1  0  0  0  0
 14 15  2  0  0  0  0
 14 39  1  0  0  0  0
 15 16  1  0  0  0  0
 16 17  1  0  0  0  0
 16 24  2  0  0  0  0
 17 23  1  0  0  0  0
 17 18  1  0  0  0  0
 18 19  1  0  0  0  0
 18 40  1  0  0  0  0
 18 41  1  0  0  0  0
 19 20  1  0  0  0  0
 19 42  1  0  0  0  0
 19 43  1  0  0  0  0
 20 21  1  0  0  0  0
 21 22  1  0  0  0  0
 21 23  1  0  0  0  0
 21 44  1  0  0  0  0
 22 45  1  0  0  0  0
 22 46  1  0  0  0  0
 22 47  1  0  0  0  0
 23 48  1  0  0  0  0
 23 49  1  0  0  0  0
 24 50  1  0  0  0  0
M  END
> <s_m_source_file>
AV-unprocessed.smi

> <i_m_source_file_index>
748

> <i_lp_mmshare_version>
43012

> <i_f3d_flags>
0

> <s_epik_input>
W0NIM11bQ0hdKFtDSDNdKVtOSF1DKD1PKVtDSDJdW0NIMl1bTkhdQyg9TyljMVtjSF1bY0hdbmMoW2NIXTEpTjJbQ0gyXVtDSDJdT1tDQEBIXShbQ0gzXSlbQ0gyXTI=

> <s_epik_cmdline>
J2VwaWtfcHl0aG9uJywgJy1waCcsICc3LjAnLCAnLXRuJywgJzgnLCAnLW1hJywgJzIwMCcsICctbWV0YWxfYmluZGluZycsICctaW1hZScsICc8aW5maWxlLm1hZT4nLCAnLW9tYWUnLCAnPG91dGZpbGUubWFlPic=

> <r_lp_tautomer_probability>
1

> <r_epik_Ionization_Penalty>
1.38678e-05

> <r_epik_Ionization_Penalty_Charging>
0

> <r_epik_Ionization_Penalty_Neutral>
1.38678e-05

> <r_epik_State_Penalty>
-0

> <r_epik_Charging_Adjusted_Penalty>
0

> <i_epik_Tot_Q>
0

> <i_epik_Tot_abs_Q>
0

> <r_epik_Metal_State_Penalty>
-0

> <b_epik_Metal_Only>
0

> <s_lp_Force_Field>
OPLS_2005

> <r_lp_Energy>
16.8499

> <b_lp_Chiralities_Consistent>
1

> <s_lp_Variant>
AV-unprocessed.smi:748-1

> <Gold.Version>
5.8.1

> <Gold.Id.Protein>
6NUR|6NUR_protein|mol2

> <Gold.PLP.Fitness>
54.2231

> <Gold.PLP.PLP>
-49.0594

> <Gold.PLP.part.hbond>
-3.7891

> <Gold.PLP.part.metal>
0.0000

> <Gold.PLP.part.buried>
-0.1679

> <Gold.PLP.part.nonpolar>
-44.9813

> <Gold.PLP.part.repulsive>
0.5243

> <Gold.PLP.ligand.clash>
0.0000

> <Gold.PLP.ligand.torsion>
0.9105

> <Gold.PLP.Chemscore.Hbond>
2.1760

> <Gold.PLP.Chemscore.CHOScore>
0.0000

> <Gold.PLP.Chemscore.Metal>
0.0000

> <Gold.Chemscore.Hbonds>
donor molecule, donor type, donor heavy atom, donor atom, acceptor molecule, acceptor atom, score
      L1  H     4    32       P1 10171  1.00
      L1  H     9    37       P1  7957  0.11
      P1  H  7997  8008       L1    15  0.93

> <Gold.PLP.Chemscore.Internal.Correction>
0.4568

> <Gold.Rescore>
     Score         DG    S(hbond)    S(metal)    S(lipo)     H(rot)  DE(clash)    DE(int)     intcor
     17.47     -20.14       1.89        0.00     112.36       1.87       0.43       2.24       ----

> <Gold.Chemscore.Fitness>
17.4670

> <Gold.Chemscore.DG>
-20.1447

> <Gold.Chemscore.ZeroCoef>
-5.4800

> <Gold.Chemscore.Hbond>
1.8874

> <Gold.Chemscore.Metal>
0.0000

> <Gold.Chemscore.Lipo>
112.3583

> <Gold.Chemscore.Internal_Hbond>
0.0000

> <Gold.Chemscore.DEClash>
0.4331

> <Gold.Chemscore.DEInternal>
2.2445

> <Gold.Chemscore.Rot>
1.8692

> <Gold.Chemscore.Internal.Correction>
   9.000000E+99

> <Gold.Chemscore.Hbonds>
donor molecule, donor type, donor heavy atom, donor atom, acceptor molecule, acceptor atom, score
      L1  H     4    32       P1 10171  0.93
      L1  H     9    37       P1  7957  0.13
      P1  H  7997  8008       L1    15  0.57

> <Gold.Chemscore.Hbond.Weighted>
-6.3039

> <Gold.Chemscore.Metal.Weighted>
-0.0000

> <Gold.Chemscore.Lipo.Weighted>
-13.1459

> <Gold.Chemscore.Internal_Hbond.Weighted>
0.0000

> <Gold.Chemscore.DEClash.Weighted>
0.4331

> <Gold.Chemscore.DEInternal.Weighted>
2.2445

> <Gold.Chemscore.Rot.Weighted>
4.7852

> <Gold.Chemscore.Internal.Correction.Weighted>
   9.000000E+99

> <Gold.Protein.RotatedTorsions>
[ 6907 6896 6895 6894 ] final  -35.02 input  -60.11 | X-H torsion
[ 7974 7965 7964 7962 ] final  131.61 input  175.53 | X-H torsion
[ 8008 7997 7996 7995 ] final  -37.19 input   59.86 | X-H torsion
[ 10167 10162 10161 10158 ] final   40.18 input  -65.29 | X-H torsion
[ 10718 10713 10712 10709 ] final  -72.94 input   66.30 | X-H torsion
[ 10763 10752 10751 10750 ] final  168.42 input  -60.55 | X-H torsion
[ 11005 11000 10999 10996 ] final   80.92 input  -57.11 | X-H torsion

> <Gold.Protein.ActiveResidues>
 VAL166  LYS551  ARG553  GLY616  TRP617  ASP618  TYR619  PRO620  LYS621  CYS622 
 ASP623  PHE694  ASN695  SER759  ASP760  ASP761  ALA762  ILE779  LEU786  VAL792 
 PHE793  MET794  SER795  GLU796  ALA797  LYS798  CYS799  TRP800  GLU811  SER814 

> <Gold.Protein.RotatedAtoms>
  151.0451  134.9634  159.8181 H   0  0  0  0  0  0  0  0  0  0  0  0  # atno 6907 bound_to 6896
  152.5371  134.2608  159.8944 H   0  0  0  0  0  0  0  0  0  0  0  0  # atno 6908 bound_to 6896
  151.2622  133.4254  159.2650 H   0  0  0  0  0  0  0  0  0  0  0  0  # atno 6909 bound_to 6896
  145.0055  139.4270  143.5271 H   0  0  0  0  0  0  0  0  0  0  0  0  # atno 7974 bound_to 7965
  154.4058  140.1610  156.2497 H   0  0  0  0  0  0  0  0  0  0  0  0  # atno 8008 bound_to 7997
  155.9130  140.3426  155.6091 H   0  0  0  0  0  0  0  0  0  0  0  0  # atno 8009 bound_to 7997
  155.7313  140.0781  157.2278 H   0  0  0  0  0  0  0  0  0  0  0  0  # atno 8010 bound_to 7997
  140.3767  144.2034  150.6131 H   0  0  0  0  0  0  0  0  0  0  0  0  # atno 10167 bound_to 10162
  156.0300  130.4383  150.2668 H   0  0  0  0  0  0  0  0  0  0  0  0  # atno 10718 bound_to 10713
  154.3684  135.2753  155.2280 H   0  0  0  0  0  0  0  0  0  0  0  0  # atno 10763 bound_to 10752
  154.4439  135.5947  153.6150 H   0  0  0  0  0  0  0  0  0  0  0  0  # atno 10764 bound_to 10752
  152.9839  135.6025  154.3912 H   0  0  0  0  0  0  0  0  0  0  0  0  # atno 10765 bound_to 10752
  139.9117  134.7957  156.1973 H   0  0  0  0  0  0  0  0  0  0  0  0  # atno 11005 bound_to 11000
  146.3460  139.9469  142.8734 LP  0  0  0  0  0  0  0  0  0  0  0  0  # atno 17320 bound_to 7965
  145.2094  140.9889  143.4109 LP  0  0  0  0  0  0  0  0  0  0  0  0  # atno 17321 bound_to 7965
  140.4979  143.2327  151.8722 LP  0  0  0  0  0  0  0  0  0  0  0  0  # atno 17342 bound_to 10162
  139.4799  144.5093  151.8955 LP  0  0  0  0  0  0  0  0  0  0  0  0  # atno 17343 bound_to 10162
  157.0771  131.0133  151.3170 LP  0  0  0  0  0  0  0  0  0  0  0  0  # atno 17370 bound_to 10713
  157.4956  130.7848  149.7551 LP  0  0  0  0  0  0  0  0  0  0  0  0  # atno 17371 bound_to 10713
  141.0547  133.6871  156.1837 LP  0  0  0  0  0  0  0  0  0  0  0  0  # atno 17394 bound_to 11000
  140.6756  134.4821  157.5588 LP  0  0  0  0  0  0  0  0  0  0  0  0  # atno 17395 bound_to 11000

$$$$
