AV-unprocessed.smi:2182|AV-procd|sdf|8863|dock9
  -GOLD-   2272012 63D 1   1.00000     0.00000
 Structure written by MMmdl.
 41 43  0  0  0  0  0  0  0  0  1 V2000
  155.5903  140.4817  160.9066 N   0  0  0  0  0  0  0  0  0  0  0  0
  154.6471  140.9006  160.3827 C   0  0  0  0  0  0  0  0  0  0  0  0
  153.4987  141.4107  159.7092 C   0  0  0  0  0  0  0  0  0  0  0  0
  152.9772  142.6180  160.0093 C   0  0  0  0  0  0  0  0  0  0  0  0
  151.8728  143.1301  159.3641 N   0  0  0  0  0  0  0  0  0  0  0  0
  151.2393  144.3391  159.8100 C   0  0  0  0  0  0  0  0  0  0  0  0
  151.8717  145.6875  159.5238 C   0  0  0  0  0  0  0  0  0  0  0  0
  151.8788  145.1335  160.9277 C   0  0  0  0  0  0  0  0  0  0  0  0
  151.1924  142.3551  158.4002 C   0  0  0  0  0  0  0  0  0  0  0  0
  150.1463  142.7548  157.8816 O   0  0  0  0  0  0  0  0  0  0  0  0
  151.7391  141.0947  158.0559 N   0  0  0  0  0  0  0  0  0  0  0  0
  151.0345  140.2807  157.0416 C   0  0  0  0  0  0  0  0  0  0  0  0
  150.3026  139.0771  157.6525 C   0  0  0  0  0  0  0  0  0  0  0  0
  149.3209  139.2416  158.3780 O   0  0  0  0  0  0  0  0  0  0  0  0
  150.7984  137.8688  157.3464 N   0  0  0  0  0  0  0  0  0  0  0  0
  150.2317  136.5912  157.7655 C   0  0  0  0  0  0  0  0  0  0  0  0
  150.6066  135.4585  156.7936 C   0  0  2  0  0  0  0  0  0  0  0  0
  149.8736  135.4762  155.4530 C   0  0  0  0  0  0  0  0  0  0  0  0
  149.9907  134.0373  154.9840 C   0  0  0  0  0  0  0  0  0  0  0  0
  150.2394  133.2467  156.2733 C   0  0  0  0  0  0  0  0  0  0  0  0
  150.2222  134.2022  157.3278 O   0  0  0  0  0  0  0  0  0  0  0  0
  152.8982  140.5656  158.6795 C   0  0  0  0  0  0  0  0  0  0  0  0
  153.3409  139.4594  158.3659 O   0  0  0  0  0  0  0  0  0  0  0  0
  153.4444  143.2112  160.7825 H   0  0  0  0  0  0  0  0  0  0  0  0
  150.1509  144.3185  159.8081 H   0  0  0  0  0  0  0  0  0  0  0  0
  152.8226  145.7098  158.9946 H   0  0  0  0  0  0  0  0  0  0  0  0
  151.2029  146.5198  159.3144 H   0  0  0  0  0  0  0  0  0  0  0  0
  151.2161  145.5988  161.6545 H   0  0  0  0  0  0  0  0  0  0  0  0
  152.8331  144.7886  161.3216 H   0  0  0  0  0  0  0  0  0  0  0  0
  150.3234  140.9007  156.4924 H   0  0  0  0  0  0  0  0  0  0  0  0
  151.7128  139.9098  156.2723 H   0  0  0  0  0  0  0  0  0  0  0  0
  151.6131  137.8299  156.7510 H   0  0  0  0  0  0  0  0  0  0  0  0
  150.6255  136.3627  158.7560 H   0  0  0  0  0  0  0  0  0  0  0  0
  149.1482  136.6604  157.8772 H   0  0  0  0  0  0  0  0  0  0  0  0
  151.6857  135.4476  156.6265 H   0  0  0  0  0  0  0  0  0  0  0  0
  148.8228  135.7280  155.6024 H   0  0  0  0  0  0  0  0  0  0  0  0
  150.2964  136.1897  154.7449 H   0  0  0  0  0  0  0  0  0  0  0  0
  149.0909  133.7090  154.4627 H   0  0  0  0  0  0  0  0  0  0  0  0
  150.8348  133.9216  154.3030 H   0  0  0  0  0  0  0  0  0  0  0  0
  149.4813  132.4815  156.4425 H   0  0  0  0  0  0  0  0  0  0  0  0
  151.2139  132.7573  156.2412 H   0  0  0  0  0  0  0  0  0  0  0  0
  1  2  3  0  0  0  0
  2  3  1  0  0  0  0
  3 22  1  0  0  0  0
  3  4  2  0  0  0  0
  4  5  1  0  0  0  0
  4 24  1  0  0  0  0
  5  6  1  0  0  0  0
  5  9  1  0  0  0  0
  6  8  1  0  0  0  0
  6  7  1  0  0  0  0
  6 25  1  0  0  0  0
  7  8  1  0  0  0  0
  7 26  1  0  0  0  0
  7 27  1  0  0  0  0
  8 28  1  0  0  0  0
  8 29  1  0  0  0  0
  9 10  2  0  0  0  0
  9 11  1  0  0  0  0
 11 12  1  0  0  0  0
 11 22  1  0  0  0  0
 12 13  1  0  0  0  0
 12 30  1  0  0  0  0
 12 31  1  0  0  0  0
 13 14  2  0  0  0  0
 13 15  1  0  0  0  0
 15 16  1  0  0  0  0
 15 32  1  0  0  0  0
 16 17  1  0  0  0  0
 16 33  1  0  0  0  0
 16 34  1  0  0  0  0
 17 21  1  0  0  0  0
 17 18  1  0  0  0  0
 17 35  1  0  0  0  0
 18 19  1  0  0  0  0
 18 36  1  0  0  0  0
 18 37  1  0  0  0  0
 19 20  1  0  0  0  0
 19 38  1  0  0  0  0
 19 39  1  0  0  0  0
 20 21  1  0  0  0  0
 20 40  1  0  0  0  0
 20 41  1  0  0  0  0
 22 23  2  0  0  0  0
M  END
> <s_m_source_file>
AV-unprocessed.smi

> <i_m_source_file_index>
2182

> <i_lp_mmshare_version>
43012

> <i_f3d_flags>
0

> <s_epik_input>
TiNDYzFbY0hdbihbQ0hdMltDSDJdW0NIMl0yKWMoPU8pbihjMT1PKVtDSDJdQyg9TylbTkhdW0NIMl1bQ0BASF0zW0NIMl1bQ0gyXVtDSDJdTzM=

> <s_epik_cmdline>
J2VwaWtfcHl0aG9uJywgJy1waCcsICc3LjAnLCAnLXRuJywgJzgnLCAnLW1hJywgJzIwMCcsICctbWV0YWxfYmluZGluZycsICctaW1hZScsICc8aW5maWxlLm1hZT4nLCAnLW9tYWUnLCAnPG91dGZpbGUubWFlPic=

> <r_lp_tautomer_probability>
1

> <r_epik_Ionization_Penalty>
2.69429e-08

> <r_epik_Ionization_Penalty_Charging>
8.38654e-11

> <r_epik_Ionization_Penalty_Neutral>
2.6859e-08

> <r_epik_State_Penalty>
-0

> <r_epik_Charging_Adjusted_Penalty>
8.38654e-11

> <i_epik_Tot_Q>
0

> <i_epik_Tot_abs_Q>
0

> <r_epik_Metal_State_Penalty>
-0

> <b_epik_Metal_Only>
0

> <s_lp_Force_Field>
OPLS_2005

> <r_lp_Energy>
43.5175

> <b_lp_Chiralities_Consistent>
1

> <s_lp_Variant>
AV-unprocessed.smi:2182-1

> <Gold.Version>
5.8.1

> <Gold.Id.Protein>
6NUR|6NUR_protein|mol2

> <Gold.PLP.Fitness>
45.9195

> <Gold.PLP.PLP>
-41.5621

> <Gold.PLP.part.hbond>
-3.0063

> <Gold.PLP.part.metal>
0.0000

> <Gold.PLP.part.buried>
-3.3995

> <Gold.PLP.part.nonpolar>
-35.5888

> <Gold.PLP.part.repulsive>
0.1680

> <Gold.PLP.ligand.clash>
0.0000

> <Gold.PLP.ligand.torsion>
0.5869

> <Gold.PLP.Chemscore.Hbond>
1.7680

> <Gold.PLP.Chemscore.CHOScore>
0.0000

> <Gold.PLP.Chemscore.Metal>
0.0000

> <Gold.Chemscore.Hbonds>
donor molecule, donor type, donor heavy atom, donor atom, acceptor molecule, acceptor atom, score
      P1  H  6896  6909       L1    21  0.76
      P1  H  7997  8010       L1    23  1.00

> <Gold.PLP.Chemscore.Internal.Correction>
0.2271

> <Gold.Rescore>
     Score         DG    S(hbond)    S(metal)    S(lipo)     H(rot)  DE(clash)    DE(int)     intcor
     12.20     -13.04       0.93        0.00      83.38       2.08       0.13       0.71       ----

> <Gold.Chemscore.Fitness>
12.2039

> <Gold.Chemscore.DG>
-13.0379

> <Gold.Chemscore.ZeroCoef>
-5.4800

> <Gold.Chemscore.Hbond>
0.9347

> <Gold.Chemscore.Metal>
0.0000

> <Gold.Chemscore.Lipo>
83.3771

> <Gold.Chemscore.Internal_Hbond>
0.0000

> <Gold.Chemscore.DEClash>
0.1256

> <Gold.Chemscore.DEInternal>
0.7083

> <Gold.Chemscore.Rot>
2.0778

> <Gold.Chemscore.Internal.Correction>
   9.000000E+99

> <Gold.Chemscore.Hbonds>
donor molecule, donor type, donor heavy atom, donor atom, acceptor molecule, acceptor atom, score
      P1  H  6896  6909       L1    21  0.65
      P1  H  7997  8010       L1    23  0.24

> <Gold.Chemscore.Hbond.Weighted>
-3.1218

> <Gold.Chemscore.Metal.Weighted>
-0.0000

> <Gold.Chemscore.Lipo.Weighted>
-9.7551

> <Gold.Chemscore.Internal_Hbond.Weighted>
0.0000

> <Gold.Chemscore.DEClash.Weighted>
0.1256

> <Gold.Chemscore.DEInternal.Weighted>
0.7083

> <Gold.Chemscore.Rot.Weighted>
5.3191

> <Gold.Chemscore.Internal.Correction.Weighted>
   9.000000E+99

> <Gold.Protein.RotatedTorsions>
[ 6907 6896 6895 6894 ] final    2.35 input  -60.11 | X-H torsion
[ 7974 7965 7964 7962 ] final  118.81 input  175.53 | X-H torsion
[ 8008 7997 7996 7995 ] final   12.18 input   59.86 | X-H torsion
[ 10167 10162 10161 10158 ] final  168.27 input  -65.29 | X-H torsion
[ 10718 10713 10712 10709 ] final  -21.61 input   66.30 | X-H torsion
[ 10763 10752 10751 10750 ] final -156.74 input  -60.55 | X-H torsion
[ 11005 11000 10999 10996 ] final  164.11 input  -57.11 | X-H torsion

> <Gold.Protein.ActiveResidues>
 VAL166  LYS551  ARG553  GLY616  TRP617  ASP618  TYR619  PRO620  LYS621  CYS622 
 ASP623  PHE694  ASN695  SER759  ASP760  ASP761  ALA762  ILE779  LEU786  VAL792 
 PHE793  MET794  SER795  GLU796  ALA797  LYS798  CYS799  TRP800  GLU811  SER814 

> <Gold.Protein.RotatedAtoms>
  151.6074  135.1043  160.0073 H   0  0  0  0  0  0  0  0  0  0  0  0  # atno 6907 bound_to 6896
  152.4226  133.7137  159.6504 H   0  0  0  0  0  0  0  0  0  0  0  0  # atno 6908 bound_to 6896
  150.8114  133.8343  159.3202 H   0  0  0  0  0  0  0  0  0  0  0  0  # atno 6909 bound_to 6896
  145.1507  139.3212  143.4568 H   0  0  0  0  0  0  0  0  0  0  0  0  # atno 7974 bound_to 7965
  154.8171  140.2878  155.5812 H   0  0  0  0  0  0  0  0  0  0  0  0  # atno 8008 bound_to 7997
  156.2994  140.2557  156.3001 H   0  0  0  0  0  0  0  0  0  0  0  0  # atno 8009 bound_to 7997
  154.9381  140.0382  157.2072 H   0  0  0  0  0  0  0  0  0  0  0  0  # atno 8010 bound_to 7997
  139.4964  144.3833  151.9598 H   0  0  0  0  0  0  0  0  0  0  0  0  # atno 10167 bound_to 10162
  156.5157  130.4620  149.6623 H   0  0  0  0  0  0  0  0  0  0  0  0  # atno 10718 bound_to 10713
  154.7690  135.3139  154.8229 H   0  0  0  0  0  0  0  0  0  0  0  0  # atno 10763 bound_to 10752
  153.8969  135.6819  153.4761 H   0  0  0  0  0  0  0  0  0  0  0  0  # atno 10764 bound_to 10752
  153.1300  135.4784  154.9268 H   0  0  0  0  0  0  0  0  0  0  0  0  # atno 10765 bound_to 10752
  140.2426  134.8039  157.3425 H   0  0  0  0  0  0  0  0  0  0  0  0  # atno 11005 bound_to 11000
  146.3495  140.1581  142.8591 LP  0  0  0  0  0  0  0  0  0  0  0  0  # atno 17320 bound_to 7965
  145.0433  140.8962  143.5039 LP  0  0  0  0  0  0  0  0  0  0  0  0  # atno 17321 bound_to 7965
  140.3270  144.3362  150.5996 LP  0  0  0  0  0  0  0  0  0  0  0  0  # atno 17342 bound_to 10162
  140.5676  143.2184  151.7655 LP  0  0  0  0  0  0  0  0  0  0  0  0  # atno 17343 bound_to 10162
  156.3197  130.7274  151.2183 LP  0  0  0  0  0  0  0  0  0  0  0  0  # atno 17370 bound_to 10713
  157.7444  131.0459  150.4866 LP  0  0  0  0  0  0  0  0  0  0  0  0  # atno 17371 bound_to 10713
  140.1638  134.4695  155.7876 LP  0  0  0  0  0  0  0  0  0  0  0  0  # atno 17394 bound_to 11000
  141.2209  133.6912  156.7590 LP  0  0  0  0  0  0  0  0  0  0  0  0  # atno 17395 bound_to 11000

$$$$
