AV-unprocessed.smi:2188|AV-procd|sdf|8883|dock3
  -GOLD-   2272012 83D 1   1.00000     0.00000
 Structure written by MMmdl.
 39 41  0  0  0  0  0  0  0  0  3 V2000
  153.7417  142.1819  161.9976 O   0  0  0  0  0  0  0  0  0  0  0  0
  153.6981  142.0001  160.7735 C   0  0  0  0  0  0  0  0  0  0  0  0
  154.6022  141.2599  160.0592 N   0  5  0  0  0  0  0  0  0  0  0  0
  155.2032  139.9995  160.4929 C   0  0  0  0  0  0  0  0  0  0  0  0
  155.5934  140.1009  161.9807 C   0  0  0  0  0  0  0  0  0  0  0  0
  155.1190  138.9212  162.8179 C   0  0  0  0  0  0  0  0  0  0  0  0
  155.4945  138.8025  164.1766 C   0  0  0  0  0  0  0  0  0  0  0  0
  155.0470  137.6949  164.9261 C   0  0  0  0  0  0  0  0  0  0  0  0
  154.2373  136.7253  164.3006 C   0  0  0  0  0  0  0  0  0  0  0  0
  153.9029  136.8663  162.9992 N   0  3  0  0  0  0  0  0  0  0  0  0
  154.3104  137.9121  162.2471 C   0  0  0  0  0  0  0  0  0  0  0  0
  152.6185  142.6384  159.9923 C   0  0  0  0  0  0  0  0  0  0  0  0
  152.2119  143.8871  160.3455 C   0  0  0  0  0  0  0  0  0  0  0  0
  151.1765  144.5850  159.6253 C   0  0  0  0  0  0  0  0  0  0  0  0
  150.5890  143.9549  158.6032 C   0  0  0  0  0  0  0  0  0  0  0  0
  150.9297  142.6635  158.2050 N   0  0  0  0  0  0  0  0  0  0  0  0
  150.1305  142.0699  157.1386 C   0  0  0  0  0  0  0  0  0  0  0  0
  151.0186  141.3030  156.1762 C   0  0  0  0  0  0  0  0  0  0  0  0
  151.7491  139.9411  157.1527 S   0  0  0  0  0  0  0  0  0  0  0  0
  150.6501  139.1111  157.6706 O   0  0  0  0  0  0  0  0  0  0  0  0
  152.8059  139.3152  156.3436 O   0  0  0  0  0  0  0  0  0  0  0  0
  152.4316  140.8051  158.4148 N   0  0  0  0  0  0  0  0  0  0  0  0
  151.9944  141.9589  158.8356 C   0  0  0  0  0  0  0  0  0  0  0  0
  154.5269  139.1523  160.3708 H   0  0  0  0  0  0  0  0  0  0  0  0
  156.0912  139.7595  159.9074 H   0  0  0  0  0  0  0  0  0  0  0  0
  156.6774  140.1822  162.0750 H   0  0  0  0  0  0  0  0  0  0  0  0
  155.1827  141.0160  162.4104 H   0  0  0  0  0  0  0  0  0  0  0  0
  156.1148  139.5559  164.6403 H   0  0  0  0  0  0  0  0  0  0  0  0
  155.3212  137.5925  165.9659 H   0  0  0  0  0  0  0  0  0  0  0  0
  153.8507  135.8478  164.7978 H   0  0  0  0  0  0  0  0  0  0  0  0
  153.9772  137.9137  161.2193 H   0  0  0  0  0  0  0  0  0  0  0  0
  152.6492  144.3974  161.1919 H   0  0  0  0  0  0  0  0  0  0  0  0
  150.8851  145.5868  159.9038 H   0  0  0  0  0  0  0  0  0  0  0  0
  149.8060  144.4252  158.0263 H   0  0  0  0  0  0  0  0  0  0  0  0
  149.3740  141.4176  157.5759 H   0  0  0  0  0  0  0  0  0  0  0  0
  149.5945  142.8401  156.5832 H   0  0  0  0  0  0  0  0  0  0  0  0
  150.4498  140.8766  155.3504 H   0  0  0  0  0  0  0  0  0  0  0  0
  151.8157  141.9248  155.7671 H   0  0  0  0  0  0  0  0  0  0  0  0
  153.3168  136.1528  162.5653 H   0  0  0  0  0  0  0  0  0  0  0  0
  1  2  2  0  0  0  0
  2  3  1  0  0  0  0
  2 12  1  0  0  0  0
  3  4  1  0  0  0  0
  4  5  1  0  0  0  0
  4 24  1  0  0  0  0
  4 25  1  0  0  0  0
  5  6  1  0  0  0  0
  5 26  1  0  0  0  0
  5 27  1  0  0  0  0
  6 11  1  0  0  0  0
  6  7  2  0  0  0  0
  7  8  1  0  0  0  0
  7 28  1  0  0  0  0
  8  9  2  0  0  0  0
  8 29  1  0  0  0  0
  9 10  1  0  0  0  0
  9 30  1  0  0  0  0
 10 11  2  0  0  0  0
 10 39  1  0  0  0  0
 11 31  1  0  0  0  0
 12 23  1  0  0  0  0
 12 13  2  0  0  0  0
 13 14  1  0  0  0  0
 13 32  1  0  0  0  0
 14 15  2  0  0  0  0
 14 33  1  0  0  0  0
 15 16  1  0  0  0  0
 15 34  1  0  0  0  0
 16 23  1  0  0  0  0
 16 17  1  0  0  0  0
 17 18  1  0  0  0  0
 17 35  1  0  0  0  0
 17 36  1  0  0  0  0
 18 19  1  0  0  0  0
 18 37  1  0  0  0  0
 18 38  1  0  0  0  0
 19 20  2  0  0  0  0
 19 21  2  0  0  0  0
 19 22  1  0  0  0  0
 22 23  2  0  0  0  0
M  CHG  1   3  -1
M  CHG  1  10   1
M  END
> <s_m_source_file>
AV-unprocessed.smi

> <i_m_source_file_index>
2188

> <i_lp_mmshare_version>
43012

> <i_f3d_flags>
0

> <s_epik_input>
W0NIMl0xW0NIMl1TKD1PKSg9TylOPUMoTjEyKUMoPVtDSF1bQ0hdPVtDSF0yKUMoPU8pW05IXVtDSDJdW0NIMl1jM1tjSF1bY0hdW2NIXW5bY0hdMw==

> <s_epik_cmdline>
J2VwaWtfcHl0aG9uJywgJy1waCcsICc3LjAnLCAnLXRuJywgJzgnLCAnLW1hJywgJzIwMCcsICctbWV0YWxfYmluZGluZycsICctaW1hZScsICc8aW5maWxlLm1hZT4nLCAnLW9tYWUnLCAnPG91dGZpbGUubWFlPic=

> <r_epik_Ionization_Penalty>
7.27179

> <r_epik_Ionization_Penalty_Charging>
7.27179

> <r_epik_Ionization_Penalty_Neutral>
0

> <r_epik_State_Penalty>
7.89047

> <r_epik_Charging_Adjusted_Penalty>
15.1623

> <i_epik_Tot_Q>
0

> <i_epik_Tot_abs_Q>
2

> <r_epik_Metal_State_Penalty>
3.9241

> <b_epik_Metal_Only>
1

> <s_lp_Force_Field>
OPLS_2005

> <r_lp_Energy>
37.465

> <b_lp_Chiralities_Consistent>
1

> <s_lp_Variant>
AV-unprocessed.smi:2188-4

> <Gold.Version>
5.8.1

> <Gold.Id.Protein>
6NUR|6NUR_protein|mol2

> <Gold.PLP.Fitness>
51.5261

> <Gold.PLP.PLP>
-47.2938

> <Gold.PLP.part.hbond>
-1.5162

> <Gold.PLP.part.metal>
0.0000

> <Gold.PLP.part.buried>
-6.4476

> <Gold.PLP.part.nonpolar>
-39.1079

> <Gold.PLP.part.repulsive>
0.0495

> <Gold.PLP.ligand.clash>
0.0000

> <Gold.PLP.ligand.torsion>
1.3342

> <Gold.PLP.Chemscore.Hbond>
1.0000

> <Gold.PLP.Chemscore.CHOScore>
1.1976

> <Gold.PLP.Chemscore.Metal>
0.0000

> <Gold.Chemscore.Hbonds>
donor molecule, donor type, donor heavy atom, donor atom, acceptor molecule, acceptor atom, score
      P1  H  7997  8008       L1    21  1.00
      L1  C    15    34       P1  8028  0.63
      L1  C    15    34       P1  8029  0.56

> <Gold.PLP.Chemscore.Internal.Correction>
0.3079

> <Gold.Rescore>
     Score         DG    S(hbond)    S(metal)    S(lipo)     H(rot)  DE(clash)    DE(int)     intcor
     13.25     -17.50       0.96        0.00     108.46       1.51       0.05       4.20       ----

> <Gold.Chemscore.Fitness>
13.2544

> <Gold.Chemscore.DG>
-17.5000

> <Gold.Chemscore.ZeroCoef>
-5.4800

> <Gold.Chemscore.Hbond>
0.9575

> <Gold.Chemscore.Metal>
0.0000

> <Gold.Chemscore.Lipo>
108.4617

> <Gold.Chemscore.Internal_Hbond>
0.0000

> <Gold.Chemscore.DEClash>
0.0458

> <Gold.Chemscore.DEInternal>
4.1998

> <Gold.Chemscore.Rot>
1.5109

> <Gold.Chemscore.Internal.Correction>
   9.000000E+99

> <Gold.Chemscore.Hbonds>
donor molecule, donor type, donor heavy atom, donor atom, acceptor molecule, acceptor atom, score
      P1  H  7997  8008       L1    21  0.88

> <Gold.Chemscore.Hbond.Weighted>
-3.1980

> <Gold.Chemscore.Metal.Weighted>
-0.0000

> <Gold.Chemscore.Lipo.Weighted>
-12.6900

> <Gold.Chemscore.Internal_Hbond.Weighted>
0.0000

> <Gold.Chemscore.DEClash.Weighted>
0.0458

> <Gold.Chemscore.DEInternal.Weighted>
4.1998

> <Gold.Chemscore.Rot.Weighted>
3.8680

> <Gold.Chemscore.Internal.Correction.Weighted>
   9.000000E+99

> <Gold.Protein.RotatedTorsions>
[ 6907 6896 6895 6894 ] final  104.56 input  -60.11 | X-H torsion
[ 7974 7965 7964 7962 ] final  175.32 input  175.53 | X-H torsion
[ 8008 7997 7996 7995 ] final  -50.47 input   59.86 | X-H torsion
[ 10167 10162 10161 10158 ] final  106.95 input  -65.29 | X-H torsion
[ 10718 10713 10712 10709 ] final -119.93 input   66.30 | X-H torsion
[ 10763 10752 10751 10750 ] final  158.22 input  -60.55 | X-H torsion
[ 11005 11000 10999 10996 ] final -161.00 input  -57.11 | X-H torsion

> <Gold.Protein.ActiveResidues>
 VAL166  LYS551  ARG553  GLY616  TRP617  ASP618  TYR619  PRO620  LYS621  CYS622 
 ASP623  PHE694  ASN695  SER759  ASP760  ASP761  ALA762  ILE779  LEU786  VAL792 
 PHE793  MET794  SER795  GLU796  ALA797  LYS798  CYS799  TRP800  GLU811  SER814 

> <Gold.Protein.RotatedAtoms>
  152.5260  133.9658  159.7738 H   0  0  0  0  0  0  0  0  0  0  0  0  # atno 6907 bound_to 6896
  150.9939  133.6114  159.2711 H   0  0  0  0  0  0  0  0  0  0  0  0  # atno 6908 bound_to 6896
  151.3247  135.0833  159.9371 H   0  0  0  0  0  0  0  0  0  0  0  0  # atno 6909 bound_to 6896
  144.7204  139.9930  143.6440 H   0  0  0  0  0  0  0  0  0  0  0  0  # atno 7974 bound_to 7965
  154.4063  140.1271  156.4671 H   0  0  0  0  0  0  0  0  0  0  0  0  # atno 8008 bound_to 7997
  155.7216  140.3492  155.4999 H   0  0  0  0  0  0  0  0  0  0  0  0  # atno 8009 bound_to 7997
  155.9209  140.1052  157.1198 H   0  0  0  0  0  0  0  0  0  0  0  0  # atno 8010 bound_to 7997
  139.6967  144.7100  151.1255 H   0  0  0  0  0  0  0  0  0  0  0  0  # atno 10167 bound_to 10162
  156.1219  130.6330  150.9478 H   0  0  0  0  0  0  0  0  0  0  0  0  # atno 10718 bound_to 10713
  154.2126  135.2785  155.2953 H   0  0  0  0  0  0  0  0  0  0  0  0  # atno 10763 bound_to 10752
  154.5766  135.5602  153.7148 H   0  0  0  0  0  0  0  0  0  0  0  0  # atno 10764 bound_to 10752
  153.0060  135.6334  154.2265 H   0  0  0  0  0  0  0  0  0  0  0  0  # atno 10765 bound_to 10752
  140.6253  134.4708  157.5226 H   0  0  0  0  0  0  0  0  0  0  0  0  # atno 11005 bound_to 11000
  146.0397  139.3410  143.0705 LP  0  0  0  0  0  0  0  0  0  0  0  0  # atno 17320 bound_to 7965
  145.8350  140.9610  143.0829 LP  0  0  0  0  0  0  0  0  0  0  0  0  # atno 17321 bound_to 7965
  140.7698  143.5482  150.9235 LP  0  0  0  0  0  0  0  0  0  0  0  0  # atno 17342 bound_to 10162
  139.9161  143.6661  152.3106 LP  0  0  0  0  0  0  0  0  0  0  0  0  # atno 17343 bound_to 10162
  157.6402  131.0911  150.8266 LP  0  0  0  0  0  0  0  0  0  0  0  0  # atno 17370 bound_to 10713
  156.8362  130.5032  149.5326 LP  0  0  0  0  0  0  0  0  0  0  0  0  # atno 17371 bound_to 10713
  139.9137  134.8291  156.1439 LP  0  0  0  0  0  0  0  0  0  0  0  0  # atno 17394 bound_to 11000
  141.0714  133.6795  156.2147 LP  0  0  0  0  0  0  0  0  0  0  0  0  # atno 17395 bound_to 11000

$$$$
