AV-unprocessed.smi:2001|AV-procd|sdf|8110|dock3
  -GOLD-   2272010343D 1   1.00000     0.00000
 Structure written by MMmdl.
 50 51  0  0  0  0  0  0  0  0  3 V2000
  150.2183  143.6741  158.8355 C   0  0  0  0  0  0  0  0  0  0  0  0
  150.1046  142.4050  158.2175 O   0  0  0  0  0  0  0  0  0  0  0  0
  151.2570  142.0580  157.4674 C   0  0  0  0  0  0  0  0  0  0  0  0
  151.5559  140.5589  157.6308 C   0  0  0  0  0  0  0  0  0  0  0  0
  151.3064  139.8133  156.3917 N   0  0  0  0  0  0  0  0  0  0  0  0
  150.0554  140.0412  155.8429 N   0  0  0  0  0  0  0  0  0  0  0  0
  149.7012  139.4494  154.7479 C   0  0  0  0  0  0  0  0  0  0  0  0
  148.3413  139.6819  154.1630 C   0  0  0  0  0  0  0  0  0  0  0  0
  147.8577  140.8014  154.3808 O   0  0  0  0  0  0  0  0  0  0  0  0
  147.7418  138.6769  153.4559 N   0  5  0  0  0  0  0  0  0  0  0  0
  146.3636  138.2241  153.6325 C   0  0  0  0  0  0  0  0  0  0  0  0
  145.8613  137.5874  152.3225 C   0  0  0  0  0  0  0  0  0  0  0  0
  146.1610  136.1321  152.2533 N   0  3  1  0  0  0  0  0  0  0  0  0
  145.9575  135.4415  153.5498 C   0  0  0  0  0  0  0  0  0  0  0  0
  146.3500  133.9536  153.4583 C   0  0  2  0  0  0  0  0  0  0  0  0
  147.8704  133.7207  153.4101 C   0  0  0  0  0  0  0  0  0  0  0  0
  145.6736  133.3282  152.3680 O   0  0  0  0  0  0  0  0  0  0  0  0
  145.8783  133.9490  151.1015 C   0  0  1  0  0  0  0  0  0  0  0  0
  145.0852  133.1569  150.0562 C   0  0  0  0  0  0  0  0  0  0  0  0
  145.4290  135.4187  151.1749 C   0  0  0  0  0  0  0  0  0  0  0  0
  150.6189  138.5408  154.0710 C   0  0  0  0  0  0  0  0  0  0  0  0
  151.8356  138.3292  154.6181 C   0  0  0  0  0  0  0  0  0  0  0  0
  152.2519  138.9823  155.8591 C   0  0  0  0  0  0  0  0  0  0  0  0
  153.3538  138.7997  156.3764 O   0  0  0  0  0  0  0  0  0  0  0  0
  149.3139  143.8850  159.4057 H   0  0  0  0  0  0  0  0  0  0  0  0
  150.3412  144.4642  158.0939 H   0  0  0  0  0  0  0  0  0  0  0  0
  151.0640  143.7035  159.5232 H   0  0  0  0  0  0  0  0  0  0  0  0
  151.0795  142.2778  156.4138 H   0  0  0  0  0  0  0  0  0  0  0  0
  152.1145  142.6548  157.7826 H   0  0  0  0  0  0  0  0  0  0  0  0
  152.5767  140.4136  157.9885 H   0  0  0  0  0  0  0  0  0  0  0  0
  150.9184  140.1559  158.4196 H   0  0  0  0  0  0  0  0  0  0  0  0
  146.2717  137.4917  154.4356 H   0  0  0  0  0  0  0  0  0  0  0  0
  145.7022  139.0477  153.9039 H   0  0  0  0  0  0  0  0  0  0  0  0
  144.7823  137.7420  152.2674 H   0  0  0  0  0  0  0  0  0  0  0  0
  146.2821  138.0963  151.4533 H   0  0  0  0  0  0  0  0  0  0  0  0
  146.5401  135.9299  154.3323 H   0  0  0  0  0  0  0  0  0  0  0  0
  144.9078  135.5290  153.8354 H   0  0  0  0  0  0  0  0  0  0  0  0
  145.9856  133.4598  154.3597 H   0  0  0  0  0  0  0  0  0  0  0  0
  148.3457  134.0868  154.3203 H   0  0  0  0  0  0  0  0  0  0  0  0
  148.3419  134.2323  152.5715 H   0  0  0  0  0  0  0  0  0  0  0  0
  148.0977  132.6576  153.3252 H   0  0  0  0  0  0  0  0  0  0  0  0
  146.9335  133.9008  150.8317 H   0  0  0  0  0  0  0  0  0  0  0  0
  145.2121  133.5830  149.0606 H   0  0  0  0  0  0  0  0  0  0  0  0
  144.0193  133.1554  150.2863 H   0  0  0  0  0  0  0  0  0  0  0  0
  145.4189  132.1196  150.0181 H   0  0  0  0  0  0  0  0  0  0  0  0
  144.3557  135.4769  151.3634 H   0  0  0  0  0  0  0  0  0  0  0  0
  145.6082  135.9019  150.2137 H   0  0  0  0  0  0  0  0  0  0  0  0
  150.3512  138.0412  153.1519 H   0  0  0  0  0  0  0  0  0  0  0  0
  152.5236  137.6589  154.1246 H   0  0  0  0  0  0  0  0  0  0  0  0
  147.1469  136.0606  152.0455 H   0  0  0  0  0  0  0  0  0  0  0  0
  1  2  1  0  0  0  0
  1 25  1  0  0  0  0
  1 26  1  0  0  0  0
  1 27  1  0  0  0  0
  2  3  1  0  0  0  0
  3  4  1  0  0  0  0
  3 28  1  0  0  0  0
  3 29  1  0  0  0  0
  4  5  1  0  0  0  0
  4 30  1  0  0  0  0
  4 31  1  0  0  0  0
  5 23  1  0  0  0  0
  5  6  1  0  0  0  0
  6  7  2  0  0  0  0
  7  8  1  0  0  0  0
  7 21  1  0  0  0  0
  8  9  2  0  0  0  0
  8 10  1  0  0  0  0
 10 11  1  0  0  0  0
 11 12  1  0  0  0  0
 11 32  1  0  0  0  0
 11 33  1  0  0  0  0
 12 13  1  0  0  0  0
 12 34  1  0  0  0  0
 12 35  1  0  0  0  0
 13 20  1  0  0  0  0
 13 14  1  0  0  0  0
 13 50  1  0  0  0  0
 14 15  1  0  0  0  0
 14 36  1  0  0  0  0
 14 37  1  0  0  0  0
 15 16  1  0  0  0  0
 15 17  1  0  0  0  0
 15 38  1  0  0  0  0
 16 39  1  0  0  0  0
 16 40  1  0  0  0  0
 16 41  1  0  0  0  0
 17 18  1  0  0  0  0
 18 19  1  0  0  0  0
 18 20  1  0  0  0  0
 18 42  1  0  0  0  0
 19 43  1  0  0  0  0
 19 44  1  0  0  0  0
 19 45  1  0  0  0  0
 20 46  1  0  0  0  0
 20 47  1  0  0  0  0
 21 22  2  0  0  0  0
 21 48  1  0  0  0  0
 22 23  1  0  0  0  0
 22 49  1  0  0  0  0
 23 24  2  0  0  0  0
M  CHG  1  10  -1
M  CHG  1  13   1
M  END
> <s_m_source_file>
AV-unprocessed.smi

> <i_m_source_file_index>
2001

> <i_lp_mmshare_version>
43012

> <i_f3d_flags>
0

> <s_epik_input>
W0NIM11PW0NIMl1bQ0gyXW4xbmMoW2NIXVtjSF1jMT1PKUMoPU8pW05IXVtDSDJdW0NIMl1OMltDSDJdW0NAQEhdKFtDSDNdKU9bQ0BASF0oW0NIM10pW0NIMl0y

> <s_epik_cmdline>
J2VwaWtfcHl0aG9uJywgJy1waCcsICc3LjAnLCAnLXRuJywgJzgnLCAnLW1hJywgJzIwMCcsICctbWV0YWxfYmluZGluZycsICctaW1hZScsICc8aW5maWxlLm1hZT4nLCAnLW9tYWUnLCAnPG91dGZpbGUubWFlPic=

> <r_lp_tautomer_probability>
1

> <r_epik_Ionization_Penalty>
6.90846

> <r_epik_Ionization_Penalty_Charging>
6.90846

> <r_epik_Ionization_Penalty_Neutral>
1.08445e-11

> <r_epik_State_Penalty>
7.54671

> <r_epik_Charging_Adjusted_Penalty>
14.4552

> <i_epik_Tot_Q>
0

> <i_epik_Tot_abs_Q>
2

> <r_epik_Metal_State_Penalty>
3.46181

> <b_epik_Metal_Only>
1

> <s_lp_Force_Field>
OPLS_2005

> <r_lp_Energy>
44.3308

> <b_lp_Chiralities_Consistent>
1

> <s_lp_Variant>
AV-unprocessed.smi:2001-9

> <Gold.Version>
5.8.1

> <Gold.Id.Protein>
6NUR|6NUR_protein|mol2

> <Gold.PLP.Fitness>
42.4902

> <Gold.PLP.PLP>
-37.0794

> <Gold.PLP.part.hbond>
-1.7850

> <Gold.PLP.part.metal>
0.0000

> <Gold.PLP.part.buried>
-6.2837

> <Gold.PLP.part.nonpolar>
-30.5222

> <Gold.PLP.part.repulsive>
0.7370

> <Gold.PLP.ligand.clash>
0.0000

> <Gold.PLP.ligand.torsion>
1.9757

> <Gold.PLP.Chemscore.Hbond>
3.0000

> <Gold.PLP.Chemscore.CHOScore>
0.0000

> <Gold.PLP.Chemscore.Metal>
0.0000

> <Gold.Chemscore.Hbonds>
donor molecule, donor type, donor heavy atom, donor atom, acceptor molecule, acceptor atom, score
      L1  H    13    50       P1  7948  2.00
      P1  H  7997  8009       L1    24  1.00

> <Gold.PLP.Chemscore.Internal.Correction>
0.3621

> <Gold.Rescore>
     Score         DG    S(hbond)    S(metal)    S(lipo)     H(rot)  DE(clash)    DE(int)     intcor
     14.74     -16.98       2.00        0.00      85.44       2.02       0.36       1.88       ----

> <Gold.Chemscore.Fitness>
14.7357

> <Gold.Chemscore.DG>
-16.9811

> <Gold.Chemscore.ZeroCoef>
-5.4800

> <Gold.Chemscore.Hbond>
1.9971

> <Gold.Chemscore.Metal>
0.0000

> <Gold.Chemscore.Lipo>
85.4431

> <Gold.Chemscore.Internal_Hbond>
0.0000

> <Gold.Chemscore.DEClash>
0.3622

> <Gold.Chemscore.DEInternal>
1.8832

> <Gold.Chemscore.Rot>
2.0179

> <Gold.Chemscore.Internal.Correction>
   9.000000E+99

> <Gold.Chemscore.Hbonds>
donor molecule, donor type, donor heavy atom, donor atom, acceptor molecule, acceptor atom, score
      L1  H    13    50       P1  7948  1.00
      P1  H  7997  8009       L1    24  0.87

> <Gold.Chemscore.Hbond.Weighted>
-6.6702

> <Gold.Chemscore.Metal.Weighted>
-0.0000

> <Gold.Chemscore.Lipo.Weighted>
-9.9968

> <Gold.Chemscore.Internal_Hbond.Weighted>
0.0000

> <Gold.Chemscore.DEClash.Weighted>
0.3622

> <Gold.Chemscore.DEInternal.Weighted>
1.8832

> <Gold.Chemscore.Rot.Weighted>
5.1659

> <Gold.Chemscore.Internal.Correction.Weighted>
   9.000000E+99

> <Gold.Protein.RotatedTorsions>
[ 6907 6896 6895 6894 ] final  -14.90 input  -60.11 | X-H torsion
[ 7974 7965 7964 7962 ] final  -94.22 input  175.53 | X-H torsion
[ 8008 7997 7996 7995 ] final -165.29 input   59.86 | X-H torsion
[ 10167 10162 10161 10158 ] final  173.70 input  -65.29 | X-H torsion
[ 10718 10713 10712 10709 ] final  -36.60 input   66.30 | X-H torsion
[ 10763 10752 10751 10750 ] final   49.04 input  -60.55 | X-H torsion
[ 11005 11000 10999 10996 ] final -174.52 input  -57.11 | X-H torsion

> <Gold.Protein.ActiveResidues>
 VAL166  LYS551  ARG553  GLY616  TRP617  ASP618  TYR619  PRO620  LYS621  CYS622 
 ASP623  PHE694  ASN695  SER759  ASP760  ASP761  ALA762  ILE779  LEU786  VAL792 
 PHE793  MET794  SER795  GLU796  ALA797  LYS798  CYS799  TRP800  GLU811  SER814 

> <Gold.Protein.RotatedAtoms>
  151.3323  135.0844  159.9342 H   0  0  0  0  0  0  0  0  0  0  0  0  # atno 6907 bound_to 6896
  152.5232  133.9531  159.7691 H   0  0  0  0  0  0  0  0  0  0  0  0  # atno 6908 bound_to 6896
  150.9872  133.6133  159.2743 H   0  0  0  0  0  0  0  0  0  0  0  0  # atno 6909 bound_to 6896
  145.3762  140.9512  143.2419 H   0  0  0  0  0  0  0  0  0  0  0  0  # atno 7974 bound_to 7965
  155.8477  140.0958  157.1695 H   0  0  0  0  0  0  0  0  0  0  0  0  # atno 8008 bound_to 7997
  154.3984  140.1389  156.3867 H   0  0  0  0  0  0  0  0  0  0  0  0  # atno 8009 bound_to 7997
  155.7996  140.3453  155.5397 H   0  0  0  0  0  0  0  0  0  0  0  0  # atno 8010 bound_to 7997
  139.5117  144.3231  152.0184 H   0  0  0  0  0  0  0  0  0  0  0  0  # atno 10167 bound_to 10162
  156.3250  130.4271  149.7925 H   0  0  0  0  0  0  0  0  0  0  0  0  # atno 10718 bound_to 10713
  152.9788  135.5925  154.4023 H   0  0  0  0  0  0  0  0  0  0  0  0  # atno 10763 bound_to 10752
  154.3668  135.2767  155.2291 H   0  0  0  0  0  0  0  0  0  0  0  0  # atno 10764 bound_to 10752
  154.4264  135.6047  153.6096 H   0  0  0  0  0  0  0  0  0  0  0  0  # atno 10765 bound_to 10752
  140.4736  134.6142  157.4892 H   0  0  0  0  0  0  0  0  0  0  0  0  # atno 11005 bound_to 11000
  144.8541  139.5277  143.6843 LP  0  0  0  0  0  0  0  0  0  0  0  0  # atno 17320 bound_to 7965
  146.2863  139.7013  142.9193 LP  0  0  0  0  0  0  0  0  0  0  0  0  # atno 17321 bound_to 7965
  140.2672  144.4003  150.6164 LP  0  0  0  0  0  0  0  0  0  0  0  0  # atno 17342 bound_to 10162
  140.6114  143.2170  151.6878 LP  0  0  0  0  0  0  0  0  0  0  0  0  # atno 17343 bound_to 10162
  156.5219  130.8219  151.3206 LP  0  0  0  0  0  0  0  0  0  0  0  0  # atno 17370 bound_to 10713
  157.7419  130.9880  150.2480 LP  0  0  0  0  0  0  0  0  0  0  0  0  # atno 17371 bound_to 10713
  139.9870  134.7046  155.9757 LP  0  0  0  0  0  0  0  0  0  0  0  0  # atno 17394 bound_to 11000
  141.1565  133.6542  156.4178 LP  0  0  0  0  0  0  0  0  0  0  0  0  # atno 17395 bound_to 11000

$$$$
