AV-unprocessed.smi:228|AV-procd|sdf|1744|dock6
  -GOLD-   2262020253D 1   1.00000     0.00000
 Structure written by MMmdl.
 60 63  0  0  0  0  0  0  0  0  2 V2000
  150.8332  135.3591  155.3860 C   0  0  0  0  0  0  0  0  0  0  0  0
  149.6990  135.9680  156.0696 N   0  0  0  0  0  0  0  0  0  0  0  0
  148.4728  135.1685  156.1347 C   0  0  0  0  0  0  0  0  0  0  0  0
  147.6027  135.2736  154.8603 C   0  0  1  0  0  0  0  0  0  0  0  0
  147.9594  136.4607  154.1813 O   0  0  0  0  0  0  0  0  0  0  0  0
  147.8504  134.0904  153.9039 C   0  0  0  0  0  0  0  0  0  0  0  0
  147.1014  134.2303  152.6297 N   0  3  0  0  0  0  0  0  0  0  0  0
  146.9471  132.9420  151.9136 C   0  0  0  0  0  0  0  0  0  0  0  0
  146.2191  133.1558  150.5755 C   0  0  0  0  0  0  0  0  0  0  0  0
  144.9577  133.7690  150.8106 O   0  0  0  0  0  0  0  0  0  0  0  0
  145.0920  135.0462  151.4222 C   0  0  0  0  0  0  0  0  0  0  0  0
  145.7826  134.8938  152.7877 C   0  0  0  0  0  0  0  0  0  0  0  0
  150.0726  136.6633  157.1761 C   0  0  0  0  0  0  0  0  0  0  0  0
  150.0529  136.0627  158.3969 N   0  0  0  0  0  0  0  0  0  0  0  0
  150.4099  136.7429  159.4894 C   0  0  0  0  0  0  0  0  0  0  0  0
  150.8100  138.0111  159.5863 N   0  0  0  0  0  0  0  0  0  0  0  0
  150.8352  138.6216  158.3668 C   0  0  0  0  0  0  0  0  0  0  0  0
  150.4874  138.0236  157.1223 C   0  0  0  0  0  0  0  0  0  0  0  0
  150.6216  138.9518  156.0974 N   0  0  0  0  0  0  0  0  0  0  0  0
  151.0327  140.0343  156.6991 C   0  0  0  0  0  0  0  0  0  0  0  0
  151.1856  139.9282  158.0638 N   0  0  0  0  0  0  0  0  0  0  0  0
  151.6110  140.9690  158.9582 C   0  0  0  0  0  0  0  0  0  0  0  0
  150.9386  142.3447  158.9599 C   0  0  0  0  0  0  0  0  0  0  0  0
  152.2980  142.9982  159.3033 C   0  0  0  0  0  0  0  0  0  0  0  0
  152.6272  144.3162  158.5746 C   0  0  0  0  0  0  0  0  0  0  0  0
  151.8227  145.3939  159.0114 O   0  0  0  0  0  0  0  0  0  0  0  0
  152.5115  143.2421  160.8087 C   0  0  0  0  0  0  0  0  0  0  0  0
  151.7090  144.3040  161.2840 O   0  0  0  0  0  0  0  0  0  0  0  0
  152.9368  141.7039  158.7459 C   0  0  0  0  0  0  0  0  0  0  0  0
  151.5088  136.1148  154.9852 H   0  0  0  0  0  0  0  0  0  0  0  0
  150.4988  134.7447  154.5495 H   0  0  0  0  0  0  0  0  0  0  0  0
  151.3972  134.7213  156.0681 H   0  0  0  0  0  0  0  0  0  0  0  0
  148.7165  134.1246  156.3378 H   0  0  0  0  0  0  0  0  0  0  0  0
  147.9058  135.5025  157.0047 H   0  0  0  0  0  0  0  0  0  0  0  0
  146.5457  135.3312  155.1144 H   0  0  0  0  0  0  0  0  0  0  0  0
  148.2522  136.2327  153.3116 H   0  0  0  0  0  0  0  0  0  0  0  0
  148.9211  134.0162  153.7059 H   0  0  0  0  0  0  0  0  0  0  0  0
  147.5651  133.1491  154.3761 H   0  0  0  0  0  0  0  0  0  0  0  0
  147.9274  132.5005  151.7297 H   0  0  0  0  0  0  0  0  0  0  0  0
  146.3897  132.2406  152.5364 H   0  0  0  0  0  0  0  0  0  0  0  0
  146.8164  133.7715  149.9008 H   0  0  0  0  0  0  0  0  0  0  0  0
  146.0600  132.1995  150.0768 H   0  0  0  0  0  0  0  0  0  0  0  0
  145.6553  135.7181  150.7725 H   0  0  0  0  0  0  0  0  0  0  0  0
  144.1013  135.4825  151.5496 H   0  0  0  0  0  0  0  0  0  0  0  0
  145.1531  134.3040  153.4559 H   0  0  0  0  0  0  0  0  0  0  0  0
  145.8962  135.8759  153.2453 H   0  0  0  0  0  0  0  0  0  0  0  0
  150.3681  136.1943  160.4186 H   0  0  0  0  0  0  0  0  0  0  0  0
  151.2322  140.9477  156.1576 H   0  0  0  0  0  0  0  0  0  0  0  0
  151.5837  140.5440  159.9634 H   0  0  0  0  0  0  0  0  0  0  0  0
  150.5493  142.6274  157.9816 H   0  0  0  0  0  0  0  0  0  0  0  0
  150.1702  142.4633  159.7245 H   0  0  0  0  0  0  0  0  0  0  0  0
  153.6700  144.5939  158.7295 H   0  0  0  0  0  0  0  0  0  0  0  0
  152.4848  144.2172  157.4982 H   0  0  0  0  0  0  0  0  0  0  0  0
  151.1866  145.5859  158.3394 H   0  0  0  0  0  0  0  0  0  0  0  0
  152.2848  142.3458  161.3868 H   0  0  0  0  0  0  0  0  0  0  0  0
  153.5513  143.4891  161.0246 H   0  0  0  0  0  0  0  0  0  0  0  0
  151.1811  143.9850  162.0002 H   0  0  0  0  0  0  0  0  0  0  0  0
  153.7637  141.3082  159.3366 H   0  0  0  0  0  0  0  0  0  0  0  0
  153.2182  141.7745  157.6949 H   0  0  0  0  0  0  0  0  0  0  0  0
  147.6648  134.8190  152.0324 H   0  0  0  0  0  0  0  0  0  0  0  0
  1  2  1  0  0  0  0
  1 30  1  0  0  0  0
  1 31  1  0  0  0  0
  1 32  1  0  0  0  0
  2  3  1  0  0  0  0
  2 13  1  0  0  0  0
  3  4  1  0  0  0  0
  3 33  1  0  0  0  0
  3 34  1  0  0  0  0
  4  5  1  0  0  0  0
  4  6  1  0  0  0  0
  4 35  1  0  0  0  0
  5 36  1  0  0  0  0
  6  7  1  0  0  0  0
  6 37  1  0  0  0  0
  6 38  1  0  0  0  0
  7 12  1  0  0  0  0
  7  8  1  0  0  0  0
  7 60  1  0  0  0  0
  8  9  1  0  0  0  0
  8 39  1  0  0  0  0
  8 40  1  0  0  0  0
  9 10  1  0  0  0  0
  9 41  1  0  0  0  0
  9 42  1  0  0  0  0
 10 11  1  0  0  0  0
 11 12  1  0  0  0  0
 11 43  1  0  0  0  0
 11 44  1  0  0  0  0
 12 45  1  0  0  0  0
 12 46  1  0  0  0  0
 13 18  1  0  0  0  0
 13 14  2  0  0  0  0
 14 15  1  0  0  0  0
 15 16  2  0  0  0  0
 15 47  1  0  0  0  0
 16 17  1  0  0  0  0
 17 21  1  0  0  0  0
 17 18  2  0  0  0  0
 18 19  1  0  0  0  0
 19 20  2  0  0  0  0
 20 21  1  0  0  0  0
 20 48  1  0  0  0  0
 21 22  1  0  0  0  0
 22 29  1  0  0  0  0
 22 23  1  0  0  0  0
 22 49  1  0  0  0  0
 23 24  1  0  0  0  0
 23 50  1  0  0  0  0
 23 51  1  0  0  0  0
 24 25  1  0  0  0  0
 24 27  1  0  0  0  0
 24 29  1  0  0  0  0
 25 26  1  0  0  0  0
 25 52  1  0  0  0  0
 25 53  1  0  0  0  0
 26 54  1  0  0  0  0
 27 28  1  0  0  0  0
 27 55  1  0  0  0  0
 27 56  1  0  0  0  0
 28 57  1  0  0  0  0
 29 58  1  0  0  0  0
 29 59  1  0  0  0  0
M  CHG  1   7   1
M  END
> <s_m_source_file>
AV-unprocessed.smi

> <i_m_source_file_index>
228

> <i_lp_mmshare_version>
43012

> <i_f3d_flags>
0

> <s_epik_input>
W0NIMl0xW0NIMl1PW0NIMl1bQ0gyXU4xW0NIMl1bQ0BASF0oW09IXSlbQ0gyXU4oW0NIM10pYyhuW2NIXW4yKWMoYzIzKW5bY0hdbjNbQ0hdKFtDSDJdNClbQ0gyXUM0KFtDSDJdW09IXSlbQ0gyXVtPSF0=

> <s_epik_cmdline>
J2VwaWtfcHl0aG9uJywgJy1waCcsICc3LjAnLCAnLXRuJywgJzgnLCAnLW1hJywgJzIwMCcsICctbWV0YWxfYmluZGluZycsICctaW1hZScsICc8aW5maWxlLm1hZT4nLCAnLW9tYWUnLCAnPG91dGZpbGUubWFlPic=

> <r_lp_tautomer_probability>
1

> <r_epik_Ionization_Penalty>
0.403032

> <r_epik_Ionization_Penalty_Charging>
0.40072

> <r_epik_Ionization_Penalty_Neutral>
0.00231206

> <r_epik_State_Penalty>
0.387266

> <r_epik_Charging_Adjusted_Penalty>
0.787986

> <i_epik_Tot_Q>
1

> <i_epik_Tot_abs_Q>
1

> <r_epik_Metal_State_Penalty>
0.385845

> <b_epik_Metal_Only>
0

> <s_lp_Force_Field>
OPLS_2005

> <r_lp_Energy>
50.3724

> <b_lp_Chiralities_Consistent>
1

> <s_lp_Variant>
AV-unprocessed.smi:228-2

> <Gold.Version>
5.8.1

> <Gold.Id.Protein>
6NUR|6NUR_protein|mol2

> <Gold.PLP.Fitness>
47.2622

> <Gold.PLP.PLP>
-40.6008

> <Gold.PLP.part.hbond>
-4.3609

> <Gold.PLP.part.metal>
0.0000

> <Gold.PLP.part.buried>
-4.4244

> <Gold.PLP.part.nonpolar>
-32.7115

> <Gold.PLP.part.repulsive>
0.1913

> <Gold.PLP.ligand.clash>
0.0000

> <Gold.PLP.ligand.torsion>
1.9215

> <Gold.PLP.Chemscore.Hbond>
3.0978

> <Gold.PLP.Chemscore.CHOScore>
0.0000

> <Gold.PLP.Chemscore.Metal>
0.0000

> <Gold.Chemscore.Hbonds>
donor molecule, donor type, donor heavy atom, donor atom, acceptor molecule, acceptor atom, score
      L1  H     5    36       P1  7948  1.00
      L1  H     7    60       P1  7948  2.00
      P1  H  6896  6909       L1    14  0.15

> <Gold.PLP.Chemscore.Internal.Correction>
1.2109

> <Gold.Rescore>
     Score         DG    S(hbond)    S(metal)    S(lipo)     H(rot)  DE(clash)    DE(int)     intcor
      8.10     -10.41       1.93        0.00      98.94       5.11       0.58       1.73       ----

> <Gold.Chemscore.Fitness>
8.1012

> <Gold.Chemscore.DG>
-10.4149

> <Gold.Chemscore.ZeroCoef>
-5.4800

> <Gold.Chemscore.Hbond>
1.9319

> <Gold.Chemscore.Metal>
0.0000

> <Gold.Chemscore.Lipo>
98.9439

> <Gold.Chemscore.Internal_Hbond>
0.0000

> <Gold.Chemscore.DEClash>
0.5823

> <Gold.Chemscore.DEInternal>
1.7314

> <Gold.Chemscore.Rot>
5.1149

> <Gold.Chemscore.Internal.Correction>
   9.000000E+99

> <Gold.Chemscore.Hbonds>
donor molecule, donor type, donor heavy atom, donor atom, acceptor molecule, acceptor atom, score
      L1  H     5    36       P1  7948  0.99
      L1  H     7    60       P1  7948  0.66

> <Gold.Chemscore.Hbond.Weighted>
-6.4526

> <Gold.Chemscore.Metal.Weighted>
-0.0000

> <Gold.Chemscore.Lipo.Weighted>
-11.5764

> <Gold.Chemscore.Internal_Hbond.Weighted>
0.0000

> <Gold.Chemscore.DEClash.Weighted>
0.5823

> <Gold.Chemscore.DEInternal.Weighted>
1.7314

> <Gold.Chemscore.Rot.Weighted>
13.0942

> <Gold.Chemscore.Internal.Correction.Weighted>
   9.000000E+99

> <Gold.Protein.RotatedTorsions>
[ 6907 6896 6895 6894 ] final   27.69 input  -60.11 | X-H torsion
[ 7974 7965 7964 7962 ] final -160.40 input  175.53 | X-H torsion
[ 8008 7997 7996 7995 ] final  -10.74 input   59.86 | X-H torsion
[ 10167 10162 10161 10158 ] final  -71.12 input  -65.29 | X-H torsion
[ 10718 10713 10712 10709 ] final    0.80 input   66.30 | X-H torsion
[ 10763 10752 10751 10750 ] final  133.57 input  -60.55 | X-H torsion
[ 11005 11000 10999 10996 ] final  102.67 input  -57.11 | X-H torsion

> <Gold.Protein.ActiveResidues>
 VAL166  LYS551  ARG553  GLY616  TRP617  ASP618  TYR619  PRO620  LYS621  CYS622 
 ASP623  PHE694  ASN695  SER759  ASP760  ASP761  ALA762  ILE779  LEU786  VAL792 
 PHE793  MET794  SER795  GLU796  ALA797  LYS798  CYS799  TRP800  GLU811  SER814 

> <Gold.Protein.RotatedAtoms>
  152.0059  134.9903  160.0566 H   0  0  0  0  0  0  0  0  0  0  0  0  # atno 6907 bound_to 6896
  152.1475  133.4496  159.4805 H   0  0  0  0  0  0  0  0  0  0  0  0  # atno 6908 bound_to 6896
  150.6872  134.2148  159.4416 H   0  0  0  0  0  0  0  0  0  0  0  0  # atno 6909 bound_to 6896
  144.7428  140.3546  143.6108 H   0  0  0  0  0  0  0  0  0  0  0  0  # atno 7974 bound_to 7965
  154.5527  140.2321  155.8459 H   0  0  0  0  0  0  0  0  0  0  0  0  # atno 8008 bound_to 7997
  156.1961  140.3064  155.9391 H   0  0  0  0  0  0  0  0  0  0  0  0  # atno 8009 bound_to 7997
  155.3039  140.0432  157.3021 H   0  0  0  0  0  0  0  0  0  0  0  0  # atno 8010 bound_to 7997
  140.5298  143.2323  151.7282 H   0  0  0  0  0  0  0  0  0  0  0  0  # atno 10167 bound_to 10162
  156.8387  130.5513  149.5679 H   0  0  0  0  0  0  0  0  0  0  0  0  # atno 10718 bound_to 10713
  153.8093  135.3131  155.3399 H   0  0  0  0  0  0  0  0  0  0  0  0  # atno 10763 bound_to 10752
  154.8058  135.4699  154.0391 H   0  0  0  0  0  0  0  0  0  0  0  0  # atno 10764 bound_to 10752
  153.1764  135.6886  153.8626 H   0  0  0  0  0  0  0  0  0  0  0  0  # atno 10765 bound_to 10752
  139.8779  134.9233  156.5093 H   0  0  0  0  0  0  0  0  0  0  0  0  # atno 11005 bound_to 11000
  145.7240  139.1717  143.2468 LP  0  0  0  0  0  0  0  0  0  0  0  0  # atno 17320 bound_to 7965
  146.1256  140.7253  142.9437 LP  0  0  0  0  0  0  0  0  0  0  0  0  # atno 17321 bound_to 7965
  139.4950  144.4131  152.0059 LP  0  0  0  0  0  0  0  0  0  0  0  0  # atno 17342 bound_to 10162
  140.3233  144.3403  150.6004 LP  0  0  0  0  0  0  0  0  0  0  0  0  # atno 17343 bound_to 10162
  156.0893  130.5883  150.9704 LP  0  0  0  0  0  0  0  0  0  0  0  0  # atno 17370 bound_to 10713
  157.6367  131.0915  150.8333 LP  0  0  0  0  0  0  0  0  0  0  0  0  # atno 17371 bound_to 10713
  140.8532  133.8116  155.9189 LP  0  0  0  0  0  0  0  0  0  0  0  0  # atno 17394 bound_to 11000
  140.9123  134.2244  157.4978 LP  0  0  0  0  0  0  0  0  0  0  0  0  # atno 17395 bound_to 11000

$$$$
