AV-unprocessed.smi:21|AV-procd|sdf|168|dock4
  -GOLD-   2262015413D 1   1.00000     0.00000
 Structure written by MMmdl.
 61 64  0  0  0  0  0  0  0  0  1 V2000
  146.9994  129.4052  152.3455 C   0  0  0  0  0  0  0  0  0  0  0  0
  147.8706  130.2458  153.0863 O   0  0  0  0  0  0  0  0  0  0  0  0
  147.3638  131.5619  153.2579 C   0  0  2  0  0  0  0  0  0  0  0  0
  148.3409  132.4613  154.0289 C   0  0  0  0  0  0  0  0  0  0  0  0
  147.4519  133.1868  155.0474 C   0  0  2  0  0  0  0  0  0  0  0  0
  148.2211  133.7605  156.2615 C   0  0  0  0  0  0  0  0  0  0  0  0
  149.1106  134.8748  155.9261 N   0  0  0  0  0  0  0  0  0  0  0  0
  150.2009  134.6101  154.9920 C   0  0  0  0  0  0  0  0  0  0  0  0
  149.2953  135.8367  156.8701 C   0  0  0  0  0  0  0  0  0  0  0  0
  148.3366  136.0307  157.8158 N   0  0  0  0  0  0  0  0  0  0  0  0
  148.4513  137.0197  158.7058 C   0  0  0  0  0  0  0  0  0  0  0  0
  149.4241  137.9234  158.8260 N   0  0  0  0  0  0  0  0  0  0  0  0
  150.4045  137.7204  157.9008 C   0  0  0  0  0  0  0  0  0  0  0  0
  150.4313  136.6972  156.9105 C   0  0  0  0  0  0  0  0  0  0  0  0
  151.6135  136.7825  156.1833 N   0  0  0  0  0  0  0  0  0  0  0  0
  152.2341  137.8091  156.6945 C   0  0  0  0  0  0  0  0  0  0  0  0
  151.5568  138.4606  157.6998 N   0  0  0  0  0  0  0  0  0  0  0  0
  151.9959  139.6460  158.4159 C   0  0  0  0  0  0  0  0  0  0  0  0
  151.7343  140.9824  157.6647 C   0  0  1  0  0  0  0  0  0  0  0  0
  150.5868  140.7822  156.6467 C   0  0  0  0  0  0  0  0  0  0  0  0
  151.0704  140.2689  155.4225 O   0  0  0  0  0  0  0  0  0  0  0  0
  151.4223  142.1834  158.6059 C   0  0  1  0  0  0  0  0  0  0  0  0
  152.3940  142.4299  159.7499 C   0  0  0  0  0  0  0  0  0  0  0  0
  152.0973  143.8750  160.1197 C   0  0  0  0  0  0  0  0  0  0  0  0
  151.8679  144.5181  158.8767 O   0  0  0  0  0  0  0  0  0  0  0  0
  151.4631  143.5544  157.9085 C   0  0  0  0  0  0  0  0  0  0  0  0
  146.4519  132.1895  155.3954 N   0  0  0  0  0  0  0  0  0  0  0  0
  145.2848  132.7309  156.0794 C   0  0  0  0  0  0  0  0  0  0  0  0
  146.1045  131.5539  154.1350 C   0  0  0  0  0  0  0  0  0  0  0  0
  147.1108  132.0005  152.2909 H   0  0  0  0  0  0  0  0  0  0  0  0
  146.9535  134.0078  154.5287 H   0  0  0  0  0  0  0  0  0  0  0  0
  147.4304  128.4076  152.2662 H   0  0  0  0  0  0  0  0  0  0  0  0
  146.8408  129.7812  151.3344 H   0  0  0  0  0  0  0  0  0  0  0  0
  146.0309  129.3107  152.8378 H   0  0  0  0  0  0  0  0  0  0  0  0
  149.0809  131.8516  154.5504 H   0  0  0  0  0  0  0  0  0  0  0  0
  148.8725  133.1446  153.3667 H   0  0  0  0  0  0  0  0  0  0  0  0
  147.5105  134.1367  156.9970 H   0  0  0  0  0  0  0  0  0  0  0  0
  148.7525  132.9580  156.7675 H   0  0  0  0  0  0  0  0  0  0  0  0
  150.5680  135.5375  154.5509 H   0  0  0  0  0  0  0  0  0  0  0  0
  149.8605  133.9678  154.1797 H   0  0  0  0  0  0  0  0  0  0  0  0
  151.0309  134.1110  155.4934 H   0  0  0  0  0  0  0  0  0  0  0  0
  147.6408  137.1084  159.4137 H   0  0  0  0  0  0  0  0  0  0  0  0
  153.1945  138.1401  156.3272 H   0  0  0  0  0  0  0  0  0  0  0  0
  151.4779  139.6358  159.3750 H   0  0  0  0  0  0  0  0  0  0  0  0
  153.0579  139.5477  158.6442 H   0  0  0  0  0  0  0  0  0  0  0  0
  152.6257  141.2407  157.0924 H   0  0  0  0  0  0  0  0  0  0  0  0
  149.8276  140.1091  157.0463 H   0  0  0  0  0  0  0  0  0  0  0  0
  150.0880  141.7227  156.4165 H   0  0  0  0  0  0  0  0  0  0  0  0
  150.6153  139.4623  155.2332 H   0  0  0  0  0  0  0  0  0  0  0  0
  150.4284  142.0481  159.0359 H   0  0  0  0  0  0  0  0  0  0  0  0
  152.2377  141.7710  160.6015 H   0  0  0  0  0  0  0  0  0  0  0  0
  153.4263  142.3287  159.4121 H   0  0  0  0  0  0  0  0  0  0  0  0
  151.1894  143.9354  160.7212 H   0  0  0  0  0  0  0  0  0  0  0  0
  152.9068  144.3440  160.6784 H   0  0  0  0  0  0  0  0  0  0  0  0
  152.1976  143.5642  157.1023 H   0  0  0  0  0  0  0  0  0  0  0  0
  150.4960  143.8233  157.4835 H   0  0  0  0  0  0  0  0  0  0  0  0
  144.5512  131.9455  156.2638 H   0  0  0  0  0  0  0  0  0  0  0  0
  144.8048  133.5105  155.4865 H   0  0  0  0  0  0  0  0  0  0  0  0
  145.5578  133.1561  157.0448 H   0  0  0  0  0  0  0  0  0  0  0  0
  145.3251  132.1271  153.6302 H   0  0  0  0  0  0  0  0  0  0  0  0
  145.7144  130.5484  154.2963 H   0  0  0  0  0  0  0  0  0  0  0  0
  1  2  1  0  0  0  0
  1 32  1  0  0  0  0
  1 33  1  0  0  0  0
  1 34  1  0  0  0  0
  2  3  1  0  0  0  0
  3 30  1  0  0  0  0
  3 29  1  0  0  0  0
  3  4  1  0  0  0  0
  4  5  1  0  0  0  0
  4 35  1  0  0  0  0
  4 36  1  0  0  0  0
  5 31  1  0  0  0  0
  5  6  1  0  0  0  0
  5 27  1  0  0  0  0
  6  7  1  0  0  0  0
  6 37  1  0  0  0  0
  6 38  1  0  0  0  0
  7  8  1  0  0  0  0
  7  9  1  0  0  0  0
  8 39  1  0  0  0  0
  8 40  1  0  0  0  0
  8 41  1  0  0  0  0
  9 14  1  0  0  0  0
  9 10  2  0  0  0  0
 10 11  1  0  0  0  0
 11 12  2  0  0  0  0
 11 42  1  0  0  0  0
 12 13  1  0  0  0  0
 13 17  1  0  0  0  0
 13 14  2  0  0  0  0
 14 15  1  0  0  0  0
 15 16  2  0  0  0  0
 16 17  1  0  0  0  0
 16 43  1  0  0  0  0
 17 18  1  0  0  0  0
 18 19  1  0  0  0  0
 18 44  1  0  0  0  0
 18 45  1  0  0  0  0
 19 20  1  0  0  0  0
 19 22  1  0  0  0  0
 19 46  1  0  0  0  0
 20 21  1  0  0  0  0
 20 47  1  0  0  0  0
 20 48  1  0  0  0  0
 21 49  1  0  0  0  0
 22 26  1  0  0  0  0
 22 23  1  0  0  0  0
 22 50  1  0  0  0  0
 23 24  1  0  0  0  0
 23 51  1  0  0  0  0
 23 52  1  0  0  0  0
 24 25  1  0  0  0  0
 24 53  1  0  0  0  0
 24 54  1  0  0  0  0
 25 26  1  0  0  0  0
 26 55  1  0  0  0  0
 26 56  1  0  0  0  0
 27 28  1  0  0  0  0
 27 29  1  0  0  0  0
 28 57  1  0  0  0  0
 28 58  1  0  0  0  0
 28 59  1  0  0  0  0
 29 60  1  0  0  0  0
 29 61  1  0  0  0  0
M  END
> <s_m_source_file>
AV-unprocessed.smi

> <i_m_source_file_index>
21

> <i_lp_mmshare_version>
43012

> <i_f3d_flags>
0

> <s_epik_input>
W0NIM11PW0NASF0xW0NIMl1bQ0BIXShOKFtDSDNdKVtDSDJdMSlbQ0gyXU4oW0NIM10pYyhuW2NIXW4yKWMoYzIzKW5bY0hdbjNbQ0gyXVtDQEhdKFtDSDJdW09IXSlbQ0BASF00W0NIMl1bQ0gyXU9bQ0gyXTQ=

> <s_epik_cmdline>
J2VwaWtfcHl0aG9uJywgJy1waCcsICc3LjAnLCAnLXRuJywgJzgnLCAnLW1hJywgJzIwMCcsICctbWV0YWxfYmluZGluZycsICctaW1hZScsICc8aW5maWxlLm1hZT4nLCAnLW9tYWUnLCAnPG91dGZpbGUubWFlPic=

> <r_lp_tautomer_probability>
1

> <r_epik_Ionization_Penalty>
2.17574

> <r_epik_Ionization_Penalty_Charging>
0

> <r_epik_Ionization_Penalty_Neutral>
2.17574

> <r_epik_State_Penalty>
2.31336

> <r_epik_Charging_Adjusted_Penalty>
2.31336

> <i_epik_Tot_Q>
0

> <i_epik_Tot_abs_Q>
0

> <r_epik_Metal_State_Penalty>
2.31025

> <b_epik_Metal_Only>
0

> <s_lp_Force_Field>
OPLS_2005

> <r_lp_Energy>
69.8341

> <b_lp_Chiralities_Consistent>
1

> <s_lp_Variant>
AV-unprocessed.smi:21-48

> <Gold.Version>
5.8.1

> <Gold.Id.Protein>
6NUR|6NUR_protein|mol2

> <Gold.PLP.Fitness>
40.4974

> <Gold.PLP.PLP>
-36.9092

> <Gold.PLP.part.hbond>
-2.0000

> <Gold.PLP.part.metal>
0.0000

> <Gold.PLP.part.buried>
-7.8466

> <Gold.PLP.part.nonpolar>
-26.7684

> <Gold.PLP.part.repulsive>
0.4762

> <Gold.PLP.ligand.clash>
0.0000

> <Gold.PLP.ligand.torsion>
1.5433

> <Gold.PLP.Chemscore.Hbond>
1.9913

> <Gold.PLP.Chemscore.CHOScore>
0.0000

> <Gold.PLP.Chemscore.Metal>
0.0000

> <Gold.Chemscore.Hbonds>
donor molecule, donor type, donor heavy atom, donor atom, acceptor molecule, acceptor atom, score
      P1  H  7989  7998       L1    21  0.86
      P1  H 10752 10765       L1    15  0.28

> <Gold.PLP.Chemscore.Internal.Correction>
0.7010

> <Gold.Rescore>
     Score         DG    S(hbond)    S(metal)    S(lipo)     H(rot)  DE(clash)    DE(int)     intcor
     10.19     -15.25       1.78        0.00      98.26       3.00       0.23       4.83       ----

> <Gold.Chemscore.Fitness>
10.1854

> <Gold.Chemscore.DG>
-15.2462

> <Gold.Chemscore.ZeroCoef>
-5.4800

> <Gold.Chemscore.Hbond>
1.7838

> <Gold.Chemscore.Metal>
0.0000

> <Gold.Chemscore.Lipo>
98.2586

> <Gold.Chemscore.Internal_Hbond>
0.0000

> <Gold.Chemscore.DEClash>
0.2315

> <Gold.Chemscore.DEInternal>
4.8292

> <Gold.Chemscore.Rot>
3.0031

> <Gold.Chemscore.Internal.Correction>
   9.000000E+99

> <Gold.Chemscore.Hbonds>
donor molecule, donor type, donor heavy atom, donor atom, acceptor molecule, acceptor atom, score
      P1  H  7989  7998       L1    21  0.28
      P1  H 10752 10765       L1    15  0.24

> <Gold.Chemscore.Hbond.Weighted>
-5.9579

> <Gold.Chemscore.Metal.Weighted>
-0.0000

> <Gold.Chemscore.Lipo.Weighted>
-11.4963

> <Gold.Chemscore.Internal_Hbond.Weighted>
0.0000

> <Gold.Chemscore.DEClash.Weighted>
0.2315

> <Gold.Chemscore.DEInternal.Weighted>
4.8292

> <Gold.Chemscore.Rot.Weighted>
7.6880

> <Gold.Chemscore.Internal.Correction.Weighted>
   9.000000E+99

> <Gold.Protein.RotatedTorsions>
[ 6907 6896 6895 6894 ] final -155.57 input  -60.11 | X-H torsion
[ 7974 7965 7964 7962 ] final   -8.56 input  175.53 | X-H torsion
[ 8008 7997 7996 7995 ] final  159.93 input   59.86 | X-H torsion
[ 10167 10162 10161 10158 ] final   60.34 input  -65.29 | X-H torsion
[ 10718 10713 10712 10709 ] final   10.44 input   66.30 | X-H torsion
[ 10763 10752 10751 10750 ] final -170.67 input  -60.55 | X-H torsion
[ 11005 11000 10999 10996 ] final  100.83 input  -57.11 | X-H torsion

> <Gold.Protein.ActiveResidues>
 VAL166  LYS551  ARG553  GLY616  TRP617  ASP618  TYR619  PRO620  LYS621  CYS622 
 ASP623  PHE694  ASN695  SER759  ASP760  ASP761  ALA762  ILE779  LEU786  VAL792 
 PHE793  MET794  SER795  GLU796  ALA797  LYS798  CYS799  TRP800  GLU811  SER814 

> <Gold.Protein.RotatedAtoms>
  151.2745  133.4239  159.2622 H   0  0  0  0  0  0  0  0  0  0  0  0  # atno 6907 bound_to 6896
  151.0415  134.9611  159.8174 H   0  0  0  0  0  0  0  0  0  0  0  0  # atno 6908 bound_to 6896
  152.5366  134.2703  159.9021 H   0  0  0  0  0  0  0  0  0  0  0  0  # atno 6909 bound_to 6896
  146.2277  140.2486  142.8346 H   0  0  0  0  0  0  0  0  0  0  0  0  # atno 7974 bound_to 7965
  156.2206  140.1818  156.7485 H   0  0  0  0  0  0  0  0  0  0  0  0  # atno 8008 bound_to 7997
  154.5860  140.0658  156.9200 H   0  0  0  0  0  0  0  0  0  0  0  0  # atno 8009 bound_to 7997
  155.2419  140.3322  155.4294 H   0  0  0  0  0  0  0  0  0  0  0  0  # atno 8010 bound_to 7997
  140.1666  144.4318  150.6682 H   0  0  0  0  0  0  0  0  0  0  0  0  # atno 10167 bound_to 10162
  156.9810  130.6005  149.5677 H   0  0  0  0  0  0  0  0  0  0  0  0  # atno 10718 bound_to 10713
  154.6389  135.2896  155.0127 H   0  0  0  0  0  0  0  0  0  0  0  0  # atno 10763 bound_to 10752
  154.1261  135.6540  153.4916 H   0  0  0  0  0  0  0  0  0  0  0  0  # atno 10764 bound_to 10752
  153.0316  135.5299  154.7248 H   0  0  0  0  0  0  0  0  0  0  0  0  # atno 10765 bound_to 10752
  139.8772  134.9157  156.4815 H   0  0  0  0  0  0  0  0  0  0  0  0  # atno 11005 bound_to 11000
  144.9429  140.8097  143.5619 LP  0  0  0  0  0  0  0  0  0  0  0  0  # atno 17320 bound_to 7965
  145.2440  139.2060  143.4978 LP  0  0  0  0  0  0  0  0  0  0  0  0  # atno 17321 bound_to 7965
  140.6609  143.2252  151.5859 LP  0  0  0  0  0  0  0  0  0  0  0  0  # atno 17342 bound_to 10162
  139.5357  144.2789  152.1245 LP  0  0  0  0  0  0  0  0  0  0  0  0  # atno 17343 bound_to 10162
  156.0244  130.5339  150.8367 LP  0  0  0  0  0  0  0  0  0  0  0  0  # atno 17370 bound_to 10713
  157.5526  131.0944  150.9673 LP  0  0  0  0  0  0  0  0  0  0  0  0  # atno 17371 bound_to 10713
  140.8724  133.7979  155.9378 LP  0  0  0  0  0  0  0  0  0  0  0  0  # atno 17394 bound_to 11000
  140.8939  134.2461  157.5079 LP  0  0  0  0  0  0  0  0  0  0  0  0  # atno 17395 bound_to 11000

$$$$
