AV-unprocessed.smi:533|AV-procd|sdf|2854|dock5
  -GOLD-   2262023343D 1   1.00000     0.00000
 Structure written by MMmdl.
 36 37  0  0  0  0  0  0  0  0  1 V2000
  151.6986  143.0914  158.7416 C   0  0  0  0  0  0  0  0  0  0  0  0
  151.5312  143.7905  157.3896 C   0  0  0  0  0  0  0  0  0  0  0  0
  150.5929  143.0873  156.5366 N   0  0  0  0  0  0  0  0  0  0  0  0
  150.5917  141.7926  156.0333 C   0  0  0  0  0  0  0  0  0  0  0  0
  151.5461  140.8883  156.2676 N   0  0  0  0  0  0  0  0  0  0  0  0
  151.1005  139.7856  155.5521 C   0  0  0  0  0  0  0  0  0  0  0  0
  149.9255  140.0518  154.9263 C   0  0  0  0  0  0  0  0  0  0  0  0
  149.2375  139.0616  154.0886 C   0  0  0  0  0  0  0  0  0  0  0  0
  148.1780  139.2824  153.5061 O   0  0  0  0  0  0  0  0  0  0  0  0
  149.8934  137.8775  154.0218 N   0  0  0  0  0  0  0  0  0  0  0  0
  151.0737  137.5428  154.6283 C   0  0  0  0  0  0  0  0  0  0  0  0
  151.5429  136.4165  154.4674 O   0  0  0  0  0  0  0  0  0  0  0  0
  151.6873  138.4989  155.3996 N   0  0  0  0  0  0  0  0  0  0  0  0
  152.9540  138.2431  156.0884 C   0  0  0  0  0  0  0  0  0  0  0  0
  149.5775  141.3657  155.2406 N   0  0  0  0  0  0  0  0  0  0  0  0
  148.4041  142.1222  154.8142 C   0  0  0  0  0  0  0  0  0  0  0  0
  147.0931  141.4140  155.1852 C   0  0  0  0  0  0  0  0  0  0  0  0
  146.0052  142.3158  155.0652 O   0  0  0  0  0  0  0  0  0  0  0  0
  145.9365  142.9204  153.7864 C   0  0  0  0  0  0  0  0  0  0  0  0
  149.4620  137.1594  153.4582 H   0  0  0  0  0  0  0  0  0  0  0  0
  152.4085  143.6302  159.3693 H   0  0  0  0  0  0  0  0  0  0  0  0
  152.0718  142.0745  158.6163 H   0  0  0  0  0  0  0  0  0  0  0  0
  150.7516  143.0396  159.2800 H   0  0  0  0  0  0  0  0  0  0  0  0
  151.1769  144.8112  157.5362 H   0  0  0  0  0  0  0  0  0  0  0  0
  152.4926  143.8546  156.8792 H   0  0  0  0  0  0  0  0  0  0  0  0
  149.8010  143.6476  156.2567 H   0  0  0  0  0  0  0  0  0  0  0  0
  153.3393  137.2322  155.9516 H   0  0  0  0  0  0  0  0  0  0  0  0
  152.8335  138.4025  157.1603 H   0  0  0  0  0  0  0  0  0  0  0  0
  153.7175  138.9344  155.7304 H   0  0  0  0  0  0  0  0  0  0  0  0
  148.4366  143.1189  155.2510 H   0  0  0  0  0  0  0  0  0  0  0  0
  148.4523  142.2753  153.7358 H   0  0  0  0  0  0  0  0  0  0  0  0
  146.9402  140.5560  154.5287 H   0  0  0  0  0  0  0  0  0  0  0  0
  147.1515  141.0358  156.2072 H   0  0  0  0  0  0  0  0  0  0  0  0
  145.0895  143.6053  153.7503 H   0  0  0  0  0  0  0  0  0  0  0  0
  145.7986  142.1725  153.0044 H   0  0  0  0  0  0  0  0  0  0  0  0
  146.8406  143.4912  153.5706 H   0  0  0  0  0  0  0  0  0  0  0  0
  1  2  1  0  0  0  0
  1 21  1  0  0  0  0
  1 22  1  0  0  0  0
  1 23  1  0  0  0  0
  2  3  1  0  0  0  0
  2 24  1  0  0  0  0
  2 25  1  0  0  0  0
  3  4  1  0  0  0  0
  3 26  1  0  0  0  0
  4 15  1  0  0  0  0
  4  5  2  0  0  0  0
  5  6  1  0  0  0  0
  6 13  1  0  0  0  0
  6  7  2  0  0  0  0
  7  8  1  0  0  0  0
  7 15  1  0  0  0  0
  8  9  2  0  0  0  0
  8 10  1  0  0  0  0
 10 20  1  0  0  0  0
 10 11  1  0  0  0  0
 11 12  2  0  0  0  0
 11 13  1  0  0  0  0
 13 14  1  0  0  0  0
 14 27  1  0  0  0  0
 14 28  1  0  0  0  0
 14 29  1  0  0  0  0
 15 16  1  0  0  0  0
 16 17  1  0  0  0  0
 16 30  1  0  0  0  0
 16 31  1  0  0  0  0
 17 18  1  0  0  0  0
 17 32  1  0  0  0  0
 17 33  1  0  0  0  0
 18 19  1  0  0  0  0
 19 34  1  0  0  0  0
 19 35  1  0  0  0  0
 19 36  1  0  0  0  0
M  END
> <s_m_source_file>
AV-unprocessed.smi

> <i_m_source_file_index>
533

> <i_lp_mmshare_version>
43012

> <i_f3d_flags>
0

> <s_epik_input>
W0NIM11bQ0gyXVtOSF1jKG4xKW4oW0NIMl1bQ0gyXU9bQ0gzXSljKGMxMiljKD1PKVtuSF1jKD1PKW4yW0NIM10=

> <s_epik_cmdline>
J2VwaWtfcHl0aG9uJywgJy1waCcsICc3LjAnLCAnLXRuJywgJzgnLCAnLW1hJywgJzIwMCcsICctbWV0YWxfYmluZGluZycsICctaW1hZScsICc8aW5maWxlLm1hZT4nLCAnLW9tYWUnLCAnPG91dGZpbGUubWFlPic=

> <r_lp_tautomer_probability>
1

> <r_epik_Ionization_Penalty>
5.47603e-05

> <r_epik_Ionization_Penalty_Charging>
3.02296e-05

> <r_epik_Ionization_Penalty_Neutral>
2.45307e-05

> <r_epik_State_Penalty>
-0

> <r_epik_Charging_Adjusted_Penalty>
3.02296e-05

> <i_epik_Tot_Q>
0

> <i_epik_Tot_abs_Q>
0

> <r_epik_Metal_State_Penalty>
0.0280858

> <b_epik_Metal_Only>
0

> <s_lp_Force_Field>
OPLS_2005

> <r_lp_Energy>
19.3222

> <b_lp_Chiralities_Consistent>
1

> <s_lp_Variant>
AV-unprocessed.smi:533-1

> <Gold.Version>
5.8.1

> <Gold.Id.Protein>
6NUR|6NUR_protein|mol2

> <Gold.PLP.Fitness>
43.0432

> <Gold.PLP.PLP>
-34.1952

> <Gold.PLP.part.hbond>
-3.0000

> <Gold.PLP.part.metal>
0.0000

> <Gold.PLP.part.buried>
-2.4779

> <Gold.PLP.part.nonpolar>
-31.2299

> <Gold.PLP.part.repulsive>
2.8947

> <Gold.PLP.ligand.clash>
0.0000

> <Gold.PLP.ligand.torsion>
0.0769

> <Gold.PLP.Chemscore.Hbond>
3.0000

> <Gold.PLP.Chemscore.CHOScore>
0.0000

> <Gold.PLP.Chemscore.Metal>
0.0000

> <Gold.Chemscore.Hbonds>
donor molecule, donor type, donor heavy atom, donor atom, acceptor molecule, acceptor atom, score
      L1  H     3    26       P1  8028  0.99
      L1  H    10    20       P1  7948  1.00
      P1  H 10752 10765       L1    12  1.00

> <Gold.PLP.Chemscore.Internal.Correction>
0.0019

> <Gold.Rescore>
     Score         DG    S(hbond)    S(metal)    S(lipo)     H(rot)  DE(clash)    DE(int)     intcor
     14.93     -16.43       2.92        0.00      51.12       1.86       1.37       0.13       ----

> <Gold.Chemscore.Fitness>
14.9336

> <Gold.Chemscore.DG>
-16.4336

> <Gold.Chemscore.ZeroCoef>
-5.4800

> <Gold.Chemscore.Hbond>
2.9169

> <Gold.Chemscore.Metal>
0.0000

> <Gold.Chemscore.Lipo>
51.1229

> <Gold.Chemscore.Internal_Hbond>
0.0000

> <Gold.Chemscore.DEClash>
1.3709

> <Gold.Chemscore.DEInternal>
0.1291

> <Gold.Chemscore.Rot>
1.8634

> <Gold.Chemscore.Internal.Correction>
   9.000000E+99

> <Gold.Chemscore.Hbonds>
donor molecule, donor type, donor heavy atom, donor atom, acceptor molecule, acceptor atom, score
      L1  H     3    26       P1  8028  0.92
      L1  H    10    20       P1  7948  0.89
      P1  H 10752 10765       L1    12  0.98

> <Gold.Chemscore.Hbond.Weighted>
-9.7424

> <Gold.Chemscore.Metal.Weighted>
-0.0000

> <Gold.Chemscore.Lipo.Weighted>
-5.9814

> <Gold.Chemscore.Internal_Hbond.Weighted>
0.0000

> <Gold.Chemscore.DEClash.Weighted>
1.3709

> <Gold.Chemscore.DEInternal.Weighted>
0.1291

> <Gold.Chemscore.Rot.Weighted>
4.7702

> <Gold.Chemscore.Internal.Correction.Weighted>
   9.000000E+99

> <Gold.Protein.RotatedTorsions>
[ 6907 6896 6895 6894 ] final  128.57 input  -60.11 | X-H torsion
[ 7974 7965 7964 7962 ] final  -42.06 input  175.53 | X-H torsion
[ 8008 7997 7996 7995 ] final   65.53 input   59.86 | X-H torsion
[ 10167 10162 10161 10158 ] final  -26.19 input  -65.29 | X-H torsion
[ 10718 10713 10712 10709 ] final  -49.58 input   66.30 | X-H torsion
[ 10763 10752 10751 10750 ] final  171.96 input  -60.55 | X-H torsion
[ 11005 11000 10999 10996 ] final   -8.90 input  -57.11 | X-H torsion

> <Gold.Protein.ActiveResidues>
 VAL166  LYS551  ARG553  GLY616  TRP617  ASP618  TYR619  PRO620  LYS621  CYS622 
 ASP623  PHE694  ASN695  SER759  ASP760  ASP761  ALA762  ILE779  LEU786  VAL792 
 PHE793  MET794  SER795  GLU796  ALA797  LYS798  CYS799  TRP800  GLU811  SER814 

> <Gold.Protein.RotatedAtoms>
  152.3707  133.6414  159.6084 H   0  0  0  0  0  0  0  0  0  0  0  0  # atno 6907 bound_to 6896
  150.7666  133.9275  159.3426 H   0  0  0  0  0  0  0  0  0  0  0  0  # atno 6908 bound_to 6896
  151.7099  135.0916  160.0317 H   0  0  0  0  0  0  0  0  0  0  0  0  # atno 6909 bound_to 6896
  146.0152  140.6917  142.9205 H   0  0  0  0  0  0  0  0  0  0  0  0  # atno 7974 bound_to 7965
  155.6631  140.3497  155.4790 H   0  0  0  0  0  0  0  0  0  0  0  0  # atno 8008 bound_to 7997
  155.9751  140.1163  157.0800 H   0  0  0  0  0  0  0  0  0  0  0  0  # atno 8009 bound_to 7997
  154.4176  140.1149  156.5346 H   0  0  0  0  0  0  0  0  0  0  0  0  # atno 8010 bound_to 7997
  140.7284  143.4200  151.0967 H   0  0  0  0  0  0  0  0  0  0  0  0  # atno 10167 bound_to 10162
  156.1879  130.4152  149.9412 H   0  0  0  0  0  0  0  0  0  0  0  0  # atno 10718 bound_to 10713
  154.4194  135.2757  155.1985 H   0  0  0  0  0  0  0  0  0  0  0  0  # atno 10763 bound_to 10752
  154.3938  135.6060  153.5861 H   0  0  0  0  0  0  0  0  0  0  0  0  # atno 10764 bound_to 10752
  152.9832  135.5910  154.4487 H   0  0  0  0  0  0  0  0  0  0  0  0  # atno 10765 bound_to 10752
  140.7285  133.8769  155.8874 H   0  0  0  0  0  0  0  0  0  0  0  0  # atno 11005 bound_to 11000
  144.6968  140.3468  143.7189 LP  0  0  0  0  0  0  0  0  0  0  0  0  # atno 17320 bound_to 7965
  145.7280  139.1728  143.2446 LP  0  0  0  0  0  0  0  0  0  0  0  0  # atno 17321 bound_to 7965
  139.7844  143.8309  152.3142 LP  0  0  0  0  0  0  0  0  0  0  0  0  # atno 17342 bound_to 10162
  139.8271  144.7270  150.9498 LP  0  0  0  0  0  0  0  0  0  0  0  0  # atno 17343 bound_to 10162
  156.7162  130.8989  151.3614 LP  0  0  0  0  0  0  0  0  0  0  0  0  # atno 17370 bound_to 10713
  157.6911  130.9234  150.0516 LP  0  0  0  0  0  0  0  0  0  0  0  0  # atno 17371 bound_to 10713
  140.9942  134.1238  157.4379 LP  0  0  0  0  0  0  0  0  0  0  0  0  # atno 17394 bound_to 11000
  139.8832  135.0049  156.6281 LP  0  0  0  0  0  0  0  0  0  0  0  0  # atno 17395 bound_to 11000

$$$$
