AV-unprocessed.smi:311|AV-procd|sdf|2297|dock4
  -GOLD-   2262022193D 1   1.00000     0.00000
 Structure written by MMmdl.
 44 46  0  0  0  0  0  0  0  0  2 V2000
  151.0958  130.2260  154.9765 C   0  0  0  0  0  0  0  0  0  0  0  0
  150.6493  131.4409  155.7386 C   0  0  0  0  0  0  0  0  0  0  0  0
  150.7935  131.4800  157.0526 N   0  0  0  0  0  0  0  0  0  0  0  0
  150.2808  132.7160  157.4579 O   0  0  0  0  0  0  0  0  0  0  0  0
  149.8433  133.3808  156.3587 C   0  0  0  0  0  0  0  0  0  0  0  0
  149.2439  134.7273  156.5868 C   0  0  0  0  0  0  0  0  0  0  0  0
  150.0471  132.6289  155.2339 C   0  0  0  0  0  0  0  0  0  0  0  0
  149.7078  132.9571  153.8029 C   0  0  0  0  0  0  0  0  0  0  0  0
  148.1915  133.0786  153.6670 C   0  0  0  0  0  0  0  0  0  0  0  0
  147.4639  132.1602  154.0438 O   0  0  0  0  0  0  0  0  0  0  0  0
  147.7289  134.2309  153.1586 N   0  0  0  0  0  0  0  0  0  0  0  0
  146.3211  134.5984  153.0537 C   0  0  2  0  0  0  0  0  0  0  0  0
  145.6728  134.9002  154.3996 C   0  0  0  0  0  0  0  0  0  0  0  0
  144.1854  134.7394  154.0808 C   0  0  0  0  0  0  0  0  0  0  0  0
  144.1031  133.6517  153.0800 N   0  3  1  0  0  0  0  0  0  0  0  0
  143.0018  133.7924  152.0962 C   0  0  0  0  0  0  0  0  0  0  0  0
  143.0096  132.6120  151.1081 C   0  0  0  0  0  0  0  0  0  0  0  0
  144.3850  132.3916  150.4436 C   0  0  0  0  0  0  0  0  0  0  0  0
  145.4529  133.3705  150.9578 C   0  0  0  0  0  0  0  0  0  0  0  0
  145.4613  133.4477  152.5013 C   0  0  1  0  0  0  0  0  0  0  0  0
  150.2427  129.7102  154.5355 H   0  0  0  0  0  0  0  0  0  0  0  0
  151.6188  129.5148  155.6171 H   0  0  0  0  0  0  0  0  0  0  0  0
  151.7723  130.5000  154.1671 H   0  0  0  0  0  0  0  0  0  0  0  0
  149.4657  135.3977  155.7566 H   0  0  0  0  0  0  0  0  0  0  0  0
  149.6348  135.1804  157.4983 H   0  0  0  0  0  0  0  0  0  0  0  0
  148.1606  134.6542  156.6828 H   0  0  0  0  0  0  0  0  0  0  0  0
  150.1840  133.8845  153.4820 H   0  0  0  0  0  0  0  0  0  0  0  0
  150.0612  132.1840  153.1200 H   0  0  0  0  0  0  0  0  0  0  0  0
  148.4052  134.9225  152.8680 H   0  0  0  0  0  0  0  0  0  0  0  0
  146.2044  135.4835  152.4243 H   0  0  0  0  0  0  0  0  0  0  0  0
  145.9770  134.1646  155.1461 H   0  0  0  0  0  0  0  0  0  0  0  0
  145.9194  135.8924  154.7788 H   0  0  0  0  0  0  0  0  0  0  0  0
  143.5883  134.5153  154.9651 H   0  0  0  0  0  0  0  0  0  0  0  0
  143.8083  135.6686  153.6502 H   0  0  0  0  0  0  0  0  0  0  0  0
  142.0483  133.8322  152.6237 H   0  0  0  0  0  0  0  0  0  0  0  0
  143.1030  134.7359  151.5573 H   0  0  0  0  0  0  0  0  0  0  0  0
  142.7205  131.7024  151.6364 H   0  0  0  0  0  0  0  0  0  0  0  0
  142.2477  132.7684  150.3437 H   0  0  0  0  0  0  0  0  0  0  0  0
  144.7138  131.3691  150.6329 H   0  0  0  0  0  0  0  0  0  0  0  0
  144.2973  132.4837  149.3605 H   0  0  0  0  0  0  0  0  0  0  0  0
  146.4349  133.0711  150.5903 H   0  0  0  0  0  0  0  0  0  0  0  0
  145.2640  134.3592  150.5369 H   0  0  0  0  0  0  0  0  0  0  0  0
  145.8194  132.4982  152.9032 H   0  0  0  0  0  0  0  0  0  0  0  0
  143.9081  132.8063  153.5970 H   0  0  0  0  0  0  0  0  0  0  0  0
  1  2  1  0  0  0  0
  1 21  1  0  0  0  0
  1 22  1  0  0  0  0
  1 23  1  0  0  0  0
  2  7  1  0  0  0  0
  2  3  2  0  0  0  0
  3  4  1  0  0  0  0
  4  5  1  0  0  0  0
  5  6  1  0  0  0  0
  5  7  2  0  0  0  0
  6 24  1  0  0  0  0
  6 25  1  0  0  0  0
  6 26  1  0  0  0  0
  7  8  1  0  0  0  0
  8  9  1  0  0  0  0
  8 27  1  0  0  0  0
  8 28  1  0  0  0  0
  9 10  2  0  0  0  0
  9 11  1  0  0  0  0
 11 12  1  0  0  0  0
 11 29  1  0  0  0  0
 12 20  1  0  0  0  0
 12 13  1  0  0  0  0
 12 30  1  0  0  0  0
 13 14  1  0  0  0  0
 13 31  1  0  0  0  0
 13 32  1  0  0  0  0
 14 15  1  0  0  0  0
 14 33  1  0  0  0  0
 14 34  1  0  0  0  0
 15 20  1  0  0  0  0
 15 16  1  0  0  0  0
 15 44  1  0  0  0  0
 16 17  1  0  0  0  0
 16 35  1  0  0  0  0
 16 36  1  0  0  0  0
 17 18  1  0  0  0  0
 17 37  1  0  0  0  0
 17 38  1  0  0  0  0
 18 19  1  0  0  0  0
 18 39  1  0  0  0  0
 18 40  1  0  0  0  0
 19 20  1  0  0  0  0
 19 41  1  0  0  0  0
 19 42  1  0  0  0  0
 20 43  1  0  0  0  0
M  CHG  1  15   1
M  END
> <s_m_source_file>
AV-unprocessed.smi

> <i_m_source_file_index>
311

> <i_lp_mmshare_version>
43012

> <i_f3d_flags>
0

> <s_epik_input>
W0NIM11jMW5vYyhbQ0gzXSljMVtDSDJdQyg9TylbTkhdW0NASF0oW0NIMl1bQ0gyXTIpW0NAQEhdKE4yMylbQ0gyXVtDSDJdW0NIMl1bQ0gyXTM=

> <s_epik_cmdline>
J2VwaWtfcHl0aG9uJywgJy1waCcsICc3LjAnLCAnLXRuJywgJzgnLCAnLW1hJywgJzIwMCcsICctbWV0YWxfYmluZGluZycsICctaW1hZScsICc8aW5maWxlLm1hZT4nLCAnLW9tYWUnLCAnPG91dGZpbGUubWFlPic=

> <r_epik_Ionization_Penalty>
0.00173669

> <r_epik_Ionization_Penalty_Charging>
0.0017366

> <r_epik_Ionization_Penalty_Neutral>
9.2145e-08

> <r_epik_State_Penalty>
0.00117499

> <r_epik_Charging_Adjusted_Penalty>
0.00291159

> <i_epik_Tot_Q>
1

> <i_epik_Tot_abs_Q>
1

> <r_epik_Metal_State_Penalty>
-0

> <b_epik_Metal_Only>
0

> <s_lp_Force_Field>
OPLS_2005

> <r_lp_Energy>
32.9133

> <b_lp_Chiralities_Consistent>
1

> <s_lp_Variant>
AV-unprocessed.smi:311-1

> <Gold.Version>
5.8.1

> <Gold.Id.Protein>
6NUR|6NUR_protein|mol2

> <Gold.PLP.Fitness>
38.9485

> <Gold.PLP.PLP>
-27.3157

> <Gold.PLP.part.hbond>
-3.0000

> <Gold.PLP.part.metal>
0.0000

> <Gold.PLP.part.buried>
-2.7138

> <Gold.PLP.part.nonpolar>
-22.5867

> <Gold.PLP.part.repulsive>
0.0487

> <Gold.PLP.ligand.clash>
0.0000

> <Gold.PLP.ligand.torsion>
0.1900

> <Gold.PLP.Chemscore.Hbond>
4.0000

> <Gold.PLP.Chemscore.CHOScore>
0.0000

> <Gold.PLP.Chemscore.Metal>
0.0000

> <Gold.Chemscore.Hbonds>
donor molecule, donor type, donor heavy atom, donor atom, acceptor molecule, acceptor atom, score
      L1  H    11    29       P1  7948  1.00
      L1  H    15    44       P1 10957  1.98
      P1  H  6896  6907       L1     4  0.86

> <Gold.PLP.Chemscore.Internal.Correction>
0.0126

> <Gold.Rescore>
     Score         DG    S(hbond)    S(metal)    S(lipo)     H(rot)  DE(clash)    DE(int)     intcor
     17.52     -19.23       2.75        0.00      68.83       1.36       0.10       1.61       ----

> <Gold.Chemscore.Fitness>
17.5225

> <Gold.Chemscore.DG>
-19.2279

> <Gold.Chemscore.ZeroCoef>
-5.4800

> <Gold.Chemscore.Hbond>
2.7450

> <Gold.Chemscore.Metal>
0.0000

> <Gold.Chemscore.Lipo>
68.8256

> <Gold.Chemscore.Internal_Hbond>
0.0000

> <Gold.Chemscore.DEClash>
0.0971

> <Gold.Chemscore.DEInternal>
1.6083

> <Gold.Chemscore.Rot>
1.3567

> <Gold.Chemscore.Internal.Correction>
   9.000000E+99

> <Gold.Chemscore.Hbonds>
donor molecule, donor type, donor heavy atom, donor atom, acceptor molecule, acceptor atom, score
      L1  H    11    29       P1  7948  0.63
      L1  H    15    44       P1 10957  0.68
      P1  H  6896  6907       L1     4  0.71

> <Gold.Chemscore.Hbond.Weighted>
-9.1684

> <Gold.Chemscore.Metal.Weighted>
-0.0000

> <Gold.Chemscore.Lipo.Weighted>
-8.0526

> <Gold.Chemscore.Internal_Hbond.Weighted>
0.0000

> <Gold.Chemscore.DEClash.Weighted>
0.0971

> <Gold.Chemscore.DEInternal.Weighted>
1.6083

> <Gold.Chemscore.Rot.Weighted>
3.4731

> <Gold.Chemscore.Internal.Correction.Weighted>
   9.000000E+99

> <Gold.Protein.RotatedTorsions>
[ 6907 6896 6895 6894 ] final -150.02 input  -60.11 | X-H torsion
[ 7974 7965 7964 7962 ] final  136.37 input  175.53 | X-H torsion
[ 8008 7997 7996 7995 ] final  169.52 input   59.86 | X-H torsion
[ 10167 10162 10161 10158 ] final   82.84 input  -65.29 | X-H torsion
[ 10718 10713 10712 10709 ] final  132.56 input   66.30 | X-H torsion
[ 10763 10752 10751 10750 ] final    1.08 input  -60.55 | X-H torsion
[ 11005 11000 10999 10996 ] final  -75.85 input  -57.11 | X-H torsion

> <Gold.Protein.ActiveResidues>
 VAL166  LYS551  ARG553  GLY616  TRP617  ASP618  TYR619  PRO620  LYS621  CYS622 
 ASP623  PHE694  ASN695  SER759  ASP760  ASP761  ALA762  ILE779  LEU786  VAL792 
 PHE793  MET794  SER795  GLU796  ALA797  LYS798  CYS799  TRP800  GLU811  SER814 

> <Gold.Protein.RotatedAtoms>
  151.1926  133.4658  159.2594 H   0  0  0  0  0  0  0  0  0  0  0  0  # atno 6907 bound_to 6896
  151.1149  135.0047  159.8521 H   0  0  0  0  0  0  0  0  0  0  0  0  # atno 6908 bound_to 6896
  152.5452  134.1842  159.8701 H   0  0  0  0  0  0  0  0  0  0  0  0  # atno 6909 bound_to 6896
  144.9571  139.4752  143.5497 H   0  0  0  0  0  0  0  0  0  0  0  0  # atno 7974 bound_to 7965
  156.1450  140.1562  156.8861 H   0  0  0  0  0  0  0  0  0  0  0  0  # atno 8008 bound_to 7997
  154.5020  140.0823  156.7855 H   0  0  0  0  0  0  0  0  0  0  0  0  # atno 8009 bound_to 7997
  155.4006  140.3414  155.4259 H   0  0  0  0  0  0  0  0  0  0  0  0  # atno 8010 bound_to 7997
  139.9246  144.6191  150.8406 H   0  0  0  0  0  0  0  0  0  0  0  0  # atno 10167 bound_to 10162
  157.4859  131.1088  150.9621 H   0  0  0  0  0  0  0  0  0  0  0  0  # atno 10718 bound_to 10713
  153.3125  135.6964  153.7102 H   0  0  0  0  0  0  0  0  0  0  0  0  # atno 10763 bound_to 10752
  153.5974  135.3468  155.2933 H   0  0  0  0  0  0  0  0  0  0  0  0  # atno 10764 bound_to 10752
  154.8578  135.4332  154.2267 H   0  0  0  0  0  0  0  0  0  0  0  0  # atno 10765 bound_to 10752
  141.1649  133.6961  156.7579 H   0  0  0  0  0  0  0  0  0  0  0  0  # atno 11005 bound_to 11000
  146.3341  139.8696  142.8842 LP  0  0  0  0  0  0  0  0  0  0  0  0  # atno 17320 bound_to 7965
  145.2756  141.0122  143.3747 LP  0  0  0  0  0  0  0  0  0  0  0  0  # atno 17321 bound_to 7965
  140.7653  143.3273  151.2488 LP  0  0  0  0  0  0  0  0  0  0  0  0  # atno 17342 bound_to 10162
  139.6833  143.9817  152.2820 LP  0  0  0  0  0  0  0  0  0  0  0  0  # atno 17343 bound_to 10162
  157.0338  130.5722  149.5347 LP  0  0  0  0  0  0  0  0  0  0  0  0  # atno 17370 bound_to 10713
  156.0146  130.5240  150.8096 LP  0  0  0  0  0  0  0  0  0  0  0  0  # atno 17371 bound_to 10713
  140.2555  134.8507  157.3709 LP  0  0  0  0  0  0  0  0  0  0  0  0  # atno 17394 bound_to 11000
  140.1661  134.4667  155.7862 LP  0  0  0  0  0  0  0  0  0  0  0  0  # atno 17395 bound_to 11000

$$$$
