AV-unprocessed.smi:244|AV-procd|sdf|1865|dock8
  -GOLD-   2262020503D 1   1.00000     0.00000
 Structure written by MMmdl.
 57 61  0  0  0  0  0  0  0  0  2 V2000
  144.1999  134.2557  150.5755 C   0  0  0  0  0  0  0  0  0  0  0  0
  145.4305  133.5593  150.1341 N   0  3  2  0  0  0  0  0  0  0  0  0
  145.1726  132.2401  149.5006 C   0  0  0  0  0  0  0  0  0  0  0  0
  144.8498  131.1504  150.5396 C   0  0  0  0  0  0  0  0  0  0  0  0
  145.9631  131.0632  151.5905 C   0  0  2  0  0  0  0  0  0  0  0  0
  145.6180  130.0921  152.5719 O   0  0  0  0  0  0  0  0  0  0  0  0
  146.6552  129.9230  153.5325 C   0  0  0  0  0  0  0  0  0  0  0  0
  146.8968  131.2550  154.2603 C   0  0  0  0  0  0  0  0  0  0  0  0
  147.1961  132.3145  153.2994 N   0  0  0  0  0  0  0  0  0  0  0  0
  147.5511  133.4789  153.8894 C   0  0  0  0  0  0  0  0  0  0  0  0
  146.6846  134.5257  153.9147 N   0  0  0  0  0  0  0  0  0  0  0  0
  147.0508  135.6797  154.4814 C   0  0  0  0  0  0  0  0  0  0  0  0
  148.2126  135.9949  155.0587 N   0  0  0  0  0  0  0  0  0  0  0  0
  149.0842  134.9459  155.0273 C   0  0  0  0  0  0  0  0  0  0  0  0
  148.8358  133.6643  154.4631 C   0  0  0  0  0  0  0  0  0  0  0  0
  149.9562  132.8554  154.5973 N   0  0  0  0  0  0  0  0  0  0  0  0
  150.8203  133.6160  155.2129 C   0  0  0  0  0  0  0  0  0  0  0  0
  150.3767  134.8840  155.5180 N   0  0  0  0  0  0  0  0  0  0  0  0
  151.1250  135.9295  156.1992 C   0  0  0  0  0  0  0  0  0  0  0  0
  151.4102  137.1747  155.3226 C   0  0  0  0  0  0  0  0  0  0  0  0
  151.9972  136.7272  154.1130 O   0  0  0  0  0  0  0  0  0  0  0  0
  150.1295  137.9668  154.9790 C   0  0  0  0  0  0  0  0  0  0  0  0
  150.4434  139.3089  154.2946 C   0  0  0  0  0  0  0  0  0  0  0  0
  151.3299  140.0744  155.1013 O   0  0  0  0  0  0  0  0  0  0  0  0
  152.5913  139.4426  155.2815 C   0  0  0  0  0  0  0  0  0  0  0  0
  152.4103  138.1105  156.0309 C   0  0  0  0  0  0  0  0  0  0  0  0
  146.1637  132.4368  152.2670 C   0  0  1  0  0  0  0  0  0  0  0  0
  146.4845  133.4963  151.1805 C   0  0  0  0  0  0  0  0  0  0  0  0
  143.6925  133.7180  151.3762 H   0  0  0  0  0  0  0  0  0  0  0  0
  143.5021  134.3622  149.7445 H   0  0  0  0  0  0  0  0  0  0  0  0
  144.4357  135.2572  150.9368 H   0  0  0  0  0  0  0  0  0  0  0  0
  144.3660  132.3255  148.7713 H   0  0  0  0  0  0  0  0  0  0  0  0
  146.0626  131.9515  148.9397 H   0  0  0  0  0  0  0  0  0  0  0  0
  143.8956  131.3609  151.0237 H   0  0  0  0  0  0  0  0  0  0  0  0
  144.7347  130.1878  150.0407 H   0  0  0  0  0  0  0  0  0  0  0  0
  146.8862  130.7538  151.0954 H   0  0  0  0  0  0  0  0  0  0  0  0
  146.3589  129.1531  154.2449 H   0  0  0  0  0  0  0  0  0  0  0  0
  147.5672  129.5732  153.0461 H   0  0  0  0  0  0  0  0  0  0  0  0
  146.0093  131.5160  154.8388 H   0  0  0  0  0  0  0  0  0  0  0  0
  147.7225  131.1493  154.9657 H   0  0  0  0  0  0  0  0  0  0  0  0
  146.3078  136.4636  154.4699 H   0  0  0  0  0  0  0  0  0  0  0  0
  151.8107  133.2689  155.4699 H   0  0  0  0  0  0  0  0  0  0  0  0
  150.5606  136.2196  157.0865 H   0  0  0  0  0  0  0  0  0  0  0  0
  152.0598  135.5002  156.5632 H   0  0  0  0  0  0  0  0  0  0  0  0
  151.3186  136.6487  153.4600 H   0  0  0  0  0  0  0  0  0  0  0  0
  149.4678  137.3801  154.3409 H   0  0  0  0  0  0  0  0  0  0  0  0
  149.5744  138.1669  155.8964 H   0  0  0  0  0  0  0  0  0  0  0  0
  150.8756  139.1538  153.3048 H   0  0  0  0  0  0  0  0  0  0  0  0
  149.5235  139.8756  154.1499 H   0  0  0  0  0  0  0  0  0  0  0  0
  153.0758  139.2895  154.3159 H   0  0  0  0  0  0  0  0  0  0  0  0
  153.2369  140.1075  155.8552 H   0  0  0  0  0  0  0  0  0  0  0  0
  152.0492  138.3289  157.0370 H   0  0  0  0  0  0  0  0  0  0  0  0
  153.3751  137.6167  156.1544 H   0  0  0  0  0  0  0  0  0  0  0  0
  145.2363  132.7168  152.7689 H   0  0  0  0  0  0  0  0  0  0  0  0
  147.4335  133.2544  150.6999 H   0  0  0  0  0  0  0  0  0  0  0  0
  146.6041  134.4902  151.6132 H   0  0  0  0  0  0  0  0  0  0  0  0
  145.8077  134.1438  149.4016 H   0  0  0  0  0  0  0  0  0  0  0  0
  1  2  1  0  0  0  0
  1 29  1  0  0  0  0
  1 30  1  0  0  0  0
  1 31  1  0  0  0  0
  2 28  1  0  0  0  0
  2  3  1  0  0  0  0
  2 57  1  0  0  0  0
  3  4  1  0  0  0  0
  3 32  1  0  0  0  0
  3 33  1  0  0  0  0
  4  5  1  0  0  0  0
  4 34  1  0  0  0  0
  4 35  1  0  0  0  0
  5 27  1  0  0  0  0
  5  6  1  0  0  0  0
  5 36  1  0  0  0  0
  6  7  1  0  0  0  0
  7  8  1  0  0  0  0
  7 37  1  0  0  0  0
  7 38  1  0  0  0  0
  8  9  1  0  0  0  0
  8 39  1  0  0  0  0
  8 40  1  0  0  0  0
  9 10  1  0  0  0  0
  9 27  1  0  0  0  0
 10 15  1  0  0  0  0
 10 11  2  0  0  0  0
 11 12  1  0  0  0  0
 12 13  2  0  0  0  0
 12 41  1  0  0  0  0
 13 14  1  0  0  0  0
 14 18  1  0  0  0  0
 14 15  2  0  0  0  0
 15 16  1  0  0  0  0
 16 17  2  0  0  0  0
 17 18  1  0  0  0  0
 17 42  1  0  0  0  0
 18 19  1  0  0  0  0
 19 20  1  0  0  0  0
 19 43  1  0  0  0  0
 19 44  1  0  0  0  0
 20 26  1  0  0  0  0
 20 21  1  0  0  0  0
 20 22  1  0  0  0  0
 21 45  1  0  0  0  0
 22 23  1  0  0  0  0
 22 46  1  0  0  0  0
 22 47  1  0  0  0  0
 23 24  1  0  0  0  0
 23 48  1  0  0  0  0
 23 49  1  0  0  0  0
 24 25  1  0  0  0  0
 25 26  1  0  0  0  0
 25 50  1  0  0  0  0
 25 51  1  0  0  0  0
 26 52  1  0  0  0  0
 26 53  1  0  0  0  0
 27 28  1  0  0  0  0
 27 54  1  0  0  0  0
 28 55  1  0  0  0  0
 28 56  1  0  0  0  0
M  CHG  1   2   1
M  END
> <s_m_source_file>
AV-unprocessed.smi

> <i_m_source_file_index>
244

> <i_lp_mmshare_version>
43012

> <i_f3d_flags>
0

> <s_epik_input>
W0NIMl0xW0NIMl1OKFtDSDNdKVtDSDJdW0NAQEhdKFtDQEhdMTIpTihbQ0gyXVtDSDJdTzIpYyhuW2NIXW4zKWMoYzM0KW5bY0hdbjRbQ0gyXUM1KFtPSF0pW0NIMl1bQ0gyXU9bQ0gyXVtDSDJdNQ==

> <s_epik_cmdline>
J2VwaWtfcHl0aG9uJywgJy1waCcsICc3LjAnLCAnLXRuJywgJzgnLCAnLW1hJywgJzIwMCcsICctbWV0YWxfYmluZGluZycsICctaW1hZScsICc8aW5maWxlLm1hZT4nLCAnLW9tYWUnLCAnPG91dGZpbGUubWFlPic=

> <r_lp_tautomer_probability>
1

> <r_epik_Ionization_Penalty>
0.0136215

> <r_epik_Ionization_Penalty_Charging>
0.0131385

> <r_epik_Ionization_Penalty_Neutral>
0.000483022

> <r_epik_State_Penalty>
0.0104001

> <r_epik_Charging_Adjusted_Penalty>
0.0235387

> <i_epik_Tot_Q>
1

> <i_epik_Tot_abs_Q>
1

> <r_epik_Metal_State_Penalty>
0.0104469

> <b_epik_Metal_Only>
0

> <s_lp_Force_Field>
OPLS_2005

> <r_lp_Energy>
43.138

> <b_lp_Chiralities_Consistent>
1

> <s_lp_Variant>
AV-unprocessed.smi:244-2

> <Gold.Version>
5.8.1

> <Gold.Id.Protein>
6NUR|6NUR_protein|mol2

> <Gold.PLP.Fitness>
44.6056

> <Gold.PLP.PLP>
-37.3751

> <Gold.PLP.part.hbond>
-3.9351

> <Gold.PLP.part.metal>
0.0000

> <Gold.PLP.part.buried>
-2.6935

> <Gold.PLP.part.nonpolar>
-30.7040

> <Gold.PLP.part.repulsive>
0.6986

> <Gold.PLP.ligand.clash>
0.0000

> <Gold.PLP.ligand.torsion>
0.6197

> <Gold.PLP.Chemscore.Hbond>
2.7832

> <Gold.PLP.Chemscore.CHOScore>
0.0000

> <Gold.PLP.Chemscore.Metal>
0.0000

> <Gold.Chemscore.Hbonds>
donor molecule, donor type, donor heavy atom, donor atom, acceptor molecule, acceptor atom, score
      L1  H     2    57       P1  7921  1.00
      L1  H    21    45       P1  7949  0.65
      P1  H  7989  7998       L1    24  0.05
      P1  H 10752 10765       L1    21  0.76

> <Gold.PLP.Chemscore.Internal.Correction>
0.1202

> <Gold.Rescore>
     Score         DG    S(hbond)    S(metal)    S(lipo)     H(rot)  DE(clash)    DE(int)     intcor
     14.45     -17.94       1.87        0.00      98.71       2.09       0.25       3.24       ----

> <Gold.Chemscore.Fitness>
14.4457

> <Gold.Chemscore.DG>
-17.9350

> <Gold.Chemscore.ZeroCoef>
-5.4800

> <Gold.Chemscore.Hbond>
1.8740

> <Gold.Chemscore.Metal>
0.0000

> <Gold.Chemscore.Lipo>
98.7102

> <Gold.Chemscore.Internal_Hbond>
0.0000

> <Gold.Chemscore.DEClash>
0.2479

> <Gold.Chemscore.DEInternal>
3.2414

> <Gold.Chemscore.Rot>
2.0911

> <Gold.Chemscore.Internal.Correction>
   9.000000E+99

> <Gold.Chemscore.Hbonds>
donor molecule, donor type, donor heavy atom, donor atom, acceptor molecule, acceptor atom, score
      L1  H     2    57       P1  7921  0.50
      L1  H    21    45       P1  7949  0.44
      P1  H 10752 10765       L1    21  0.62

> <Gold.Chemscore.Hbond.Weighted>
-6.2590

> <Gold.Chemscore.Metal.Weighted>
-0.0000

> <Gold.Chemscore.Lipo.Weighted>
-11.5491

> <Gold.Chemscore.Internal_Hbond.Weighted>
0.0000

> <Gold.Chemscore.DEClash.Weighted>
0.2479

> <Gold.Chemscore.DEInternal.Weighted>
3.2414

> <Gold.Chemscore.Rot.Weighted>
5.3531

> <Gold.Chemscore.Internal.Correction.Weighted>
   9.000000E+99

> <Gold.Protein.RotatedTorsions>
[ 6907 6896 6895 6894 ] final   60.18 input  -60.11 | X-H torsion
[ 7974 7965 7964 7962 ] final -106.83 input  175.53 | X-H torsion
[ 8008 7997 7996 7995 ] final   45.86 input   59.86 | X-H torsion
[ 10167 10162 10161 10158 ] final  -15.37 input  -65.29 | X-H torsion
[ 10718 10713 10712 10709 ] final -157.11 input   66.30 | X-H torsion
[ 10763 10752 10751 10750 ] final  164.05 input  -60.55 | X-H torsion
[ 11005 11000 10999 10996 ] final -163.69 input  -57.11 | X-H torsion

> <Gold.Protein.ActiveResidues>
 VAL166  LYS551  ARG553  GLY616  TRP617  ASP618  TYR619  PRO620  LYS621  CYS622 
 ASP623  PHE694  ASN695  SER759  ASP760  ASP761  ALA762  ILE779  LEU786  VAL792 
 PHE793  MET794  SER795  GLU796  ALA797  LYS798  CYS799  TRP800  GLU811  SER814 

> <Gold.Protein.RotatedAtoms>
  152.3980  134.6333  160.0080 H   0  0  0  0  0  0  0  0  0  0  0  0  # atno 6907 bound_to 6896
  151.6546  133.3314  159.3168 H   0  0  0  0  0  0  0  0  0  0  0  0  # atno 6908 bound_to 6896
  150.7885  134.6932  159.6553 H   0  0  0  0  0  0  0  0  0  0  0  0  # atno 6909 bound_to 6896
  145.2130  140.9104  143.3303 H   0  0  0  0  0  0  0  0  0  0  0  0  # atno 7974 bound_to 7965
  155.3428  140.3409  155.4239 H   0  0  0  0  0  0  0  0  0  0  0  0  # atno 8008 bound_to 7997
  156.1804  140.1662  156.8320 H   0  0  0  0  0  0  0  0  0  0  0  0  # atno 8009 bound_to 7997
  154.5328  140.0741  156.8357 H   0  0  0  0  0  0  0  0  0  0  0  0  # atno 8010 bound_to 7997
  140.7217  143.5225  150.9616 H   0  0  0  0  0  0  0  0  0  0  0  0  # atno 10167 bound_to 10162
  156.5357  130.8541  151.2731 H   0  0  0  0  0  0  0  0  0  0  0  0  # atno 10718 bound_to 10713
  154.3031  135.2758  155.2602 H   0  0  0  0  0  0  0  0  0  0  0  0  # atno 10763 bound_to 10752
  154.5030  135.5803  153.6549 H   0  0  0  0  0  0  0  0  0  0  0  0  # atno 10764 bound_to 10752
  152.9898  135.6162  154.3203 H   0  0  0  0  0  0  0  0  0  0  0  0  # atno 10765 bound_to 10752
  140.5953  134.5003  157.5198 H   0  0  0  0  0  0  0  0  0  0  0  0  # atno 11005 bound_to 11000
  144.9838  139.3757  143.6249 LP  0  0  0  0  0  0  0  0  0  0  0  0  # atno 17320 bound_to 7965
  146.3393  139.8990  142.8797 LP  0  0  0  0  0  0  0  0  0  0  0  0  # atno 17321 bound_to 7965
  139.8943  143.6914  152.3141 LP  0  0  0  0  0  0  0  0  0  0  0  0  # atno 17342 bound_to 10162
  139.7241  144.7596  151.0907 LP  0  0  0  0  0  0  0  0  0  0  0  0  # atno 17343 bound_to 10162
  157.7414  130.9869  150.2443 LP  0  0  0  0  0  0  0  0  0  0  0  0  # atno 17370 bound_to 10713
  156.3018  130.3759  149.7743 LP  0  0  0  0  0  0  0  0  0  0  0  0  # atno 17371 bound_to 10713
  139.9256  134.8062  156.1079 LP  0  0  0  0  0  0  0  0  0  0  0  0  # atno 17394 bound_to 11000
  141.0908  133.6715  156.2537 LP  0  0  0  0  0  0  0  0  0  0  0  0  # atno 17395 bound_to 11000

$$$$
