#       Name:                AV-unprocessed.smi:1676
#       Creating user name   scv26
#       Creation time:       Fri Mar 27 07:46:31 2020


#       File generated by GOLD software.
#

@<TRIPOS>MOLECULE
AV-unprocessed.smi:1676
    51    52     1
SMALL
NO_CHARGES


@<TRIPOS>ATOM
      1 ****        -3.0050   1.4387   2.7770 C.3            1 S1                 0.0000
      2 ****        -3.3890   0.0152   2.4917 C.2            1 S1                 0.0000
      3 ****        -4.6640  -0.3322   2.5422 N.2            1 S1                 0.0000
      4 ****        -4.7040  -1.6918   2.2185 O.3            1 S1                 0.0000
      5 ****        -3.4361  -2.1143   1.9818 C.2            1 S1                 0.0000
      6 ****        -3.2688  -3.5477   1.6072 C.3            1 S1                 0.0000
      7 ****        -2.5512  -1.0840   2.1440 C.2            1 S1                 0.0000
      8 ****        -1.0498  -1.1018   1.9830 C.3            1 S1                 0.0000
      9 ****        -0.6165  -0.6695   0.5761 C.2            1 S1                 0.0000
     10 ****        -1.4532  -0.3172  -0.2557 O.2            1 S1                 0.0000
     11 ****         0.7115  -0.7242   0.3607 N.am           1 S1                 0.0000
     12 ****         1.5544  -0.4030  -0.8068 C.3            1 S1                 0.0000
     13 ****         2.2056  -1.7575  -1.1984 C.2            1 S1                 0.0000
     14 ****         1.8167  -2.3374  -2.2371 O.co2          1 S1                 0.0000
     15 ****         3.0726  -2.2214  -0.4224 O.co2          1 S1                -1.0000
     16 ****         0.7628   0.2027  -2.0141 C.3            1 S1                 0.0000
     17 ****         1.6193   0.7695  -3.1629 C.3            1 S1                 0.0000
     18 ****         1.9081   2.2699  -2.9916 C.3            1 S1                 0.0000
     19 ****         2.8603   2.6120  -1.8358 C.3            1 S1                 0.0000
     20 ****         2.4361   2.0660  -0.4594 C.3            1 S1                 0.0000
     21 ****         2.6848   0.5528  -0.3079 C.3            1 S1                 0.0000
     22 ****        -1.9377   1.5327   2.9753 H              1 S1                 0.0000
     23 ****        -3.5359   1.8249   3.6475 H              1 S1                 0.0000
     24 ****        -3.2406   2.0821   1.9292 H              1 S1                 0.0000
     25 ****        -2.3495  -3.6977   1.0406 H              1 S1                 0.0000
     26 ****        -4.1013  -3.8886   0.9913 H              1 S1                 0.0000
     27 ****        -3.2251  -4.1757   2.4967 H              1 S1                 0.0000
     28 ****        -0.5696  -0.4449   2.7087 H              1 S1                 0.0000
     29 ****        -0.6509  -2.0990   2.1731 H              1 S1                 0.0000
     30 ****         1.2469  -1.0628   1.1470 H              1 S1                 0.0000
     31 ****         0.0867  -0.5477  -2.4270 H              1 S1                 0.0000
     32 ****         0.1024   0.9995  -1.6734 H              1 S1                 0.0000
     33 ****         2.5438   0.2061  -3.2916 H              1 S1                 0.0000
     34 ****         1.0642   0.6436  -4.0930 H              1 S1                 0.0000
     35 ****         2.3404   2.6511  -3.9172 H              1 S1                 0.0000
     36 ****         0.9697   2.8102  -2.8618 H              1 S1                 0.0000
     37 ****         3.8661   2.2644  -2.0751 H              1 S1                 0.0000
     38 ****         2.9348   3.6979  -1.7707 H              1 S1                 0.0000
     39 ****         3.0427   2.5752   0.2904 H              1 S1                 0.0000
     40 ****         1.4037   2.3261  -0.2243 H              1 S1                 0.0000
     41 ****         2.8822   0.3502   0.7465 H              1 S1                 0.0000
     42 ****         3.6306   0.3257  -0.8036 H              1 S1                 0.0000
     43 ****        -5.4404   0.2569   2.7661 LP             1 S1                 0.0000
     44 ****        -5.2633  -1.8277   1.4008 LP             1 S1                 0.0000
     45 ****        -5.0954  -2.2086   2.9798 LP             1 S1                 0.0000
     46 ****        -2.4241  -0.3112  -0.0166 LP             1 S1                 0.0000
     47 ****        -1.1617  -0.0370  -1.1703 LP             1 S1                 0.0000
     48 ****         2.2027  -3.2249  -2.4885 LP             1 S1                 0.0000
     49 ****         1.1200  -1.9131  -2.8155 LP             1 S1                 0.0000
     50 ****         3.4972  -3.1054  -0.6181 LP             1 S1                 0.0000
     51 ****         3.3402  -1.7077   0.3928 LP             1 S1                 0.0000
@<TRIPOS>BOND
    1    1    2 1     
    2    1   22 1     
    3    1   23 1     
    4    1   24 1     
    5    2    7 1     
    6    2    3 2     
    7    3    4 1     
    8    4    5 1     
    9    5    6 1     
   10    5    7 2     
   11    6   25 1     
   12    6   26 1     
   13    6   27 1     
   14    7    8 1     
   15    8    9 1     
   16    8   28 1     
   17    8   29 1     
   18    9   10 2     
   19    9   11 am    
   20   11   12 1     
   21   11   30 1     
   22   12   21 1     
   23   12   13 1     
   24   12   16 1     
   25   13   14 ar    
   26   13   15 ar    
   27   16   17 1     
   28   16   31 1     
   29   16   32 1     
   30   17   18 1     
   31   17   33 1     
   32   17   34 1     
   33   18   19 1     
   34   18   35 1     
   35   18   36 1     
   36   19   20 1     
   37   19   37 1     
   38   19   38 1     
   39   20   21 1     
   40   20   39 1     
   41   20   40 1     
   42   21   41 1     
   43   21   42 1     
   44    3   43 1     
   45    4   44 1     
   46    4   45 1     
   47   10   46 1     
   48   10   47 1     
   49   14   48 1     
   50   14   49 1     
   51   15   50 1     
   52   15   51 1     
@<TRIPOS>SUBSTRUCTURE
      1 S1             1
@<TRIPOS>SET
LONE_PAIRS      STATIC     ATOMS    <user>   **** ""
9 43 44 45 46 47 48 49 50 51
DONOR_HYDROGENS      STATIC     ATOMS    <user>   **** ""
1 30
ATOM$BLUE        STATIC     ATOMS    COLORGROUP SYSTEM
9 43 44 45 46 47 48 49 50 51
ATOM$RED        STATIC     ATOMS    COLORGROUP SYSTEM
1 30
