AV-unprocessed.smi:320|AV-procd|sdf|2333|dock7
  -GOLD-   2262022233D 1   1.00000     0.00000
 Structure written by MMmdl.
 49 52  0  0  0  0  0  0  0  0  1 V2000
  151.4804  137.9603  159.4547 C   0  0  0  0  0  0  0  0  0  0  0  0
  150.8039  137.2567  158.2622 C   0  0  1  0  0  0  0  0  0  0  0  0
  149.4019  137.0226  158.6139 N   0  0  0  0  0  0  0  0  0  0  0  0
  148.7913  135.8300  158.6931 C   0  0  0  0  0  0  0  0  0  0  0  0
  149.3647  134.7575  158.5001 O   0  0  0  0  0  0  0  0  0  0  0  0
  147.3015  135.8625  159.0600 C   0  0  0  0  0  0  0  0  0  0  0  0
  147.0307  135.3195  160.4013 N   0  0  0  0  0  0  0  0  0  0  0  0
  146.4771  134.0254  160.4728 C   0  0  0  0  0  0  0  0  0  0  0  0
  146.1873  133.4410  161.6461 C   0  0  0  0  0  0  0  0  0  0  0  0
  146.4584  134.1747  162.8596 C   0  0  0  0  0  0  0  0  0  0  0  0
  146.9859  135.4138  162.8025 C   0  0  0  0  0  0  0  0  0  0  0  0
  147.3033  136.0572  161.5222 C   0  0  0  0  0  0  0  0  0  0  0  0
  147.7844  137.1895  161.4609 O   0  0  0  0  0  0  0  0  0  0  0  0
  150.9283  137.9941  156.8893 C   0  0  0  0  0  0  0  0  0  0  0  0
  152.4090  138.1588  156.4393 C   0  0  0  0  0  0  0  0  0  0  0  0
  152.4877  138.9037  155.0886 C   0  0  2  0  0  0  0  0  0  0  0  0
  151.8614  140.3060  155.2312 C   0  0  0  0  0  0  0  0  0  0  0  0
  150.3826  140.1600  155.6439 C   0  0  1  0  0  0  0  0  0  0  0  0
  149.6155  139.3670  154.5678 C   0  0  0  0  0  0  0  0  0  0  0  0
  150.2484  137.9686  154.4280 C   0  0  1  0  0  0  0  0  0  0  0  0
  151.7269  138.1055  154.0095 C   0  0  0  0  0  0  0  0  0  0  0  0
  150.1626  137.2220  155.7762 C   0  0  0  0  0  0  0  0  0  0  0  0
  150.2977  139.4158  156.9924 C   0  0  0  0  0  0  0  0  0  0  0  0
  152.5541  138.0712  159.3110 H   0  0  0  0  0  0  0  0  0  0  0  0
  151.3490  137.3773  160.3669 H   0  0  0  0  0  0  0  0  0  0  0  0
  151.0589  138.9480  159.6408 H   0  0  0  0  0  0  0  0  0  0  0  0
  151.3108  136.2962  158.1535 H   0  0  0  0  0  0  0  0  0  0  0  0
  148.8434  137.8445  158.7927 H   0  0  0  0  0  0  0  0  0  0  0  0
  146.9575  136.8947  158.9832 H   0  0  0  0  0  0  0  0  0  0  0  0
  146.7243  135.3122  158.3140 H   0  0  0  0  0  0  0  0  0  0  0  0
  146.2976  133.5473  159.5206 H   0  0  0  0  0  0  0  0  0  0  0  0
  145.7584  132.4504  161.6816 H   0  0  0  0  0  0  0  0  0  0  0  0
  146.2352  133.7287  163.8178 H   0  0  0  0  0  0  0  0  0  0  0  0
  147.1801  135.9479  163.7209 H   0  0  0  0  0  0  0  0  0  0  0  0
  152.9817  138.7065  157.1884 H   0  0  0  0  0  0  0  0  0  0  0  0
  152.8909  137.1864  156.3380 H   0  0  0  0  0  0  0  0  0  0  0  0
  153.5324  139.0039  154.7929 H   0  0  0  0  0  0  0  0  0  0  0  0
  152.4061  140.8897  155.9745 H   0  0  0  0  0  0  0  0  0  0  0  0
  151.9394  140.8531  154.2908 H   0  0  0  0  0  0  0  0  0  0  0  0
  149.9375  141.1499  155.7490 H   0  0  0  0  0  0  0  0  0  0  0  0
  148.5625  139.2809  154.8392 H   0  0  0  0  0  0  0  0  0  0  0  0
  149.6470  139.8949  153.6138 H   0  0  0  0  0  0  0  0  0  0  0  0
  149.7090  137.4034  153.6674 H   0  0  0  0  0  0  0  0  0  0  0  0
  151.8014  138.6082  153.0445 H   0  0  0  0  0  0  0  0  0  0  0  0
  152.1767  137.1203  153.8796 H   0  0  0  0  0  0  0  0  0  0  0  0
  150.5751  136.2226  155.6416 H   0  0  0  0  0  0  0  0  0  0  0  0
  149.1179  137.0867  156.0599 H   0  0  0  0  0  0  0  0  0  0  0  0
  149.2564  139.3441  157.3099 H   0  0  0  0  0  0  0  0  0  0  0  0
  150.8033  140.0136  157.7512 H   0  0  0  0  0  0  0  0  0  0  0  0
  1  2  1  0  0  0  0
  1 24  1  0  0  0  0
  1 25  1  0  0  0  0
  1 26  1  0  0  0  0
  2  3  1  0  0  0  0
  2 14  1  0  0  0  0
  2 27  1  0  0  0  0
  3  4  1  0  0  0  0
  3 28  1  0  0  0  0
  4  5  2  0  0  0  0
  4  6  1  0  0  0  0
  6  7  1  0  0  0  0
  6 29  1  0  0  0  0
  6 30  1  0  0  0  0
  7 12  1  0  0  0  0
  7  8  1  0  0  0  0
  8  9  2  0  0  0  0
  8 31  1  0  0  0  0
  9 10  1  0  0  0  0
  9 32  1  0  0  0  0
 10 11  2  0  0  0  0
 10 33  1  0  0  0  0
 11 12  1  0  0  0  0
 11 34  1  0  0  0  0
 12 13  2  0  0  0  0
 14 22  1  0  0  0  0
 14 23  1  0  0  0  0
 14 15  1  0  0  0  0
 15 16  1  0  0  0  0
 15 35  1  0  0  0  0
 15 36  1  0  0  0  0
 16 21  1  0  0  0  0
 16 17  1  0  0  0  0
 16 37  1  0  0  0  0
 17 18  1  0  0  0  0
 17 38  1  0  0  0  0
 17 39  1  0  0  0  0
 18 19  1  0  0  0  0
 18 23  1  0  0  0  0
 18 40  1  0  0  0  0
 19 20  1  0  0  0  0
 19 41  1  0  0  0  0
 19 42  1  0  0  0  0
 20 21  1  0  0  0  0
 20 22  1  0  0  0  0
 20 43  1  0  0  0  0
 21 44  1  0  0  0  0
 21 45  1  0  0  0  0
 22 46  1  0  0  0  0
 22 47  1  0  0  0  0
 23 48  1  0  0  0  0
 23 49  1  0  0  0  0
M  END
> <s_m_source_file>
AV-unprocessed.smi

> <i_m_source_file_index>
320

> <i_lp_mmshare_version>
43012

> <i_f3d_flags>
0

> <s_epik_input>
W0NIMl0xW0NAQEhdKFtDSDJdMilbQ0gyXVtDQEBIXShbQ0gyXTMpW0NIMl1bQ0BIXTFbQ0gyXUMyM1tDQEhdKFtDSDNdKVtOSF1DKD1PKVtDSDJdbjRbY0hdW2NIXVtjSF1bY0hdYzQ9Tw==

> <s_epik_cmdline>
J2VwaWtfcHl0aG9uJywgJy1waCcsICc3LjAnLCAnLXRuJywgJzgnLCAnLW1hJywgJzIwMCcsICctbWV0YWxfYmluZGluZycsICctaW1hZScsICc8aW5maWxlLm1hZT4nLCAnLW9tYWUnLCAnPG91dGZpbGUubWFlPic=

> <r_lp_tautomer_probability>
1

> <r_epik_Ionization_Penalty>
4.15949e-07

> <r_epik_Ionization_Penalty_Charging>
3.97363e-07

> <r_epik_Ionization_Penalty_Neutral>
1.85865e-08

> <r_epik_State_Penalty>
-0

> <r_epik_Charging_Adjusted_Penalty>
3.97363e-07

> <i_epik_Tot_Q>
0

> <i_epik_Tot_abs_Q>
0

> <r_epik_Metal_State_Penalty>
-0

> <b_epik_Metal_Only>
0

> <s_lp_Force_Field>
OPLS_2005

> <r_lp_Energy>
45.3355

> <b_lp_Chiralities_Consistent>
1

> <s_lp_Variant>
AV-unprocessed.smi:320-2

> <Gold.Version>
5.8.1

> <Gold.Id.Protein>
6NUR|6NUR_protein|mol2

> <Gold.PLP.Fitness>
43.6371

> <Gold.PLP.PLP>
-36.1917

> <Gold.PLP.part.hbond>
-3.0000

> <Gold.PLP.part.metal>
0.0000

> <Gold.PLP.part.buried>
-0.5308

> <Gold.PLP.part.nonpolar>
-32.5423

> <Gold.PLP.part.repulsive>
0.1539

> <Gold.PLP.ligand.clash>
0.0000

> <Gold.PLP.ligand.torsion>
0.3294

> <Gold.PLP.Chemscore.Hbond>
2.6880

> <Gold.PLP.Chemscore.CHOScore>
0.0000

> <Gold.PLP.Chemscore.Metal>
0.0000

> <Gold.Chemscore.Hbonds>
donor molecule, donor type, donor heavy atom, donor atom, acceptor molecule, acceptor atom, score
      P1  H  6896  6907       L1     5  1.00
      P1  H  6931  6943       L1    13  1.00
      P1  H  6934  6947       L1    13  0.75

> <Gold.PLP.Chemscore.Internal.Correction>
0.0402

> <Gold.Rescore>
     Score         DG    S(hbond)    S(metal)    S(lipo)     H(rot)  DE(clash)    DE(int)     intcor
     20.95     -22.36       2.77        0.00      98.61       1.52       0.72       0.68       ----

> <Gold.Chemscore.Fitness>
20.9541

> <Gold.Chemscore.DG>
-22.3622

> <Gold.Chemscore.ZeroCoef>
-5.4800

> <Gold.Chemscore.Hbond>
2.7654

> <Gold.Chemscore.Metal>
0.0000

> <Gold.Chemscore.Lipo>
98.6113

> <Gold.Chemscore.Internal_Hbond>
0.0000

> <Gold.Chemscore.DEClash>
0.7239

> <Gold.Chemscore.DEInternal>
0.6842

> <Gold.Chemscore.Rot>
1.5202

> <Gold.Chemscore.Internal.Correction>
   9.000000E+99

> <Gold.Chemscore.Hbonds>
donor molecule, donor type, donor heavy atom, donor atom, acceptor molecule, acceptor atom, score
      P1  H  6896  6907       L1     5  0.97
      P1  H  6931  6943       L1    13  0.96
      P1  H  6934  6947       L1    13  0.71

> <Gold.Chemscore.Hbond.Weighted>
-9.2363

> <Gold.Chemscore.Metal.Weighted>
-0.0000

> <Gold.Chemscore.Lipo.Weighted>
-11.5375

> <Gold.Chemscore.Internal_Hbond.Weighted>
0.0000

> <Gold.Chemscore.DEClash.Weighted>
0.7239

> <Gold.Chemscore.DEInternal.Weighted>
0.6842

> <Gold.Chemscore.Rot.Weighted>
3.8916

> <Gold.Chemscore.Internal.Correction.Weighted>
   9.000000E+99

> <Gold.Protein.RotatedTorsions>
[ 6907 6896 6895 6894 ] final -103.25 input  -60.11 | X-H torsion
[ 7974 7965 7964 7962 ] final  -42.23 input  175.53 | X-H torsion
[ 8008 7997 7996 7995 ] final  -97.98 input   59.86 | X-H torsion
[ 10167 10162 10161 10158 ] final  150.50 input  -65.29 | X-H torsion
[ 10718 10713 10712 10709 ] final  114.97 input   66.30 | X-H torsion
[ 10763 10752 10751 10750 ] final   21.65 input  -60.55 | X-H torsion
[ 11005 11000 10999 10996 ] final -147.12 input  -57.11 | X-H torsion

> <Gold.Protein.ActiveResidues>
 VAL166  LYS551  ARG553  GLY616  TRP617  ASP618  TYR619  PRO620  LYS621  CYS622 
 ASP623  PHE694  ASN695  SER759  ASP760  ASP761  ALA762  ILE779  LEU786  VAL792 
 PHE793  MET794  SER795  GLU796  ALA797  LYS798  CYS799  TRP800  GLU811  SER814 

> <Gold.Protein.RotatedAtoms>
  150.7232  134.0457  159.3780 H   0  0  0  0  0  0  0  0  0  0  0  0  # atno 6907 bound_to 6896
  151.8432  135.0581  160.0460 H   0  0  0  0  0  0  0  0  0  0  0  0  # atno 6908 bound_to 6896
  152.2846  133.5467  159.5556 H   0  0  0  0  0  0  0  0  0  0  0  0  # atno 6909 bound_to 6896
  146.0136  140.6935  142.9212 H   0  0  0  0  0  0  0  0  0  0  0  0  # atno 7974 bound_to 7965
  154.7950  140.0459  157.1230 H   0  0  0  0  0  0  0  0  0  0  0  0  # atno 8008 bound_to 7997
  154.9546  140.3069  155.5039 H   0  0  0  0  0  0  0  0  0  0  0  0  # atno 8009 bound_to 7997
  156.2954  140.2282  156.4627 H   0  0  0  0  0  0  0  0  0  0  0  0  # atno 8010 bound_to 7997
  139.4849  144.5517  151.7389 H   0  0  0  0  0  0  0  0  0  0  0  0  # atno 10167 bound_to 10162
  157.6250  131.1006  150.7262 H   0  0  0  0  0  0  0  0  0  0  0  0  # atno 10718 bound_to 10713
  153.0978  135.6664  153.9730 H   0  0  0  0  0  0  0  0  0  0  0  0  # atno 10763 bound_to 10752
  153.9309  135.3004  155.3447 H   0  0  0  0  0  0  0  0  0  0  0  0  # atno 10764 bound_to 10752
  154.7397  135.5085  153.9176 H   0  0  0  0  0  0  0  0  0  0  0  0  # atno 10765 bound_to 10752
  140.7749  134.3146  157.5063 H   0  0  0  0  0  0  0  0  0  0  0  0  # atno 11005 bound_to 11000
  144.6962  140.3441  143.7194 LP  0  0  0  0  0  0  0  0  0  0  0  0  # atno 17320 bound_to 7965
  145.7304  139.1734  143.2433 LP  0  0  0  0  0  0  0  0  0  0  0  0  # atno 17321 bound_to 7965
  140.5072  144.1079  150.5986 LP  0  0  0  0  0  0  0  0  0  0  0  0  # atno 17342 bound_to 10162
  140.3993  143.2712  151.9967 LP  0  0  0  0  0  0  0  0  0  0  0  0  # atno 17343 bound_to 10162
  156.7612  130.4799  149.5436 LP  0  0  0  0  0  0  0  0  0  0  0  0  # atno 17370 bound_to 10713
  156.1417  130.6249  151.0475 LP  0  0  0  0  0  0  0  0  0  0  0  0  # atno 17371 bound_to 10713
  139.8750  134.9283  156.3448 LP  0  0  0  0  0  0  0  0  0  0  0  0  # atno 17394 bound_to 11000
  140.9538  133.7433  156.0308 LP  0  0  0  0  0  0  0  0  0  0  0  0  # atno 17395 bound_to 11000

$$$$
