AV-unprocessed.smi:1718|AV-procd|sdf|6927|dock3
  -GOLD-   22720 8133D 1   1.00000     0.00000
 Structure written by MMmdl.
 39 40  0  0  0  0  0  0  0  0  2 V2000
  151.0576  133.0054  156.3011 C   0  0  0  0  0  0  0  0  0  0  0  0
  149.8622  133.9686  156.2488 C   0  0  1  0  0  0  0  0  0  0  0  0
  149.0830  133.6194  155.1078 O   0  0  0  0  0  0  0  0  0  0  0  0
  147.8923  134.3773  154.9242 C   0  0  0  0  0  0  0  0  0  0  0  0
  147.0089  133.6603  153.8966 C   0  0  2  0  0  0  0  0  0  0  0  0
  147.7619  133.1463  152.6717 C   0  0  0  0  0  0  0  0  0  0  0  0
  146.6443  133.0322  151.6601 C   0  0  0  0  0  0  0  0  0  0  0  0
  145.7811  134.2470  151.9963 C   0  0  0  0  0  0  0  0  0  0  0  0
  146.0313  134.5505  153.3673 O   0  0  0  0  0  0  0  0  0  0  0  0
  149.0108  133.8774  157.5259 C   0  0  0  0  0  0  0  0  0  0  0  0
  148.4724  132.8096  157.8181 O   0  0  0  0  0  0  0  0  0  0  0  0
  148.9249  135.0145  158.2438 N   0  0  0  0  0  0  0  0  0  0  0  0
  148.1982  135.2798  159.4168 C   0  0  0  0  0  0  0  0  0  0  0  0
  147.3217  134.4163  160.0004 C   0  0  0  0  0  0  0  0  0  0  0  0
  146.5813  134.7541  161.2095 C   0  0  0  0  0  0  0  0  0  0  0  0
  145.6732  133.7817  161.9413 C   0  0  0  0  0  0  0  0  0  0  0  0
  144.6809  133.3670  161.1535 F   0  0  0  0  0  0  0  0  0  0  0  0
  146.3694  132.7139  162.3283 F   0  0  0  0  0  0  0  0  0  0  0  0
  145.1417  134.3468  163.0253 F   0  0  0  0  0  0  0  0  0  0  0  0
  146.8834  136.0200  161.6724 C   0  0  0  0  0  0  0  0  0  0  0  0
  147.7134  136.9444  161.1414 N   0  5  0  0  0  0  0  0  0  0  0  0
  148.3991  136.6184  160.0095 C   0  0  0  0  0  0  0  0  0  0  0  0
  149.1752  137.4116  159.4753 O   0  0  0  0  0  0  0  0  0  0  0  0
  151.6936  133.2098  157.1631 H   0  0  0  0  0  0  0  0  0  0  0  0
  151.6731  133.1064  155.4071 H   0  0  0  0  0  0  0  0  0  0  0  0
  150.7341  131.9655  156.3606 H   0  0  0  0  0  0  0  0  0  0  0  0
  150.2467  134.9833  156.1278 H   0  0  0  0  0  0  0  0  0  0  0  0
  147.3465  134.4701  155.8636 H   0  0  0  0  0  0  0  0  0  0  0  0
  148.1291  135.3861  154.5830 H   0  0  0  0  0  0  0  0  0  0  0  0
  146.4791  132.8335  154.3727 H   0  0  0  0  0  0  0  0  0  0  0  0
  148.4980  133.8779  152.3351 H   0  0  0  0  0  0  0  0  0  0  0  0
  148.2747  132.2014  152.8530 H   0  0  0  0  0  0  0  0  0  0  0  0
  146.9961  133.0307  150.6281 H   0  0  0  0  0  0  0  0  0  0  0  0
  146.0817  132.1134  151.8305 H   0  0  0  0  0  0  0  0  0  0  0  0
  146.0750  135.1063  151.3926 H   0  0  0  0  0  0  0  0  0  0  0  0
  144.7219  134.0574  151.8207 H   0  0  0  0  0  0  0  0  0  0  0  0
  149.4817  135.7913  157.9175 H   0  0  0  0  0  0  0  0  0  0  0  0
  147.1271  133.4487  159.5685 H   0  0  0  0  0  0  0  0  0  0  0  0
  146.3856  136.3364  162.6139 H   0  0  0  0  0  0  0  0  0  0  0  0
  1  2  1  0  0  0  0
  1 24  1  0  0  0  0
  1 25  1  0  0  0  0
  1 26  1  0  0  0  0
  2  3  1  0  0  0  0
  2 10  1  0  0  0  0
  2 27  1  0  0  0  0
  3  4  1  0  0  0  0
  4  5  1  0  0  0  0
  4 28  1  0  0  0  0
  4 29  1  0  0  0  0
  5  9  1  0  0  0  0
  5  6  1  0  0  0  0
  5 30  1  0  0  0  0
  6  7  1  0  0  0  0
  6 31  1  0  0  0  0
  6 32  1  0  0  0  0
  7  8  1  0  0  0  0
  7 33  1  0  0  0  0
  7 34  1  0  0  0  0
  8  9  1  0  0  0  0
  8 35  1  0  0  0  0
  8 36  1  0  0  0  0
 10 11  2  0  0  0  0
 10 12  1  0  0  0  0
 12 13  1  0  0  0  0
 12 37  1  0  0  0  0
 13 22  1  0  0  0  0
 13 14  2  0  0  0  0
 14 15  1  0  0  0  0
 14 38  1  0  0  0  0
 15 16  1  0  0  0  0
 15 20  2  0  0  0  0
 16 17  1  0  0  0  0
 16 18  1  0  0  0  0
 16 19  1  0  0  0  0
 20 21  1  0  0  0  0
 20 39  1  0  0  0  0
 21 22  1  0  0  0  0
 22 23  2  0  0  0  0
M  CHG  1  21  -1
M  END
> <s_m_source_file>
AV-unprocessed.smi

> <i_m_source_file_index>
1718

> <i_lp_mmshare_version>
43012

> <i_f3d_flags>
0

> <s_epik_input>
TzFbQ0gyXVtDSDJdW0NIMl1bQ0BIXTFbQ0gyXU9bQ0BASF0oW0NIM10pQyg9TylbTkhdYzJbY0hdYyhDKEYpKEYpRilbY0hdW25IXWMyPU8=

> <s_epik_cmdline>
J2VwaWtfcHl0aG9uJywgJy1waCcsICc3LjAnLCAnLXRuJywgJzgnLCAnLW1hJywgJzIwMCcsICctbWV0YWxfYmluZGluZycsICctaW1hZScsICc8aW5maWxlLm1hZT4nLCAnLW9tYWUnLCAnPG91dGZpbGUubWFlPic=

> <r_epik_Ionization_Penalty>
2.5466

> <r_epik_Ionization_Penalty_Charging>
0.0575837

> <r_epik_Ionization_Penalty_Neutral>
2.48901

> <r_epik_State_Penalty>
2.6532

> <r_epik_Charging_Adjusted_Penalty>
2.71078

> <i_epik_Tot_Q>
-1

> <i_epik_Tot_abs_Q>
1

> <r_epik_Metal_State_Penalty>
0.516196

> <b_epik_Metal_Only>
0

> <s_lp_Force_Field>
OPLS_2005

> <r_lp_Energy>
37.0387

> <b_lp_Chiralities_Consistent>
1

> <s_lp_Variant>
AV-unprocessed.smi:1718-6

> <Gold.Version>
5.8.1

> <Gold.Id.Protein>
6NUR|6NUR_protein|mol2

> <Gold.PLP.Fitness>
41.0639

> <Gold.PLP.PLP>
-30.3329

> <Gold.PLP.part.hbond>
-2.9722

> <Gold.PLP.part.metal>
0.0000

> <Gold.PLP.part.buried>
-4.0537

> <Gold.PLP.part.nonpolar>
-24.0559

> <Gold.PLP.part.repulsive>
0.2414

> <Gold.PLP.ligand.clash>
0.0000

> <Gold.PLP.ligand.torsion>
0.2417

> <Gold.PLP.Chemscore.Hbond>
3.6969

> <Gold.PLP.Chemscore.CHOScore>
0.0000

> <Gold.PLP.Chemscore.Metal>
0.0000

> <Gold.Chemscore.Hbonds>
donor molecule, donor type, donor heavy atom, donor atom, acceptor molecule, acceptor atom, score
      P1  H  6931  6943       L1    21  1.80
      P1  H  6934  6947       L1    21  1.25

> <Gold.PLP.Chemscore.Internal.Correction>
0.1238

> <Gold.Rescore>
     Score         DG    S(hbond)    S(metal)    S(lipo)     H(rot)  DE(clash)    DE(int)     intcor
     10.69     -12.08       1.28        0.00      60.15       1.85       0.04       1.35       ----

> <Gold.Chemscore.Fitness>
10.6876

> <Gold.Chemscore.DG>
-12.0803

> <Gold.Chemscore.ZeroCoef>
-5.4800

> <Gold.Chemscore.Hbond>
1.2835

> <Gold.Chemscore.Metal>
0.0000

> <Gold.Chemscore.Lipo>
60.1517

> <Gold.Chemscore.Internal_Hbond>
0.0000

> <Gold.Chemscore.DEClash>
0.0414

> <Gold.Chemscore.DEInternal>
1.3512

> <Gold.Chemscore.Rot>
1.8455

> <Gold.Chemscore.Internal.Correction>
   9.000000E+99

> <Gold.Chemscore.Hbonds>
donor molecule, donor type, donor heavy atom, donor atom, acceptor molecule, acceptor atom, score
      P1  H  6931  6943       L1    21  0.16
      P1  H  6934  6947       L1    21  0.33

> <Gold.Chemscore.Hbond.Weighted>
-4.2870

> <Gold.Chemscore.Metal.Weighted>
-0.0000

> <Gold.Chemscore.Lipo.Weighted>
-7.0378

> <Gold.Chemscore.Internal_Hbond.Weighted>
0.0000

> <Gold.Chemscore.DEClash.Weighted>
0.0414

> <Gold.Chemscore.DEInternal.Weighted>
1.3512

> <Gold.Chemscore.Rot.Weighted>
4.7245

> <Gold.Chemscore.Internal.Correction.Weighted>
   9.000000E+99

> <Gold.Protein.RotatedTorsions>
[ 6907 6896 6895 6894 ] final -143.91 input  -60.11 | X-H torsion
[ 7974 7965 7964 7962 ] final   77.55 input  175.53 | X-H torsion
[ 8008 7997 7996 7995 ] final    9.97 input   59.86 | X-H torsion
[ 10167 10162 10161 10158 ] final  -35.76 input  -65.29 | X-H torsion
[ 10718 10713 10712 10709 ] final -160.15 input   66.30 | X-H torsion
[ 10763 10752 10751 10750 ] final  -29.82 input  -60.55 | X-H torsion
[ 11005 11000 10999 10996 ] final   19.59 input  -57.11 | X-H torsion

> <Gold.Protein.ActiveResidues>
 VAL166  LYS551  ARG553  GLY616  TRP617  ASP618  TYR619  PRO620  LYS621  CYS622 
 ASP623  PHE694  ASN695  SER759  ASP760  ASP761  ALA762  ILE779  LEU786  VAL792 
 PHE793  MET794  SER795  GLU796  ALA797  LYS798  CYS799  TRP800  GLU811  SER814 

> <Gold.Protein.RotatedAtoms>
  151.1069  133.5202  159.2607 H   0  0  0  0  0  0  0  0  0  0  0  0  # atno 6907 bound_to 6896
  151.2011  135.0442  159.8882 H   0  0  0  0  0  0  0  0  0  0  0  0  # atno 6908 bound_to 6896
  152.5447  134.0896  159.8325 H   0  0  0  0  0  0  0  0  0  0  0  0  # atno 6909 bound_to 6896
  145.6886  139.2545  143.1773 H   0  0  0  0  0  0  0  0  0  0  0  0  # atno 7974 bound_to 7965
  154.7871  140.2829  155.6019 H   0  0  0  0  0  0  0  0  0  0  0  0  # atno 8008 bound_to 7997
  156.2959  140.2612  156.2638 H   0  0  0  0  0  0  0  0  0  0  0  0  # atno 8009 bound_to 7997
  154.9715  140.0376  157.2226 H   0  0  0  0  0  0  0  0  0  0  0  0  # atno 8010 bound_to 7997
  140.7158  143.3455  151.2266 H   0  0  0  0  0  0  0  0  0  0  0  0  # atno 10167 bound_to 10162
  156.5781  130.8717  151.2857 H   0  0  0  0  0  0  0  0  0  0  0  0  # atno 10718 bound_to 10713
  153.7709  135.6912  153.4906 H   0  0  0  0  0  0  0  0  0  0  0  0  # atno 10763 bound_to 10752
  153.1875  135.4483  155.0106 H   0  0  0  0  0  0  0  0  0  0  0  0  # atno 10764 bound_to 10752
  154.8118  135.3381  154.7218 H   0  0  0  0  0  0  0  0  0  0  0  0  # atno 10765 bound_to 10752
  140.4120  134.1608  155.7668 H   0  0  0  0  0  0  0  0  0  0  0  0  # atno 11005 bound_to 11000
  146.0902  140.7665  142.9599 LP  0  0  0  0  0  0  0  0  0  0  0  0  # atno 17320 bound_to 7965
  144.7003  140.3625  143.7161 LP  0  0  0  0  0  0  0  0  0  0  0  0  # atno 17321 bound_to 7965
  139.6973  143.9591  152.2889 LP  0  0  0  0  0  0  0  0  0  0  0  0  # atno 17342 bound_to 10162
  139.9273  144.6763  150.8399 LP  0  0  0  0  0  0  0  0  0  0  0  0  # atno 17343 bound_to 10162
  157.7333  130.9728  150.1970 LP  0  0  0  0  0  0  0  0  0  0  0  0  # atno 17370 bound_to 10713
  156.2656  130.3716  149.8085 LP  0  0  0  0  0  0  0  0  0  0  0  0  # atno 17371 bound_to 10713
  141.1817  133.8399  157.1233 LP  0  0  0  0  0  0  0  0  0  0  0  0  # atno 17394 bound_to 11000
  140.0260  134.9923  157.0687 LP  0  0  0  0  0  0  0  0  0  0  0  0  # atno 17395 bound_to 11000

$$$$
