AV-unprocessed.smi:2344|AV-procd|sdf|9360|dock5
  -GOLD-   2272012583D 1   1.00000     0.00000
 Structure written by MMmdl.
 35 36  0  0  0  0  0  0  0  0  1 V2000
  143.5653  143.6984  162.4716 C   0  0  0  0  0  0  0  0  0  0  0  0
  144.7085  143.6445  161.4801 C   0  0  0  0  0  0  0  0  0  0  0  0
  144.4726  143.4378  160.1078 C   0  0  0  0  0  0  0  0  0  0  0  0
  145.5720  143.3979  159.2288 C   0  0  0  0  0  0  0  0  0  0  0  0
  146.8784  143.5661  159.7403 C   0  0  0  0  0  0  0  0  0  0  0  0
  147.9154  143.5063  158.7718 N   0  0  0  0  0  0  0  0  0  0  0  0
  149.2445  143.5153  158.9749 C   0  0  0  0  0  0  0  0  0  0  0  0
  149.7987  143.5840  160.0726 O   0  0  0  0  0  0  0  0  0  0  0  0
  149.9123  143.4447  157.8147 N   0  0  0  0  0  0  0  0  0  0  0  0
  151.3648  143.4652  157.6861 C   0  0  1  0  0  0  0  0  0  0  0  0
  151.9447  144.5973  158.4907 C   0  0  0  0  0  0  0  0  0  0  0  0
  152.8044  144.1827  159.4186 C   0  0  0  0  0  0  0  0  0  0  0  0
  152.9657  142.6846  159.4316 C   0  0  1  0  0  0  0  0  0  0  0  0
  152.6643  142.0570  160.8061 C   0  0  0  0  0  0  0  0  0  0  0  0
  151.6841  142.7913  161.5139 O   0  0  0  0  0  0  0  0  0  0  0  0
  152.0329  142.2016  158.2912 C   0  0  0  0  0  0  0  0  0  0  0  0
  147.0952  143.7663  161.0642 N   0  0  0  0  0  0  0  0  0  0  0  0
  146.0413  143.8048  161.9059 C   0  0  0  0  0  0  0  0  0  0  0  0
  151.6518  143.5967  156.6414 H   0  0  0  0  0  0  0  0  0  0  0  0
  154.0003  142.4650  159.1654 H   0  0  0  0  0  0  0  0  0  0  0  0
  142.6756  143.2123  162.0705 H   0  0  0  0  0  0  0  0  0  0  0  0
  143.3167  144.7342  162.7027 H   0  0  0  0  0  0  0  0  0  0  0  0
  143.8371  143.1946  163.3995 H   0  0  0  0  0  0  0  0  0  0  0  0
  143.4681  143.3119  159.7314 H   0  0  0  0  0  0  0  0  0  0  0  0
  145.4088  143.2397  158.1725 H   0  0  0  0  0  0  0  0  0  0  0  0
  147.6093  143.4546  157.8115 H   0  0  0  0  0  0  0  0  0  0  0  0
  149.3808  143.3942  156.9580 H   0  0  0  0  0  0  0  0  0  0  0  0
  151.6815  145.6284  158.3054 H   0  0  0  0  0  0  0  0  0  0  0  0
  153.3409  144.8254  160.1010 H   0  0  0  0  0  0  0  0  0  0  0  0
  152.3161  141.0310  160.6841 H   0  0  0  0  0  0  0  0  0  0  0  0
  153.5720  142.0158  161.4090 H   0  0  0  0  0  0  0  0  0  0  0  0
  152.0593  143.0837  162.3306 H   0  0  0  0  0  0  0  0  0  0  0  0
  151.2930  141.4871  158.6556 H   0  0  0  0  0  0  0  0  0  0  0  0
  152.6108  141.6810  157.5268 H   0  0  0  0  0  0  0  0  0  0  0  0
  146.2704  143.9679  162.9489 H   0  0  0  0  0  0  0  0  0  0  0  0
  1  2  1  0  0  0  0
  1 21  1  0  0  0  0
  1 22  1  0  0  0  0
  1 23  1  0  0  0  0
  2 18  1  0  0  0  0
  2  3  2  0  0  0  0
  3  4  1  0  0  0  0
  3 24  1  0  0  0  0
  4  5  2  0  0  0  0
  4 25  1  0  0  0  0
  5  6  1  0  0  0  0
  5 17  1  0  0  0  0
  6  7  1  0  0  0  0
  6 26  1  0  0  0  0
  7  8  2  0  0  0  0
  7  9  1  0  0  0  0
  9 10  1  0  0  0  0
  9 27  1  0  0  0  0
 10 19  1  0  0  0  0
 10 16  1  0  0  0  0
 10 11  1  0  0  0  0
 11 12  2  0  0  0  0
 11 28  1  0  0  0  0
 12 13  1  0  0  0  0
 12 29  1  0  0  0  0
 13 20  1  0  0  0  0
 13 14  1  0  0  0  0
 13 16  1  0  0  0  0
 14 15  1  0  0  0  0
 14 30  1  0  0  0  0
 14 31  1  0  0  0  0
 15 32  1  0  0  0  0
 16 33  1  0  0  0  0
 16 34  1  0  0  0  0
 17 18  2  0  0  0  0
 18 35  1  0  0  0  0
M  END
> <s_m_source_file>
AV-unprocessed.smi

> <i_m_source_file_index>
2344

> <i_lp_mmshare_version>
43012

> <i_f3d_flags>
0

> <s_epik_input>
W0NIM11jMVtjSF1bY0hdYyhuW2NIXTEpW05IXUMoPU8pW05IXVtDQEBIXTJbQ0hdPVtDSF1bQ0BASF0oW0NIMl0yKVtDSDJdW09IXQ==

> <s_epik_cmdline>
J2VwaWtfcHl0aG9uJywgJy1waCcsICc3LjAnLCAnLXRuJywgJzgnLCAnLW1hJywgJzIwMCcsICctbWV0YWxfYmluZGluZycsICctaW1hZScsICc8aW5maWxlLm1hZT4nLCAnLW9tYWUnLCAnPG91dGZpbGUubWFlPic=

> <r_lp_tautomer_probability>
1

> <r_epik_Ionization_Penalty>
5.7643e-05

> <r_epik_Ionization_Penalty_Charging>
0

> <r_epik_Ionization_Penalty_Neutral>
5.7643e-05

> <r_epik_State_Penalty>
-0

> <r_epik_Charging_Adjusted_Penalty>
0

> <i_epik_Tot_Q>
0

> <i_epik_Tot_abs_Q>
0

> <r_epik_Metal_State_Penalty>
-0

> <b_epik_Metal_Only>
0

> <s_lp_Force_Field>
OPLS_2005

> <r_lp_Energy>
18.1017

> <b_lp_Chiralities_Consistent>
1

> <s_lp_Variant>
AV-unprocessed.smi:2344-4

> <Gold.Version>
5.8.1

> <Gold.Id.Protein>
6NUR|6NUR_protein|mol2

> <Gold.PLP.Fitness>
46.6714

> <Gold.PLP.PLP>
-41.3518

> <Gold.PLP.part.hbond>
-5.3158

> <Gold.PLP.part.metal>
0.0000

> <Gold.PLP.part.buried>
-6.5912

> <Gold.PLP.part.nonpolar>
-30.2910

> <Gold.PLP.part.repulsive>
0.3411

> <Gold.PLP.ligand.clash>
0.0000

> <Gold.PLP.ligand.torsion>
0.4274

> <Gold.PLP.Chemscore.Hbond>
2.0538

> <Gold.PLP.Chemscore.CHOScore>
0.0000

> <Gold.PLP.Chemscore.Metal>
0.0000

> <Gold.Chemscore.Hbonds>
donor molecule, donor type, donor heavy atom, donor atom, acceptor molecule, acceptor atom, score
      L1  H     9    27       P1  8028  0.64
      P1  H  6933  6944       L1    17  1.00
      P1  H  6933  6945       L1    15  0.55

> <Gold.PLP.Chemscore.Internal.Correction>
0.0132

> <Gold.Rescore>
     Score         DG    S(hbond)    S(metal)    S(lipo)     H(rot)  DE(clash)    DE(int)     intcor
     15.17     -17.83       1.71        0.00      96.50       1.82       0.01       2.65       ----

> <Gold.Chemscore.Fitness>
15.1686

> <Gold.Chemscore.DG>
-17.8258

> <Gold.Chemscore.ZeroCoef>
-5.4800

> <Gold.Chemscore.Hbond>
1.7097

> <Gold.Chemscore.Metal>
0.0000

> <Gold.Chemscore.Lipo>
96.4995

> <Gold.Chemscore.Internal_Hbond>
0.0000

> <Gold.Chemscore.DEClash>
0.0073

> <Gold.Chemscore.DEInternal>
2.6498

> <Gold.Chemscore.Rot>
1.8184

> <Gold.Chemscore.Internal.Correction>
   9.000000E+99

> <Gold.Chemscore.Hbonds>
donor molecule, donor type, donor heavy atom, donor atom, acceptor molecule, acceptor atom, score
      L1  H     9    27       P1  8028  0.60
      P1  H  6933  6944       L1    17  0.30
      P1  H  6933  6945       L1    15  0.13

> <Gold.Chemscore.Hbond.Weighted>
-5.7104

> <Gold.Chemscore.Metal.Weighted>
-0.0000

> <Gold.Chemscore.Lipo.Weighted>
-11.2904

> <Gold.Chemscore.Internal_Hbond.Weighted>
0.0000

> <Gold.Chemscore.DEClash.Weighted>
0.0073

> <Gold.Chemscore.DEInternal.Weighted>
2.6498

> <Gold.Chemscore.Rot.Weighted>
4.6551

> <Gold.Chemscore.Internal.Correction.Weighted>
   9.000000E+99

> <Gold.Protein.RotatedTorsions>
[ 6907 6896 6895 6894 ] final   43.36 input  -60.11 | X-H torsion
[ 7974 7965 7964 7962 ] final  145.37 input  175.53 | X-H torsion
[ 8008 7997 7996 7995 ] final   -7.34 input   59.86 | X-H torsion
[ 10167 10162 10161 10158 ] final  -52.20 input  -65.29 | X-H torsion
[ 10718 10713 10712 10709 ] final   27.01 input   66.30 | X-H torsion
[ 10763 10752 10751 10750 ] final -107.21 input  -60.55 | X-H torsion
[ 11005 11000 10999 10996 ] final -169.59 input  -57.11 | X-H torsion

> <Gold.Protein.ActiveResidues>
 VAL166  LYS551  ARG553  GLY616  TRP617  ASP618  TYR619  PRO620  LYS621  CYS622 
 ASP623  PHE694  ASN695  SER759  ASP760  ASP761  ALA762  ILE779  LEU786  VAL792 
 PHE793  MET794  SER795  GLU796  ALA797  LYS798  CYS799  TRP800  GLU811  SER814 

> <Gold.Protein.RotatedAtoms>
  152.2193  134.8428  160.0487 H   0  0  0  0  0  0  0  0  0  0  0  0  # atno 6907 bound_to 6896
  151.9217  133.3582  159.3907 H   0  0  0  0  0  0  0  0  0  0  0  0  # atno 6908 bound_to 6896
  150.6996  134.4553  159.5399 H   0  0  0  0  0  0  0  0  0  0  0  0  # atno 6909 bound_to 6896
  144.8758  139.5775  143.5866 H   0  0  0  0  0  0  0  0  0  0  0  0  # atno 7974 bound_to 7965
  154.5848  140.2409  155.8003 H   0  0  0  0  0  0  0  0  0  0  0  0  # atno 8008 bound_to 7997
  156.2205  140.2999  155.9896 H   0  0  0  0  0  0  0  0  0  0  0  0  # atno 8009 bound_to 7997
  155.2478  140.0409  157.2973 H   0  0  0  0  0  0  0  0  0  0  0  0  # atno 8010 bound_to 7997
  140.6549  143.2592  151.4614 H   0  0  0  0  0  0  0  0  0  0  0  0  # atno 10167 bound_to 10162
  157.2145  130.6950  149.6243 H   0  0  0  0  0  0  0  0  0  0  0  0  # atno 10718 bound_to 10713
  154.8061  135.4683  154.0395 H   0  0  0  0  0  0  0  0  0  0  0  0  # atno 10763 bound_to 10752
  153.1863  135.6848  153.8417 H   0  0  0  0  0  0  0  0  0  0  0  0  # atno 10764 bound_to 10752
  153.7950  135.3238  155.3361 H   0  0  0  0  0  0  0  0  0  0  0  0  # atno 10765 bound_to 10752
  140.5290  134.5634  157.5069 H   0  0  0  0  0  0  0  0  0  0  0  0  # atno 11005 bound_to 11000
  146.2961  139.7283  142.9125 LP  0  0  0  0  0  0  0  0  0  0  0  0  # atno 17320 bound_to 7965
  145.4046  141.0389  143.3051 LP  0  0  0  0  0  0  0  0  0  0  0  0  # atno 17321 bound_to 7965
  139.5770  144.1796  152.1917 LP  0  0  0  0  0  0  0  0  0  0  0  0  # atno 17342 bound_to 10162
  140.1109  144.5457  150.6925 LP  0  0  0  0  0  0  0  0  0  0  0  0  # atno 17343 bound_to 10162
  155.9687  130.4540  150.5834 LP  0  0  0  0  0  0  0  0  0  0  0  0  # atno 17370 bound_to 10713
  157.3639  131.0754  151.1614 LP  0  0  0  0  0  0  0  0  0  0  0  0  # atno 17371 bound_to 10713
  139.9564  134.7527  156.0332 LP  0  0  0  0  0  0  0  0  0  0  0  0  # atno 17394 bound_to 11000
  141.1292  133.6591  156.3418 LP  0  0  0  0  0  0  0  0  0  0  0  0  # atno 17395 bound_to 11000

$$$$
