AV-unprocessed.smi:2748|AV-procd|sdf|10581|dock2
  -GOLD-   2272015 33D 1   1.00000     0.00000
 Structure written by MMmdl.
 30 32  0  0  0  0  0  0  0  0  1 V2000
  146.5079  138.6876  153.1116 O   0  0  0  0  0  0  0  0  0  0  0  0
  147.4465  139.1950  153.7225 C   0  0  0  0  0  0  0  0  0  0  0  0
  148.6751  138.5309  153.7865 N   0  0  0  0  0  0  0  0  0  0  0  0
  149.8149  138.9931  154.4450 C   0  0  0  0  0  0  0  0  0  0  0  0
  150.8490  138.3253  154.4253 O   0  0  0  0  0  0  0  0  0  0  0  0
  149.7061  140.2367  155.1085 N   0  0  0  0  0  0  0  0  0  0  0  0
  150.8746  140.7484  155.7812 C   0  0  0  0  0  0  0  0  0  0  0  0
  150.6918  140.8539  157.3078 C   0  0  2  0  0  0  0  0  0  0  0  0
  149.6013  141.8835  157.7074 C   0  0  0  0  0  0  0  0  0  0  0  0
  150.3796  142.8479  158.5317 C   0  0  0  0  0  0  0  0  0  0  0  0
  149.9253  144.0117  159.1752 C   0  0  0  0  0  0  0  0  0  0  0  0
  150.8672  144.7739  159.9011 C   0  0  0  0  0  0  0  0  0  0  0  0
  152.2211  144.3651  159.9686 C   0  0  0  0  0  0  0  0  0  0  0  0
  152.6500  143.1899  159.3112 C   0  0  0  0  0  0  0  0  0  0  0  0
  151.7008  142.4420  158.5925 C   0  0  0  0  0  0  0  0  0  0  0  0
  151.9313  141.2855  157.9033 O   0  0  0  0  0  0  0  0  0  0  0  0
  148.5097  140.9357  155.0629 C   0  0  0  0  0  0  0  0  0  0  0  0
  147.4084  140.4808  154.4181 C   0  0  0  0  0  0  0  0  0  0  0  0
  145.9528  141.4108  154.4044 Cl  0  0  0  0  0  0  0  0  0  0  0  0
  148.7447  137.6426  153.3116 H   0  0  0  0  0  0  0  0  0  0  0  0
  151.6943  140.0725  155.5312 H   0  0  0  0  0  0  0  0  0  0  0  0
  151.1222  141.7081  155.3226 H   0  0  0  0  0  0  0  0  0  0  0  0
  150.4349  139.8810  157.7289 H   0  0  0  0  0  0  0  0  0  0  0  0
  149.1592  142.3887  156.8480 H   0  0  0  0  0  0  0  0  0  0  0  0
  148.8069  141.4271  158.2986 H   0  0  0  0  0  0  0  0  0  0  0  0
  148.8902  144.3141  159.1160 H   0  0  0  0  0  0  0  0  0  0  0  0
  150.5526  145.6745  160.4077 H   0  0  0  0  0  0  0  0  0  0  0  0
  152.9317  144.9560  160.5277 H   0  0  0  0  0  0  0  0  0  0  0  0
  153.6815  142.8737  159.3601 H   0  0  0  0  0  0  0  0  0  0  0  0
  148.4495  141.8928  155.5616 H   0  0  0  0  0  0  0  0  0  0  0  0
  1  2  2  0  0  0  0
  2 18  1  0  0  0  0
  2  3  1  0  0  0  0
  3 20  1  0  0  0  0
  3  4  1  0  0  0  0
  4  5  2  0  0  0  0
  4  6  1  0  0  0  0
  6  7  1  0  0  0  0
  6 17  1  0  0  0  0
  7  8  1  0  0  0  0
  7 21  1  0  0  0  0
  7 22  1  0  0  0  0
  8 16  1  0  0  0  0
  8  9  1  0  0  0  0
  8 23  1  0  0  0  0
  9 10  1  0  0  0  0
  9 24  1  0  0  0  0
  9 25  1  0  0  0  0
 10 15  2  0  0  0  0
 10 11  1  0  0  0  0
 11 12  2  0  0  0  0
 11 26  1  0  0  0  0
 12 13  1  0  0  0  0
 12 27  1  0  0  0  0
 13 14  2  0  0  0  0
 13 28  1  0  0  0  0
 14 15  1  0  0  0  0
 14 29  1  0  0  0  0
 15 16  1  0  0  0  0
 17 18  2  0  0  0  0
 17 30  1  0  0  0  0
 18 19  1  0  0  0  0
M  END
> <s_m_source_file>
AV-unprocessed.smi

> <i_m_source_file_index>
2748

> <i_lp_mmshare_version>
43012

> <i_f3d_flags>
0

> <s_epik_input>
Tz1jMVtuSF1jKD1PKW4oW2NIXWMxQ2wpW0NIMl1bQ0BIXShbQ0gyXTIpT2MoYzIzKVtjSF1bY0hdW2NIXVtjSF0z

> <s_epik_cmdline>
J2VwaWtfcHl0aG9uJywgJy1waCcsICc3LjAnLCAnLXRuJywgJzgnLCAnLW1hJywgJzIwMCcsICctbWV0YWxfYmluZGluZycsICctaW1hZScsICc8aW5maWxlLm1hZT4nLCAnLW9tYWUnLCAnPG91dGZpbGUubWFlPic=

> <r_lp_tautomer_probability>
0.999537

> <r_epik_Ionization_Penalty>
0.0203523

> <r_epik_Ionization_Penalty_Charging>
0.0203523

> <r_epik_Ionization_Penalty_Neutral>
0

> <r_epik_State_Penalty>
0.0163078

> <r_epik_Charging_Adjusted_Penalty>
0.0366602

> <i_epik_Tot_Q>
0

> <i_epik_Tot_abs_Q>
0

> <r_epik_Metal_State_Penalty>
1.99317

> <b_epik_Metal_Only>
0

> <s_lp_Force_Field>
OPLS_2005

> <r_lp_Energy>
20.6728

> <b_lp_Chiralities_Consistent>
1

> <s_lp_Variant>
AV-unprocessed.smi:2748-1

> <Gold.Version>
5.8.1

> <Gold.Id.Protein>
6NUR|6NUR_protein|mol2

> <Gold.PLP.Fitness>
46.5886

> <Gold.PLP.PLP>
-40.8372

> <Gold.PLP.part.hbond>
-1.9010

> <Gold.PLP.part.metal>
0.0000

> <Gold.PLP.part.buried>
-3.5963

> <Gold.PLP.part.nonpolar>
-35.7306

> <Gold.PLP.part.repulsive>
0.9333

> <Gold.PLP.ligand.clash>
0.0000

> <Gold.PLP.ligand.torsion>
0.0390

> <Gold.PLP.Chemscore.Hbond>
0.9425

> <Gold.PLP.Chemscore.CHOScore>
1.0000

> <Gold.PLP.Chemscore.Metal>
0.0000

> <Gold.Chemscore.Hbonds>
donor molecule, donor type, donor heavy atom, donor atom, acceptor molecule, acceptor atom, score
      L1  H     3    20       P1  7948  1.00
      L1  C    17    30       P1  8028  0.20

> <Gold.PLP.Chemscore.Internal.Correction>
0.0020

> <Gold.Rescore>
     Score         DG    S(hbond)    S(metal)    S(lipo)     H(rot)  DE(clash)    DE(int)     intcor
     16.71     -16.96       0.92        0.00     100.52       1.31       0.12       0.12       ----

> <Gold.Chemscore.Fitness>
16.7073

> <Gold.Chemscore.DG>
-16.9555

> <Gold.Chemscore.ZeroCoef>
-5.4800

> <Gold.Chemscore.Hbond>
0.9210

> <Gold.Chemscore.Metal>
0.0000

> <Gold.Chemscore.Lipo>
100.5164

> <Gold.Chemscore.Internal_Hbond>
0.0000

> <Gold.Chemscore.DEClash>
0.1239

> <Gold.Chemscore.DEInternal>
0.1243

> <Gold.Chemscore.Rot>
1.3129

> <Gold.Chemscore.Internal.Correction>
   9.000000E+99

> <Gold.Chemscore.Hbonds>
donor molecule, donor type, donor heavy atom, donor atom, acceptor molecule, acceptor atom, score
      L1  H     3    20       P1  7948  0.94

> <Gold.Chemscore.Hbond.Weighted>
-3.0760

> <Gold.Chemscore.Metal.Weighted>
-0.0000

> <Gold.Chemscore.Lipo.Weighted>
-11.7604

> <Gold.Chemscore.Internal_Hbond.Weighted>
0.0000

> <Gold.Chemscore.DEClash.Weighted>
0.1239

> <Gold.Chemscore.DEInternal.Weighted>
0.1243

> <Gold.Chemscore.Rot.Weighted>
3.3610

> <Gold.Chemscore.Internal.Correction.Weighted>
   9.000000E+99

> <Gold.Protein.RotatedTorsions>
[ 6907 6896 6895 6894 ] final  -74.54 input  -60.11 | X-H torsion
[ 7974 7965 7964 7962 ] final  109.53 input  175.53 | X-H torsion
[ 8008 7997 7996 7995 ] final -125.54 input   59.86 | X-H torsion
[ 10167 10162 10161 10158 ] final   23.97 input  -65.29 | X-H torsion
[ 10718 10713 10712 10709 ] final  -23.44 input   66.30 | X-H torsion
[ 10763 10752 10751 10750 ] final  -40.00 input  -60.55 | X-H torsion
[ 11005 11000 10999 10996 ] final   31.15 input  -57.11 | X-H torsion

> <Gold.Protein.ActiveResidues>
 VAL166  LYS551  ARG553  GLY616  TRP617  ASP618  TYR619  PRO620  LYS621  CYS622 
 ASP623  PHE694  ASN695  SER759  ASP760  ASP761  ALA762  ILE779  LEU786  VAL792 
 PHE793  MET794  SER795  GLU796  ALA797  LYS798  CYS799  TRP800  GLU811  SER814 

> <Gold.Protein.RotatedAtoms>
  150.7089  134.4853  159.5489 H   0  0  0  0  0  0  0  0  0  0  0  0  # atno 6907 bound_to 6896
  152.2482  134.8157  160.0459 H   0  0  0  0  0  0  0  0  0  0  0  0  # atno 6908 bound_to 6896
  151.8914  133.3482  159.3836 H   0  0  0  0  0  0  0  0  0  0  0  0  # atno 6909 bound_to 6896
  145.2666  139.2682  143.3988 H   0  0  0  0  0  0  0  0  0  0  0  0  # atno 7974 bound_to 7965
  155.2149  140.0420  157.2939 H   0  0  0  0  0  0  0  0  0  0  0  0  # atno 8008 bound_to 7997
  154.5987  140.2446  155.7793 H   0  0  0  0  0  0  0  0  0  0  0  0  # atno 8009 bound_to 7997
  156.2307  140.2939  156.0190 H   0  0  0  0  0  0  0  0  0  0  0  0  # atno 8010 bound_to 7997
  140.5226  143.9977  150.6424 H   0  0  0  0  0  0  0  0  0  0  0  0  # atno 10167 bound_to 10162
  156.4910  130.4566  149.6755 H   0  0  0  0  0  0  0  0  0  0  0  0  # atno 10718 bound_to 10713
  153.9388  135.6763  153.4744 H   0  0  0  0  0  0  0  0  0  0  0  0  # atno 10763 bound_to 10752
  153.0942  135.4859  154.8744 H   0  0  0  0  0  0  0  0  0  0  0  0  # atno 10764 bound_to 10752
  154.7388  135.3156  154.8722 H   0  0  0  0  0  0  0  0  0  0  0  0  # atno 10765 bound_to 10752
  140.2869  134.2909  155.7786 H   0  0  0  0  0  0  0  0  0  0  0  0  # atno 11005 bound_to 11000
  146.3259  140.3098  142.8626 LP  0  0  0  0  0  0  0  0  0  0  0  0  # atno 17320 bound_to 7965
  144.9371  140.8038  143.5653 LP  0  0  0  0  0  0  0  0  0  0  0  0  # atno 17321 bound_to 7965
  140.3330  143.3066  152.0668 LP  0  0  0  0  0  0  0  0  0  0  0  0  # atno 17342 bound_to 10162
  139.4928  144.6496  151.6704 LP  0  0  0  0  0  0  0  0  0  0  0  0  # atno 17343 bound_to 10162
  156.3426  130.7390  151.2337 LP  0  0  0  0  0  0  0  0  0  0  0  0  # atno 17370 bound_to 10713
  157.7473  131.0399  150.4574 LP  0  0  0  0  0  0  0  0  0  0  0  0  # atno 17371 bound_to 10713
  141.2153  133.7560  156.9566 LP  0  0  0  0  0  0  0  0  0  0  0  0  # atno 17394 bound_to 11000
  140.1231  134.9404  157.2232 LP  0  0  0  0  0  0  0  0  0  0  0  0  # atno 17395 bound_to 11000

$$$$
