#       Name:                AV-unprocessed.smi:2624
#       Creating user name   scv26
#       Creation time:       Fri Mar 27 14:24:17 2020


#       File generated by GOLD software.
#

@<TRIPOS>MOLECULE
AV-unprocessed.smi:2624
    48    49     1
SMALL
NO_CHARGES


@<TRIPOS>ATOM
      1 ****        -5.9814   2.5167  -1.9234 C.3            1 S1                 0.0000
      2 ****        -5.4741   1.3161  -1.3677 O.3            1 S1                 0.0000
      3 ****        -4.0694   1.2005  -1.5158 C.3            1 S1                 0.0000
      4 ****        -3.6133  -0.1284  -0.8955 C.3            1 S1                 0.0000
      5 ****        -2.1583  -0.3004  -1.0015 N.am           1 S1                 0.0000
      6 ****        -1.3868   0.1073   0.1039 C.2            1 S1                 0.0000
      7 ****        -0.0458  -0.0081   0.1239 C.2            1 S1                 0.0000
      8 ****         0.7302   0.4305   1.3086 C.2            1 S1                 0.0000
      9 ****         0.3262   1.3428   2.0309 O.2            1 S1                 0.0000
     10 ****         2.0289  -0.2447   1.5989 C.ar           1 S1                 0.0000
     11 ****         3.1470   0.5704   1.8870 C.ar           1 S1                 0.0000
     12 ****         4.4068  -0.0010   2.1560 C.ar           1 S1                 0.0000
     13 ****         5.5951   0.8914   2.4489 C.3            1 S1                 0.0000
     14 ****         4.5557  -1.4012   2.1437 C.ar           1 S1                 0.0000
     15 ****         3.4467  -2.2239   1.8745 C.ar           1 S1                 0.0000
     16 ****         2.1841  -1.6574   1.6076 C.ar           1 S1                 0.0000
     17 ****         1.1318  -2.5036   1.3910 O.3            1 S1                 0.0000
     18 ****         0.6009  -0.5574  -1.0517 C.2            1 S1                 0.0000
     19 ****        -0.1312  -0.9410  -2.1162 C.2            1 S1                 0.0000
     20 ****         0.4847  -1.4808  -3.2829 C.1            1 S1                 0.0000
     21 ****         1.0075  -1.9174  -4.2187 N.1            1 S1                 0.0000
     22 ****        -1.5958  -0.8199  -2.1348 C.2            1 S1                 0.0000
     23 ****        -2.2784  -1.1576  -3.1035 O.2            1 S1                 0.0000
     24 ****        -7.0610   2.5593  -1.7804 H              1 S1                 0.0000
     25 ****        -5.7818   2.5706  -2.9944 H              1 S1                 0.0000
     26 ****        -5.5434   3.3911  -1.4407 H              1 S1                 0.0000
     27 ****        -3.8037   1.2376  -2.5736 H              1 S1                 0.0000
     28 ****        -3.5726   2.0365  -1.0204 H              1 S1                 0.0000
     29 ****        -3.9218  -0.1659   0.1503 H              1 S1                 0.0000
     30 ****        -4.1349  -0.9601  -1.3725 H              1 S1                 0.0000
     31 ****        -1.9587   0.5125   0.9273 H              1 S1                 0.0000
     32 ****         3.0450   1.6467   1.8918 H              1 S1                 0.0000
     33 ****         6.3909   0.3376   2.9480 H              1 S1                 0.0000
     34 ****         5.3029   1.7192   3.0958 H              1 S1                 0.0000
     35 ****         5.9933   1.3033   1.5214 H              1 S1                 0.0000
     36 ****         5.5175  -1.8493   2.3466 H              1 S1                 0.0000
     37 ****         3.5678  -3.2976   1.8812 H              1 S1                 0.0000
     38 ****         1.3722  -3.4158   1.4469 H              1 S1                 0.0000
     39 ****         1.6761  -0.6580  -1.0886 H              1 S1                 0.0000
     40 ****        -5.9097   0.5414  -1.8261 LP             1 S1                 0.0000
     41 ****        -5.6966   1.2947  -0.3931 LP             1 S1                 0.0000
     42 ****        -0.5381   1.8004   1.8221 LP             1 S1                 0.0000
     43 ****         0.8625   1.6258   2.8260 LP             1 S1                 0.0000
     44 ****         0.7639  -2.3268   0.4781 LP             1 S1                 0.0000
     45 ****         0.4275  -2.3175   2.0760 LP             1 S1                 0.0000
     46 ****         1.4592  -2.2946  -5.0273 LP             1 S1                 0.0000
     47 ****        -3.2727  -1.0548  -3.0748 LP             1 S1                 0.0000
     48 ****        -1.8380  -1.5345  -3.9185 LP             1 S1                 0.0000
@<TRIPOS>BOND
    1    1    2 1     
    2    1   24 1     
    3    1   25 1     
    4    1   26 1     
    5    2    3 1     
    6    3    4 1     
    7    3   27 1     
    8    3   28 1     
    9    4    5 1     
   10    4   29 1     
   11    4   30 1     
   12    5   22 am    
   13    5    6 1     
   14    6    7 2     
   15    6   31 1     
   16    7    8 1     
   17    7   18 1     
   18    8    9 2     
   19    8   10 1     
   20   10   16 ar    
   21   10   11 ar    
   22   11   12 ar    
   23   11   32 1     
   24   12   13 1     
   25   12   14 ar    
   26   13   33 1     
   27   13   34 1     
   28   13   35 1     
   29   14   15 ar    
   30   14   36 1     
   31   15   16 ar    
   32   15   37 1     
   33   16   17 1     
   34   17   38 1     
   35   18   19 2     
   36   18   39 1     
   37   19   20 1     
   38   19   22 1     
   39   20   21 3     
   40   22   23 2     
   41    2   40 1     
   42    2   41 1     
   43    9   42 1     
   44    9   43 1     
   45   17   44 1     
   46   17   45 1     
   47   21   46 1     
   48   23   47 1     
   49   23   48 1     
@<TRIPOS>SUBSTRUCTURE
      1 S1             1
@<TRIPOS>SET
LONE_PAIRS      STATIC     ATOMS    <user>   **** ""
9 40 41 42 43 44 45 46 47 48
DONOR_HYDROGENS      STATIC     ATOMS    <user>   **** ""
1 38
ATOM$BLUE        STATIC     ATOMS    COLORGROUP SYSTEM
9 40 41 42 43 44 45 46 47 48
ATOM$RED        STATIC     ATOMS    COLORGROUP SYSTEM
1 38
