AV-unprocessed.smi:311|AV-procd|sdf|2301|dock5
  -GOLD-   2262022203D 1   1.00000     0.00000
 Structure written by MMmdl.
 44 46  0  0  0  0  0  0  0  0  2 V2000
  149.7308  133.3838  154.5708 C   0  0  0  0  0  0  0  0  0  0  0  0
  150.4701  132.7599  155.7197 C   0  0  0  0  0  0  0  0  0  0  0  0
  150.6697  133.4591  156.8241 N   0  0  0  0  0  0  0  0  0  0  0  0
  151.3834  132.6199  157.6852 O   0  0  0  0  0  0  0  0  0  0  0  0
  151.5898  131.4347  157.0563 C   0  0  0  0  0  0  0  0  0  0  0  0
  152.3479  130.3962  157.8117 C   0  0  0  0  0  0  0  0  0  0  0  0
  151.0346  131.4547  155.8064 C   0  0  0  0  0  0  0  0  0  0  0  0
  151.0252  130.3649  154.7654 C   0  0  0  0  0  0  0  0  0  0  0  0
  149.6000  129.8440  154.5737 C   0  0  0  0  0  0  0  0  0  0  0  0
  149.2724  128.7539  155.0425 O   0  0  0  0  0  0  0  0  0  0  0  0
  148.7613  130.6300  153.8802 N   0  0  0  0  0  0  0  0  0  0  0  0
  147.3819  130.2916  153.5346 C   0  0  2  0  0  0  0  0  0  0  0  0
  147.2734  129.0418  152.6412 C   0  0  0  0  0  0  0  0  0  0  0  0
  146.1497  129.3720  151.6532 C   0  0  0  0  0  0  0  0  0  0  0  0
  146.3040  130.8178  151.4557 N   0  3  1  0  0  0  0  0  0  0  0  0
  145.2402  131.5542  150.7436 C   0  0  0  0  0  0  0  0  0  0  0  0
  145.7310  132.9971  150.4967 C   0  0  0  0  0  0  0  0  0  0  0  0
  146.2257  133.6783  151.7932 C   0  0  0  0  0  0  0  0  0  0  0  0
  147.2365  132.7962  152.5585 C   0  0  0  0  0  0  0  0  0  0  0  0
  146.6197  131.4019  152.7709 C   0  0  2  0  0  0  0  0  0  0  0  0
  149.0581  132.6661  154.1015 H   0  0  0  0  0  0  0  0  0  0  0  0
  150.4254  133.7359  153.8080 H   0  0  0  0  0  0  0  0  0  0  0  0
  149.1306  134.2354  154.8925 H   0  0  0  0  0  0  0  0  0  0  0  0
  153.1634  129.9995  157.2069 H   0  0  0  0  0  0  0  0  0  0  0  0
  151.6959  129.5671  158.0860 H   0  0  0  0  0  0  0  0  0  0  0  0
  152.7761  130.8073  158.7262 H   0  0  0  0  0  0  0  0  0  0  0  0
  151.3887  130.7294  153.8042 H   0  0  0  0  0  0  0  0  0  0  0  0
  151.6885  129.5462  155.0477 H   0  0  0  0  0  0  0  0  0  0  0  0
  149.1163  131.5114  153.5380 H   0  0  0  0  0  0  0  0  0  0  0  0
  146.8376  130.0818  154.4579 H   0  0  0  0  0  0  0  0  0  0  0  0
  148.2027  128.8887  152.0897 H   0  0  0  0  0  0  0  0  0  0  0  0
  147.0749  128.1332  153.2106 H   0  0  0  0  0  0  0  0  0  0  0  0
  146.2347  128.8195  150.7168 H   0  0  0  0  0  0  0  0  0  0  0  0
  145.1743  129.1614  152.0947 H   0  0  0  0  0  0  0  0  0  0  0  0
  145.0222  131.0634  149.7944 H   0  0  0  0  0  0  0  0  0  0  0  0
  144.3205  131.5498  151.3306 H   0  0  0  0  0  0  0  0  0  0  0  0
  146.5478  132.9758  149.7740 H   0  0  0  0  0  0  0  0  0  0  0  0
  144.9369  133.5901  150.0419 H   0  0  0  0  0  0  0  0  0  0  0  0
  146.6725  134.6455  151.5612 H   0  0  0  0  0  0  0  0  0  0  0  0
  145.3696  133.8830  152.4374 H   0  0  0  0  0  0  0  0  0  0  0  0
  148.1687  132.7193  151.9970 H   0  0  0  0  0  0  0  0  0  0  0  0
  147.4765  133.2617  153.5145 H   0  0  0  0  0  0  0  0  0  0  0  0
  145.6753  131.5372  153.3028 H   0  0  0  0  0  0  0  0  0  0  0  0
  147.1409  130.9212  150.8997 H   0  0  0  0  0  0  0  0  0  0  0  0
  1  2  1  0  0  0  0
  1 21  1  0  0  0  0
  1 22  1  0  0  0  0
  1 23  1  0  0  0  0
  2  7  1  0  0  0  0
  2  3  2  0  0  0  0
  3  4  1  0  0  0  0
  4  5  1  0  0  0  0
  5  6  1  0  0  0  0
  5  7  2  0  0  0  0
  6 24  1  0  0  0  0
  6 25  1  0  0  0  0
  6 26  1  0  0  0  0
  7  8  1  0  0  0  0
  8  9  1  0  0  0  0
  8 27  1  0  0  0  0
  8 28  1  0  0  0  0
  9 10  2  0  0  0  0
  9 11  1  0  0  0  0
 11 12  1  0  0  0  0
 11 29  1  0  0  0  0
 12 20  1  0  0  0  0
 12 13  1  0  0  0  0
 12 30  1  0  0  0  0
 13 14  1  0  0  0  0
 13 31  1  0  0  0  0
 13 32  1  0  0  0  0
 14 15  1  0  0  0  0
 14 33  1  0  0  0  0
 14 34  1  0  0  0  0
 15 20  1  0  0  0  0
 15 16  1  0  0  0  0
 15 44  1  0  0  0  0
 16 17  1  0  0  0  0
 16 35  1  0  0  0  0
 16 36  1  0  0  0  0
 17 18  1  0  0  0  0
 17 37  1  0  0  0  0
 17 38  1  0  0  0  0
 18 19  1  0  0  0  0
 18 39  1  0  0  0  0
 18 40  1  0  0  0  0
 19 20  1  0  0  0  0
 19 41  1  0  0  0  0
 19 42  1  0  0  0  0
 20 43  1  0  0  0  0
M  CHG  1  15   1
M  END
> <s_m_source_file>
AV-unprocessed.smi

> <i_m_source_file_index>
311

> <i_lp_mmshare_version>
43012

> <i_f3d_flags>
0

> <s_epik_input>
W0NIM11jMW5vYyhbQ0gzXSljMVtDSDJdQyg9TylbTkhdW0NASF0oW0NIMl1bQ0gyXTIpW0NAQEhdKE4yMylbQ0gyXVtDSDJdW0NIMl1bQ0gyXTM=

> <s_epik_cmdline>
J2VwaWtfcHl0aG9uJywgJy1waCcsICc3LjAnLCAnLXRuJywgJzgnLCAnLW1hJywgJzIwMCcsICctbWV0YWxfYmluZGluZycsICctaW1hZScsICc8aW5maWxlLm1hZT4nLCAnLW9tYWUnLCAnPG91dGZpbGUubWFlPic=

> <r_epik_Ionization_Penalty>
0.00173669

> <r_epik_Ionization_Penalty_Charging>
0.0017366

> <r_epik_Ionization_Penalty_Neutral>
9.2145e-08

> <r_epik_State_Penalty>
0.00117499

> <r_epik_Charging_Adjusted_Penalty>
0.00291159

> <i_epik_Tot_Q>
1

> <i_epik_Tot_abs_Q>
1

> <r_epik_Metal_State_Penalty>
-0

> <b_epik_Metal_Only>
0

> <s_lp_Force_Field>
OPLS_2005

> <r_lp_Energy>
35.7975

> <b_lp_Chiralities_Consistent>
1

> <s_lp_Variant>
AV-unprocessed.smi:311-5

> <Gold.Version>
5.8.1

> <Gold.Id.Protein>
6NUR|6NUR_protein|mol2

> <Gold.PLP.Fitness>
39.5329

> <Gold.PLP.PLP>
-34.0447

> <Gold.PLP.part.hbond>
-2.0000

> <Gold.PLP.part.metal>
0.0000

> <Gold.PLP.part.buried>
-5.9263

> <Gold.PLP.part.nonpolar>
-26.5325

> <Gold.PLP.part.repulsive>
0.0559

> <Gold.PLP.ligand.clash>
0.0000

> <Gold.PLP.ligand.torsion>
0.2572

> <Gold.PLP.Chemscore.Hbond>
2.0000

> <Gold.PLP.Chemscore.CHOScore>
0.0000

> <Gold.PLP.Chemscore.Metal>
0.0000

> <Gold.Chemscore.Hbonds>
donor molecule, donor type, donor heavy atom, donor atom, acceptor molecule, acceptor atom, score
      L1  H    15    44       P1 10747  1.00
      P1  H  6896  6908       L1     4  1.00

> <Gold.PLP.Chemscore.Internal.Correction>
0.0027

> <Gold.Rescore>
     Score         DG    S(hbond)    S(metal)    S(lipo)     H(rot)  DE(clash)    DE(int)     intcor
     18.76     -19.13       1.91        0.00      91.77       1.36       0.03       0.35       ----

> <Gold.Chemscore.Fitness>
18.7607

> <Gold.Chemscore.DG>
-19.1340

> <Gold.Chemscore.ZeroCoef>
-5.4800

> <Gold.Chemscore.Hbond>
1.9130

> <Gold.Chemscore.Metal>
0.0000

> <Gold.Chemscore.Lipo>
91.7743

> <Gold.Chemscore.Internal_Hbond>
0.0000

> <Gold.Chemscore.DEClash>
0.0270

> <Gold.Chemscore.DEInternal>
0.3463

> <Gold.Chemscore.Rot>
1.3567

> <Gold.Chemscore.Internal.Correction>
   9.000000E+99

> <Gold.Chemscore.Hbonds>
donor molecule, donor type, donor heavy atom, donor atom, acceptor molecule, acceptor atom, score
      L1  H    15    44       P1 10747  0.99
      P1  H  6896  6908       L1     4  0.82

> <Gold.Chemscore.Hbond.Weighted>
-6.3895

> <Gold.Chemscore.Metal.Weighted>
-0.0000

> <Gold.Chemscore.Lipo.Weighted>
-10.7376

> <Gold.Chemscore.Internal_Hbond.Weighted>
0.0000

> <Gold.Chemscore.DEClash.Weighted>
0.0270

> <Gold.Chemscore.DEInternal.Weighted>
0.3463

> <Gold.Chemscore.Rot.Weighted>
3.4731

> <Gold.Chemscore.Internal.Correction.Weighted>
   9.000000E+99

> <Gold.Protein.RotatedTorsions>
[ 6907 6896 6895 6894 ] final   62.85 input  -60.11 | X-H torsion
[ 7974 7965 7964 7962 ] final -148.54 input  175.53 | X-H torsion
[ 8008 7997 7996 7995 ] final  -91.85 input   59.86 | X-H torsion
[ 10167 10162 10161 10158 ] final -161.06 input  -65.29 | X-H torsion
[ 10718 10713 10712 10709 ] final -160.85 input   66.30 | X-H torsion
[ 10763 10752 10751 10750 ] final  106.63 input  -60.55 | X-H torsion
[ 11005 11000 10999 10996 ] final    0.50 input  -57.11 | X-H torsion

> <Gold.Protein.ActiveResidues>
 VAL166  LYS551  ARG553  GLY616  TRP617  ASP618  TYR619  PRO620  LYS621  CYS622 
 ASP623  PHE694  ASN695  SER759  ASP760  ASP761  ALA762  ILE779  LEU786  VAL792 
 PHE793  MET794  SER795  GLU796  ALA797  LYS798  CYS799  TRP800  GLU811  SER814 

> <Gold.Protein.RotatedAtoms>
  152.4206  134.5962  159.9987 H   0  0  0  0  0  0  0  0  0  0  0  0  # atno 6907 bound_to 6896
  151.6113  133.3341  159.3076 H   0  0  0  0  0  0  0  0  0  0  0  0  # atno 6908 bound_to 6896
  150.8094  134.7277  159.6740 H   0  0  0  0  0  0  0  0  0  0  0  0  # atno 6909 bound_to 6896
  144.8023  140.5182  143.5699 H   0  0  0  0  0  0  0  0  0  0  0  0  # atno 7974 bound_to 7965
  154.7158  140.0515  157.0593 H   0  0  0  0  0  0  0  0  0  0  0  0  # atno 8008 bound_to 7997
  155.0493  140.3177  155.4678 H   0  0  0  0  0  0  0  0  0  0  0  0  # atno 8009 bound_to 7997
  156.2802  140.2118  156.5618 H   0  0  0  0  0  0  0  0  0  0  0  0  # atno 8010 bound_to 7997
  139.6493  144.0113  152.2150 H   0  0  0  0  0  0  0  0  0  0  0  0  # atno 10167 bound_to 10162
  156.5879  130.8758  151.2882 H   0  0  0  0  0  0  0  0  0  0  0  0  # atno 10718 bound_to 10713
  153.3956  135.3870  155.1953 H   0  0  0  0  0  0  0  0  0  0  0  0  # atno 10763 bound_to 10752
  154.8724  135.3759  154.4682 H   0  0  0  0  0  0  0  0  0  0  0  0  # atno 10764 bound_to 10752
  153.5174  135.7087  153.5811 H   0  0  0  0  0  0  0  0  0  0  0  0  # atno 10765 bound_to 10752
  140.6259  133.9619  155.8249 H   0  0  0  0  0  0  0  0  0  0  0  0  # atno 11005 bound_to 11000
  145.5524  139.1477  143.3387 LP  0  0  0  0  0  0  0  0  0  0  0  0  # atno 17320 bound_to 7965
  146.2307  140.5661  142.8977 LP  0  0  0  0  0  0  0  0  0  0  0  0  # atno 17321 bound_to 7965
  139.9823  144.6419  150.7889 LP  0  0  0  0  0  0  0  0  0  0  0  0  # atno 17342 bound_to 10162
  140.7530  143.3000  151.3104 LP  0  0  0  0  0  0  0  0  0  0  0  0  # atno 17343 bound_to 10162
  157.7311  130.9695  150.1862 LP  0  0  0  0  0  0  0  0  0  0  0  0  # atno 17370 bound_to 10713
  156.2575  130.3707  149.8166 LP  0  0  0  0  0  0  0  0  0  0  0  0  # atno 17371 bound_to 10713
  141.0709  134.0206  157.3527 LP  0  0  0  0  0  0  0  0  0  0  0  0  # atno 17394 bound_to 11000
  139.9135  135.0193  156.7787 LP  0  0  0  0  0  0  0  0  0  0  0  0  # atno 17395 bound_to 11000

$$$$
