AV-unprocessed.smi:2216|AV-procd|sdf|8967|dock8
  -GOLD-   2272012183D 1   1.00000     0.00000
 Structure written by MMmdl.
 40 41  0  0  0  0  0  0  0  0  2 V2000
  148.3803  136.2320  157.3959 C   0  0  0  0  0  0  0  0  0  0  0  0
  149.8855  136.4320  157.4460 C   0  0  0  0  0  0  0  0  0  0  0  0
  150.4700  137.2067  158.3939 C   0  0  0  0  0  0  0  0  0  0  0  0
  151.9191  137.3978  158.4535 C   0  0  0  0  0  0  0  0  0  0  0  0
  152.6332  138.1625  159.3851 N   0  0  0  0  0  0  0  0  0  0  0  0
  153.1384  139.4005  159.2438 C   0  0  0  0  0  0  0  0  0  0  0  0
  153.0901  140.0883  158.2243 O   0  0  0  0  0  0  0  0  0  0  0  0
  153.7297  139.8064  160.3765 N   0  0  0  0  0  0  0  0  0  0  0  0
  154.4018  141.0875  160.5602 C   0  0  0  0  0  0  0  0  0  0  0  0
  153.4886  142.1023  161.2686 C   0  0  0  0  0  0  0  0  0  0  0  0
  152.5950  142.8853  160.2941 C   0  0  1  0  0  0  0  0  0  0  0  0
  151.9377  144.1052  160.9686 C   0  0  0  0  0  0  0  0  0  0  0  0
  151.1174  144.9074  159.9521 C   0  0  0  0  0  0  0  0  0  0  0  0
  151.9907  145.2543  158.7419 C   0  0  0  0  0  0  0  0  0  0  0  0
  152.6530  143.9862  158.1803 C   0  0  0  0  0  0  0  0  0  0  0  0
  153.3981  143.3330  159.2034 O   0  0  0  0  0  0  0  0  0  0  0  0
  152.5859  136.7057  157.4629 C   0  0  0  0  0  0  0  0  0  0  0  0
  152.0776  135.9216  156.4878 N   0  5  0  0  0  0  0  0  0  0  0  0
  150.7247  135.7561  156.4360 C   0  0  0  0  0  0  0  0  0  0  0  0
  150.1900  135.0606  155.5732 O   0  0  0  0  0  0  0  0  0  0  0  0
  147.8785  136.7838  158.1913 H   0  0  0  0  0  0  0  0  0  0  0  0
  148.1326  135.1763  157.5105 H   0  0  0  0  0  0  0  0  0  0  0  0
  147.9812  136.5786  156.4423 H   0  0  0  0  0  0  0  0  0  0  0  0
  149.8267  137.6753  159.1207 H   0  0  0  0  0  0  0  0  0  0  0  0
  152.7828  137.7128  160.2764 H   0  0  0  0  0  0  0  0  0  0  0  0
  153.7215  139.1782  161.1664 H   0  0  0  0  0  0  0  0  0  0  0  0
  155.3306  140.9490  161.1161 H   0  0  0  0  0  0  0  0  0  0  0  0
  154.6840  141.4642  159.5769 H   0  0  0  0  0  0  0  0  0  0  0  0
  152.8594  141.5701  161.9830 H   0  0  0  0  0  0  0  0  0  0  0  0
  154.0903  142.8014  161.8511 H   0  0  0  0  0  0  0  0  0  0  0  0
  151.8165  142.2190  159.9177 H   0  0  0  0  0  0  0  0  0  0  0  0
  151.2981  143.7844  161.7913 H   0  0  0  0  0  0  0  0  0  0  0  0
  152.7070  144.7454  161.4025 H   0  0  0  0  0  0  0  0  0  0  0  0
  150.2572  144.3202  159.6285 H   0  0  0  0  0  0  0  0  0  0  0  0
  150.7242  145.8151  160.4110 H   0  0  0  0  0  0  0  0  0  0  0  0
  151.3928  145.7424  157.9718 H   0  0  0  0  0  0  0  0  0  0  0  0
  152.7619  145.9665  159.0381 H   0  0  0  0  0  0  0  0  0  0  0  0
  151.9057  143.3055  157.7697 H   0  0  0  0  0  0  0  0  0  0  0  0
  153.3283  144.2460  157.3650 H   0  0  0  0  0  0  0  0  0  0  0  0
  153.6932  136.7993  157.4492 H   0  0  0  0  0  0  0  0  0  0  0  0
  1  2  1  0  0  0  0
  1 21  1  0  0  0  0
  1 22  1  0  0  0  0
  1 23  1  0  0  0  0
  2 19  1  0  0  0  0
  2  3  2  0  0  0  0
  3  4  1  0  0  0  0
  3 24  1  0  0  0  0
  4  5  1  0  0  0  0
  4 17  2  0  0  0  0
  5  6  1  0  0  0  0
  5 25  1  0  0  0  0
  6  7  2  0  0  0  0
  6  8  1  0  0  0  0
  8  9  1  0  0  0  0
  8 26  1  0  0  0  0
  9 10  1  0  0  0  0
  9 27  1  0  0  0  0
  9 28  1  0  0  0  0
 10 11  1  0  0  0  0
 10 29  1  0  0  0  0
 10 30  1  0  0  0  0
 11 16  1  0  0  0  0
 11 12  1  0  0  0  0
 11 31  1  0  0  0  0
 12 13  1  0  0  0  0
 12 32  1  0  0  0  0
 12 33  1  0  0  0  0
 13 14  1  0  0  0  0
 13 34  1  0  0  0  0
 13 35  1  0  0  0  0
 14 15  1  0  0  0  0
 14 36  1  0  0  0  0
 14 37  1  0  0  0  0
 15 16  1  0  0  0  0
 15 38  1  0  0  0  0
 15 39  1  0  0  0  0
 17 18  1  0  0  0  0
 17 40  1  0  0  0  0
 18 19  1  0  0  0  0
 19 20  2  0  0  0  0
M  CHG  1  18  -1
M  END
> <s_m_source_file>
AV-unprocessed.smi

> <i_m_source_file_index>
2216

> <i_lp_mmshare_version>
43012

> <i_f3d_flags>
0

> <s_epik_input>
Tz1jMVtuSF1bY0hdYyhbY0hdYzFbQ0gzXSlbTkhdQyg9TylbTkhdW0NIMl1bQ0gyXVtDQEBIXTJbQ0gyXVtDSDJdW0NIMl1bQ0gyXU8y

> <s_epik_cmdline>
J2VwaWtfcHl0aG9uJywgJy1waCcsICc3LjAnLCAnLXRuJywgJzgnLCAnLW1hJywgJzIwMCcsICctbWV0YWxfYmluZGluZycsICctaW1hZScsICc8aW5maWxlLm1hZT4nLCAnLW9tYWUnLCAnPG91dGZpbGUubWFlPic=

> <r_lp_tautomer_probability>
1

> <r_epik_Ionization_Penalty>
7.55627

> <r_epik_Ionization_Penalty_Charging>
1.50531

> <r_epik_Ionization_Penalty_Neutral>
6.05097

> <r_epik_State_Penalty>
6.05091

> <r_epik_Charging_Adjusted_Penalty>
7.55622

> <i_epik_Tot_Q>
-1

> <i_epik_Tot_abs_Q>
1

> <r_epik_Metal_State_Penalty>
2.00009

> <b_epik_Metal_Only>
1

> <s_lp_Force_Field>
OPLS_2005

> <r_lp_Energy>
20.9745

> <b_lp_Chiralities_Consistent>
1

> <s_lp_Variant>
AV-unprocessed.smi:2216-4

> <Gold.Version>
5.8.1

> <Gold.Id.Protein>
6NUR|6NUR_protein|mol2

> <Gold.PLP.Fitness>
45.2791

> <Gold.PLP.PLP>
-38.5553

> <Gold.PLP.part.hbond>
-2.0000

> <Gold.PLP.part.metal>
0.0000

> <Gold.PLP.part.buried>
-5.9284

> <Gold.PLP.part.nonpolar>
-30.4922

> <Gold.PLP.part.repulsive>
0.2347

> <Gold.PLP.ligand.clash>
0.0000

> <Gold.PLP.ligand.torsion>
1.1284

> <Gold.PLP.Chemscore.Hbond>
2.9920

> <Gold.PLP.Chemscore.CHOScore>
0.0000

> <Gold.PLP.Chemscore.Metal>
0.0000

> <Gold.Chemscore.Hbonds>
donor molecule, donor type, donor heavy atom, donor atom, acceptor molecule, acceptor atom, score
      P1  H  7997  8009       L1     7  1.00
      P1  H 10752 10764       L1    18  2.00

> <Gold.PLP.Chemscore.Internal.Correction>
0.0045

> <Gold.Rescore>
     Score         DG    S(hbond)    S(metal)    S(lipo)     H(rot)  DE(clash)    DE(int)     intcor
     18.83     -19.95       1.92        0.00     101.18       1.47       0.06       1.06       ----

> <Gold.Chemscore.Fitness>
18.8349

> <Gold.Chemscore.DG>
-19.9518

> <Gold.Chemscore.ZeroCoef>
-5.4800

> <Gold.Chemscore.Hbond>
1.9158

> <Gold.Chemscore.Metal>
0.0000

> <Gold.Chemscore.Lipo>
101.1836

> <Gold.Chemscore.Internal_Hbond>
0.0000

> <Gold.Chemscore.DEClash>
0.0580

> <Gold.Chemscore.DEInternal>
1.0589

> <Gold.Chemscore.Rot>
1.4709

> <Gold.Chemscore.Internal.Correction>
   9.000000E+99

> <Gold.Chemscore.Hbonds>
donor molecule, donor type, donor heavy atom, donor atom, acceptor molecule, acceptor atom, score
      P1  H  7997  8009       L1     7  0.94
      P1  H 10752 10764       L1    18  0.94

> <Gold.Chemscore.Hbond.Weighted>
-6.3988

> <Gold.Chemscore.Metal.Weighted>
-0.0000

> <Gold.Chemscore.Lipo.Weighted>
-11.8385

> <Gold.Chemscore.Internal_Hbond.Weighted>
0.0000

> <Gold.Chemscore.DEClash.Weighted>
0.0580

> <Gold.Chemscore.DEInternal.Weighted>
1.0589

> <Gold.Chemscore.Rot.Weighted>
3.7654

> <Gold.Chemscore.Internal.Correction.Weighted>
   9.000000E+99

> <Gold.Protein.RotatedTorsions>
[ 6907 6896 6895 6894 ] final -169.65 input  -60.11 | X-H torsion
[ 7974 7965 7964 7962 ] final  144.94 input  175.53 | X-H torsion
[ 8008 7997 7996 7995 ] final  160.00 input   59.86 | X-H torsion
[ 10167 10162 10161 10158 ] final  166.55 input  -65.29 | X-H torsion
[ 10718 10713 10712 10709 ] final -166.37 input   66.30 | X-H torsion
[ 10763 10752 10751 10750 ] final  -22.89 input  -60.55 | X-H torsion
[ 11005 11000 10999 10996 ] final    7.59 input  -57.11 | X-H torsion

> <Gold.Protein.ActiveResidues>
 VAL166  LYS551  ARG553  GLY616  TRP617  ASP618  TYR619  PRO620  LYS621  CYS622 
 ASP623  PHE694  ASN695  SER759  ASP760  ASP761  ALA762  ILE779  LEU786  VAL792 
 PHE793  MET794  SER795  GLU796  ALA797  LYS798  CYS799  TRP800  GLU811  SER814 

> <Gold.Protein.RotatedAtoms>
  151.4950  133.3516  159.2859 H   0  0  0  0  0  0  0  0  0  0  0  0  # atno 6907 bound_to 6896
  150.8810  134.8203  159.7236 H   0  0  0  0  0  0  0  0  0  0  0  0  # atno 6908 bound_to 6896
  152.4762  134.4847  159.9728 H   0  0  0  0  0  0  0  0  0  0  0  0  # atno 6909 bound_to 6896
  144.8793  139.5723  143.5850 H   0  0  0  0  0  0  0  0  0  0  0  0  # atno 7974 bound_to 7965
  156.2202  140.1816  156.7495 H   0  0  0  0  0  0  0  0  0  0  0  0  # atno 8008 bound_to 7997
  154.5853  140.0659  156.9191 H   0  0  0  0  0  0  0  0  0  0  0  0  # atno 8009 bound_to 7997
  155.2431  140.3323  155.4292 H   0  0  0  0  0  0  0  0  0  0  0  0  # atno 8010 bound_to 7997
  139.4927  144.4016  151.9403 H   0  0  0  0  0  0  0  0  0  0  0  0  # atno 10167 bound_to 10162
  156.6669  130.9068  151.3038 H   0  0  0  0  0  0  0  0  0  0  0  0  # atno 10718 bound_to 10713
  153.6591  135.6977  153.5183 H   0  0  0  0  0  0  0  0  0  0  0  0  # atno 10763 bound_to 10752
  153.2646  135.4234  155.0927 H   0  0  0  0  0  0  0  0  0  0  0  0  # atno 10764 bound_to 10752
  154.8456  135.3563  154.6136 H   0  0  0  0  0  0  0  0  0  0  0  0  # atno 10765 bound_to 10752
  140.5465  134.0324  155.7922 H   0  0  0  0  0  0  0  0  0  0  0  0  # atno 11005 bound_to 11000
  146.2984  139.7349  142.9109 LP  0  0  0  0  0  0  0  0  0  0  0  0  # atno 17320 bound_to 7965
  145.3983  141.0382  143.3085 LP  0  0  0  0  0  0  0  0  0  0  0  0  # atno 17321 bound_to 7965
  140.3455  144.3152  150.5959 LP  0  0  0  0  0  0  0  0  0  0  0  0  # atno 17342 bound_to 10162
  140.5529  143.2203  151.7896 LP  0  0  0  0  0  0  0  0  0  0  0  0  # atno 17343 bound_to 10162
  157.7091  130.9419  150.1027 LP  0  0  0  0  0  0  0  0  0  0  0  0  # atno 17370 bound_to 10713
  156.1968  130.3658  149.8838 LP  0  0  0  0  0  0  0  0  0  0  0  0  # atno 17371 bound_to 10713
  141.1197  133.9482  157.2754 LP  0  0  0  0  0  0  0  0  0  0  0  0  # atno 17394 bound_to 11000
  139.9477  135.0181  156.8901 LP  0  0  0  0  0  0  0  0  0  0  0  0  # atno 17395 bound_to 11000

$$$$
