AV-unprocessed.smi:64|AV-procd|sdf|610|dock8
  -GOLD-   2262016503D 1   1.00000     0.00000
 Structure written by MMmdl.
 31 32  0  0  0  0  0  0  0  0  2 V2000
  147.3418  135.3822  162.8043 C   0  0  0  0  0  0  0  0  0  0  0  0
  147.1593  136.0679  161.4559 C   0  0  0  0  0  0  0  0  0  0  0  0
  147.3562  137.2756  161.3198 O   0  0  0  0  0  0  0  0  0  0  0  0
  146.7732  135.2180  160.4912 O   0  0  0  0  0  0  0  0  0  0  0  0
  147.1507  135.4671  159.1465 C   0  0  0  0  0  0  0  0  0  0  0  0
  148.1048  134.3691  158.6671 C   0  0  0  0  0  0  0  0  0  0  0  0
  149.2651  134.9711  158.1177 O   0  0  0  0  0  0  0  0  0  0  0  0
  149.0857  135.3852  156.8049 C   0  0  0  0  0  0  0  0  0  0  0  0
  150.2961  136.0624  156.3853 N   0  0  0  0  0  0  0  0  0  0  0  0
  151.5639  135.6347  156.5424 C   0  0  0  0  0  0  0  0  0  0  0  0
  152.5043  136.4510  156.0684 N   0  0  0  0  0  0  0  0  0  0  0  0
  151.7479  137.5004  155.5581 C   0  0  0  0  0  0  0  0  0  0  0  0
  152.1385  138.7610  154.8811 C   0  0  0  0  0  0  0  0  0  0  0  0
  153.3313  138.9985  154.6996 O   0  0  0  0  0  0  0  0  0  0  0  0
  151.1027  139.5731  154.5079 N   0  5  0  0  0  0  0  0  0  0  0  0
  149.7767  139.1977  154.7668 C   0  0  0  0  0  0  0  0  0  0  0  0
  148.8626  140.1279  154.3222 N   0  0  0  0  0  0  0  0  0  0  0  0
  149.3600  138.1053  155.3592 N   0  0  0  0  0  0  0  0  0  0  0  0
  150.4079  137.2864  155.7373 C   0  0  0  0  0  0  0  0  0  0  0  0
  147.0937  134.3223  162.7405 H   0  0  0  0  0  0  0  0  0  0  0  0
  146.6941  135.8429  163.5502 H   0  0  0  0  0  0  0  0  0  0  0  0
  148.3750  135.4762  163.1383 H   0  0  0  0  0  0  0  0  0  0  0  0
  146.2725  135.5180  158.5013 H   0  0  0  0  0  0  0  0  0  0  0  0
  147.6519  136.4347  159.0956 H   0  0  0  0  0  0  0  0  0  0  0  0
  148.3910  133.7471  159.5163 H   0  0  0  0  0  0  0  0  0  0  0  0
  147.6133  133.7228  157.9381 H   0  0  0  0  0  0  0  0  0  0  0  0
  148.9125  134.5322  156.1465 H   0  0  0  0  0  0  0  0  0  0  0  0
  148.2484  136.0806  156.7291 H   0  0  0  0  0  0  0  0  0  0  0  0
  151.8044  134.6962  157.0199 H   0  0  0  0  0  0  0  0  0  0  0  0
  149.1207  140.9870  153.8599 H   0  0  0  0  0  0  0  0  0  0  0  0
  147.8654  140.0158  154.4319 H   0  0  0  0  0  0  0  0  0  0  0  0
  1  2  1  0  0  0  0
  1 20  1  0  0  0  0
  1 21  1  0  0  0  0
  1 22  1  0  0  0  0
  2  3  2  0  0  0  0
  2  4  1  0  0  0  0
  4  5  1  0  0  0  0
  5  6  1  0  0  0  0
  5 23  1  0  0  0  0
  5 24  1  0  0  0  0
  6  7  1  0  0  0  0
  6 25  1  0  0  0  0
  6 26  1  0  0  0  0
  7  8  1  0  0  0  0
  8  9  1  0  0  0  0
  8 27  1  0  0  0  0
  8 28  1  0  0  0  0
  9 19  1  0  0  0  0
  9 10  1  0  0  0  0
 10 11  2  0  0  0  0
 10 29  1  0  0  0  0
 11 12  1  0  0  0  0
 12 19  2  0  0  0  0
 12 13  1  0  0  0  0
 13 14  2  0  0  0  0
 13 15  1  0  0  0  0
 15 16  1  0  0  0  0
 16 17  1  0  0  0  0
 16 18  2  0  0  0  0
 17 30  1  0  0  0  0
 17 31  1  0  0  0  0
 18 19  1  0  0  0  0
M  CHG  1  15  -1
M  END
> <s_m_source_file>
AV-unprocessed.smi

> <i_m_source_file_index>
64

> <i_lp_mmshare_version>
43012

> <i_f3d_flags>
0

> <s_epik_input>
W0NIM11DKD1PKU9bQ0gyXVtDSDJdT1tDSDJdbihbY0hdbjEpYyhjMTIpbmMoW05IMl0pW25IXWMyPU8=

> <s_epik_cmdline>
J2VwaWtfcHl0aG9uJywgJy1waCcsICc3LjAnLCAnLXRuJywgJzgnLCAnLW1hJywgJzIwMCcsICctbWV0YWxfYmluZGluZycsICctaW1hZScsICc8aW5maWxlLm1hZT4nLCAnLW9tYWUnLCAnPG91dGZpbGUubWFlPic=

> <r_lp_tautomer_probability>
1

> <r_epik_Ionization_Penalty>
3.5586

> <r_epik_Ionization_Penalty_Charging>
1.23364e-10

> <r_epik_Ionization_Penalty_Neutral>
3.5586

> <r_epik_State_Penalty>
3.54828

> <r_epik_Charging_Adjusted_Penalty>
3.54828

> <i_epik_Tot_Q>
-1

> <i_epik_Tot_abs_Q>
1

> <r_epik_Metal_State_Penalty>
0.517613

> <b_epik_Metal_Only>
1

> <s_epik_Chemistry_Notes>
This compound has an ester and may undergo hydrolysis at high or low pH. This compound contains an acetal/aminal-like group ( X-CH(R)-Y where X, Y are N, S, or O) that may be acid/base labile, releasing an aldehyde.

> <s_lp_Force_Field>
OPLS_2005

> <r_lp_Energy>
20.1337

> <b_lp_Chiralities_Consistent>
1

> <s_lp_Variant>
AV-unprocessed.smi:64-2

> <Gold.Version>
5.8.1

> <Gold.Id.Protein>
6NUR|6NUR_protein|mol2

> <Gold.PLP.Fitness>
41.6344

> <Gold.PLP.PLP>
-26.7645

> <Gold.PLP.part.hbond>
-5.8215

> <Gold.PLP.part.metal>
0.0000

> <Gold.PLP.part.buried>
-5.1497

> <Gold.PLP.part.nonpolar>
-16.7515

> <Gold.PLP.part.repulsive>
0.2967

> <Gold.PLP.ligand.clash>
0.0000

> <Gold.PLP.ligand.torsion>
1.3473

> <Gold.PLP.Chemscore.Hbond>
5.8400

> <Gold.PLP.Chemscore.CHOScore>
0.0000

> <Gold.PLP.Chemscore.Metal>
0.0000

> <Gold.Chemscore.Hbonds>
donor molecule, donor type, donor heavy atom, donor atom, acceptor molecule, acceptor atom, score
      P1  H  6896  6908       L1     7  1.00
      P1  H  6931  6943       L1     3  0.85
      P1  H  6934  6947       L1     3  0.98
      P1  H  7989  7998       L1    15  1.00
      P1  H  7997  8008       L1    14  1.00
      P1  H 10752 10764       L1    11  1.00

> <Gold.PLP.Chemscore.Internal.Correction>
0.0445

> <Gold.Rescore>
     Score         DG    S(hbond)    S(metal)    S(lipo)     H(rot)  DE(clash)    DE(int)     intcor
     13.50     -14.76       5.05        0.00      21.08       3.93       0.01       1.25       ----

> <Gold.Chemscore.Fitness>
13.4981

> <Gold.Chemscore.DG>
-14.7582

> <Gold.Chemscore.ZeroCoef>
-5.4800

> <Gold.Chemscore.Hbond>
5.0550

> <Gold.Chemscore.Metal>
0.0000

> <Gold.Chemscore.Lipo>
21.0790

> <Gold.Chemscore.Internal_Hbond>
0.0000

> <Gold.Chemscore.DEClash>
0.0149

> <Gold.Chemscore.DEInternal>
1.2453

> <Gold.Chemscore.Rot>
3.9343

> <Gold.Chemscore.Internal.Correction>
   9.000000E+99

> <Gold.Chemscore.Hbonds>
donor molecule, donor type, donor heavy atom, donor atom, acceptor molecule, acceptor atom, score
      P1  H  6896  6908       L1     7  0.25
      P1  H  6931  6943       L1     3  0.78
      P1  H  6934  6947       L1     3  0.93
      P1  H  7989  7998       L1    15  0.78
      P1  H  7997  8008       L1    14  0.94
      P1  H 10752 10764       L1    11  0.23

> <Gold.Chemscore.Hbond.Weighted>
-16.8837

> <Gold.Chemscore.Metal.Weighted>
-0.0000

> <Gold.Chemscore.Lipo.Weighted>
-2.4662

> <Gold.Chemscore.Internal_Hbond.Weighted>
0.0000

> <Gold.Chemscore.DEClash.Weighted>
0.0149

> <Gold.Chemscore.DEInternal.Weighted>
1.2453

> <Gold.Chemscore.Rot.Weighted>
10.0717

> <Gold.Chemscore.Internal.Correction.Weighted>
   9.000000E+99

> <Gold.Protein.RotatedTorsions>
[ 6907 6896 6895 6894 ] final  156.92 input  -60.11 | X-H torsion
[ 7974 7965 7964 7962 ] final -115.37 input  175.53 | X-H torsion
[ 8008 7997 7996 7995 ] final   -3.38 input   59.86 | X-H torsion
[ 10167 10162 10161 10158 ] final -124.76 input  -65.29 | X-H torsion
[ 10718 10713 10712 10709 ] final -128.02 input   66.30 | X-H torsion
[ 10763 10752 10751 10750 ] final  -16.88 input  -60.55 | X-H torsion
[ 11005 11000 10999 10996 ] final -165.69 input  -57.11 | X-H torsion

> <Gold.Protein.ActiveResidues>
 VAL166  LYS551  ARG553  GLY616  TRP617  ASP618  TYR619  PRO620  LYS621  CYS622 
 ASP623  PHE694  ASN695  SER759  ASP760  ASP761  ALA762  ILE779  LEU786  VAL792 
 PHE793  MET794  SER795  GLU796  ALA797  LYS798  CYS799  TRP800  GLU811  SER814 

> <Gold.Protein.RotatedAtoms>
  152.0227  133.3905  159.4264 H   0  0  0  0  0  0  0  0  0  0  0  0  # atno 6907 bound_to 6896
  150.6889  134.3608  159.4959 H   0  0  0  0  0  0  0  0  0  0  0  0  # atno 6908 bound_to 6896
  152.1384  134.9081  160.0606 H   0  0  0  0  0  0  0  0  0  0  0  0  # atno 6909 bound_to 6896
  145.1092  140.8600  143.3880 H   0  0  0  0  0  0  0  0  0  0  0  0  # atno 7974 bound_to 7965
  154.6255  140.2510  155.7497 H   0  0  0  0  0  0  0  0  0  0  0  0  # atno 8008 bound_to 7997
  156.2451  140.2918  156.0503 H   0  0  0  0  0  0  0  0  0  0  0  0  # atno 8009 bound_to 7997
  155.1828  140.0389  157.2876 H   0  0  0  0  0  0  0  0  0  0  0  0  # atno 8010 bound_to 7997
  139.9894  143.5657  152.2348 H   0  0  0  0  0  0  0  0  0  0  0  0  # atno 10167 bound_to 10162
  156.1911  130.6796  151.0425 H   0  0  0  0  0  0  0  0  0  0  0  0  # atno 10718 bound_to 10713
  153.5654  135.7009  153.5528 H   0  0  0  0  0  0  0  0  0  0  0  0  # atno 10763 bound_to 10752
  153.3392  135.4026  155.1558 H   0  0  0  0  0  0  0  0  0  0  0  0  # atno 10764 bound_to 10752
  154.8641  135.3738  154.5173 H   0  0  0  0  0  0  0  0  0  0  0  0  # atno 10765 bound_to 10752
  140.5729  134.5220  157.5165 H   0  0  0  0  0  0  0  0  0  0  0  0  # atno 11005 bound_to 11000
  145.0867  139.2920  143.5756 LP  0  0  0  0  0  0  0  0  0  0  0  0  # atno 17320 bound_to 7965
  146.3527  140.0391  142.8644 LP  0  0  0  0  0  0  0  0  0  0  0  0  # atno 17321 bound_to 7965
  139.6351  144.7649  151.2454 LP  0  0  0  0  0  0  0  0  0  0  0  0  # atno 17342 bound_to 10162
  140.7460  143.6412  150.8333 LP  0  0  0  0  0  0  0  0  0  0  0  0  # atno 17343 bound_to 10162
  157.6929  131.0804  150.7053 LP  0  0  0  0  0  0  0  0  0  0  0  0  # atno 17370 bound_to 10713
  156.7110  130.4652  149.5547 LP  0  0  0  0  0  0  0  0  0  0  0  0  # atno 17371 bound_to 10713
  139.9353  134.7886  156.0819 LP  0  0  0  0  0  0  0  0  0  0  0  0  # atno 17394 bound_to 11000
  141.1045  133.6665  156.2831 LP  0  0  0  0  0  0  0  0  0  0  0  0  # atno 17395 bound_to 11000

$$$$
