#       Name:                AV-unprocessed.smi:3193
#       Creating user name   scv26
#       Creation time:       Fri Mar 27 18:04:33 2020


#       File generated by GOLD software.
#

@<TRIPOS>MOLECULE
AV-unprocessed.smi:3193
    41    42     1
SMALL
NO_CHARGES


@<TRIPOS>ATOM
      1 ****        -0.5581   0.3416   1.4918 C.3            1 S1                 0.0000
      2 ****        -1.6260   0.7931   0.4773 C.3            1 S1                 0.0000
      3 ****        -2.3176   2.0724   0.9943 C.3            1 S1                 0.0000
      4 ****        -3.4353   2.5446   0.0550 C.3            1 S1                 0.0000
      5 ****        -2.8984   2.7635  -1.3635 C.3            1 S1                 0.0000
      6 ****        -2.2191   1.4924  -1.8920 C.3            1 S1                 0.0000
      7 ****        -1.0799   1.0099  -0.9665 C.3            1 S1                 0.0000
      8 ****        -0.4226  -0.2487  -1.5765 C.3            1 S1                 0.0000
      9 ****         0.9616  -0.4309  -1.0975 N.4            1 S1                 1.0000
     10 ****         1.5924  -1.6979  -1.5175 C.3            1 S1                 0.0000
     11 ****         2.9599  -1.8943  -0.8427 C.3            1 S1                 0.0000
     12 ****         2.8499  -2.0207   0.6156 N.pl3          1 S1                 0.0000
     13 ****         2.3122  -3.0680   1.3196 C.2            1 S1                 0.0000
     14 ****         2.4259  -2.7467   2.6477 C.2            1 S1                 0.0000
     15 ****         3.0333  -1.5208   2.6992 N.pl3          1 S1                 1.0000
     16 ****         3.2958  -1.0834   1.4633 C.2            1 S1                 0.0000
     17 ****         0.2920   1.0245   1.5066 H              1 S1                 0.0000
     18 ****        -0.1889  -0.6601   1.2739 H              1 S1                 0.0000
     19 ****        -0.9690   0.3058   2.5013 H              1 S1                 0.0000
     20 ****        -2.3831   0.0080   0.4373 H              1 S1                 0.0000
     21 ****        -2.7366   1.8965   1.9857 H              1 S1                 0.0000
     22 ****        -1.5808   2.8687   1.1101 H              1 S1                 0.0000
     23 ****        -4.2365   1.8047   0.0356 H              1 S1                 0.0000
     24 ****        -3.8757   3.4677   0.4333 H              1 S1                 0.0000
     25 ****        -3.7124   3.0554  -2.0277 H              1 S1                 0.0000
     26 ****        -2.1866   3.5899  -1.3645 H              1 S1                 0.0000
     27 ****        -2.9641   0.7031  -2.0028 H              1 S1                 0.0000
     28 ****        -1.8312   1.6890  -2.8923 H              1 S1                 0.0000
     29 ****        -0.3333   1.8056  -0.9394 H              1 S1                 0.0000
     30 ****        -1.0223  -1.1319  -1.3515 H              1 S1                 0.0000
     31 ****        -0.3788  -0.1675  -2.6636 H              1 S1                 0.0000
     32 ****         1.5234   0.3430  -1.4237 H              1 S1                 0.0000
     33 ****         0.9353  -2.5338  -1.2729 H              1 S1                 0.0000
     34 ****         1.7095  -1.6923  -2.6018 H              1 S1                 0.0000
     35 ****         3.4342  -2.8040  -1.2130 H              1 S1                 0.0000
     36 ****         3.6319  -1.0670  -1.0770 H              1 S1                 0.0000
     37 ****         1.8977  -3.9419   0.8373 H              1 S1                 0.0000
     38 ****         2.1308  -3.2856   3.5367 H              1 S1                 0.0000
     39 ****         3.7722  -0.1541   1.2049 H              1 S1                 0.0000
     40 ****         0.9388  -0.4111  -0.0880 H              1 S1                 0.0000
     41 ****         3.2603  -1.0202   3.5498 H              1 S1                 0.0000
@<TRIPOS>BOND
    1    1    2 1     
    2    1   17 1     
    3    1   18 1     
    4    1   19 1     
    5    2    7 1     
    6    2    3 1     
    7    2   20 1     
    8    3    4 1     
    9    3   21 1     
   10    3   22 1     
   11    4    5 1     
   12    4   23 1     
   13    4   24 1     
   14    5    6 1     
   15    5   25 1     
   16    5   26 1     
   17    6    7 1     
   18    6   27 1     
   19    6   28 1     
   20    7    8 1     
   21    7   29 1     
   22    8    9 1     
   23    8   30 1     
   24    8   31 1     
   25    9   10 1     
   26    9   32 1     
   27    9   40 1     
   28   10   11 1     
   29   10   33 1     
   30   10   34 1     
   31   11   12 1     
   32   11   35 1     
   33   11   36 1     
   34   12   16 1     
   35   12   13 1     
   36   13   14 2     
   37   13   37 1     
   38   14   15 1     
   39   14   38 1     
   40   15   16 2     
   41   15   41 1     
   42   16   39 1     
@<TRIPOS>SUBSTRUCTURE
      1 S1             1
@<TRIPOS>SET
DONOR_HYDROGENS      STATIC     ATOMS    <user>   **** ""
3 32 40 41
ATOM$RED        STATIC     ATOMS    COLORGROUP SYSTEM
3 32 40 41
