AV-unprocessed.smi:153|AV-procd|sdf|1261|dock6
  -GOLD-   2262018513D 1   1.00000     0.00000
 Structure written by MMmdl.
 59 62  0  0  0  0  0  0  0  0  1 V2000
  146.5188  134.8814  153.5172 C   0  0  0  0  0  0  0  0  0  0  0  0
  146.0617  134.5589  152.0860 C   0  0  1  0  0  0  0  0  0  0  0  0
  145.6987  133.1803  152.0564 O   0  0  0  0  0  0  0  0  0  0  0  0
  144.6524  132.9980  151.1194 C   0  0  0  0  0  0  0  0  0  0  0  0
  143.7907  134.2301  151.3475 C   0  0  0  0  0  0  0  0  0  0  0  0
  144.8224  135.3349  151.5561 C   0  0  2  0  0  0  0  0  0  0  0  0
  145.1564  135.8606  150.2819 O   0  0  0  0  0  0  0  0  0  0  0  0
  144.3148  136.5084  152.4351 C   0  0  0  0  0  0  0  0  0  0  0  0
  145.3598  137.4556  152.7945 N   0  0  0  0  0  0  0  0  0  0  0  0
  146.1677  138.1556  151.9297 C   0  0  0  0  0  0  0  0  0  0  0  0
  147.0275  138.9533  152.4995 N   0  0  0  0  0  0  0  0  0  0  0  0
  146.8076  138.7924  153.8646 C   0  0  0  0  0  0  0  0  0  0  0  0
  147.3804  139.3522  155.0500 C   0  0  0  0  0  0  0  0  0  0  0  0
  148.3720  140.2930  155.0703 N   0  0  0  0  0  0  0  0  0  0  0  0
  148.3103  141.4072  154.1319 C   0  0  0  0  0  0  0  0  0  0  0  0
  149.1797  140.4791  156.2784 C   0  0  0  0  0  0  0  0  0  0  0  0
  150.5902  141.0311  155.9707 C   0  0  2  0  0  0  0  0  0  0  0  0
  151.1845  140.2079  154.9874 O   0  0  0  0  0  0  0  0  0  0  0  0
  151.4972  140.9993  157.2195 C   0  0  0  0  0  0  0  0  0  0  0  0
  151.3786  142.1513  158.1151 N   0  0  0  0  0  0  0  0  0  0  0  0
  151.5080  143.4007  157.3719 C   0  0  0  0  0  0  0  0  0  0  0  0
  151.3980  144.6324  158.2873 C   0  0  0  0  0  0  0  0  0  0  0  0
  152.3861  144.5548  159.3090 O   0  0  0  0  0  0  0  0  0  0  0  0
  152.2703  143.3721  160.0926 C   0  0  0  0  0  0  0  0  0  0  0  0
  152.3789  142.1357  159.1832 C   0  0  0  0  0  0  0  0  0  0  0  0
  146.8859  138.8996  156.2354 N   0  0  0  0  0  0  0  0  0  0  0  0
  145.9070  137.9932  156.2745 C   0  0  0  0  0  0  0  0  0  0  0  0
  145.2798  137.4037  155.2583 N   0  0  0  0  0  0  0  0  0  0  0  0
  145.7664  137.8371  154.0614 C   0  0  0  0  0  0  0  0  0  0  0  0
  146.8223  135.9238  153.6144 H   0  0  0  0  0  0  0  0  0  0  0  0
  147.3757  134.2666  153.7932 H   0  0  0  0  0  0  0  0  0  0  0  0
  145.7299  134.6847  154.2433 H   0  0  0  0  0  0  0  0  0  0  0  0
  146.9119  134.6936  151.4145 H   0  0  0  0  0  0  0  0  0  0  0  0
  145.0597  132.9817  150.1073 H   0  0  0  0  0  0  0  0  0  0  0  0
  144.1131  132.0668  151.2932 H   0  0  0  0  0  0  0  0  0  0  0  0
  143.0903  134.4238  150.5338 H   0  0  0  0  0  0  0  0  0  0  0  0
  143.2097  134.0824  152.2584 H   0  0  0  0  0  0  0  0  0  0  0  0
  144.6079  136.6117  150.1155 H   0  0  0  0  0  0  0  0  0  0  0  0
  143.5288  137.0612  151.9203 H   0  0  0  0  0  0  0  0  0  0  0  0
  143.8717  136.1283  153.3564 H   0  0  0  0  0  0  0  0  0  0  0  0
  146.0941  138.0601  150.8557 H   0  0  0  0  0  0  0  0  0  0  0  0
  148.5853  141.0790  153.1295 H   0  0  0  0  0  0  0  0  0  0  0  0
  149.0018  142.2001  154.4183 H   0  0  0  0  0  0  0  0  0  0  0  0
  147.3093  141.8388  154.1021 H   0  0  0  0  0  0  0  0  0  0  0  0
  148.6451  141.1451  156.9567 H   0  0  0  0  0  0  0  0  0  0  0  0
  149.2461  139.5353  156.8216 H   0  0  0  0  0  0  0  0  0  0  0  0
  150.5105  142.0420  155.5737 H   0  0  0  0  0  0  0  0  0  0  0  0
  151.1824  139.3166  155.3011 H   0  0  0  0  0  0  0  0  0  0  0  0
  151.2840  140.0969  157.7947 H   0  0  0  0  0  0  0  0  0  0  0  0
  152.5318  140.8935  156.8892 H   0  0  0  0  0  0  0  0  0  0  0  0
  152.4669  143.4240  156.8515 H   0  0  0  0  0  0  0  0  0  0  0  0
  150.7355  143.4553  156.6040 H   0  0  0  0  0  0  0  0  0  0  0  0
  151.5494  145.5467  157.7135 H   0  0  0  0  0  0  0  0  0  0  0  0
  150.4050  144.6949  158.7349 H   0  0  0  0  0  0  0  0  0  0  0  0
  153.0617  143.3619  160.8420 H   0  0  0  0  0  0  0  0  0  0  0  0
  151.3204  143.3744  160.6292 H   0  0  0  0  0  0  0  0  0  0  0  0
  152.2712  141.2456  159.8005 H   0  0  0  0  0  0  0  0  0  0  0  0
  153.3803  142.0950  158.7519 H   0  0  0  0  0  0  0  0  0  0  0  0
  145.5794  137.7004  157.2612 H   0  0  0  0  0  0  0  0  0  0  0  0
  1  2  1  0  0  0  0
  1 30  1  0  0  0  0
  1 31  1  0  0  0  0
  1 32  1  0  0  0  0
  2  6  1  0  0  0  0
  2  3  1  0  0  0  0
  2 33  1  0  0  0  0
  3  4  1  0  0  0  0
  4  5  1  0  0  0  0
  4 34  1  0  0  0  0
  4 35  1  0  0  0  0
  5  6  1  0  0  0  0
  5 36  1  0  0  0  0
  5 37  1  0  0  0  0
  6  7  1  0  0  0  0
  6  8  1  0  0  0  0
  7 38  1  0  0  0  0
  8  9  1  0  0  0  0
  8 39  1  0  0  0  0
  8 40  1  0  0  0  0
  9 29  1  0  0  0  0
  9 10  1  0  0  0  0
 10 11  2  0  0  0  0
 10 41  1  0  0  0  0
 11 12  1  0  0  0  0
 12 29  2  0  0  0  0
 12 13  1  0  0  0  0
 13 14  1  0  0  0  0
 13 26  2  0  0  0  0
 14 15  1  0  0  0  0
 14 16  1  0  0  0  0
 15 42  1  0  0  0  0
 15 43  1  0  0  0  0
 15 44  1  0  0  0  0
 16 17  1  0  0  0  0
 16 45  1  0  0  0  0
 16 46  1  0  0  0  0
 17 18  1  0  0  0  0
 17 19  1  0  0  0  0
 17 47  1  0  0  0  0
 18 48  1  0  0  0  0
 19 20  1  0  0  0  0
 19 49  1  0  0  0  0
 19 50  1  0  0  0  0
 20 25  1  0  0  0  0
 20 21  1  0  0  0  0
 21 22  1  0  0  0  0
 21 51  1  0  0  0  0
 21 52  1  0  0  0  0
 22 23  1  0  0  0  0
 22 53  1  0  0  0  0
 22 54  1  0  0  0  0
 23 24  1  0  0  0  0
 24 25  1  0  0  0  0
 24 55  1  0  0  0  0
 24 56  1  0  0  0  0
 25 57  1  0  0  0  0
 25 58  1  0  0  0  0
 26 27  1  0  0  0  0
 27 28  2  0  0  0  0
 27 59  1  0  0  0  0
 28 29  1  0  0  0  0
M  END
> <s_m_source_file>
AV-unprocessed.smi

> <i_m_source_file_index>
153

> <i_lp_mmshare_version>
43012

> <i_f3d_flags>
0

> <s_epik_input>
W0NIMl0xW0NIMl1PW0NAQEhdKFtDSDNdKVtDQEBdMShbT0hdKVtDSDJdbihbY0hdbjIpYyhjMjMpbltjSF1uYzNOKFtDSDNdKVtDSDJdW0NASF0oW09IXSlbQ0gyXU40W0NIMl1bQ0gyXU9bQ0gyXVtDSDJdNA==

> <s_epik_cmdline>
J2VwaWtfcHl0aG9uJywgJy1waCcsICc3LjAnLCAnLXRuJywgJzgnLCAnLW1hJywgJzIwMCcsICctbWV0YWxfYmluZGluZycsICctaW1hZScsICc8aW5maWxlLm1hZT4nLCAnLW9tYWUnLCAnPG91dGZpbGUubWFlPic=

> <r_lp_tautomer_probability>
1

> <r_epik_Ionization_Penalty>
0.424123

> <r_epik_Ionization_Penalty_Charging>
0

> <r_epik_Ionization_Penalty_Neutral>
0.424123

> <r_epik_State_Penalty>
0.421495

> <r_epik_Charging_Adjusted_Penalty>
0.421495

> <i_epik_Tot_Q>
0

> <i_epik_Tot_abs_Q>
0

> <r_epik_Metal_State_Penalty>
0.421223

> <b_epik_Metal_Only>
0

> <s_lp_Force_Field>
OPLS_2005

> <r_lp_Energy>
56.2601

> <b_lp_Chiralities_Consistent>
1

> <s_lp_Variant>
AV-unprocessed.smi:153-12

> <Gold.Version>
5.8.1

> <Gold.Id.Protein>
6NUR|6NUR_protein|mol2

> <Gold.PLP.Fitness>
51.7867

> <Gold.PLP.PLP>
-45.1447

> <Gold.PLP.part.hbond>
-3.0000

> <Gold.PLP.part.metal>
0.0000

> <Gold.PLP.part.buried>
-6.8255

> <Gold.PLP.part.nonpolar>
-36.8452

> <Gold.PLP.part.repulsive>
1.4644

> <Gold.PLP.ligand.clash>
0.0000

> <Gold.PLP.ligand.torsion>
1.0671

> <Gold.PLP.Chemscore.Hbond>
1.9913

> <Gold.PLP.Chemscore.CHOScore>
0.7068

> <Gold.PLP.Chemscore.Metal>
0.0000

> <Gold.Chemscore.Hbonds>
donor molecule, donor type, donor heavy atom, donor atom, acceptor molecule, acceptor atom, score
      L1  H     7    38       P1 10171  0.80
      P1  H  7989  7998       L1    18  1.00
      L1  C    10    41       P1 10171  0.75

> <Gold.PLP.Chemscore.Internal.Correction>
0.6823

> <Gold.Rescore>
     Score         DG    S(hbond)    S(metal)    S(lipo)     H(rot)  DE(clash)    DE(int)     intcor
     10.55     -14.72       1.95        0.00     100.17       3.52       0.09       4.08       ----

> <Gold.Chemscore.Fitness>
10.5515

> <Gold.Chemscore.DG>
-14.7174

> <Gold.Chemscore.ZeroCoef>
-5.4800

> <Gold.Chemscore.Hbond>
1.9525

> <Gold.Chemscore.Metal>
0.0000

> <Gold.Chemscore.Lipo>
100.1673

> <Gold.Chemscore.Internal_Hbond>
0.0000

> <Gold.Chemscore.DEClash>
0.0907

> <Gold.Chemscore.DEInternal>
4.0752

> <Gold.Chemscore.Rot>
3.5170

> <Gold.Chemscore.Internal.Correction>
   9.000000E+99

> <Gold.Chemscore.Hbonds>
donor molecule, donor type, donor heavy atom, donor atom, acceptor molecule, acceptor atom, score
      L1  H     7    38       P1 10171  0.79
      P1  H  7989  7998       L1    18  0.97

> <Gold.Chemscore.Hbond.Weighted>
-6.5214

> <Gold.Chemscore.Metal.Weighted>
-0.0000

> <Gold.Chemscore.Lipo.Weighted>
-11.7196

> <Gold.Chemscore.Internal_Hbond.Weighted>
0.0000

> <Gold.Chemscore.DEClash.Weighted>
0.0907

> <Gold.Chemscore.DEInternal.Weighted>
4.0752

> <Gold.Chemscore.Rot.Weighted>
9.0036

> <Gold.Chemscore.Internal.Correction.Weighted>
   9.000000E+99

> <Gold.Protein.RotatedTorsions>
[ 6907 6896 6895 6894 ] final  130.40 input  -60.11 | X-H torsion
[ 7974 7965 7964 7962 ] final -163.15 input  175.53 | X-H torsion
[ 8008 7997 7996 7995 ] final   33.09 input   59.86 | X-H torsion
[ 10167 10162 10161 10158 ] final  -99.08 input  -65.29 | X-H torsion
[ 10718 10713 10712 10709 ] final -121.90 input   66.30 | X-H torsion
[ 10763 10752 10751 10750 ] final    9.20 input  -60.55 | X-H torsion
[ 11005 11000 10999 10996 ] final -143.16 input  -57.11 | X-H torsion

> <Gold.Protein.ActiveResidues>
 VAL166  LYS551  ARG553  GLY616  TRP617  ASP618  TYR619  PRO620  LYS621  CYS622 
 ASP623  PHE694  ASN695  SER759  ASP760  ASP761  ALA762  ILE779  LEU786  VAL792 
 PHE793  MET794  SER795  GLU796  ALA797  LYS798  CYS799  TRP800  GLU811  SER814 

> <Gold.Protein.RotatedAtoms>
  152.3529  133.6202  159.5958 H   0  0  0  0  0  0  0  0  0  0  0  0  # atno 6907 bound_to 6896
  150.7550  133.9545  159.3505 H   0  0  0  0  0  0  0  0  0  0  0  0  # atno 6908 bound_to 6896
  151.7394  135.0858  160.0364 H   0  0  0  0  0  0  0  0  0  0  0  0  # atno 6909 bound_to 6896
  144.7335  140.3149  143.6181 H   0  0  0  0  0  0  0  0  0  0  0  0  # atno 7974 bound_to 7965
  155.1330  140.3259  155.4470 H   0  0  0  0  0  0  0  0  0  0  0  0  # atno 8008 bound_to 7997
  156.2628  140.2007  156.6397 H   0  0  0  0  0  0  0  0  0  0  0  0  # atno 8009 bound_to 7997
  154.6599  140.0548  157.0037 H   0  0  0  0  0  0  0  0  0  0  0  0  # atno 8010 bound_to 7997
  140.2662  143.3374  152.0578 H   0  0  0  0  0  0  0  0  0  0  0  0  # atno 10167 bound_to 10162
  156.1375  130.6441  150.9718 H   0  0  0  0  0  0  0  0  0  0  0  0  # atno 10718 bound_to 10713
  153.2166  135.6876  153.8049 H   0  0  0  0  0  0  0  0  0  0  0  0  # atno 10763 bound_to 10752
  153.7263  135.3259  155.3278 H   0  0  0  0  0  0  0  0  0  0  0  0  # atno 10764 bound_to 10752
  154.8249  135.4625  154.0996 H   0  0  0  0  0  0  0  0  0  0  0  0  # atno 10765 bound_to 10752
  140.8153  134.2695  157.4923 H   0  0  0  0  0  0  0  0  0  0  0  0  # atno 11005 bound_to 11000
  145.7628  139.1830  143.2257 LP  0  0  0  0  0  0  0  0  0  0  0  0  # atno 17320 bound_to 7965
  146.0973  140.7585  142.9566 LP  0  0  0  0  0  0  0  0  0  0  0  0  # atno 17321 bound_to 7965
  139.5002  144.6686  151.6296 LP  0  0  0  0  0  0  0  0  0  0  0  0  # atno 17342 bound_to 10162
  140.5926  143.9752  150.6334 LP  0  0  0  0  0  0  0  0  0  0  0  0  # atno 17343 bound_to 10162
  157.6545  131.0891  150.7977 LP  0  0  0  0  0  0  0  0  0  0  0  0  # atno 17370 bound_to 10713
  156.8056  130.4935  149.5363 LP  0  0  0  0  0  0  0  0  0  0  0  0  # atno 17371 bound_to 10713
  139.8711  134.9506  156.4059 LP  0  0  0  0  0  0  0  0  0  0  0  0  # atno 17394 bound_to 11000
  140.9155  133.7681  155.9843 LP  0  0  0  0  0  0  0  0  0  0  0  0  # atno 17395 bound_to 11000

$$$$
