#       Name:                AV-unprocessed.smi:1399
#       Creating user name   scv26
#       Creation time:       Fri Mar 27 05:30:49 2020


#       File generated by GOLD software.
#

@<TRIPOS>MOLECULE
AV-unprocessed.smi:1399
    43    44     1
SMALL
NO_CHARGES


@<TRIPOS>ATOM
      1 ****        -5.7527   2.4782  -0.8261 N.am           1 S1                 0.0000
      2 ****        -4.5139   2.1321  -1.1833 C.2            1 S1                 0.0000
      3 ****        -3.7267   2.9349  -1.6816 O.2            1 S1                 0.0000
      4 ****        -4.1130   0.6694  -0.9645 C.3            1 S1                 0.0000
      5 ****        -2.6413   0.4764  -0.9030 N.4            1 S1                 1.0000
      6 ****        -2.2311  -0.9003  -1.2796 C.3            1 S1                 0.0000
      7 ****        -0.6993  -1.0222  -1.3529 C.3            1 S1                 0.0000
      8 ****        -0.0399  -0.6045  -0.0284 C.3            1 S1                 0.0000
      9 ****         1.4134  -0.6408  -0.1661 N.am           1 S1                 0.0000
     10 ****         2.2818  -0.7881   0.8450 C.2            1 S1                 0.0000
     11 ****         1.9408  -0.9054   2.0219 O.2            1 S1                 0.0000
     12 ****         3.5500  -0.7871   0.4036 N.am           1 S1                 0.0000
     13 ****         4.7282  -0.9340   1.1779 C.2            1 S1                 0.0000
     14 ****         4.8667  -1.1175   2.5852 C.2            1 S1                 0.0000
     15 ****         6.1421  -1.2166   2.9331 N.2            1 S1                 0.0000
     16 ****         6.8164  -1.0986   1.7671 N.pl3          1 S1                 0.0000
     17 ****         5.9951  -0.9256   0.6749 C.2            1 S1                 0.0000
     18 ****        -0.5180   0.8056   0.3646 C.3            1 S1                 0.0000
     19 ****        -2.0530   0.8826   0.4013 C.3            1 S1                 0.0000
     20 ****         7.8253  -1.1382   1.7344 H              1 S1                 0.0000
     21 ****        -6.0629   3.4311  -0.9552 H              1 S1                 0.0000
     22 ****        -6.3797   1.7915  -0.4320 H              1 S1                 0.0000
     23 ****        -4.5824   0.2717  -0.0630 H              1 S1                 0.0000
     24 ****        -4.5225   0.1070  -1.8048 H              1 S1                 0.0000
     25 ****        -2.6334  -1.6122  -0.5570 H              1 S1                 0.0000
     26 ****        -2.6552  -1.1591  -2.2504 H              1 S1                 0.0000
     27 ****        -0.4242  -2.0482  -1.6004 H              1 S1                 0.0000
     28 ****        -0.3266  -0.3976  -2.1663 H              1 S1                 0.0000
     29 ****        -0.3451  -1.3132   0.7444 H              1 S1                 0.0000
     30 ****         1.7857  -0.5513  -1.1004 H              1 S1                 0.0000
     31 ****         3.6881  -0.6750  -0.5900 H              1 S1                 0.0000
     32 ****         4.1114  -1.1822   3.3542 H              1 S1                 0.0000
     33 ****         6.3739  -0.8157  -0.3307 H              1 S1                 0.0000
     34 ****        -0.1154   1.0822   1.3399 H              1 S1                 0.0000
     35 ****        -0.1360   1.5399  -0.3465 H              1 S1                 0.0000
     36 ****        -2.3530   1.9014   0.6486 H              1 S1                 0.0000
     37 ****        -2.4411   0.2397   1.1928 H              1 S1                 0.0000
     38 ****        -2.2526   1.0904  -1.6051 H              1 S1                 0.0000
     39 ****        -4.0073   3.8830  -1.8315 LP             1 S1                 0.0000
     40 ****        -2.8060   2.6396  -1.9370 LP             1 S1                 0.0000
     41 ****         0.9709  -0.8936   2.2649 LP             1 S1                 0.0000
     42 ****         2.6337  -1.0125   2.7349 LP             1 S1                 0.0000
     43 ****         6.5197  -1.3486   3.8496 LP             1 S1                 0.0000
@<TRIPOS>BOND
    1    1    2 am    
    2    1   21 1     
    3    1   22 1     
    4    2    3 2     
    5    2    4 1     
    6    4    5 1     
    7    4   23 1     
    8    4   24 1     
    9    5   19 1     
   10    5    6 1     
   11    5   38 1     
   12    6    7 1     
   13    6   25 1     
   14    6   26 1     
   15    7    8 1     
   16    7   27 1     
   17    7   28 1     
   18    8    9 1     
   19    8   18 1     
   20    8   29 1     
   21    9   10 am    
   22    9   30 1     
   23   10   11 2     
   24   10   12 am    
   25   12   13 1     
   26   12   31 1     
   27   13   17 2     
   28   13   14 1     
   29   14   15 2     
   30   14   32 1     
   31   15   16 1     
   32   16   20 1     
   33   16   17 1     
   34   17   33 1     
   35   18   19 1     
   36   18   34 1     
   37   18   35 1     
   38   19   36 1     
   39   19   37 1     
   40    3   39 1     
   41    3   40 1     
   42   11   41 1     
   43   11   42 1     
   44   15   43 1     
@<TRIPOS>SUBSTRUCTURE
      1 S1             1
@<TRIPOS>SET
LONE_PAIRS      STATIC     ATOMS    <user>   **** ""
5 39 40 41 42 43
DONOR_HYDROGENS      STATIC     ATOMS    <user>   **** ""
6 21 22 38 30 31 20
ATOM$BLUE        STATIC     ATOMS    COLORGROUP SYSTEM
5 39 40 41 42 43
ATOM$RED        STATIC     ATOMS    COLORGROUP SYSTEM
6 21 22 38 30 31 20
