AV-unprocessed.smi:1033|AV-procd|sdf|4497|dock1
  -GOLD-   22720 2483D 1   1.00000     0.00000
 Structure written by MMmdl.
 56 58  0  0  0  0  0  0  0  0  2 V2000
  152.1499  144.2121  161.1740 C   0  0  0  0  0  0  0  0  0  0  0  0
  151.9128  143.2906  159.9904 C   0  0  0  0  0  0  0  0  0  0  0  0
  152.0915  141.8984  160.1562 C   0  0  0  0  0  0  0  0  0  0  0  0
  151.8794  141.0077  159.0809 C   0  0  0  0  0  0  0  0  0  0  0  0
  151.9931  139.6292  159.0176 N   0  0  0  0  0  0  0  0  0  0  0  0
  151.6651  139.3907  157.7507 C   0  0  0  0  0  0  0  0  0  0  0  0
  151.3524  140.4538  156.9849 N   0  0  0  0  0  0  0  0  0  0  0  0
  150.9662  140.4522  155.5861 C   0  0  0  0  0  0  0  0  0  0  0  0
  149.5334  140.9823  155.3776 C   0  0  1  0  0  0  0  0  0  0  0  0
  149.5919  142.2244  154.7061 O   0  0  0  0  0  0  0  0  0  0  0  0
  148.6552  140.0303  154.5417 C   0  0  0  0  0  0  0  0  0  0  0  0
  147.5320  140.6628  153.8392 N   0  0  0  0  0  0  0  0  0  0  0  0
  147.1105  139.9809  152.6120 C   0  0  0  0  0  0  0  0  0  0  0  0
  146.4009  138.6372  152.8725 C   0  0  0  0  0  0  0  0  0  0  0  0
  145.2212  138.8452  153.7541 N   0  3  0  0  0  0  0  0  0  0  0  0
  144.4326  137.6114  154.0023 C   0  0  0  0  0  0  0  0  0  0  0  0
  143.5802  137.1987  152.7858 C   0  0  1  0  0  0  0  0  0  0  0  0
  142.8262  135.8847  153.0271 C   0  0  0  0  0  0  0  0  0  0  0  0
  142.6276  138.2085  152.5197 O   0  0  0  0  0  0  0  0  0  0  0  0
  145.6232  139.5279  155.0108 C   0  0  0  0  0  0  0  0  0  0  0  0
  146.3596  140.8463  154.6942 C   0  0  0  0  0  0  0  0  0  0  0  0
  151.4793  141.5529  157.8263 C   0  0  0  0  0  0  0  0  0  0  0  0
  151.2980  142.9357  157.6484 C   0  0  0  0  0  0  0  0  0  0  0  0
  151.5159  143.8115  158.7324 C   0  0  0  0  0  0  0  0  0  0  0  0
  151.3184  145.3034  158.5301 C   0  0  0  0  0  0  0  0  0  0  0  0
  152.4249  143.6505  162.0673 H   0  0  0  0  0  0  0  0  0  0  0  0
  151.2485  144.7812  161.4023 H   0  0  0  0  0  0  0  0  0  0  0  0
  152.9570  144.9122  160.9575 H   0  0  0  0  0  0  0  0  0  0  0  0
  152.3939  141.5012  161.1139 H   0  0  0  0  0  0  0  0  0  0  0  0
  151.6534  138.3854  157.3551 H   0  0  0  0  0  0  0  0  0  0  0  0
  151.6852  141.0443  155.0180 H   0  0  0  0  0  0  0  0  0  0  0  0
  151.0506  139.4281  155.2208 H   0  0  0  0  0  0  0  0  0  0  0  0
  149.0653  141.1725  156.3429 H   0  0  0  0  0  0  0  0  0  0  0  0
  149.3131  142.9032  155.3017 H   0  0  0  0  0  0  0  0  0  0  0  0
  149.2882  139.4992  153.8310 H   0  0  0  0  0  0  0  0  0  0  0  0
  148.2621  139.2644  155.2117 H   0  0  0  0  0  0  0  0  0  0  0  0
  146.4265  140.6329  152.0671 H   0  0  0  0  0  0  0  0  0  0  0  0
  147.9559  139.8339  151.9416 H   0  0  0  0  0  0  0  0  0  0  0  0
  146.0895  138.2154  151.9178 H   0  0  0  0  0  0  0  0  0  0  0  0
  147.0844  137.9165  153.3229 H   0  0  0  0  0  0  0  0  0  0  0  0
  145.1090  136.8045  154.2891 H   0  0  0  0  0  0  0  0  0  0  0  0
  143.7676  137.7674  154.8536 H   0  0  0  0  0  0  0  0  0  0  0  0
  144.2054  137.0760  151.9020 H   0  0  0  0  0  0  0  0  0  0  0  0
  143.5195  135.0654  153.2196 H   0  0  0  0  0  0  0  0  0  0  0  0
  142.2273  135.6100  152.1580 H   0  0  0  0  0  0  0  0  0  0  0  0
  142.1549  135.9602  153.8834 H   0  0  0  0  0  0  0  0  0  0  0  0
  143.0823  138.9941  152.2557 H   0  0  0  0  0  0  0  0  0  0  0  0
  144.7364  139.7487  155.6059 H   0  0  0  0  0  0  0  0  0  0  0  0
  146.2469  138.8648  155.6120 H   0  0  0  0  0  0  0  0  0  0  0  0
  146.6499  141.3418  155.6215 H   0  0  0  0  0  0  0  0  0  0  0  0
  145.6647  141.5272  154.2007 H   0  0  0  0  0  0  0  0  0  0  0  0
  150.9928  143.3175  156.6854 H   0  0  0  0  0  0  0  0  0  0  0  0
  151.0465  145.5334  157.4996 H   0  0  0  0  0  0  0  0  0  0  0  0
  152.2351  145.8459  158.7619 H   0  0  0  0  0  0  0  0  0  0  0  0
  150.5228  145.6738  159.1770 H   0  0  0  0  0  0  0  0  0  0  0  0
  144.6036  139.4843  153.2735 H   0  0  0  0  0  0  0  0  0  0  0  0
  1  2  1  0  0  0  0
  1 26  1  0  0  0  0
  1 27  1  0  0  0  0
  1 28  1  0  0  0  0
  2 24  1  0  0  0  0
  2  3  2  0  0  0  0
  3  4  1  0  0  0  0
  3 29  1  0  0  0  0
  4 22  2  0  0  0  0
  4  5  1  0  0  0  0
  5  6  2  0  0  0  0
  6  7  1  0  0  0  0
  6 30  1  0  0  0  0
  7  8  1  0  0  0  0
  7 22  1  0  0  0  0
  8  9  1  0  0  0  0
  8 31  1  0  0  0  0
  8 32  1  0  0  0  0
  9 10  1  0  0  0  0
  9 11  1  0  0  0  0
  9 33  1  0  0  0  0
 10 34  1  0  0  0  0
 11 12  1  0  0  0  0
 11 35  1  0  0  0  0
 11 36  1  0  0  0  0
 12 21  1  0  0  0  0
 12 13  1  0  0  0  0
 13 14  1  0  0  0  0
 13 37  1  0  0  0  0
 13 38  1  0  0  0  0
 14 15  1  0  0  0  0
 14 39  1  0  0  0  0
 14 40  1  0  0  0  0
 15 16  1  0  0  0  0
 15 20  1  0  0  0  0
 15 56  1  0  0  0  0
 16 17  1  0  0  0  0
 16 41  1  0  0  0  0
 16 42  1  0  0  0  0
 17 18  1  0  0  0  0
 17 19  1  0  0  0  0
 17 43  1  0  0  0  0
 18 44  1  0  0  0  0
 18 45  1  0  0  0  0
 18 46  1  0  0  0  0
 19 47  1  0  0  0  0
 20 21  1  0  0  0  0
 20 48  1  0  0  0  0
 20 49  1  0  0  0  0
 21 50  1  0  0  0  0
 21 51  1  0  0  0  0
 22 23  1  0  0  0  0
 23 24  2  0  0  0  0
 23 52  1  0  0  0  0
 24 25  1  0  0  0  0
 25 53  1  0  0  0  0
 25 54  1  0  0  0  0
 25 55  1  0  0  0  0
M  CHG  1  15   1
M  END
> <s_m_source_file>
AV-unprocessed.smi

> <i_m_source_file_index>
1033

> <i_lp_mmshare_version>
43012

> <i_f3d_flags>
0

> <s_epik_input>
W0NIM11jKFtjSF0xKWMoW0NIM10pW2NIXWMoYzEyKW4oW2NIXW4yKVtDSDJdW0NASF0oW09IXSlbQ0gyXU4zW0NIMl1bQ0gyXU4oW0NIMl1bQ0gyXTMpW0NIMl1bQ0BIXShbQ0gzXSlbT0hd

> <s_epik_cmdline>
J2VwaWtfcHl0aG9uJywgJy1waCcsICc3LjAnLCAnLXRuJywgJzgnLCAnLW1hJywgJzIwMCcsICctbWV0YWxfYmluZGluZycsICctaW1hZScsICc8aW5maWxlLm1hZT4nLCAnLW9tYWUnLCAnPG91dGZpbGUubWFlPic=

> <r_epik_Ionization_Penalty>
0.129152

> <r_epik_Ionization_Penalty_Charging>
0.00083231

> <r_epik_Ionization_Penalty_Neutral>
0.128319

> <r_epik_State_Penalty>
0.556973

> <r_epik_Charging_Adjusted_Penalty>
0.557805

> <i_epik_Tot_Q>
1

> <i_epik_Tot_abs_Q>
1

> <r_epik_Metal_State_Penalty>
0.490047

> <b_epik_Metal_Only>
0

> <s_lp_Force_Field>
OPLS_2005

> <r_lp_Energy>
33.0878

> <b_lp_Chiralities_Consistent>
1

> <s_lp_Variant>
AV-unprocessed.smi:1033-8

> <Gold.Version>
5.8.1

> <Gold.Id.Protein>
6NUR|6NUR_protein|mol2

> <Gold.PLP.Fitness>
56.4258

> <Gold.PLP.PLP>
-47.1820

> <Gold.PLP.part.hbond>
-5.5573

> <Gold.PLP.part.metal>
0.0000

> <Gold.PLP.part.buried>
-0.0932

> <Gold.PLP.part.nonpolar>
-40.7161

> <Gold.PLP.part.repulsive>
0.1475

> <Gold.PLP.ligand.clash>
0.0000

> <Gold.PLP.ligand.torsion>
1.4534

> <Gold.PLP.Chemscore.Hbond>
3.9509

> <Gold.PLP.Chemscore.CHOScore>
0.0000

> <Gold.PLP.Chemscore.Metal>
0.0000

> <Gold.Chemscore.Hbonds>
donor molecule, donor type, donor heavy atom, donor atom, acceptor molecule, acceptor atom, score
      L1  H    10    34       P1  8028  0.99
      L1  H    15    56       P1 10175  2.00
      L1  H    19    47       P1 10175  1.00
      P1  H  8011  8017       L1    10  0.03

> <Gold.PLP.Chemscore.Internal.Correction>
0.2980

> <Gold.Rescore>
     Score         DG    S(hbond)    S(metal)    S(lipo)     H(rot)  DE(clash)    DE(int)     intcor
     20.17     -21.78       2.98        0.00     121.32       3.07       0.42       1.19       ----

> <Gold.Chemscore.Fitness>
20.1739

> <Gold.Chemscore.DG>
-21.7780

> <Gold.Chemscore.ZeroCoef>
-5.4800

> <Gold.Chemscore.Hbond>
2.9792

> <Gold.Chemscore.Metal>
0.0000

> <Gold.Chemscore.Lipo>
121.3167

> <Gold.Chemscore.Internal_Hbond>
0.0000

> <Gold.Chemscore.DEClash>
0.4164

> <Gold.Chemscore.DEInternal>
1.1877

> <Gold.Chemscore.Rot>
3.0650

> <Gold.Chemscore.Internal.Correction>
   9.000000E+99

> <Gold.Chemscore.Hbonds>
donor molecule, donor type, donor heavy atom, donor atom, acceptor molecule, acceptor atom, score
      L1  H    10    34       P1  8028  0.94
      L1  H    15    56       P1 10175  0.97
      L1  H    19    47       P1 10175  0.92
      P1  H  8011  8017       L1    10  0.03

> <Gold.Chemscore.Hbond.Weighted>
-9.9505

> <Gold.Chemscore.Metal.Weighted>
-0.0000

> <Gold.Chemscore.Lipo.Weighted>
-14.1941

> <Gold.Chemscore.Internal_Hbond.Weighted>
0.0000

> <Gold.Chemscore.DEClash.Weighted>
0.4164

> <Gold.Chemscore.DEInternal.Weighted>
1.1877

> <Gold.Chemscore.Rot.Weighted>
7.8465

> <Gold.Chemscore.Internal.Correction.Weighted>
   9.000000E+99

> <Gold.Protein.RotatedTorsions>
[ 6907 6896 6895 6894 ] final  -58.83 input  -60.11 | X-H torsion
[ 7974 7965 7964 7962 ] final -144.95 input  175.53 | X-H torsion
[ 8008 7997 7996 7995 ] final  -64.05 input   59.86 | X-H torsion
[ 10167 10162 10161 10158 ] final -138.99 input  -65.29 | X-H torsion
[ 10718 10713 10712 10709 ] final  -52.87 input   66.30 | X-H torsion
[ 10763 10752 10751 10750 ] final  -58.61 input  -60.55 | X-H torsion
[ 11005 11000 10999 10996 ] final  159.95 input  -57.11 | X-H torsion

> <Gold.Protein.ActiveResidues>
 VAL166  LYS551  ARG553  GLY616  TRP617  ASP618  TYR619  PRO620  LYS621  CYS622 
 ASP623  PHE694  ASN695  SER759  ASP760  ASP761  ALA762  ILE779  LEU786  VAL792 
 PHE793  MET794  SER795  GLU796  ALA797  LYS798  CYS799  TRP800  GLU811  SER814 

> <Gold.Protein.RotatedAtoms>
  150.7977  134.7048  159.6569 H   0  0  0  0  0  0  0  0  0  0  0  0  # atno 6907 bound_to 6896
  152.4090  134.6153  160.0046 H   0  0  0  0  0  0  0  0  0  0  0  0  # atno 6908 bound_to 6896
  151.6402  133.3289  159.3164 H   0  0  0  0  0  0  0  0  0  0  0  0  # atno 6909 bound_to 6896
  144.8261  140.5645  143.5546 H   0  0  0  0  0  0  0  0  0  0  0  0  # atno 7974 bound_to 7965
  154.4589  140.0962  156.6837 H   0  0  0  0  0  0  0  0  0  0  0  0  # atno 8008 bound_to 7997
  155.5053  140.3475  155.4360 H   0  0  0  0  0  0  0  0  0  0  0  0  # atno 8009 bound_to 7997
  156.0832  140.1378  156.9674 H   0  0  0  0  0  0  0  0  0  0  0  0  # atno 8010 bound_to 7997
  139.8423  143.7305  152.2662 H   0  0  0  0  0  0  0  0  0  0  0  0  # atno 10167 bound_to 10162
  156.1583  130.4150  149.9833 H   0  0  0  0  0  0  0  0  0  0  0  0  # atno 10718 bound_to 10713
  154.2407  135.6344  153.5206 H   0  0  0  0  0  0  0  0  0  0  0  0  # atno 10763 bound_to 10752
  152.9930  135.5541  154.5913 H   0  0  0  0  0  0  0  0  0  0  0  0  # atno 10764 bound_to 10752
  154.5418  135.2895  155.1063 H   0  0  0  0  0  0  0  0  0  0  0  0  # atno 10765 bound_to 10752
  140.2011  134.8337  157.3019 H   0  0  0  0  0  0  0  0  0  0  0  0  # atno 11005 bound_to 11000
  145.4996  139.1484  143.3664 LP  0  0  0  0  0  0  0  0  0  0  0  0  # atno 17320 bound_to 7965
  146.2566  140.5136  142.8871 LP  0  0  0  0  0  0  0  0  0  0  0  0  # atno 17321 bound_to 7965
  139.7546  144.7524  151.0454 LP  0  0  0  0  0  0  0  0  0  0  0  0  # atno 17342 bound_to 10162
  140.7797  143.4820  151.0006 LP  0  0  0  0  0  0  0  0  0  0  0  0  # atno 17343 bound_to 10162
  156.7670  130.9172  151.3643 LP  0  0  0  0  0  0  0  0  0  0  0  0  # atno 17370 bound_to 10713
  157.6713  130.9053  150.0046 LP  0  0  0  0  0  0  0  0  0  0  0  0  # atno 17371 bound_to 10713
  140.2053  134.4205  155.7641 LP  0  0  0  0  0  0  0  0  0  0  0  0  # atno 17394 bound_to 11000
  141.2227  133.7091  156.8249 LP  0  0  0  0  0  0  0  0  0  0  0  0  # atno 17395 bound_to 11000

$$$$
