AV-unprocessed.smi:699|AV-procd|sdf|3405|dock3
  -GOLD-   22720 0383D 1   1.00000     0.00000
 Structure written by MMmdl.
 35 36  0  0  0  0  0  0  0  0  2 V2000
  147.2597  132.9637  151.0642 N   0  0  0  0  0  0  0  0  0  0  0  0
  147.0450  133.4816  152.2762 C   0  0  0  0  0  0  0  0  0  0  0  0
  147.9439  133.5757  153.1106 O   0  0  0  0  0  0  0  0  0  0  0  0
  145.6073  133.9490  152.5918 C   0  0  2  0  0  0  0  0  0  0  0  0
  144.5932  133.2648  151.6631 C   0  0  0  0  0  0  0  0  0  0  0  0
  144.4959  134.1563  150.4223 C   0  0  0  0  0  0  0  0  0  0  0  0
  144.8235  135.5774  150.8984 C   0  0  0  0  0  0  0  0  0  0  0  0
  145.3340  135.4575  152.3472 C   0  0  2  0  0  0  0  0  0  0  0  0
  146.4823  136.3365  152.5777 N   0  0  0  0  0  0  0  0  0  0  0  0
  146.4241  137.5393  153.1662 C   0  0  0  0  0  0  0  0  0  0  0  0
  145.3775  138.0455  153.5697 O   0  0  0  0  0  0  0  0  0  0  0  0
  147.6434  138.1009  153.2428 N   0  0  0  0  0  0  0  0  0  0  0  0
  148.0160  139.3558  153.7987 C   0  0  0  0  0  0  0  0  0  0  0  0
  147.1006  140.4232  153.6627 C   0  0  0  0  0  0  0  0  0  0  0  0
  147.4264  141.6917  154.1841 C   0  0  0  0  0  0  0  0  0  0  0  0
  148.6124  141.8804  154.8012 N   0  3  0  0  0  0  0  0  0  0  0  0
  149.5249  140.8957  154.9444 C   0  0  0  0  0  0  0  0  0  0  0  0
  149.2552  139.6058  154.4429 C   0  0  0  0  0  0  0  0  0  0  0  0
  148.1862  132.6532  150.8094 H   0  0  0  0  0  0  0  0  0  0  0  0
  146.4992  132.8926  150.4036 H   0  0  0  0  0  0  0  0  0  0  0  0
  145.3870  133.6989  153.6313 H   0  0  0  0  0  0  0  0  0  0  0  0
  144.8629  132.2386  151.4084 H   0  0  0  0  0  0  0  0  0  0  0  0
  143.6228  133.2245  152.1597 H   0  0  0  0  0  0  0  0  0  0  0  0
  145.2298  133.8389  149.6805 H   0  0  0  0  0  0  0  0  0  0  0  0
  143.5135  134.0944  149.9528 H   0  0  0  0  0  0  0  0  0  0  0  0
  145.5724  136.0198  150.2396 H   0  0  0  0  0  0  0  0  0  0  0  0
  143.9426  136.2194  150.8567 H   0  0  0  0  0  0  0  0  0  0  0  0
  144.5221  135.7644  153.0096 H   0  0  0  0  0  0  0  0  0  0  0  0
  147.3825  135.9924  152.2766 H   0  0  0  0  0  0  0  0  0  0  0  0
  148.3918  137.5833  152.8056 H   0  0  0  0  0  0  0  0  0  0  0  0
  146.1520  140.2738  153.1672 H   0  0  0  0  0  0  0  0  0  0  0  0
  146.7796  142.5549  154.1247 H   0  0  0  0  0  0  0  0  0  0  0  0
  150.4412  141.1681  155.4479 H   0  0  0  0  0  0  0  0  0  0  0  0
  150.0092  138.8424  154.5540 H   0  0  0  0  0  0  0  0  0  0  0  0
  148.8298  142.8065  155.1707 H   0  0  0  0  0  0  0  0  0  0  0  0
  1  2  1  0  0  0  0
  1 19  1  0  0  0  0
  1 20  1  0  0  0  0
  2  3  2  0  0  0  0
  2  4  1  0  0  0  0
  4  8  1  0  0  0  0
  4  5  1  0  0  0  0
  4 21  1  0  0  0  0
  5  6  1  0  0  0  0
  5 22  1  0  0  0  0
  5 23  1  0  0  0  0
  6  7  1  0  0  0  0
  6 24  1  0  0  0  0
  6 25  1  0  0  0  0
  7  8  1  0  0  0  0
  7 26  1  0  0  0  0
  7 27  1  0  0  0  0
  8  9  1  0  0  0  0
  8 28  1  0  0  0  0
  9 10  1  0  0  0  0
  9 29  1  0  0  0  0
 10 11  2  0  0  0  0
 10 12  1  0  0  0  0
 12 13  1  0  0  0  0
 12 30  1  0  0  0  0
 13 18  1  0  0  0  0
 13 14  2  0  0  0  0
 14 15  1  0  0  0  0
 14 31  1  0  0  0  0
 15 16  2  0  0  0  0
 15 32  1  0  0  0  0
 16 17  1  0  0  0  0
 16 35  1  0  0  0  0
 17 18  2  0  0  0  0
 17 33  1  0  0  0  0
 18 34  1  0  0  0  0
M  CHG  1  16   1
M  END
> <s_m_source_file>
AV-unprocessed.smi

> <i_m_source_file_index>
699

> <i_lp_mmshare_version>
43012

> <i_f3d_flags>
0

> <s_epik_input>
W05IMl1DKD1PKVtDQEBIXTFbQ0gyXVtDSDJdW0NIMl1bQ0BIXTFbTkhdQyg9TylbTkhdYzJbY0hdW2NIXW5bY0hdW2NIXTI=

> <s_epik_cmdline>
J2VwaWtfcHl0aG9uJywgJy1waCcsICc3LjAnLCAnLXRuJywgJzgnLCAnLW1hJywgJzIwMCcsICctbWV0YWxfYmluZGluZycsICctaW1hZScsICc8aW5maWxlLm1hZT4nLCAnLW9tYWUnLCAnPG91dGZpbGUubWFlPic=

> <r_epik_Ionization_Penalty>
1.0332

> <r_epik_Ionization_Penalty_Charging>
1.03318

> <r_epik_Ionization_Penalty_Neutral>
1.91967e-05

> <r_epik_State_Penalty>
1.08452

> <r_epik_Charging_Adjusted_Penalty>
2.11769

> <i_epik_Tot_Q>
1

> <i_epik_Tot_abs_Q>
1

> <r_epik_Metal_State_Penalty>
1.18144

> <b_epik_Metal_Only>
0

> <s_lp_Force_Field>
OPLS_2005

> <r_lp_Energy>
24.8338

> <b_lp_Chiralities_Consistent>
1

> <s_lp_Variant>
AV-unprocessed.smi:699-7

> <Gold.Version>
5.8.1

> <Gold.Id.Protein>
6NUR|6NUR_protein|mol2

> <Gold.PLP.Fitness>
41.4791

> <Gold.PLP.PLP>
-29.6436

> <Gold.PLP.part.hbond>
-4.0000

> <Gold.PLP.part.metal>
0.0000

> <Gold.PLP.part.buried>
-4.0294

> <Gold.PLP.part.nonpolar>
-23.1655

> <Gold.PLP.part.repulsive>
1.3138

> <Gold.PLP.ligand.clash>
0.0209

> <Gold.PLP.ligand.torsion>
1.1853

> <Gold.PLP.Chemscore.Hbond>
4.7360

> <Gold.PLP.Chemscore.CHOScore>
0.0000

> <Gold.PLP.Chemscore.Metal>
0.0000

> <Gold.Chemscore.Hbonds>
donor molecule, donor type, donor heavy atom, donor atom, acceptor molecule, acceptor atom, score
      L1  H     1    19       P1 10747  0.70
      L1  H     9    29       P1  7948  1.00
      L1  H    12    30       P1  7948  1.00
      L1  H    16    35       P1  8028  2.00

> <Gold.PLP.Chemscore.Internal.Correction>
0.0189

> <Gold.Rescore>
     Score         DG    S(hbond)    S(metal)    S(lipo)     H(rot)  DE(clash)    DE(int)     intcor
     18.66     -20.97       3.72        0.00      59.10       1.50       0.14       2.17       ----

> <Gold.Chemscore.Fitness>
18.6553

> <Gold.Chemscore.DG>
-20.9666

> <Gold.Chemscore.ZeroCoef>
-5.4800

> <Gold.Chemscore.Hbond>
3.7189

> <Gold.Chemscore.Metal>
0.0000

> <Gold.Chemscore.Lipo>
59.1035

> <Gold.Chemscore.Internal_Hbond>
0.0000

> <Gold.Chemscore.DEClash>
0.1408

> <Gold.Chemscore.DEInternal>
2.1705

> <Gold.Chemscore.Rot>
1.5038

> <Gold.Chemscore.Internal.Correction>
   9.000000E+99

> <Gold.Chemscore.Hbonds>
donor molecule, donor type, donor heavy atom, donor atom, acceptor molecule, acceptor atom, score
      L1  H     1    19       P1 10747  0.66
      L1  H     9    29       P1  7948  0.96
      L1  H    12    30       P1  7948  0.96
      L1  H    16    35       P1  8028  0.98

> <Gold.Chemscore.Hbond.Weighted>
-12.4212

> <Gold.Chemscore.Metal.Weighted>
-0.0000

> <Gold.Chemscore.Lipo.Weighted>
-6.9151

> <Gold.Chemscore.Internal_Hbond.Weighted>
0.0000

> <Gold.Chemscore.DEClash.Weighted>
0.1408

> <Gold.Chemscore.DEInternal.Weighted>
2.1705

> <Gold.Chemscore.Rot.Weighted>
3.8496

> <Gold.Chemscore.Internal.Correction.Weighted>
   9.000000E+99

> <Gold.Protein.RotatedTorsions>
[ 6907 6896 6895 6894 ] final -120.17 input  -60.11 | X-H torsion
[ 7974 7965 7964 7962 ] final  118.38 input  175.53 | X-H torsion
[ 8008 7997 7996 7995 ] final  136.52 input   59.86 | X-H torsion
[ 10167 10162 10161 10158 ] final    1.48 input  -65.29 | X-H torsion
[ 10718 10713 10712 10709 ] final   -9.62 input   66.30 | X-H torsion
[ 10763 10752 10751 10750 ] final  -98.60 input  -60.55 | X-H torsion
[ 11005 11000 10999 10996 ] final -101.93 input  -57.11 | X-H torsion

> <Gold.Protein.ActiveResidues>
 VAL166  LYS551  ARG553  GLY616  TRP617  ASP618  TYR619  PRO620  LYS621  CYS622 
 ASP623  PHE694  ASN695  SER759  ASP760  ASP761  ALA762  ILE779  LEU786  VAL792 
 PHE793  MET794  SER795  GLU796  ALA797  LYS798  CYS799  TRP800  GLU811  SER814 

> <Gold.Protein.RotatedAtoms>
  150.8369  133.7999  159.3075 H   0  0  0  0  0  0  0  0  0  0  0  0  # atno 6907 bound_to 6896
  151.5712  135.1061  160.0005 H   0  0  0  0  0  0  0  0  0  0  0  0  # atno 6908 bound_to 6896
  152.4440  133.7459  159.6723 H   0  0  0  0  0  0  0  0  0  0  0  0  # atno 6909 bound_to 6896
  145.1560  139.3183  143.4542 H   0  0  0  0  0  0  0  0  0  0  0  0  # atno 7974 bound_to 7965
  156.3004  140.2443  156.3758 H   0  0  0  0  0  0  0  0  0  0  0  0  # atno 8008 bound_to 7997
  154.8746  140.0415  157.1765 H   0  0  0  0  0  0  0  0  0  0  0  0  # atno 8009 bound_to 7997
  154.8759  140.2942  155.5457 H   0  0  0  0  0  0  0  0  0  0  0  0  # atno 8010 bound_to 7997
  140.6680  143.7126  150.7866 H   0  0  0  0  0  0  0  0  0  0  0  0  # atno 10167 bound_to 10162
  156.6854  130.5049  149.5959 H   0  0  0  0  0  0  0  0  0  0  0  0  # atno 10718 bound_to 10713
  154.7428  135.5003  153.9152 H   0  0  0  0  0  0  0  0  0  0  0  0  # atno 10763 bound_to 10752
  153.1061  135.6697  153.9593 H   0  0  0  0  0  0  0  0  0  0  0  0  # atno 10764 bound_to 10752
  153.9365  135.3072  155.3423 H   0  0  0  0  0  0  0  0  0  0  0  0  # atno 10765 bound_to 10752
  141.1210  133.8518  157.1295 H   0  0  0  0  0  0  0  0  0  0  0  0  # atno 11005 bound_to 11000
  146.3488  140.1652  142.8590 LP  0  0  0  0  0  0  0  0  0  0  0  0  # atno 17320 bound_to 7965
  145.0381  140.8924  143.5069 LP  0  0  0  0  0  0  0  0  0  0  0  0  # atno 17321 bound_to 7965
  140.0806  143.4972  152.2532 LP  0  0  0  0  0  0  0  0  0  0  0  0  # atno 17342 bound_to 10162
  139.5937  144.7559  151.3338 LP  0  0  0  0  0  0  0  0  0  0  0  0  # atno 17343 bound_to 10162
  156.1837  130.6515  151.0981 LP  0  0  0  0  0  0  0  0  0  0  0  0  # atno 17370 bound_to 10713
  157.7028  131.0769  150.6764 LP  0  0  0  0  0  0  0  0  0  0  0  0  # atno 17371 bound_to 10713
  140.0168  134.9964  157.0509 LP  0  0  0  0  0  0  0  0  0  0  0  0  # atno 17394 bound_to 11000
  140.4507  134.1586  155.7181 LP  0  0  0  0  0  0  0  0  0  0  0  0  # atno 17395 bound_to 11000

$$$$
