AV-unprocessed.smi:1868|AV-procd|sdf|7584|dock6
  -GOLD-   22720 9293D 1   1.00000     0.00000
 Structure written by MMmdl.
 47 49  0  0  0  0  0  0  0  0  2 V2000
  148.4942  137.7200  157.9812 C   0  0  0  0  0  0  0  0  0  0  0  0
  148.1410  136.8169  159.1201 C   0  0  0  0  0  0  0  0  0  0  0  0
  148.1992  137.2197  160.3892 N   0  0  0  0  0  0  0  0  0  0  0  0
  147.7899  136.0978  161.0832 C   0  0  0  0  0  0  0  0  0  0  0  0
  147.6388  135.8805  162.4713 C   0  0  0  0  0  0  0  0  0  0  0  0
  147.2029  134.6295  162.9547 C   0  0  0  0  0  0  0  0  0  0  0  0
  146.9121  133.5801  162.0593 C   0  0  0  0  0  0  0  0  0  0  0  0
  147.0554  133.7752  160.6721 C   0  0  0  0  0  0  0  0  0  0  0  0
  147.4916  135.0259  160.1946 C   0  0  0  0  0  0  0  0  0  0  0  0
  147.7418  135.5361  158.9236 N   0  0  0  0  0  0  0  0  0  0  0  0
  147.5951  134.8267  157.6601 C   0  0  0  0  0  0  0  0  0  0  0  0
  148.9458  134.5144  156.9833 C   0  0  2  0  0  0  0  0  0  0  0  0
  149.9644  134.7452  157.9350 O   0  0  0  0  0  0  0  0  0  0  0  0
  149.2307  135.3818  155.7371 C   0  0  0  0  0  0  0  0  0  0  0  0
  148.6487  134.8090  154.4970 N   0  3  2  0  0  0  0  0  0  0  0  0
  147.1637  134.8418  154.5060 C   0  0  0  0  0  0  0  0  0  0  0  0
  146.5893  134.3775  153.1571 C   0  0  0  0  0  0  0  0  0  0  0  0
  147.0898  132.9703  152.7909 C   0  0  1  0  0  0  0  0  0  0  0  0
  146.5481  132.5113  151.4299 C   0  0  0  0  0  0  0  0  0  0  0  0
  148.6273  132.9548  152.8269 C   0  0  0  0  0  0  0  0  0  0  0  0
  149.1607  133.4486  154.1822 C   0  0  0  0  0  0  0  0  0  0  0  0
  148.7464  138.7155  158.3485 H   0  0  0  0  0  0  0  0  0  0  0  0
  147.6520  137.8139  157.2954 H   0  0  0  0  0  0  0  0  0  0  0  0
  149.3540  137.3292  157.4381 H   0  0  0  0  0  0  0  0  0  0  0  0
  147.8588  136.6780  163.1656 H   0  0  0  0  0  0  0  0  0  0  0  0
  147.0906  134.4747  164.0179 H   0  0  0  0  0  0  0  0  0  0  0  0
  146.5780  132.6253  162.4384 H   0  0  0  0  0  0  0  0  0  0  0  0
  146.8333  132.9719  159.9858 H   0  0  0  0  0  0  0  0  0  0  0  0
  147.0470  133.9024  157.8481 H   0  0  0  0  0  0  0  0  0  0  0  0
  146.9637  135.4187  156.9968 H   0  0  0  0  0  0  0  0  0  0  0  0
  148.9682  133.4577  156.7227 H   0  0  0  0  0  0  0  0  0  0  0  0
  150.5128  135.4509  157.6259 H   0  0  0  0  0  0  0  0  0  0  0  0
  148.8459  136.3944  155.8623 H   0  0  0  0  0  0  0  0  0  0  0  0
  150.3123  135.4800  155.6297 H   0  0  0  0  0  0  0  0  0  0  0  0
  146.7892  134.2112  155.3141 H   0  0  0  0  0  0  0  0  0  0  0  0
  146.8185  135.8564  154.7083 H   0  0  0  0  0  0  0  0  0  0  0  0
  145.4996  134.3873  153.2004 H   0  0  0  0  0  0  0  0  0  0  0  0
  146.8731  135.0863  152.3779 H   0  0  0  0  0  0  0  0  0  0  0  0
  146.7245  132.2723  153.5460 H   0  0  0  0  0  0  0  0  0  0  0  0
  146.8769  133.1728  150.6275 H   0  0  0  0  0  0  0  0  0  0  0  0
  145.4577  132.4992  151.4252 H   0  0  0  0  0  0  0  0  0  0  0  0
  146.8895  131.5036  151.1910 H   0  0  0  0  0  0  0  0  0  0  0  0
  148.9945  131.9459  152.6351 H   0  0  0  0  0  0  0  0  0  0  0  0
  149.0241  133.5844  152.0289 H   0  0  0  0  0  0  0  0  0  0  0  0
  150.2496  133.4481  154.1530 H   0  0  0  0  0  0  0  0  0  0  0  0
  148.8682  132.7562  154.9735 H   0  0  0  0  0  0  0  0  0  0  0  0
  148.9381  135.4177  153.7444 H   0  0  0  0  0  0  0  0  0  0  0  0
  1  2  1  0  0  0  0
  1 22  1  0  0  0  0
  1 23  1  0  0  0  0
  1 24  1  0  0  0  0
  2 10  1  0  0  0  0
  2  3  2  0  0  0  0
  3  4  1  0  0  0  0
  4  9  2  0  0  0  0
  4  5  1  0  0  0  0
  5  6  2  0  0  0  0
  5 25  1  0  0  0  0
  6  7  1  0  0  0  0
  6 26  1  0  0  0  0
  7  8  2  0  0  0  0
  7 27  1  0  0  0  0
  8  9  1  0  0  0  0
  8 28  1  0  0  0  0
  9 10  1  0  0  0  0
 10 11  1  0  0  0  0
 11 12  1  0  0  0  0
 11 29  1  0  0  0  0
 11 30  1  0  0  0  0
 12 13  1  0  0  0  0
 12 14  1  0  0  0  0
 12 31  1  0  0  0  0
 13 32  1  0  0  0  0
 14 15  1  0  0  0  0
 14 33  1  0  0  0  0
 14 34  1  0  0  0  0
 15 21  1  0  0  0  0
 15 16  1  0  0  0  0
 15 47  1  0  0  0  0
 16 17  1  0  0  0  0
 16 35  1  0  0  0  0
 16 36  1  0  0  0  0
 17 18  1  0  0  0  0
 17 37  1  0  0  0  0
 17 38  1  0  0  0  0
 18 19  1  0  0  0  0
 18 20  1  0  0  0  0
 18 39  1  0  0  0  0
 19 40  1  0  0  0  0
 19 41  1  0  0  0  0
 19 42  1  0  0  0  0
 20 21  1  0  0  0  0
 20 43  1  0  0  0  0
 20 44  1  0  0  0  0
 21 45  1  0  0  0  0
 21 46  1  0  0  0  0
M  CHG  1  15   1
M  END
> <s_m_source_file>
AV-unprocessed.smi

> <i_m_source_file_index>
1868

> <i_lp_mmshare_version>
43012

> <i_f3d_flags>
0

> <s_epik_input>
W2NIXTFbY0hdW2NIXVtjSF1jKGMxMiluKGMobjIpW0NIM10pW0NIMl1bQ0BIXShbT0hdKVtDSDJdTjNbQ0gyXVtDSDJdW0NIXShbQ0gzXSlbQ0gyXVtDSDJdMw==

> <s_epik_cmdline>
J2VwaWtfcHl0aG9uJywgJy1waCcsICc3LjAnLCAnLXRuJywgJzgnLCAnLW1hJywgJzIwMCcsICctbWV0YWxfYmluZGluZycsICctaW1hZScsICc8aW5maWxlLm1hZT4nLCAnLW9tYWUnLCAnPG91dGZpbGUubWFlPic=

> <r_epik_Ionization_Penalty>
0.101157

> <r_epik_Ionization_Penalty_Charging>
0.00181365

> <r_epik_Ionization_Penalty_Neutral>
0.0993436

> <r_epik_State_Penalty>
0.0871902

> <r_epik_Charging_Adjusted_Penalty>
0.0890039

> <i_epik_Tot_Q>
1

> <i_epik_Tot_abs_Q>
1

> <r_epik_Metal_State_Penalty>
9.24346e-05

> <b_epik_Metal_Only>
0

> <s_lp_Force_Field>
OPLS_2005

> <r_lp_Energy>
22.6133

> <b_lp_Chiralities_Consistent>
1

> <s_lp_Variant>
AV-unprocessed.smi:1868-1

> <Gold.Version>
5.8.1

> <Gold.Id.Protein>
6NUR|6NUR_protein|mol2

> <Gold.PLP.Fitness>
47.3028

> <Gold.PLP.PLP>
-37.2453

> <Gold.PLP.part.hbond>
-4.0000

> <Gold.PLP.part.metal>
0.0000

> <Gold.PLP.part.buried>
-4.2158

> <Gold.PLP.part.nonpolar>
-30.5882

> <Gold.PLP.part.repulsive>
0.0000

> <Gold.PLP.ligand.clash>
0.0000

> <Gold.PLP.ligand.torsion>
1.0856

> <Gold.PLP.Chemscore.Hbond>
4.0680

> <Gold.PLP.Chemscore.CHOScore>
0.0000

> <Gold.PLP.Chemscore.Metal>
0.0000

> <Gold.Chemscore.Hbonds>
donor molecule, donor type, donor heavy atom, donor atom, acceptor molecule, acceptor atom, score
      L1  H    15    47       P1  7948  2.00
      P1  H  6896  6908       L1    13  0.88
      P1  H  6931  6943       L1     3  0.70
      P1  H  6934  6947       L1     3  0.49

> <Gold.PLP.Chemscore.Internal.Correction>
0.0247

> <Gold.Rescore>
     Score         DG    S(hbond)    S(metal)    S(lipo)     H(rot)  DE(clash)    DE(int)     intcor
     17.03     -19.35       2.69        0.00      83.70       1.92       0.00       2.32       ----

> <Gold.Chemscore.Fitness>
17.0320

> <Gold.Chemscore.DG>
-19.3520

> <Gold.Chemscore.ZeroCoef>
-5.4800

> <Gold.Chemscore.Hbond>
2.6928

> <Gold.Chemscore.Metal>
0.0000

> <Gold.Chemscore.Lipo>
83.6990

> <Gold.Chemscore.Internal_Hbond>
0.0000

> <Gold.Chemscore.DEClash>
0.0000

> <Gold.Chemscore.DEInternal>
2.3200

> <Gold.Chemscore.Rot>
1.9198

> <Gold.Chemscore.Internal.Correction>
   9.000000E+99

> <Gold.Chemscore.Hbonds>
donor molecule, donor type, donor heavy atom, donor atom, acceptor molecule, acceptor atom, score
      L1  H    15    47       P1  7948  0.73
      P1  H  6896  6908       L1    13  0.56
      P1  H  6931  6943       L1     3  0.17
      P1  H  6934  6947       L1     3  0.43

> <Gold.Chemscore.Hbond.Weighted>
-8.9939

> <Gold.Chemscore.Metal.Weighted>
-0.0000

> <Gold.Chemscore.Lipo.Weighted>
-9.7928

> <Gold.Chemscore.Internal_Hbond.Weighted>
0.0000

> <Gold.Chemscore.DEClash.Weighted>
0.0000

> <Gold.Chemscore.DEInternal.Weighted>
2.3200

> <Gold.Chemscore.Rot.Weighted>
4.9147

> <Gold.Chemscore.Internal.Correction.Weighted>
   9.000000E+99

> <Gold.Protein.RotatedTorsions>
[ 6907 6896 6895 6894 ] final  137.49 input  -60.11 | X-H torsion
[ 7974 7965 7964 7962 ] final   54.82 input  175.53 | X-H torsion
[ 8008 7997 7996 7995 ] final  -37.76 input   59.86 | X-H torsion
[ 10167 10162 10161 10158 ] final   34.72 input  -65.29 | X-H torsion
[ 10718 10713 10712 10709 ] final    9.90 input   66.30 | X-H torsion
[ 10763 10752 10751 10750 ] final -148.07 input  -60.55 | X-H torsion
[ 11005 11000 10999 10996 ] final  112.10 input  -57.11 | X-H torsion

> <Gold.Protein.ActiveResidues>
 VAL166  LYS551  ARG553  GLY616  TRP617  ASP618  TYR619  PRO620  LYS621  CYS622 
 ASP623  PHE694  ASN695  SER759  ASP760  ASP761  ALA762  ILE779  LEU786  VAL792 
 PHE793  MET794  SER795  GLU796  ALA797  LYS798  CYS799  TRP800  GLU811  SER814 

> <Gold.Protein.RotatedAtoms>
  152.2775  133.5439  159.5476 H   0  0  0  0  0  0  0  0  0  0  0  0  # atno 6907 bound_to 6896
  150.7183  134.0611  159.3840 H   0  0  0  0  0  0  0  0  0  0  0  0  # atno 6908 bound_to 6896
  151.8523  135.0553  160.0511 H   0  0  0  0  0  0  0  0  0  0  0  0  # atno 6909 bound_to 6896
  145.9569  139.4023  143.0272 H   0  0  0  0  0  0  0  0  0  0  0  0  # atno 7974 bound_to 7965
  154.4048  140.1596  156.2589 H   0  0  0  0  0  0  0  0  0  0  0  0  # atno 8008 bound_to 7997
  155.9054  140.3430  155.6035 H   0  0  0  0  0  0  0  0  0  0  0  0  # atno 8009 bound_to 7997
  155.7399  140.0791  157.2241 H   0  0  0  0  0  0  0  0  0  0  0  0  # atno 8010 bound_to 7997
  140.4289  144.1354  150.6157 H   0  0  0  0  0  0  0  0  0  0  0  0  # atno 10167 bound_to 10162
  156.9731  130.5977  149.5670 H   0  0  0  0  0  0  0  0  0  0  0  0  # atno 10718 bound_to 10713
  154.8252  135.3344  154.6917 H   0  0  0  0  0  0  0  0  0  0  0  0  # atno 10763 bound_to 10752
  153.7544  135.6937  153.4943 H   0  0  0  0  0  0  0  0  0  0  0  0  # atno 10764 bound_to 10752
  153.2154  135.4467  155.0378 H   0  0  0  0  0  0  0  0  0  0  0  0  # atno 10765 bound_to 10752
  139.8919  134.9522  156.6534 H   0  0  0  0  0  0  0  0  0  0  0  0  # atno 11005 bound_to 11000
  145.8094  140.9733  143.0957 LP  0  0  0  0  0  0  0  0  0  0  0  0  # atno 17320 bound_to 7965
  144.6807  139.9902  143.7484 LP  0  0  0  0  0  0  0  0  0  0  0  0  # atno 17321 bound_to 7965
  140.4450  143.2510  151.9423 LP  0  0  0  0  0  0  0  0  0  0  0  0  # atno 17342 bound_to 10162
  139.4784  144.5618  151.8228 LP  0  0  0  0  0  0  0  0  0  0  0  0  # atno 17343 bound_to 10162
  156.0274  130.5368  150.8445 LP  0  0  0  0  0  0  0  0  0  0  0  0  # atno 17370 bound_to 10713
  157.5579  131.0945  150.9602 LP  0  0  0  0  0  0  0  0  0  0  0  0  # atno 17371 bound_to 10713
  140.7503  133.8903  155.8342 LP  0  0  0  0  0  0  0  0  0  0  0  0  # atno 17394 bound_to 11000
  141.0006  134.1155  157.4320 LP  0  0  0  0  0  0  0  0  0  0  0  0  # atno 17395 bound_to 11000

$$$$
