#       Name:                AV-unprocessed.smi:158
#       Creating user name   scv26
#       Creation time:       Thu Mar 26 19:03:08 2020


#       File generated by GOLD software.
#

@<TRIPOS>MOLECULE
AV-unprocessed.smi:158
    40    42     1
SMALL
NO_CHARGES


@<TRIPOS>ATOM
      1 ****        -5.0779   0.5637   0.3429 N.pl3          1 S1                 0.0000
      2 ****        -3.7537   0.7705   0.3578 C.ar           1 S1                 0.0000
      3 ****        -3.2997   2.0389   0.2356 N.ar           1 S1                 0.0000
      4 ****        -1.9852   2.2880   0.2447 C.ar           1 S1                 0.0000
      5 ****        -1.5149   3.9387   0.0825 Cl             1 S1                 0.0000
      6 ****        -0.9938   1.3995   0.3635 N.ar           1 S1                 0.0000
      7 ****        -1.4426   0.1163   0.4875 C.ar           1 S1                 0.0000
      8 ****        -2.8091  -0.2761   0.4945 C.ar           1 S1                 0.0000
      9 ****        -2.9082  -1.6520   0.6399 N.2            1 S1                 0.0000
     10 ****        -1.6665  -2.0478   0.7134 C.2            1 S1                 0.0000
     11 ****        -0.7154  -1.0542   0.6243 N.pl3          1 S1                 0.0000
     12 ****         0.7746  -1.2451   0.6723 C.3            1 S1                 0.0000
     13 ****         1.3944  -0.0319   0.9936 O.3            1 S1                 0.0000
     14 ****         2.0592   0.5406  -0.1409 C.3            1 S1                 0.0000
     15 ****         3.5773   0.4541   0.1239 C.3            1 S1                 0.0000
     16 ****         3.9780   1.5154   0.9638 O.3            1 S1                 0.0000
     17 ****         1.5490  -0.2954  -1.3280 C.3            1 S1                 0.0000
     18 ****         2.4005  -0.3592  -2.4554 O.3            1 S1                 0.0000
     19 ****         1.2884  -1.6535  -0.7076 C.3            1 S1                 0.0000
     20 ****         2.4147  -2.3499  -0.5410 F              1 S1                 0.0000
     21 ****         0.9243  -1.9969   1.4479 H              1 S1                 0.0000
     22 ****         1.7671   1.5831  -0.2755 H              1 S1                 0.0000
     23 ****         0.5981   0.1192  -1.6651 H              1 S1                 0.0000
     24 ****         0.5768  -2.2746  -1.2531 H              1 S1                 0.0000
     25 ****        -5.4410  -0.3744   0.4319 H              1 S1                 0.0000
     26 ****        -5.7099   1.3448   0.2431 H              1 S1                 0.0000
     27 ****        -1.4054  -3.0895   0.8315 H              1 S1                 0.0000
     28 ****         3.8581  -0.5005   0.5689 H              1 S1                 0.0000
     29 ****         4.1437   0.5589  -0.8011 H              1 S1                 0.0000
     30 ****         4.9106   1.4531   1.1028 H              1 S1                 0.0000
     31 ****         2.5095   0.5148  -2.7983 H              1 S1                 0.0000
     32 ****        -3.9490   2.7932   0.1381 LP             1 S1                 0.0000
     33 ****        -0.0253   1.6486   0.3617 LP             1 S1                 0.0000
     34 ****        -3.7371  -2.2101   0.6792 LP             1 S1                 0.0000
     35 ****         2.0667  -0.1927   1.7161 LP             1 S1                 0.0000
     36 ****         0.7007   0.6099   1.3207 LP             1 S1                 0.0000
     37 ****         3.5013   1.4500   1.8405 LP             1 S1                 0.0000
     38 ****         3.7594   2.3896   0.5300 LP             1 S1                 0.0000
     39 ****         1.9922  -0.9471  -3.1537 LP             1 S1                 0.0000
     40 ****         3.2896  -0.7293  -2.1862 LP             1 S1                 0.0000
@<TRIPOS>BOND
    1    1    2 1     
    2    1   25 1     
    3    1   26 1     
    4    2    8 ar    
    5    2    3 ar    
    6    3    4 ar    
    7    4    5 1     
    8    4    6 ar    
    9    6    7 ar    
   10    7   11 1     
   11    7    8 ar    
   12    8    9 1     
   13    9   10 2     
   14   10   11 1     
   15   10   27 1     
   16   11   12 1     
   17   12   21 1     
   18   12   19 1     
   19   12   13 1     
   20   13   14 1     
   21   14   22 1     
   22   14   15 1     
   23   14   17 1     
   24   15   16 1     
   25   15   28 1     
   26   15   29 1     
   27   16   30 1     
   28   17   23 1     
   29   17   18 1     
   30   17   19 1     
   31   18   31 1     
   32   19   24 1     
   33   19   20 1     
   34    3   32 1     
   35    6   33 1     
   36    9   34 1     
   37   13   35 1     
   38   13   36 1     
   39   16   37 1     
   40   16   38 1     
   41   18   39 1     
   42   18   40 1     
@<TRIPOS>SUBSTRUCTURE
      1 S1             1
@<TRIPOS>SET
LONE_PAIRS      STATIC     ATOMS    <user>   **** ""
9 32 33 34 35 36 37 38 39 40
DONOR_HYDROGENS      STATIC     ATOMS    <user>   **** ""
4 25 26 30 31
ATOM$BLUE        STATIC     ATOMS    COLORGROUP SYSTEM
9 32 33 34 35 36 37 38 39 40
ATOM$RED        STATIC     ATOMS    COLORGROUP SYSTEM
4 25 26 30 31
