#       Name:                AV-unprocessed.smi:1911
#       Creating user name   scv26
#       Creation time:       Fri Mar 27 09:48:09 2020


#       File generated by GOLD software.
#

@<TRIPOS>MOLECULE
AV-unprocessed.smi:1911
    57    59     1
SMALL
NO_CHARGES


@<TRIPOS>ATOM
      1 ****        -6.0938  -5.0751   2.0627 N.am           1 S1                 0.0000
      2 ****        -6.7720  -4.0654   1.5110 C.2            1 S1                 0.0000
      3 ****        -7.7303  -3.5347   2.0678 O.2            1 S1                 0.0000
      4 ****        -6.3140  -3.5881   0.1275 C.3            1 S1                 0.0000
      5 ****        -4.8871  -3.1973   0.0439 N.3            1 S1                 0.0000
      6 ****        -4.5633  -2.0618   0.9206 C.3            1 S1                 0.0000
      7 ****        -3.0597  -1.7406   0.8552 C.3            1 S1                 0.0000
      8 ****        -2.6159  -1.4331  -0.5846 C.3            1 S1                 0.0000
      9 ****        -1.1679  -1.2631  -0.6600 N.am           1 S1                 0.0000
     10 ****        -0.5055  -0.1382  -0.3559 C.2            1 S1                 0.0000
     11 ****        -1.0581   0.8952   0.0199 O.2            1 S1                 0.0000
     12 ****         0.8183  -0.2908  -0.5321 N.am           1 S1                 0.0000
     13 ****         1.8556   0.6525  -0.3021 C.ar           1 S1                 0.0000
     14 ****         1.7391   1.7647   0.5676 C.ar           1 S1                 0.0000
     15 ****         2.8378   2.6321   0.7383 C.ar           1 S1                 0.0000
     16 ****         4.0463   2.3819   0.0461 C.ar           1 S1                 0.0000
     17 ****         5.1845   3.2006   0.1737 N.pl3          1 S1                 0.0000
     18 ****         6.2839   3.1429  -0.7812 C.3            1 S1                 0.0000
     19 ****         6.9195   4.5375  -0.7607 C.3            1 S1                 0.0000
     20 ****         6.4987   5.1175   0.5896 C.3            1 S1                 0.0000
     21 ****         5.1188   4.5018   0.8180 C.3            1 S1                 0.0000
     22 ****         4.1152   1.2957  -0.7600 N.pl3          1 S1                 1.0000
     23 ****         3.0884   0.4399  -0.9516 C.ar           1 S1                 0.0000
     24 ****        -3.0542  -2.5867  -1.4973 C.3            1 S1                 0.0000
     25 ****        -4.5588  -2.8709  -1.3477 C.3            1 S1                 0.0000
     26 ****        -6.3545  -5.4158   2.9765 H              1 S1                 0.0000
     27 ****        -5.3169  -5.4869   1.5664 H              1 S1                 0.0000
     28 ****        -6.5102  -4.4009  -0.5735 H              1 S1                 0.0000
     29 ****        -6.9429  -2.7522  -0.1849 H              1 S1                 0.0000
     30 ****        -5.1500  -1.1866   0.6357 H              1 S1                 0.0000
     31 ****        -4.8148  -2.2842   1.9573 H              1 S1                 0.0000
     32 ****        -2.8395  -0.8936   1.5059 H              1 S1                 0.0000
     33 ****        -2.4927  -2.5862   1.2478 H              1 S1                 0.0000
     34 ****        -3.1067  -0.5189  -0.9245 H              1 S1                 0.0000
     35 ****        -0.6339  -2.0638  -0.9647 H              1 S1                 0.0000
     36 ****         1.1135  -1.1724  -0.9258 H              1 S1                 0.0000
     37 ****         0.8348   1.9635   1.1212 H              1 S1                 0.0000
     38 ****         2.7391   3.4751   1.4057 H              1 S1                 0.0000
     39 ****         6.9977   2.3886  -0.4488 H              1 S1                 0.0000
     40 ****         5.9519   2.8804  -1.7862 H              1 S1                 0.0000
     41 ****         8.0012   4.5116  -0.8954 H              1 S1                 0.0000
     42 ****         6.4971   5.1435  -1.5634 H              1 S1                 0.0000
     43 ****         7.1877   4.7799   1.3653 H              1 S1                 0.0000
     44 ****         6.4847   6.2076   0.6017 H              1 S1                 0.0000
     45 ****         4.3444   5.1049   0.3421 H              1 S1                 0.0000
     46 ****         4.8896   4.4161   1.8805 H              1 S1                 0.0000
     47 ****         3.2848  -0.3846  -1.6218 H              1 S1                 0.0000
     48 ****        -2.8266  -2.3474  -2.5368 H              1 S1                 0.0000
     49 ****        -2.4905  -3.4898  -1.2570 H              1 S1                 0.0000
     50 ****        -4.8236  -3.7072  -1.9962 H              1 S1                 0.0000
     51 ****        -5.1416  -2.0116  -1.6848 H              1 S1                 0.0000
     52 ****         4.9916   1.1123  -1.2488 H              1 S1                 0.0000
     53 ****        -8.0276  -3.8568   2.9665 LP             1 S1                 0.0000
     54 ****        -8.2128  -2.7806   1.6221 LP             1 S1                 0.0000
     55 ****        -4.3374  -3.9715   0.3577 LP             1 S1                 0.0000
     56 ****        -2.0534   0.9249   0.1120 LP             1 S1                 0.0000
     57 ****        -0.5118   1.7053   0.2331 LP             1 S1                 0.0000
@<TRIPOS>BOND
    1    1    2 am    
    2    1   26 1     
    3    1   27 1     
    4    2    3 2     
    5    2    4 1     
    6    4    5 1     
    7    4   28 1     
    8    4   29 1     
    9    5   25 1     
   10    5    6 1     
   11    6    7 1     
   12    6   30 1     
   13    6   31 1     
   14    7    8 1     
   15    7   32 1     
   16    7   33 1     
   17    8    9 1     
   18    8   24 1     
   19    8   34 1     
   20    9   10 am    
   21    9   35 1     
   22   10   11 2     
   23   10   12 am    
   24   12   13 1     
   25   12   36 1     
   26   13   23 ar    
   27   13   14 ar    
   28   14   15 ar    
   29   14   37 1     
   30   15   16 ar    
   31   15   38 1     
   32   16   17 1     
   33   16   22 ar    
   34   17   21 1     
   35   17   18 1     
   36   18   19 1     
   37   18   39 1     
   38   18   40 1     
   39   19   20 1     
   40   19   41 1     
   41   19   42 1     
   42   20   21 1     
   43   20   43 1     
   44   20   44 1     
   45   21   45 1     
   46   21   46 1     
   47   22   23 ar    
   48   22   52 1     
   49   23   47 1     
   50   24   25 1     
   51   24   48 1     
   52   24   49 1     
   53   25   50 1     
   54   25   51 1     
   55    3   53 1     
   56    3   54 1     
   57    5   55 1     
   58   11   56 1     
   59   11   57 1     
@<TRIPOS>SUBSTRUCTURE
      1 S1             1
@<TRIPOS>SET
LONE_PAIRS      STATIC     ATOMS    <user>   **** ""
5 53 54 55 56 57
DONOR_HYDROGENS      STATIC     ATOMS    <user>   **** ""
5 26 27 35 36 52
ATOM$BLUE        STATIC     ATOMS    COLORGROUP SYSTEM
5 53 54 55 56 57
ATOM$RED        STATIC     ATOMS    COLORGROUP SYSTEM
5 26 27 35 36 52
