AV-unprocessed.smi:1189|AV-procd|sdf|4978|dock7
  -GOLD-   22720 3573D 1   1.00000     0.00000
 Structure written by MMmdl.
 33 34  0  0  0  0  0  0  0  0  1 V2000
  151.4995  140.2111  155.3338 O   0  0  0  0  0  0  0  0  0  0  0  0
  151.0764  140.4928  156.4562 C   0  0  0  0  0  0  0  0  0  0  0  0
  151.7468  139.9430  157.7217 C   0  0  0  0  0  0  0  0  0  0  0  0
  152.1571  140.9856  158.6484 N   0  0  0  0  0  0  0  0  0  0  0  0
  152.8881  140.8605  159.8104 C   0  0  0  0  0  0  0  0  0  0  0  0
  153.0214  142.1106  160.3422 C   0  0  0  0  0  0  0  0  0  0  0  0
  152.3281  142.9537  159.4255 C   0  0  0  0  0  0  0  0  0  0  0  0
  152.1371  144.4464  159.4906 C   0  0  0  0  0  0  0  0  0  0  0  0
  150.8389  144.7481  159.4649 F   0  0  0  0  0  0  0  0  0  0  0  0
  152.6665  144.9239  160.6169 F   0  0  0  0  0  0  0  0  0  0  0  0
  152.7324  145.0280  158.4492 F   0  0  0  0  0  0  0  0  0  0  0  0
  151.8138  142.2701  158.4115 N   0  0  0  0  0  0  0  0  0  0  0  0
  150.0116  141.2830  156.6605 N   0  0  0  0  0  0  0  0  0  0  0  0
  149.2191  141.9141  155.6105 C   0  0  0  0  0  0  0  0  0  0  0  0
  148.4170  140.8839  154.7928 C   0  0  2  0  0  0  0  0  0  0  0  0
  147.1810  141.4366  154.1101 C   0  0  0  0  0  0  0  0  0  0  0  0
  146.3892  140.1642  153.8305 C   0  0  0  0  0  0  0  0  0  0  0  0
  146.6733  139.2921  154.9196 O   0  0  0  0  0  0  0  0  0  0  0  0
  147.8163  139.7563  155.6339 C   0  0  0  0  0  0  0  0  0  0  0  0
  151.0653  139.2599  158.2315 H   0  0  0  0  0  0  0  0  0  0  0  0
  152.6279  139.3662  157.4387 H   0  0  0  0  0  0  0  0  0  0  0  0
  153.2494  139.9033  160.1568 H   0  0  0  0  0  0  0  0  0  0  0  0
  153.5372  142.3832  161.2509 H   0  0  0  0  0  0  0  0  0  0  0  0
  149.7303  141.4623  157.6137 H   0  0  0  0  0  0  0  0  0  0  0  0
  148.5473  142.6562  156.0451 H   0  0  0  0  0  0  0  0  0  0  0  0
  149.9006  142.4619  154.9589 H   0  0  0  0  0  0  0  0  0  0  0  0
  149.0617  140.4383  154.0328 H   0  0  0  0  0  0  0  0  0  0  0  0
  146.6245  142.0831  154.7904 H   0  0  0  0  0  0  0  0  0  0  0  0
  147.4060  142.0020  153.2053 H   0  0  0  0  0  0  0  0  0  0  0  0
  145.3190  140.3486  153.7334 H   0  0  0  0  0  0  0  0  0  0  0  0
  146.7385  139.6950  152.9100 H   0  0  0  0  0  0  0  0  0  0  0  0
  148.5271  138.9489  155.8117 H   0  0  0  0  0  0  0  0  0  0  0  0
  147.4823  140.1292  156.6031 H   0  0  0  0  0  0  0  0  0  0  0  0
  1  2  2  0  0  0  0
  2  3  1  0  0  0  0
  2 13  1  0  0  0  0
  3  4  1  0  0  0  0
  3 20  1  0  0  0  0
  3 21  1  0  0  0  0
  4 12  1  0  0  0  0
  4  5  1  0  0  0  0
  5  6  2  0  0  0  0
  5 22  1  0  0  0  0
  6  7  1  0  0  0  0
  6 23  1  0  0  0  0
  7  8  1  0  0  0  0
  7 12  2  0  0  0  0
  8  9  1  0  0  0  0
  8 10  1  0  0  0  0
  8 11  1  0  0  0  0
 13 14  1  0  0  0  0
 13 24  1  0  0  0  0
 14 15  1  0  0  0  0
 14 25  1  0  0  0  0
 14 26  1  0  0  0  0
 15 19  1  0  0  0  0
 15 16  1  0  0  0  0
 15 27  1  0  0  0  0
 16 17  1  0  0  0  0
 16 28  1  0  0  0  0
 16 29  1  0  0  0  0
 17 18  1  0  0  0  0
 17 30  1  0  0  0  0
 17 31  1  0  0  0  0
 18 19  1  0  0  0  0
 19 32  1  0  0  0  0
 19 33  1  0  0  0  0
M  END
> <s_m_source_file>
AV-unprocessed.smi

> <i_m_source_file_index>
1189

> <i_lp_mmshare_version>
43012

> <i_f3d_flags>
0

> <s_epik_input>
W0NIMl0xT1tDSDJdW0NIMl1bQ0BIXTFbQ0gyXVtOSF1DKD1PKVtDSDJdbjJbY0hdW2NIXWMobjIpQyhGKShGKUY=

> <s_epik_cmdline>
J2VwaWtfcHl0aG9uJywgJy1waCcsICc3LjAnLCAnLXRuJywgJzgnLCAnLW1hJywgJzIwMCcsICctbWV0YWxfYmluZGluZycsICctaW1hZScsICc8aW5maWxlLm1hZT4nLCAnLW9tYWUnLCAnPG91dGZpbGUubWFlPic=

> <r_lp_tautomer_probability>
1

> <r_epik_Ionization_Penalty>
1.26564e-07

> <r_epik_Ionization_Penalty_Charging>
0

> <r_epik_Ionization_Penalty_Neutral>
1.26564e-07

> <r_epik_State_Penalty>
-0

> <r_epik_Charging_Adjusted_Penalty>
0

> <i_epik_Tot_Q>
0

> <i_epik_Tot_abs_Q>
0

> <r_epik_Metal_State_Penalty>
-0

> <b_epik_Metal_Only>
0

> <s_lp_Force_Field>
OPLS_2005

> <r_lp_Energy>
21.601

> <b_lp_Chiralities_Consistent>
1

> <s_lp_Variant>
AV-unprocessed.smi:1189-1

> <Gold.Version>
5.8.1

> <Gold.Id.Protein>
6NUR|6NUR_protein|mol2

> <Gold.PLP.Fitness>
44.9936

> <Gold.PLP.PLP>
-43.2038

> <Gold.PLP.part.hbond>
-1.0000

> <Gold.PLP.part.metal>
0.0000

> <Gold.PLP.part.buried>
-4.9295

> <Gold.PLP.part.nonpolar>
-37.4878

> <Gold.PLP.part.repulsive>
0.2292

> <Gold.PLP.ligand.clash>
0.0000

> <Gold.PLP.ligand.torsion>
0.3609

> <Gold.PLP.Chemscore.Hbond>
0.8320

> <Gold.PLP.Chemscore.CHOScore>
0.0000

> <Gold.PLP.Chemscore.Metal>
0.0000

> <Gold.Chemscore.Hbonds>
donor molecule, donor type, donor heavy atom, donor atom, acceptor molecule, acceptor atom, score
      P1  H  7989  7998       L1     1  0.96

> <Gold.PLP.Chemscore.Internal.Correction>
0.0156

> <Gold.Rescore>
     Score         DG    S(hbond)    S(metal)    S(lipo)     H(rot)  DE(clash)    DE(int)     intcor
     11.48     -11.76       0.76        0.00      73.44       1.89       0.07       0.21       ----

> <Gold.Chemscore.Fitness>
11.4827

> <Gold.Chemscore.DG>
-11.7633

> <Gold.Chemscore.ZeroCoef>
-5.4800

> <Gold.Chemscore.Hbond>
0.7593

> <Gold.Chemscore.Metal>
0.0000

> <Gold.Chemscore.Lipo>
73.4411

> <Gold.Chemscore.Internal_Hbond>
0.0000

> <Gold.Chemscore.DEClash>
0.0728

> <Gold.Chemscore.DEInternal>
0.2078

> <Gold.Chemscore.Rot>
1.8928

> <Gold.Chemscore.Internal.Correction>
   9.000000E+99

> <Gold.Chemscore.Hbonds>
donor molecule, donor type, donor heavy atom, donor atom, acceptor molecule, acceptor atom, score
      P1  H  7989  7998       L1     1  0.91

> <Gold.Chemscore.Hbond.Weighted>
-2.5361

> <Gold.Chemscore.Metal.Weighted>
-0.0000

> <Gold.Chemscore.Lipo.Weighted>
-8.5926

> <Gold.Chemscore.Internal_Hbond.Weighted>
0.0000

> <Gold.Chemscore.DEClash.Weighted>
0.0728

> <Gold.Chemscore.DEInternal.Weighted>
0.2078

> <Gold.Chemscore.Rot.Weighted>
4.8455

> <Gold.Chemscore.Internal.Correction.Weighted>
   9.000000E+99

> <Gold.Protein.RotatedTorsions>
[ 6907 6896 6895 6894 ] final  175.08 input  -60.11 | X-H torsion
[ 7974 7965 7964 7962 ] final -172.07 input  175.53 | X-H torsion
[ 8008 7997 7996 7995 ] final   81.05 input   59.86 | X-H torsion
[ 10167 10162 10161 10158 ] final   56.88 input  -65.29 | X-H torsion
[ 10718 10713 10712 10709 ] final -166.63 input   66.30 | X-H torsion
[ 10763 10752 10751 10750 ] final -133.68 input  -60.55 | X-H torsion
[ 11005 11000 10999 10996 ] final   37.94 input  -57.11 | X-H torsion

> <Gold.Protein.ActiveResidues>
 VAL166  LYS551  ARG553  GLY616  TRP617  ASP618  TYR619  PRO620  LYS621  CYS622 
 ASP623  PHE694  ASN695  SER759  ASP760  ASP761  ALA762  ILE779  LEU786  VAL792 
 PHE793  MET794  SER795  GLU796  ALA797  LYS798  CYS799  TRP800  GLU811  SER814 

> <Gold.Protein.RotatedAtoms>
  151.7420  133.3322  159.3368 H   0  0  0  0  0  0  0  0  0  0  0  0  # atno 6907 bound_to 6896
  150.7569  134.6269  159.6175 H   0  0  0  0  0  0  0  0  0  0  0  0  # atno 6908 bound_to 6896
  152.3524  134.6989  160.0284 H   0  0  0  0  0  0  0  0  0  0  0  0  # atno 6909 bound_to 6896
  144.7150  140.1828  143.6356 H   0  0  0  0  0  0  0  0  0  0  0  0  # atno 7974 bound_to 7965
  155.8918  140.3438  155.5962 H   0  0  0  0  0  0  0  0  0  0  0  0  # atno 8008 bound_to 7997
  155.7601  140.0831  157.2178 H   0  0  0  0  0  0  0  0  0  0  0  0  # atno 8009 bound_to 7997
  154.4034  140.1537  156.2810 H   0  0  0  0  0  0  0  0  0  0  0  0  # atno 8010 bound_to 7997
  140.2039  144.3959  150.6517 H   0  0  0  0  0  0  0  0  0  0  0  0  # atno 10167 bound_to 10162
  156.6706  130.9082  151.3043 H   0  0  0  0  0  0  0  0  0  0  0  0  # atno 10718 bound_to 10713
  154.8729  135.3758  154.4612 H   0  0  0  0  0  0  0  0  0  0  0  0  # atno 10763 bound_to 10752
  153.5280  135.7028  153.5703 H   0  0  0  0  0  0  0  0  0  0  0  0  # atno 10764 bound_to 10752
  153.3920  135.3970  155.1895 H   0  0  0  0  0  0  0  0  0  0  0  0  # atno 10765 bound_to 10752
  140.2175  134.3680  155.8020 H   0  0  0  0  0  0  0  0  0  0  0  0  # atno 11005 bound_to 11000
  145.8841  139.2339  143.1588 LP  0  0  0  0  0  0  0  0  0  0  0  0  # atno 17320 bound_to 7965
  145.9967  140.8556  143.0039 LP  0  0  0  0  0  0  0  0  0  0  0  0  # atno 17321 bound_to 7965
  140.6371  143.2197  151.6371 LP  0  0  0  0  0  0  0  0  0  0  0  0  # atno 17342 bound_to 10162
  139.5206  144.3218  152.0904 LP  0  0  0  0  0  0  0  0  0  0  0  0  # atno 17343 bound_to 10162
  157.7078  130.9405  150.0989 LP  0  0  0  0  0  0  0  0  0  0  0  0  # atno 17370 bound_to 10713
  156.1941  130.3656  149.8871 LP  0  0  0  0  0  0  0  0  0  0  0  0  # atno 17371 bound_to 10713
  141.2224  133.7176  156.8521 LP  0  0  0  0  0  0  0  0  0  0  0  0  # atno 17394 bound_to 11000
  140.1884  134.8983  157.3032 LP  0  0  0  0  0  0  0  0  0  0  0  0  # atno 17395 bound_to 11000

$$$$
