AV-unprocessed.smi:990|AV-procd|sdf|4327|dock1
  -GOLD-   22720 2233D 1   1.00000     0.00000
 Structure written by MMmdl.
 45 46  0  0  0  0  0  0  0  0  2 V2000
  152.8558  144.7880  158.1460 C   0  0  0  0  0  0  0  0  0  0  0  0
  151.6176  144.5201  158.5870 C   0  0  0  0  0  0  0  0  0  0  0  0
  150.9982  143.1363  158.6185 C   0  0  0  0  0  0  0  0  0  0  0  0
  149.8118  143.0601  157.7740 N   0  0  0  0  0  0  0  0  0  0  0  0
  148.8828  142.0952  157.8353 C   0  0  0  0  0  0  0  0  0  0  0  0
  148.9400  141.1473  158.6186 O   0  0  0  0  0  0  0  0  0  0  0  0
  147.9094  142.2951  156.9294 N   0  0  0  0  0  0  0  0  0  0  0  0
  146.7475  141.5109  156.6947 C   0  0  0  0  0  0  0  0  0  0  0  0
  146.0596  140.7919  157.7044 C   0  0  0  0  0  0  0  0  0  0  0  0
  144.9077  140.0520  157.3680 C   0  0  0  0  0  0  0  0  0  0  0  0
  144.4509  140.0455  156.0301 C   0  0  0  0  0  0  0  0  0  0  0  0
  143.3228  139.3329  155.6018 N   0  0  0  0  0  0  0  0  0  0  0  0
  142.0740  139.8649  156.1318 C   0  0  0  0  0  0  0  0  0  0  0  0
  140.8646  139.1504  155.5041 C   0  0  0  0  0  0  0  0  0  0  0  0
  140.9690  137.6867  155.6696 N   0  0  0  0  0  0  0  0  0  0  0  0
  139.5460  136.7417  155.3725 S   0  0  0  0  0  0  0  0  0  0  0  0
  138.5590  137.8102  154.2450 C   0  0  0  0  0  0  0  0  0  0  0  0
  139.9512  135.5476  154.6154 O   0  0  0  0  0  0  0  0  0  0  0  0
  138.8312  136.5951  156.6495 O   0  0  0  0  0  0  0  0  0  0  0  0
  142.2602  137.1432  155.2034 C   0  0  0  0  0  0  0  0  0  0  0  0
  143.4405  137.8998  155.8370 C   0  0  0  0  0  0  0  0  0  0  0  0
  145.1255  140.7575  155.1012 N   0  3  0  0  0  0  0  0  0  0  0  0
  146.2319  141.4800  155.3818 C   0  0  0  0  0  0  0  0  0  0  0  0
  153.5007  144.0064  157.7721 H   0  0  0  0  0  0  0  0  0  0  0  0
  153.2405  145.7971  158.1540 H   0  0  0  0  0  0  0  0  0  0  0  0
  151.0056  145.3297  158.9578 H   0  0  0  0  0  0  0  0  0  0  0  0
  151.7208  142.3955  158.2749 H   0  0  0  0  0  0  0  0  0  0  0  0
  150.7485  142.8786  159.6490 H   0  0  0  0  0  0  0  0  0  0  0  0
  149.6901  143.7989  157.0965 H   0  0  0  0  0  0  0  0  0  0  0  0
  148.0442  143.0716  156.2985 H   0  0  0  0  0  0  0  0  0  0  0  0
  146.3841  140.8011  158.7333 H   0  0  0  0  0  0  0  0  0  0  0  0
  144.3844  139.4991  158.1343 H   0  0  0  0  0  0  0  0  0  0  0  0
  142.0495  139.7419  157.2156 H   0  0  0  0  0  0  0  0  0  0  0  0
  142.0159  140.9355  155.9312 H   0  0  0  0  0  0  0  0  0  0  0  0
  139.9503  139.5137  155.9726 H   0  0  0  0  0  0  0  0  0  0  0  0
  140.7920  139.3828  154.4406 H   0  0  0  0  0  0  0  0  0  0  0  0
  137.6684  137.2687  153.9266 H   0  0  0  0  0  0  0  0  0  0  0  0
  139.1556  138.0660  153.3697 H   0  0  0  0  0  0  0  0  0  0  0  0
  138.2542  138.7201  154.7596 H   0  0  0  0  0  0  0  0  0  0  0  0
  142.3309  136.0854  155.4522 H   0  0  0  0  0  0  0  0  0  0  0  0
  142.3035  137.2159  154.1156 H   0  0  0  0  0  0  0  0  0  0  0  0
  144.3798  137.5350  155.4191 H   0  0  0  0  0  0  0  0  0  0  0  0
  143.4705  137.7025  156.9097 H   0  0  0  0  0  0  0  0  0  0  0  0
  146.6739  142.0032  154.5458 H   0  0  0  0  0  0  0  0  0  0  0  0
  144.7831  140.7489  154.1399 H   0  0  0  0  0  0  0  0  0  0  0  0
  1  2  2  0  0  0  0
  1 24  1  0  0  0  0
  1 25  1  0  0  0  0
  2  3  1  0  0  0  0
  2 26  1  0  0  0  0
  3  4  1  0  0  0  0
  3 27  1  0  0  0  0
  3 28  1  0  0  0  0
  4  5  1  0  0  0  0
  4 29  1  0  0  0  0
  5  6  2  0  0  0  0
  5  7  1  0  0  0  0
  7  8  1  0  0  0  0
  7 30  1  0  0  0  0
  8 23  1  0  0  0  0
  8  9  2  0  0  0  0
  9 10  1  0  0  0  0
  9 31  1  0  0  0  0
 10 11  2  0  0  0  0
 10 32  1  0  0  0  0
 11 12  1  0  0  0  0
 11 22  1  0  0  0  0
 12 21  1  0  0  0  0
 12 13  1  0  0  0  0
 13 14  1  0  0  0  0
 13 33  1  0  0  0  0
 13 34  1  0  0  0  0
 14 15  1  0  0  0  0
 14 35  1  0  0  0  0
 14 36  1  0  0  0  0
 15 16  1  0  0  0  0
 15 20  1  0  0  0  0
 16 17  1  0  0  0  0
 16 18  2  0  0  0  0
 16 19  2  0  0  0  0
 17 37  1  0  0  0  0
 17 38  1  0  0  0  0
 17 39  1  0  0  0  0
 20 21  1  0  0  0  0
 20 40  1  0  0  0  0
 20 41  1  0  0  0  0
 21 42  1  0  0  0  0
 21 43  1  0  0  0  0
 22 23  2  0  0  0  0
 22 45  1  0  0  0  0
 23 44  1  0  0  0  0
M  CHG  1  22   1
M  END
> <s_m_source_file>
AV-unprocessed.smi

> <i_m_source_file_index>
990

> <i_lp_mmshare_version>
43012

> <i_f3d_flags>
0

> <s_epik_input>
W0NIMl09W0NIXVtDSDJdW05IXUMoPU8pW05IXWMxW2NIXVtjSF1jKG5bY0hdMSlOMltDSDJdW0NIMl1OKFMoPU8pKD1PKVtDSDNdKVtDSDJdW0NIMl0y

> <s_epik_cmdline>
J2VwaWtfcHl0aG9uJywgJy1waCcsICc3LjAnLCAnLXRuJywgJzgnLCAnLW1hJywgJzIwMCcsICctbWV0YWxfYmluZGluZycsICctaW1hZScsICc8aW5maWxlLm1hZT4nLCAnLW9tYWUnLCAnPG91dGZpbGUubWFlPic=

> <r_lp_tautomer_probability>
0.999994

> <r_epik_Ionization_Penalty>
0.881759

> <r_epik_Ionization_Penalty_Charging>
0.881739

> <r_epik_Ionization_Penalty_Neutral>
2.00436e-05

> <r_epik_State_Penalty>
0.920006

> <r_epik_Charging_Adjusted_Penalty>
1.80175

> <i_epik_Tot_Q>
1

> <i_epik_Tot_abs_Q>
1

> <r_epik_Metal_State_Penalty>
1.04263

> <b_epik_Metal_Only>
0

> <s_lp_Force_Field>
OPLS_2005

> <r_lp_Energy>
28.5026

> <b_lp_Chiralities_Consistent>
1

> <s_lp_Variant>
AV-unprocessed.smi:990-2

> <Gold.Version>
5.8.1

> <Gold.Id.Protein>
6NUR|6NUR_protein|mol2

> <Gold.PLP.Fitness>
42.3752

> <Gold.PLP.PLP>
-28.4417

> <Gold.PLP.part.hbond>
-4.8658

> <Gold.PLP.part.metal>
0.0000

> <Gold.PLP.part.buried>
-5.6111

> <Gold.PLP.part.nonpolar>
-19.3906

> <Gold.PLP.part.repulsive>
2.0403

> <Gold.PLP.ligand.clash>
0.0000

> <Gold.PLP.ligand.torsion>
0.8947

> <Gold.PLP.Chemscore.Hbond>
5.0000

> <Gold.PLP.Chemscore.CHOScore>
0.0000

> <Gold.PLP.Chemscore.Metal>
0.0000

> <Gold.Chemscore.Hbonds>
donor molecule, donor type, donor heavy atom, donor atom, acceptor molecule, acceptor atom, score
      L1  H     4    29       P1  8028  1.00
      L1  H     7    30       P1  8028  1.00
      L1  H    22    45       P1 10175  2.00

> <Gold.PLP.Chemscore.Internal.Correction>
0.7228

> <Gold.Rescore>
     Score         DG    S(hbond)    S(metal)    S(lipo)     H(rot)  DE(clash)    DE(int)     intcor
     14.83     -17.64       2.91        0.00      59.76       1.77       1.16       1.65       ----

> <Gold.Chemscore.Fitness>
14.8271

> <Gold.Chemscore.DG>
-17.6421

> <Gold.Chemscore.ZeroCoef>
-5.4800

> <Gold.Chemscore.Hbond>
2.9064

> <Gold.Chemscore.Metal>
0.0000

> <Gold.Chemscore.Lipo>
59.7593

> <Gold.Chemscore.Internal_Hbond>
0.0000

> <Gold.Chemscore.DEClash>
1.1640

> <Gold.Chemscore.DEInternal>
1.6510

> <Gold.Chemscore.Rot>
1.7723

> <Gold.Chemscore.Internal.Correction>
   9.000000E+99

> <Gold.Chemscore.Hbonds>
donor molecule, donor type, donor heavy atom, donor atom, acceptor molecule, acceptor atom, score
      L1  H     4    29       P1  8028  0.85
      L1  H     7    30       P1  8028  0.44
      L1  H    22    45       P1 10175  0.94

> <Gold.Chemscore.Hbond.Weighted>
-9.7074

> <Gold.Chemscore.Metal.Weighted>
-0.0000

> <Gold.Chemscore.Lipo.Weighted>
-6.9918

> <Gold.Chemscore.Internal_Hbond.Weighted>
0.0000

> <Gold.Chemscore.DEClash.Weighted>
1.1640

> <Gold.Chemscore.DEInternal.Weighted>
1.6510

> <Gold.Chemscore.Rot.Weighted>
4.5371

> <Gold.Chemscore.Internal.Correction.Weighted>
   9.000000E+99

> <Gold.Protein.RotatedTorsions>
[ 6907 6896 6895 6894 ] final  -79.23 input  -60.11 | X-H torsion
[ 7974 7965 7964 7962 ] final  -59.57 input  175.53 | X-H torsion
[ 8008 7997 7996 7995 ] final -127.59 input   59.86 | X-H torsion
[ 10167 10162 10161 10158 ] final   26.76 input  -65.29 | X-H torsion
[ 10718 10713 10712 10709 ] final  174.26 input   66.30 | X-H torsion
[ 10763 10752 10751 10750 ] final  156.00 input  -60.55 | X-H torsion
[ 11005 11000 10999 10996 ] final  112.27 input  -57.11 | X-H torsion

> <Gold.Protein.ActiveResidues>
 VAL166  LYS551  ARG553  GLY616  TRP617  ASP618  TYR619  PRO620  LYS621  CYS622 
 ASP623  PHE694  ASN695  SER759  ASP760  ASP761  ALA762  ILE779  LEU786  VAL792 
 PHE793  MET794  SER795  GLU796  ALA797  LYS798  CYS799  TRP800  GLU811  SER814 

> <Gold.Protein.RotatedAtoms>
  150.6954  134.4153  159.5179 H   0  0  0  0  0  0  0  0  0  0  0  0  # atno 6907 bound_to 6896
  152.1905  134.8673  160.0527 H   0  0  0  0  0  0  0  0  0  0  0  0  # atno 6908 bound_to 6896
  151.9631  133.3666  159.4079 H   0  0  0  0  0  0  0  0  0  0  0  0  # atno 6909 bound_to 6896
  145.8258  140.8511  143.0109 H   0  0  0  0  0  0  0  0  0  0  0  0  # atno 7974 bound_to 7965
  155.2486  140.0431  157.2984 H   0  0  0  0  0  0  0  0  0  0  0  0  # atno 8008 bound_to 7997
  154.5783  140.2393  155.8060 H   0  0  0  0  0  0  0  0  0  0  0  0  # atno 8009 bound_to 7997
  156.2174  140.2980  155.9880 H   0  0  0  0  0  0  0  0  0  0  0  0  # atno 8010 bound_to 7997
  140.4995  144.0337  150.6327 H   0  0  0  0  0  0  0  0  0  0  0  0  # atno 10167 bound_to 10162
  156.9522  131.0034  151.2946 H   0  0  0  0  0  0  0  0  0  0  0  0  # atno 10718 bound_to 10713
  154.1773  135.2801  155.3063 H   0  0  0  0  0  0  0  0  0  0  0  0  # atno 10763 bound_to 10752
  154.6029  135.5523  153.7397 H   0  0  0  0  0  0  0  0  0  0  0  0  # atno 10764 bound_to 10752
  153.0148  135.6396  154.1912 H   0  0  0  0  0  0  0  0  0  0  0  0  # atno 10765 bound_to 10752
  139.8923  134.9526  156.6560 H   0  0  0  0  0  0  0  0  0  0  0  0  # atno 11005 bound_to 11000
  144.6743  140.0600  143.7476 LP  0  0  0  0  0  0  0  0  0  0  0  0  # atno 17320 bound_to 7965
  145.9625  139.2811  143.1147 LP  0  0  0  0  0  0  0  0  0  0  0  0  # atno 17321 bound_to 7965
  140.3629  143.2897  152.0363 LP  0  0  0  0  0  0  0  0  0  0  0  0  # atno 17342 bound_to 10162
  139.4869  144.6289  151.7110 LP  0  0  0  0  0  0  0  0  0  0  0  0  # atno 17343 bound_to 10162
  157.5714  130.8313  149.8397 LP  0  0  0  0  0  0  0  0  0  0  0  0  # atno 17370 bound_to 10713
  156.0358  130.3752  150.1565 LP  0  0  0  0  0  0  0  0  0  0  0  0  # atno 17371 bound_to 10713
  140.7484  133.8918  155.8328 LP  0  0  0  0  0  0  0  0  0  0  0  0  # atno 17394 bound_to 11000
  141.0021  134.1136  157.4307 LP  0  0  0  0  0  0  0  0  0  0  0  0  # atno 17395 bound_to 11000

$$$$
