AV-unprocessed.smi:1320|AV-procd|sdf|5460|dock5
  -GOLD-   22720 5 33D 1   1.00000     0.00000
 Structure written by MMmdl.
 36 37  0  0  0  0  0  0  0  0  1 V2000
  147.1082  137.7734  153.8277 O   0  0  0  0  0  0  0  0  0  0  0  0
  146.2963  138.4324  153.1810 C   0  0  0  0  0  0  0  0  0  0  0  0
  145.6513  137.9632  152.0984 N   0  0  0  0  0  0  0  0  0  0  0  0
  145.8437  136.6449  151.4993 C   0  0  0  0  0  0  0  0  0  0  0  0
  144.5496  135.8071  151.4830 C   0  0  0  0  0  0  0  0  0  0  0  0
  144.7252  134.4109  150.9083 C   0  0  0  0  0  0  0  0  0  0  0  0
  143.6394  133.5109  150.8693 C   0  0  0  0  0  0  0  0  0  0  0  0
  143.8586  132.2166  150.3595 C   0  0  0  0  0  0  0  0  0  0  0  0
  145.1486  131.8736  149.9108 C   0  0  0  0  0  0  0  0  0  0  0  0
  146.1664  132.8446  149.9919 C   0  0  0  0  0  0  0  0  0  0  0  0
  145.9668  134.0884  150.4780 N   0  0  0  0  0  0  0  0  0  0  0  0
  145.9876  139.6986  153.5131 N   0  0  0  0  0  0  0  0  0  0  0  0
  146.5105  140.4930  154.6269 C   0  0  0  0  0  0  0  0  0  0  0  0
  145.3675  140.9445  155.5564 C   0  0  0  0  0  0  0  0  0  0  0  0
  145.5893  142.4368  155.8073 C   0  0  0  0  0  0  0  0  0  0  0  0
  146.2704  142.9344  154.5370 C   0  0  0  0  0  0  0  0  0  0  0  0
  147.1941  141.7848  154.1325 C   0  0  0  0  0  0  0  0  0  0  0  0
  145.0000  138.5807  151.6356 H   0  0  0  0  0  0  0  0  0  0  0  0
  146.2379  136.7352  150.4858 H   0  0  0  0  0  0  0  0  0  0  0  0
  146.6080  136.1213  152.0735 H   0  0  0  0  0  0  0  0  0  0  0  0
  144.1577  135.7228  152.4973 H   0  0  0  0  0  0  0  0  0  0  0  0
  143.7834  136.3316  150.9099 H   0  0  0  0  0  0  0  0  0  0  0  0
  142.6636  133.8012  151.2305 H   0  0  0  0  0  0  0  0  0  0  0  0
  143.0527  131.4989  150.3162 H   0  0  0  0  0  0  0  0  0  0  0  0
  145.3539  130.8898  149.5156 H   0  0  0  0  0  0  0  0  0  0  0  0
  147.1678  132.6163  149.6586 H   0  0  0  0  0  0  0  0  0  0  0  0
  145.2882  140.1526  152.9436 H   0  0  0  0  0  0  0  0  0  0  0  0
  147.2211  139.9008  155.2064 H   0  0  0  0  0  0  0  0  0  0  0  0
  144.3995  140.8083  155.0711 H   0  0  0  0  0  0  0  0  0  0  0  0
  145.3428  140.3746  156.4857 H   0  0  0  0  0  0  0  0  0  0  0  0
  144.6626  142.9686  156.0247 H   0  0  0  0  0  0  0  0  0  0  0  0
  146.2583  142.5713  156.6583 H   0  0  0  0  0  0  0  0  0  0  0  0
  145.5227  143.0969  153.7594 H   0  0  0  0  0  0  0  0  0  0  0  0
  146.8063  143.8721  154.6864 H   0  0  0  0  0  0  0  0  0  0  0  0
  148.1532  141.8984  154.6395 H   0  0  0  0  0  0  0  0  0  0  0  0
  147.3982  141.7872  153.0608 H   0  0  0  0  0  0  0  0  0  0  0  0
  1  2  2  0  0  0  0
  2  3  1  0  0  0  0
  2 12  1  0  0  0  0
  3  4  1  0  0  0  0
  3 18  1  0  0  0  0
  4  5  1  0  0  0  0
  4 19  1  0  0  0  0
  4 20  1  0  0  0  0
  5  6  1  0  0  0  0
  5 21  1  0  0  0  0
  5 22  1  0  0  0  0
  6 11  1  0  0  0  0
  6  7  2  0  0  0  0
  7  8  1  0  0  0  0
  7 23  1  0  0  0  0
  8  9  2  0  0  0  0
  8 24  1  0  0  0  0
  9 10  1  0  0  0  0
  9 25  1  0  0  0  0
 10 11  2  0  0  0  0
 10 26  1  0  0  0  0
 12 13  1  0  0  0  0
 12 27  1  0  0  0  0
 13 17  1  0  0  0  0
 13 14  1  0  0  0  0
 13 28  1  0  0  0  0
 14 15  1  0  0  0  0
 14 29  1  0  0  0  0
 14 30  1  0  0  0  0
 15 16  1  0  0  0  0
 15 31  1  0  0  0  0
 15 32  1  0  0  0  0
 16 17  1  0  0  0  0
 16 33  1  0  0  0  0
 16 34  1  0  0  0  0
 17 35  1  0  0  0  0
 17 36  1  0  0  0  0
M  END
> <s_m_source_file>
AV-unprocessed.smi

> <i_m_source_file_index>
1320

> <i_lp_mmshare_version>
43012

> <i_f3d_flags>
0

> <s_epik_input>
W0NIMl0xW0NIMl1bQ0gyXVtDSDJdW0NIXTFbTkhdQyg9TylbTkhdW0NIMl1bQ0gyXWMyW2NIXVtjSF1bY0hdW2NIXW4y

> <s_epik_cmdline>
J2VwaWtfcHl0aG9uJywgJy1waCcsICc3LjAnLCAnLXRuJywgJzgnLCAnLW1hJywgJzIwMCcsICctbWV0YWxfYmluZGluZycsICctaW1hZScsICc8aW5maWxlLm1hZT4nLCAnLW9tYWUnLCAnPG91dGZpbGUubWFlPic=

> <r_epik_Ionization_Penalty>
0.0441051

> <r_epik_Ionization_Penalty_Charging>
0

> <r_epik_Ionization_Penalty_Neutral>
0.0441051

> <r_epik_State_Penalty>
0.0373009

> <r_epik_Charging_Adjusted_Penalty>
0.0373009

> <i_epik_Tot_Q>
0

> <i_epik_Tot_abs_Q>
0

> <r_epik_Metal_State_Penalty>
0.0347078

> <b_epik_Metal_Only>
0

> <s_lp_Force_Field>
OPLS_2005

> <r_lp_Energy>
26.6462

> <b_lp_Chiralities_Consistent>
1

> <s_lp_Variant>
AV-unprocessed.smi:1320-1

> <Gold.Version>
5.8.1

> <Gold.Id.Protein>
6NUR|6NUR_protein|mol2

> <Gold.PLP.Fitness>
41.2023

> <Gold.PLP.PLP>
-32.7804

> <Gold.PLP.part.hbond>
-2.5026

> <Gold.PLP.part.metal>
0.0000

> <Gold.PLP.part.buried>
-5.1361

> <Gold.PLP.part.nonpolar>
-27.1188

> <Gold.PLP.part.repulsive>
0.9353

> <Gold.PLP.ligand.clash>
0.0000

> <Gold.PLP.ligand.torsion>
0.0048

> <Gold.PLP.Chemscore.Hbond>
1.8089

> <Gold.PLP.Chemscore.CHOScore>
1.0000

> <Gold.PLP.Chemscore.Metal>
0.0000

> <Gold.Chemscore.Hbonds>
donor molecule, donor type, donor heavy atom, donor atom, acceptor molecule, acceptor atom, score
      L1  H     3    18       P1 10171  0.55
      L1  H    12    27       P1 10175  1.00
      L1  C    10    26       P1 10747  0.89

> <Gold.PLP.Chemscore.Internal.Correction>
0.0049

> <Gold.Rescore>
     Score         DG    S(hbond)    S(metal)    S(lipo)     H(rot)  DE(clash)    DE(int)     intcor
     15.50     -16.41       1.67        0.00      78.83       1.51       0.90       0.01       ----

> <Gold.Chemscore.Fitness>
15.5014

> <Gold.Chemscore.DG>
-16.4100

> <Gold.Chemscore.ZeroCoef>
-5.4800

> <Gold.Chemscore.Hbond>
1.6652

> <Gold.Chemscore.Metal>
0.0000

> <Gold.Chemscore.Lipo>
78.8328

> <Gold.Chemscore.Internal_Hbond>
0.0000

> <Gold.Chemscore.DEClash>
0.8966

> <Gold.Chemscore.DEInternal>
0.0121

> <Gold.Chemscore.Rot>
1.5060

> <Gold.Chemscore.Internal.Correction>
   9.000000E+99

> <Gold.Chemscore.Hbonds>
donor molecule, donor type, donor heavy atom, donor atom, acceptor molecule, acceptor atom, score
      L1  H     3    18       P1 10171  0.55
      L1  H    12    27       P1 10175  0.97

> <Gold.Chemscore.Hbond.Weighted>
-5.5618

> <Gold.Chemscore.Metal.Weighted>
-0.0000

> <Gold.Chemscore.Lipo.Weighted>
-9.2234

> <Gold.Chemscore.Internal_Hbond.Weighted>
0.0000

> <Gold.Chemscore.DEClash.Weighted>
0.8966

> <Gold.Chemscore.DEInternal.Weighted>
0.0121

> <Gold.Chemscore.Rot.Weighted>
3.8553

> <Gold.Chemscore.Internal.Correction.Weighted>
   9.000000E+99

> <Gold.Protein.RotatedTorsions>
[ 6907 6896 6895 6894 ] final -109.12 input  -60.11 | X-H torsion
[ 7974 7965 7964 7962 ] final -120.75 input  175.53 | X-H torsion
[ 8008 7997 7996 7995 ] final   68.55 input   59.86 | X-H torsion
[ 10167 10162 10161 10158 ] final  -78.50 input  -65.29 | X-H torsion
[ 10718 10713 10712 10709 ] final  122.63 input   66.30 | X-H torsion
[ 10763 10752 10751 10750 ] final -170.75 input  -60.55 | X-H torsion
[ 11005 11000 10999 10996 ] final   58.86 input  -57.11 | X-H torsion

> <Gold.Protein.ActiveResidues>
 VAL166  LYS551  ARG553  GLY616  TRP617  ASP618  TYR619  PRO620  LYS621  CYS622 
 ASP623  PHE694  ASN695  SER759  ASP760  ASP761  ALA762  ILE779  LEU786  VAL792 
 PHE793  MET794  SER795  GLU796  ALA797  LYS798  CYS799  TRP800  GLU811  SER814 

> <Gold.Protein.RotatedAtoms>
  150.7542  133.9577  159.3505 H   0  0  0  0  0  0  0  0  0  0  0  0  # atno 6907 bound_to 6896
  151.7500  135.0833  160.0338 H   0  0  0  0  0  0  0  0  0  0  0  0  # atno 6908 bound_to 6896
  152.3472  133.6100  159.5955 H   0  0  0  0  0  0  0  0  0  0  0  0  # atno 6909 bound_to 6896
  145.0479  140.8195  143.4227 H   0  0  0  0  0  0  0  0  0  0  0  0  # atno 7974 bound_to 7965
  155.7101  140.3494  155.4970 H   0  0  0  0  0  0  0  0  0  0  0  0  # atno 8008 bound_to 7997
  155.9363  140.1093  157.1113 H   0  0  0  0  0  0  0  0  0  0  0  0  # atno 8009 bound_to 7997
  154.4094  140.1221  156.4855 H   0  0  0  0  0  0  0  0  0  0  0  0  # atno 8010 bound_to 7997
  140.4676  143.2435  151.8254 H   0  0  0  0  0  0  0  0  0  0  0  0  # atno 10167 bound_to 10162
  157.5727  131.1082  150.8336 H   0  0  0  0  0  0  0  0  0  0  0  0  # atno 10718 bound_to 10713
  154.6381  135.2895  155.0136 H   0  0  0  0  0  0  0  0  0  0  0  0  # atno 10763 bound_to 10752
  154.1273  135.6539  153.4918 H   0  0  0  0  0  0  0  0  0  0  0  0  # atno 10764 bound_to 10752
  153.0313  135.5302  154.7237 H   0  0  0  0  0  0  0  0  0  0  0  0  # atno 10765 bound_to 10752
  140.0346  134.5962  155.9461 H   0  0  0  0  0  0  0  0  0  0  0  0  # atno 11005 bound_to 11000
  145.1565  139.2484  143.5414 LP  0  0  0  0  0  0  0  0  0  0  0  0  # atno 17320 bound_to 7965
  146.3515  140.1281  142.8598 LP  0  0  0  0  0  0  0  0  0  0  0  0  # atno 17321 bound_to 7965
  139.4814  144.4931  151.9159 LP  0  0  0  0  0  0  0  0  0  0  0  0  # atno 17342 bound_to 10162
  140.4016  144.2485  150.5893 LP  0  0  0  0  0  0  0  0  0  0  0  0  # atno 17343 bound_to 10162
  156.8803  130.5177  149.5291 LP  0  0  0  0  0  0  0  0  0  0  0  0  # atno 17370 bound_to 10713
  156.0772  130.5791  150.9496 LP  0  0  0  0  0  0  0  0  0  0  0  0  # atno 17371 bound_to 10713
  141.1850  133.6554  156.5181 LP  0  0  0  0  0  0  0  0  0  0  0  0  # atno 17394 bound_to 11000
  140.4169  134.7222  157.4868 LP  0  0  0  0  0  0  0  0  0  0  0  0  # atno 17395 bound_to 11000

$$$$
