AV-unprocessed.smi:1797|AV-procd|sdf|7255|dock1
  -GOLD-   22720 8503D 1   1.00000     0.00000
 Structure written by MMmdl.
 30 31  0  0  0  0  0  0  0  0  1 V2000
  149.9278  137.4340  158.6060 C   0  0  0  0  0  0  0  0  0  0  0  0
  149.0501  136.8763  157.5381 C   0  0  0  0  0  0  0  0  0  0  0  0
  147.8077  136.4383  157.7733 N   0  0  0  0  0  0  0  0  0  0  0  0
  147.1908  135.9659  156.6239 N   0  0  0  0  0  0  0  0  0  0  0  0
  147.9888  136.0552  155.5501 C   0  0  0  0  0  0  0  0  0  0  0  0
  147.6244  135.6533  154.2318 N   0  0  0  0  0  0  0  0  0  0  0  0
  146.6845  134.7952  153.7799 C   0  0  0  0  0  0  0  0  0  0  0  0
  145.9434  134.2014  154.5613 O   0  0  0  0  0  0  0  0  0  0  0  0
  146.6036  134.6430  152.4478 N   0  0  0  0  0  0  0  0  0  0  0  0
  145.6520  133.7860  151.7487 C   0  0  2  0  0  0  0  0  0  0  0  0
  146.4058  132.8162  150.8304 C   0  0  0  0  0  0  0  0  0  0  0  0
  145.4317  131.8842  150.0921 C   0  0  0  0  0  0  0  0  0  0  0  0
  144.2261  132.6175  149.4853 C   0  0  0  0  0  0  0  0  0  0  0  0
  143.5606  132.0661  148.6116 O   0  0  0  0  0  0  0  0  0  0  0  0
  143.9025  133.8371  149.9500 N   0  0  0  0  0  0  0  0  0  0  0  0
  144.6619  134.6274  150.9182 C   0  0  0  0  0  0  0  0  0  0  0  0
  149.5725  136.7457  155.8641 S   0  0  0  0  0  0  0  0  0  0  0  0
  149.4206  137.4160  159.5713 H   0  0  0  0  0  0  0  0  0  0  0  0
  150.1928  138.4645  158.3695 H   0  0  0  0  0  0  0  0  0  0  0  0
  150.8422  136.8453  158.6816 H   0  0  0  0  0  0  0  0  0  0  0  0
  148.1745  136.0838  153.5029 H   0  0  0  0  0  0  0  0  0  0  0  0
  147.2505  135.1662  151.8747 H   0  0  0  0  0  0  0  0  0  0  0  0
  145.0967  133.1978  152.4822 H   0  0  0  0  0  0  0  0  0  0  0  0
  146.9993  133.3744  150.1045 H   0  0  0  0  0  0  0  0  0  0  0  0
  147.1105  132.2197  151.4111 H   0  0  0  0  0  0  0  0  0  0  0  0
  145.9585  131.3386  149.3084 H   0  0  0  0  0  0  0  0  0  0  0  0
  145.0467  131.1372  150.7870 H   0  0  0  0  0  0  0  0  0  0  0  0
  143.0859  134.2800  149.5542 H   0  0  0  0  0  0  0  0  0  0  0  0
  143.9637  135.1505  151.5722 H   0  0  0  0  0  0  0  0  0  0  0  0
  145.2008  135.3935  150.3590 H   0  0  0  0  0  0  0  0  0  0  0  0
  1  2  1  0  0  0  0
  1 18  1  0  0  0  0
  1 19  1  0  0  0  0
  1 20  1  0  0  0  0
  2 17  1  0  0  0  0
  2  3  2  0  0  0  0
  3  4  1  0  0  0  0
  4  5  2  0  0  0  0
  5  6  1  0  0  0  0
  5 17  1  0  0  0  0
  6  7  1  0  0  0  0
  6 21  1  0  0  0  0
  7  8  2  0  0  0  0
  7  9  1  0  0  0  0
  9 10  1  0  0  0  0
  9 22  1  0  0  0  0
 10 16  1  0  0  0  0
 10 11  1  0  0  0  0
 10 23  1  0  0  0  0
 11 12  1  0  0  0  0
 11 24  1  0  0  0  0
 11 25  1  0  0  0  0
 12 13  1  0  0  0  0
 12 26  1  0  0  0  0
 12 27  1  0  0  0  0
 13 14  2  0  0  0  0
 13 15  1  0  0  0  0
 15 16  1  0  0  0  0
 15 28  1  0  0  0  0
 16 29  1  0  0  0  0
 16 30  1  0  0  0  0
M  END
> <s_m_source_file>
AV-unprocessed.smi

> <i_m_source_file_index>
1797

> <i_lp_mmshare_version>
43012

> <i_f3d_flags>
0

> <s_epik_input>
W0NIM11jMW5uYyhzMSlbTkhdQyg9TylbTkhdW0NAQEhdMltDSDJdW0NIMl1DKD1PKVtOSF1bQ0gyXTI=

> <s_epik_cmdline>
J2VwaWtfcHl0aG9uJywgJy1waCcsICc3LjAnLCAnLXRuJywgJzgnLCAnLW1hJywgJzIwMCcsICctbWV0YWxfYmluZGluZycsICctaW1hZScsICc8aW5maWxlLm1hZT4nLCAnLW9tYWUnLCAnPG91dGZpbGUubWFlPic=

> <r_lp_tautomer_probability>
1

> <r_epik_Ionization_Penalty>
0.00282347

> <r_epik_Ionization_Penalty_Charging>
0

> <r_epik_Ionization_Penalty_Neutral>
0.00282347

> <r_epik_State_Penalty>
-0

> <r_epik_Charging_Adjusted_Penalty>
0

> <i_epik_Tot_Q>
0

> <i_epik_Tot_abs_Q>
0

> <r_epik_Metal_State_Penalty>
0.357935

> <b_epik_Metal_Only>
0

> <s_lp_Force_Field>
OPLS_2005

> <r_lp_Energy>
10.7628

> <b_lp_Chiralities_Consistent>
1

> <s_lp_Variant>
AV-unprocessed.smi:1797-1

> <Gold.Version>
5.8.1

> <Gold.Id.Protein>
6NUR|6NUR_protein|mol2

> <Gold.PLP.Fitness>
34.1679

> <Gold.PLP.PLP>
-23.3482

> <Gold.PLP.part.hbond>
-4.0000

> <Gold.PLP.part.metal>
0.0000

> <Gold.PLP.part.buried>
-5.1775

> <Gold.PLP.part.nonpolar>
-15.3936

> <Gold.PLP.part.repulsive>
0.4034

> <Gold.PLP.ligand.clash>
0.0000

> <Gold.PLP.ligand.torsion>
0.1349

> <Gold.PLP.Chemscore.Hbond>
3.6960

> <Gold.PLP.Chemscore.CHOScore>
0.0000

> <Gold.PLP.Chemscore.Metal>
0.0000

> <Gold.Chemscore.Hbonds>
donor molecule, donor type, donor heavy atom, donor atom, acceptor molecule, acceptor atom, score
      L1  H     6    21       P1  7948  1.00
      L1  H     9    22       P1  7948  0.93
      L1  H    15    28       P1 10186  0.83
      P1  H 10785 10796       L1    14  0.72

> <Gold.PLP.Chemscore.Internal.Correction>
0.0015

> <Gold.Rescore>
     Score         DG    S(hbond)    S(metal)    S(lipo)     H(rot)  DE(clash)    DE(int)     intcor
     18.52     -19.66       3.73        0.00      36.45       1.00       0.11       1.02       ----

> <Gold.Chemscore.Fitness>
18.5225

> <Gold.Chemscore.DG>
-19.6551

> <Gold.Chemscore.ZeroCoef>
-5.4800

> <Gold.Chemscore.Hbond>
3.7336

> <Gold.Chemscore.Metal>
0.0000

> <Gold.Chemscore.Lipo>
36.4516

> <Gold.Chemscore.Internal_Hbond>
0.0000

> <Gold.Chemscore.DEClash>
0.1103

> <Gold.Chemscore.DEInternal>
1.0224

> <Gold.Chemscore.Rot>
1.0000

> <Gold.Chemscore.Internal.Correction>
   9.000000E+99

> <Gold.Chemscore.Hbonds>
donor molecule, donor type, donor heavy atom, donor atom, acceptor molecule, acceptor atom, score
      L1  H     6    21       P1  7948  0.99
      L1  H     9    22       P1  7948  0.85
      L1  H    15    28       P1 10186  0.79
      P1  H 10785 10796       L1    14  0.70

> <Gold.Chemscore.Hbond.Weighted>
-12.4703

> <Gold.Chemscore.Metal.Weighted>
-0.0000

> <Gold.Chemscore.Lipo.Weighted>
-4.2648

> <Gold.Chemscore.Internal_Hbond.Weighted>
0.0000

> <Gold.Chemscore.DEClash.Weighted>
0.1103

> <Gold.Chemscore.DEInternal.Weighted>
1.0224

> <Gold.Chemscore.Rot.Weighted>
2.5600

> <Gold.Chemscore.Internal.Correction.Weighted>
   9.000000E+99

> <Gold.Protein.RotatedTorsions>
[ 6907 6896 6895 6894 ] final   51.11 input  -60.11 | X-H torsion
[ 7974 7965 7964 7962 ] final  -91.77 input  175.53 | X-H torsion
[ 8008 7997 7996 7995 ] final  -36.75 input   59.86 | X-H torsion
[ 10167 10162 10161 10158 ] final  -16.11 input  -65.29 | X-H torsion
[ 10718 10713 10712 10709 ] final -150.41 input   66.30 | X-H torsion
[ 10763 10752 10751 10750 ] final  -42.13 input  -60.55 | X-H torsion
[ 11005 11000 10999 10996 ] final -169.21 input  -57.11 | X-H torsion

> <Gold.Protein.ActiveResidues>
 VAL166  LYS551  ARG553  GLY616  TRP617  ASP618  TYR619  PRO620  LYS621  CYS622 
 ASP623  PHE694  ASN695  SER759  ASP760  ASP761  ALA762  ILE779  LEU786  VAL792 
 PHE793  MET794  SER795  GLU796  ALA797  LYS798  CYS799  TRP800  GLU811  SER814 

> <Gold.Protein.RotatedAtoms>
  152.3091  134.7519  160.0340 H   0  0  0  0  0  0  0  0  0  0  0  0  # atno 6907 bound_to 6896
  151.8005  133.3364  159.3534 H   0  0  0  0  0  0  0  0  0  0  0  0  # atno 6908 bound_to 6896
  150.7311  134.5688  159.5924 H   0  0  0  0  0  0  0  0  0  0  0  0  # atno 6909 bound_to 6896
  145.4088  140.9543  143.2246 H   0  0  0  0  0  0  0  0  0  0  0  0  # atno 7974 bound_to 7965
  154.4067  140.1622  156.2425 H   0  0  0  0  0  0  0  0  0  0  0  0  # atno 8008 bound_to 7997
  155.9189  140.3422  155.6134 H   0  0  0  0  0  0  0  0  0  0  0  0  # atno 8009 bound_to 7997
  155.7246  140.0772  157.2306 H   0  0  0  0  0  0  0  0  0  0  0  0  # atno 8010 bound_to 7997
  140.7229  143.5150  150.9703 H   0  0  0  0  0  0  0  0  0  0  0  0  # atno 10167 bound_to 10162
  156.4457  130.8143  151.2374 H   0  0  0  0  0  0  0  0  0  0  0  0  # atno 10718 bound_to 10713
  153.9739  135.6725  153.4748 H   0  0  0  0  0  0  0  0  0  0  0  0  # atno 10763 bound_to 10752
  153.0780  135.4938  154.8440 H   0  0  0  0  0  0  0  0  0  0  0  0  # atno 10764 bound_to 10752
  154.7203  135.3116  154.9019 H   0  0  0  0  0  0  0  0  0  0  0  0  # atno 10765 bound_to 10752
  140.5333  134.5595  157.5080 H   0  0  0  0  0  0  0  0  0  0  0  0  # atno 11005 bound_to 11000
  144.8323  139.5607  143.6938 LP  0  0  0  0  0  0  0  0  0  0  0  0  # atno 17320 bound_to 7965
  146.2715  139.6648  142.9292 LP  0  0  0  0  0  0  0  0  0  0  0  0  # atno 17321 bound_to 7965
  139.8865  143.7007  152.3151 LP  0  0  0  0  0  0  0  0  0  0  0  0  # atno 17342 bound_to 10162
  139.7307  144.7583  151.0806 LP  0  0  0  0  0  0  0  0  0  0  0  0  # atno 17343 bound_to 10162
  157.7505  131.0154  150.3502 LP  0  0  0  0  0  0  0  0  0  0  0  0  # atno 17370 bound_to 10713
  156.3869  130.3891  149.7059 LP  0  0  0  0  0  0  0  0  0  0  0  0  # atno 17371 bound_to 10713
  139.9543  134.7563  156.0378 LP  0  0  0  0  0  0  0  0  0  0  0  0  # atno 17394 bound_to 11000
  141.1269  133.6597  156.3361 LP  0  0  0  0  0  0  0  0  0  0  0  0  # atno 17395 bound_to 11000

$$$$
