AV-unprocessed.smi:1834|AV-procd|sdf|7471|dock8
  -GOLD-   22720 9163D 1   1.00000     0.00000
 Structure written by MMmdl.
 46 47  0  0  0  0  0  0  0  0  2 V2000
  147.5221  128.0131  151.5485 C   0  0  0  0  0  0  0  0  0  0  0  0
  146.2946  128.9302  151.6469 C   0  0  0  0  0  0  0  0  0  0  0  0
  146.6583  130.3621  151.8021 N   0  3  1  0  0  0  0  0  0  0  0  0
  145.7381  131.2536  151.0487 C   0  0  0  0  0  0  0  0  0  0  0  0
  146.1886  132.7218  151.1214 C   0  0  0  0  0  0  0  0  0  0  0  0
  146.3522  133.1821  152.5778 C   0  0  0  0  0  0  0  0  0  0  0  0
  147.2828  132.2366  153.3601 C   0  0  2  0  0  0  0  0  0  0  0  0
  148.7677  132.4349  152.9702 C   0  0  0  0  0  0  0  0  0  0  0  0
  149.2568  133.7756  153.2801 N   0  0  0  0  0  0  0  0  0  0  0  0
  149.9856  134.0998  154.3581 C   0  0  0  0  0  0  0  0  0  0  0  0
  150.3332  133.2804  155.2087 O   0  0  0  0  0  0  0  0  0  0  0  0
  150.2664  135.4140  154.3815 N   0  0  0  0  0  0  0  0  0  0  0  0
  150.9143  136.1241  155.3430 C   0  0  0  0  0  0  0  0  0  0  0  0
  151.0529  135.8410  156.6744 C   0  0  0  0  0  0  0  0  0  0  0  0
  151.8114  136.9488  157.1530 C   0  0  0  0  0  0  0  0  0  0  0  0
  152.2866  137.2081  158.5522 C   0  0  0  0  0  0  0  0  0  0  0  0
  152.1002  137.8236  156.1961 N   0  0  0  0  0  0  0  0  0  0  0  0
  151.5447  137.3183  155.0736 N   0  0  0  0  0  0  0  0  0  0  0  0
  151.6670  138.0327  153.8176 C   0  0  0  0  0  0  0  0  0  0  0  0
  146.7741  130.7814  153.2252 C   0  0  0  0  0  0  0  0  0  0  0  0
  147.2143  126.9781  151.3986 H   0  0  0  0  0  0  0  0  0  0  0  0
  148.1335  128.0406  152.4498 H   0  0  0  0  0  0  0  0  0  0  0  0
  148.1526  128.2906  150.7039 H   0  0  0  0  0  0  0  0  0  0  0  0
  145.7154  128.8015  150.7315 H   0  0  0  0  0  0  0  0  0  0  0  0
  145.6461  128.6184  152.4667 H   0  0  0  0  0  0  0  0  0  0  0  0
  145.6980  130.9453  150.0033 H   0  0  0  0  0  0  0  0  0  0  0  0
  144.7275  131.1523  151.4479 H   0  0  0  0  0  0  0  0  0  0  0  0
  147.1266  132.8462  150.5798 H   0  0  0  0  0  0  0  0  0  0  0  0
  145.4613  133.3564  150.6140 H   0  0  0  0  0  0  0  0  0  0  0  0
  146.7266  134.2058  152.6121 H   0  0  0  0  0  0  0  0  0  0  0  0
  145.3725  133.2004  153.0573 H   0  0  0  0  0  0  0  0  0  0  0  0
  147.2022  132.5077  154.4137 H   0  0  0  0  0  0  0  0  0  0  0  0
  149.3989  131.6787  153.4382 H   0  0  0  0  0  0  0  0  0  0  0  0
  148.8818  132.2907  151.8953 H   0  0  0  0  0  0  0  0  0  0  0  0
  149.0204  134.5086  152.6269 H   0  0  0  0  0  0  0  0  0  0  0  0
  149.9439  135.9545  153.5923 H   0  0  0  0  0  0  0  0  0  0  0  0
  150.6829  134.9944  157.2324 H   0  0  0  0  0  0  0  0  0  0  0  0
  151.9418  136.4320  159.2358 H   0  0  0  0  0  0  0  0  0  0  0  0
  151.9161  138.1643  158.9227 H   0  0  0  0  0  0  0  0  0  0  0  0
  153.3755  137.2304  158.5989 H   0  0  0  0  0  0  0  0  0  0  0  0
  150.6745  138.2547  153.4244 H   0  0  0  0  0  0  0  0  0  0  0  0
  152.2070  137.4172  153.0975 H   0  0  0  0  0  0  0  0  0  0  0  0
  152.2084  138.9692  153.9589 H   0  0  0  0  0  0  0  0  0  0  0  0
  145.7926  130.6974  153.6944 H   0  0  0  0  0  0  0  0  0  0  0  0
  147.4222  130.1032  153.7772 H   0  0  0  0  0  0  0  0  0  0  0  0
  147.5715  130.4736  151.3841 H   0  0  0  0  0  0  0  0  0  0  0  0
  1  2  1  0  0  0  0
  1 21  1  0  0  0  0
  1 22  1  0  0  0  0
  1 23  1  0  0  0  0
  2  3  1  0  0  0  0
  2 24  1  0  0  0  0
  2 25  1  0  0  0  0
  3 20  1  0  0  0  0
  3  4  1  0  0  0  0
  3 46  1  0  0  0  0
  4  5  1  0  0  0  0
  4 26  1  0  0  0  0
  4 27  1  0  0  0  0
  5  6  1  0  0  0  0
  5 28  1  0  0  0  0
  5 29  1  0  0  0  0
  6  7  1  0  0  0  0
  6 30  1  0  0  0  0
  6 31  1  0  0  0  0
  7  8  1  0  0  0  0
  7 20  1  0  0  0  0
  7 32  1  0  0  0  0
  8  9  1  0  0  0  0
  8 33  1  0  0  0  0
  8 34  1  0  0  0  0
  9 10  1  0  0  0  0
  9 35  1  0  0  0  0
 10 11  2  0  0  0  0
 10 12  1  0  0  0  0
 12 13  1  0  0  0  0
 12 36  1  0  0  0  0
 13 18  1  0  0  0  0
 13 14  2  0  0  0  0
 14 15  1  0  0  0  0
 14 37  1  0  0  0  0
 15 16  1  0  0  0  0
 15 17  2  0  0  0  0
 16 38  1  0  0  0  0
 16 39  1  0  0  0  0
 16 40  1  0  0  0  0
 17 18  1  0  0  0  0
 18 19  1  0  0  0  0
 19 41  1  0  0  0  0
 19 42  1  0  0  0  0
 19 43  1  0  0  0  0
 20 44  1  0  0  0  0
 20 45  1  0  0  0  0
M  CHG  1   3   1
M  END
> <s_m_source_file>
AV-unprocessed.smi

> <i_m_source_file_index>
1834

> <i_lp_mmshare_version>
43012

> <i_f3d_flags>
0

> <s_epik_input>
W0NIM11bQ0gyXU4xW0NIMl1bQ0gyXVtDSDJdW0NASF0oW0NIMl0xKVtDSDJdW05IXUMoPU8pW05IXWMyW2NIXWMoW0NIM10pbm4yW0NIM10=

> <s_epik_cmdline>
J2VwaWtfcHl0aG9uJywgJy1waCcsICc3LjAnLCAnLXRuJywgJzgnLCAnLW1hJywgJzIwMCcsICctbWV0YWxfYmluZGluZycsICctaW1hZScsICc8aW5maWxlLm1hZT4nLCAnLW9tYWUnLCAnPG91dGZpbGUubWFlPic=

> <r_lp_tautomer_probability>
1

> <r_epik_Ionization_Penalty>
0.000466842

> <r_epik_Ionization_Penalty_Charging>
0.000378984

> <r_epik_Ionization_Penalty_Neutral>
8.78572e-05

> <r_epik_State_Penalty>
0.000231434

> <r_epik_Charging_Adjusted_Penalty>
0.000610418

> <i_epik_Tot_Q>
1

> <i_epik_Tot_abs_Q>
1

> <r_epik_Metal_State_Penalty>
-0

> <b_epik_Metal_Only>
0

> <s_lp_Force_Field>
OPLS_2005

> <r_lp_Energy>
21.0152

> <b_lp_Chiralities_Consistent>
1

> <s_lp_Variant>
AV-unprocessed.smi:1834-3

> <Gold.Version>
5.8.1

> <Gold.Id.Protein>
6NUR|6NUR_protein|mol2

> <Gold.PLP.Fitness>
41.3752

> <Gold.PLP.PLP>
-34.2755

> <Gold.PLP.part.hbond>
-3.0000

> <Gold.PLP.part.metal>
0.0000

> <Gold.PLP.part.buried>
-5.8761

> <Gold.PLP.part.nonpolar>
-25.5889

> <Gold.PLP.part.repulsive>
0.0751

> <Gold.PLP.ligand.clash>
0.0000

> <Gold.PLP.ligand.torsion>
0.7397

> <Gold.PLP.Chemscore.Hbond>
2.8500

> <Gold.PLP.Chemscore.CHOScore>
0.0000

> <Gold.PLP.Chemscore.Metal>
0.0000

> <Gold.Chemscore.Hbonds>
donor molecule, donor type, donor heavy atom, donor atom, acceptor molecule, acceptor atom, score
      L1  H     3    46       P1 10747  1.00
      L1  H     9    35       P1  7948  0.15
      L1  H    12    36       P1  7948  0.65

> <Gold.PLP.Chemscore.Internal.Correction>
0.0291

> <Gold.Rescore>
     Score         DG    S(hbond)    S(metal)    S(lipo)     H(rot)  DE(clash)    DE(int)     intcor
     15.89     -17.52       2.05        0.00      75.64       1.43       0.04       1.59       ----

> <Gold.Chemscore.Fitness>
15.8876

> <Gold.Chemscore.DG>
-17.5168

> <Gold.Chemscore.ZeroCoef>
-5.4800

> <Gold.Chemscore.Hbond>
2.0495

> <Gold.Chemscore.Metal>
0.0000

> <Gold.Chemscore.Lipo>
75.6408

> <Gold.Chemscore.Internal_Hbond>
0.0000

> <Gold.Chemscore.DEClash>
0.0358

> <Gold.Chemscore.DEInternal>
1.5934

> <Gold.Chemscore.Rot>
1.4291

> <Gold.Chemscore.Internal.Correction>
   9.000000E+99

> <Gold.Chemscore.Hbonds>
donor molecule, donor type, donor heavy atom, donor atom, acceptor molecule, acceptor atom, score
      L1  H     3    46       P1 10747  1.00
      L1  H    12    36       P1  7948  0.05

> <Gold.Chemscore.Hbond.Weighted>
-6.8453

> <Gold.Chemscore.Metal.Weighted>
-0.0000

> <Gold.Chemscore.Lipo.Weighted>
-8.8500

> <Gold.Chemscore.Internal_Hbond.Weighted>
0.0000

> <Gold.Chemscore.DEClash.Weighted>
0.0358

> <Gold.Chemscore.DEInternal.Weighted>
1.5934

> <Gold.Chemscore.Rot.Weighted>
3.6584

> <Gold.Chemscore.Internal.Correction.Weighted>
   9.000000E+99

> <Gold.Protein.RotatedTorsions>
[ 6907 6896 6895 6894 ] final  -30.70 input  -60.11 | X-H torsion
[ 7974 7965 7964 7962 ] final  128.14 input  175.53 | X-H torsion
[ 8008 7997 7996 7995 ] final -138.19 input   59.86 | X-H torsion
[ 10167 10162 10161 10158 ] final  -84.30 input  -65.29 | X-H torsion
[ 10718 10713 10712 10709 ] final   56.51 input   66.30 | X-H torsion
[ 10763 10752 10751 10750 ] final  177.72 input  -60.55 | X-H torsion
[ 11005 11000 10999 10996 ] final -104.78 input  -57.11 | X-H torsion

> <Gold.Protein.ActiveResidues>
 VAL166  LYS551  ARG553  GLY616  TRP617  ASP618  TYR619  PRO620  LYS621  CYS622 
 ASP623  PHE694  ASN695  SER759  ASP760  ASP761  ALA762  ILE779  LEU786  VAL792 
 PHE793  MET794  SER795  GLU796  ALA797  LYS798  CYS799  TRP800  GLU811  SER814 

> <Gold.Protein.RotatedAtoms>
  151.1020  134.9978  159.8452 H   0  0  0  0  0  0  0  0  0  0  0  0  # atno 6907 bound_to 6896
  152.5437  134.1939  159.8695 H   0  0  0  0  0  0  0  0  0  0  0  0  # atno 6908 bound_to 6896
  151.1982  133.4582  159.2629 H   0  0  0  0  0  0  0  0  0  0  0  0  # atno 6909 bound_to 6896
  145.0428  139.3948  143.5093 H   0  0  0  0  0  0  0  0  0  0  0  0  # atno 7974 bound_to 7965
  155.4242  140.0520  157.3023 H   0  0  0  0  0  0  0  0  0  0  0  0  # atno 8008 bound_to 7997
  154.4889  140.2112  155.9552 H   0  0  0  0  0  0  0  0  0  0  0  0  # atno 8009 bound_to 7997
  156.1314  140.3171  155.8359 H   0  0  0  0  0  0  0  0  0  0  0  0  # atno 8010 bound_to 7997
  140.4145  143.2609  151.8973 H   0  0  0  0  0  0  0  0  0  0  0  0  # atno 10167 bound_to 10162
  157.5437  130.8715  149.8859 H   0  0  0  0  0  0  0  0  0  0  0  0  # atno 10718 bound_to 10713
  154.4982  135.2782  155.1442 H   0  0  0  0  0  0  0  0  0  0  0  0  # atno 10763 bound_to 10752
  154.3085  135.6233  153.5459 H   0  0  0  0  0  0  0  0  0  0  0  0  # atno 10764 bound_to 10752
  152.9898  135.5714  154.5419 H   0  0  0  0  0  0  0  0  0  0  0  0  # atno 10765 bound_to 10752
  141.1085  133.8752  157.1653 H   0  0  0  0  0  0  0  0  0  0  0  0  # atno 11005 bound_to 11000
  146.3511  140.0038  142.8673 LP  0  0  0  0  0  0  0  0  0  0  0  0  # atno 17320 bound_to 7965
  145.1625  140.9680  143.4369 LP  0  0  0  0  0  0  0  0  0  0  0  0  # atno 17321 bound_to 7965
  139.4782  144.5502  151.8397 LP  0  0  0  0  0  0  0  0  0  0  0  0  # atno 17342 bound_to 10162
  140.4601  144.1733  150.5905 LP  0  0  0  0  0  0  0  0  0  0  0  0  # atno 17343 bound_to 10162
  156.0518  130.3716  150.1184 LP  0  0  0  0  0  0  0  0  0  0  0  0  # atno 17370 bound_to 10713
  156.9362  130.9730  151.3524 LP  0  0  0  0  0  0  0  0  0  0  0  0  # atno 17371 bound_to 10713
  139.9966  135.0044  157.0096 LP  0  0  0  0  0  0  0  0  0  0  0  0  # atno 17394 bound_to 11000
  140.4840  134.1261  155.7221 LP  0  0  0  0  0  0  0  0  0  0  0  0  # atno 17395 bound_to 11000

$$$$
