#       Name:                AV-unprocessed.smi:2339
#       Creating user name   scv26
#       Creation time:       Fri Mar 27 12:56:14 2020


#       File generated by GOLD software.
#

@<TRIPOS>MOLECULE
AV-unprocessed.smi:2339
    55    58     1
SMALL
NO_CHARGES


@<TRIPOS>ATOM
      1 ****        -4.2491   2.4679  -3.7147 C.3            1 S1                 0.0000
      2 ****        -4.4859   1.0028  -3.3322 C.3            1 S1                 0.0000
      3 ****        -3.2341   0.2954  -3.1034 N.pl3          1 S1                 0.0000
      4 ****        -2.6052  -0.4085  -4.1249 C.2            1 S1                 0.0000
      5 ****        -1.4832  -1.1352  -3.9606 C.2            1 S1                 0.0000
      6 ****        -0.8608  -1.2129  -2.6238 C.2            1 S1                 0.0000
      7 ****         0.1643  -1.8687  -2.4390 O.2            1 S1                 0.0000
      8 ****        -1.5348  -0.4638  -1.5304 C.2            1 S1                 0.0000
      9 ****        -0.9283  -0.5367  -0.2658 N.am           1 S1                 0.0000
     10 ****        -1.3148   0.0028   0.9083 C.2            1 S1                 0.0000
     11 ****        -2.3410   0.6533   1.0910 O.2            1 S1                 0.0000
     12 ****        -0.4560  -0.2252   1.9167 N.am           1 S1                 0.0000
     13 ****        -0.5708   0.2147   3.3075 C.3            1 S1                 0.0000
     14 ****         0.6128  -0.2547   4.1544 C.3            1 S1                 0.0000
     15 ****         1.7499   0.4308   4.8238 C.3            1 S1                 0.0000
     16 ****         1.6516  -0.2836   6.1977 C.3            1 S1                 0.0000
     17 ****         0.3995  -1.0113   6.1781 O.3            1 S1                 0.0000
     18 ****        -0.4046  -0.2787   5.2759 C.3            1 S1                 0.0000
     19 ****        -1.4337  -0.7365   4.2243 C.3            1 S1                 0.0000
     20 ****        -1.5499  -2.2348   3.9031 C.3            1 S1                 0.0000
     21 ****        -2.8977  -2.4383   3.2135 C.3            1 S1                 0.0000
     22 ****        -3.8062  -1.3403   3.7658 C.3            1 S1                 0.0000
     23 ****        -2.8883  -0.3393   4.4787 C.3            1 S1                 0.0000
     24 ****        -2.6603   0.2315  -1.8353 C.2            1 S1                 0.0000
     25 ****        -5.1955   2.9814  -3.8842 H              1 S1                 0.0000
     26 ****        -3.6591   2.5462  -4.6283 H              1 S1                 0.0000
     27 ****        -3.7183   3.0002  -2.9248 H              1 S1                 0.0000
     28 ****        -5.1033   0.9490  -2.4347 H              1 S1                 0.0000
     29 ****        -5.0485   0.5008  -4.1202 H              1 S1                 0.0000
     30 ****        -3.0889  -0.3241  -5.0874 H              1 S1                 0.0000
     31 ****        -1.0273  -1.6631  -4.7853 H              1 S1                 0.0000
     32 ****        -0.0651  -1.0602  -0.2479 H              1 S1                 0.0000
     33 ****         0.3672  -0.7660   1.6941 H              1 S1                 0.0000
     34 ****        -0.7846   1.2809   3.4281 H              1 S1                 0.0000
     35 ****         0.9230  -1.2591   3.8509 H              1 S1                 0.0000
     36 ****         2.7040   0.2542   4.3268 H              1 S1                 0.0000
     37 ****         1.5851   1.5058   4.9093 H              1 S1                 0.0000
     38 ****         2.4756  -0.9801   6.3552 H              1 S1                 0.0000
     39 ****         1.6593   0.4407   7.0134 H              1 S1                 0.0000
     40 ****        -0.6438   0.7106   5.6826 H              1 S1                 0.0000
     41 ****        -0.7407  -2.6152   3.2802 H              1 S1                 0.0000
     42 ****        -1.5283  -2.8109   4.8291 H              1 S1                 0.0000
     43 ****        -2.7824  -2.3088   2.1371 H              1 S1                 0.0000
     44 ****        -3.3015  -3.4374   3.3801 H              1 S1                 0.0000
     45 ****        -4.3707  -0.8638   2.9634 H              1 S1                 0.0000
     46 ****        -4.5288  -1.7543   4.4698 H              1 S1                 0.0000
     47 ****        -3.0990  -0.3606   5.5485 H              1 S1                 0.0000
     48 ****        -3.0917   0.6789   4.1489 H              1 S1                 0.0000
     49 ****        -3.2084   0.8124  -1.1113 H              1 S1                 0.0000
     50 ****         0.5882  -2.3591  -3.2004 LP             1 S1                 0.0000
     51 ****         0.5732  -1.9111  -1.5274 LP             1 S1                 0.0000
     52 ****        -2.9696   0.8195   0.3313 LP             1 S1                 0.0000
     53 ****        -2.5477   1.0165   1.9995 LP             1 S1                 0.0000
     54 ****        -0.0146  -1.0317   7.0881 LP             1 S1                 0.0000
     55 ****         0.5368  -1.9471   5.8533 LP             1 S1                 0.0000
@<TRIPOS>BOND
    1    1    2 1     
    2    1   25 1     
    3    1   26 1     
    4    1   27 1     
    5    2    3 1     
    6    2   28 1     
    7    2   29 1     
    8    3   24 1     
    9    3    4 1     
   10    4    5 2     
   11    4   30 1     
   12    5    6 1     
   13    5   31 1     
   14    6    7 2     
   15    6    8 1     
   16    8    9 1     
   17    8   24 2     
   18    9   10 am    
   19    9   32 1     
   20   10   11 2     
   21   10   12 am    
   22   12   13 1     
   23   12   33 1     
   24   13   19 1     
   25   13   14 1     
   26   13   34 1     
   27   14   18 1     
   28   14   15 1     
   29   14   35 1     
   30   15   16 1     
   31   15   36 1     
   32   15   37 1     
   33   16   17 1     
   34   16   38 1     
   35   16   39 1     
   36   17   18 1     
   37   18   19 1     
   38   18   40 1     
   39   19   23 1     
   40   19   20 1     
   41   20   21 1     
   42   20   41 1     
   43   20   42 1     
   44   21   22 1     
   45   21   43 1     
   46   21   44 1     
   47   22   23 1     
   48   22   45 1     
   49   22   46 1     
   50   23   47 1     
   51   23   48 1     
   52   24   49 1     
   53    7   50 1     
   54    7   51 1     
   55   11   52 1     
   56   11   53 1     
   57   17   54 1     
   58   17   55 1     
@<TRIPOS>SUBSTRUCTURE
      1 S1             1
@<TRIPOS>SET
LONE_PAIRS      STATIC     ATOMS    <user>   **** ""
6 50 51 52 53 54 55
DONOR_HYDROGENS      STATIC     ATOMS    <user>   **** ""
2 32 33
ATOM$BLUE        STATIC     ATOMS    COLORGROUP SYSTEM
6 50 51 52 53 54 55
ATOM$RED        STATIC     ATOMS    COLORGROUP SYSTEM
2 32 33
