#       Name:                AV-unprocessed.smi:91
#       Creating user name   scv26
#       Creation time:       Thu Mar 26 17:27:24 2020


#       File generated by GOLD software.
#

@<TRIPOS>MOLECULE
AV-unprocessed.smi:91
    72    75     1
SMALL
NO_CHARGES


@<TRIPOS>ATOM
      1 ****        -5.2125  -3.9089  -1.5457 C.3            1 S1                 0.0000
      2 ****        -4.5903  -3.1842  -0.4996 O.3            1 S1                 0.0000
      3 ****        -5.0519  -1.8459  -0.4152 C.3            1 S1                 0.0000
      4 ****        -4.3330  -1.1341   0.7375 C.3            1 S1                 0.0000
      5 ****        -2.8381  -0.9196   0.4459 C.3            1 S1                 0.0000
      6 ****        -2.2371  -0.1411   1.5184 N.3            1 S1                 0.0000
      7 ****        -0.8917  -0.0507   1.4785 C.ar           1 S1                 0.0000
      8 ****        -0.2177  -0.4406   2.5878 N.ar           1 S1                 0.0000
      9 ****         1.1163  -0.3638   2.6199 C.ar           1 S1                 0.0000
     10 ****         1.9516   0.0688   1.6725 N.ar           1 S1                 0.0000
     11 ****         1.2734   0.4658   0.5574 C.ar           1 S1                 0.0000
     12 ****        -0.1380   0.4431   0.3760 C.ar           1 S1                 0.0000
     13 ****        -0.4616   0.9383  -0.8820 N.2            1 S1                 0.0000
     14 ****         0.6932   1.2292  -1.4165 C.2            1 S1                 0.0000
     15 ****         1.7881   0.9708  -0.6232 N.pl3          1 S1                 0.0000
     16 ****         3.1817   1.2050  -0.9563 C.3            1 S1                 0.0000
     17 ****         3.9897  -0.1027  -1.1823 C.3            1 S1                 0.0000
     18 ****         3.5784  -0.8480  -2.4733 C.3            1 S1                 0.0000
     19 ****         2.3151  -1.4669  -2.3480 O.3            1 S1                 0.0000
     20 ****         5.5250   0.1185  -1.1518 C.3            1 S1                 0.0000
     21 ****         6.0812   1.0888  -2.1928 C.3            1 S1                 0.0000
     22 ****         7.2464   1.7414  -1.4611 C.3            1 S1                 0.0000
     23 ****         6.7508   1.8615  -0.1390 O.3            1 S1                 0.0000
     24 ****         6.0860   0.6464   0.1810 C.3            1 S1                 0.0000
     25 ****        -2.8938   1.1433   1.7138 C.3            1 S1                 0.0000
     26 ****        -4.4072   0.9563   1.9657 C.3            1 S1                 0.0000
     27 ****        -4.6889   0.3588   3.3606 C.3            1 S1                 0.0000
     28 ****        -5.1239   2.3095   1.8412 C.3            1 S1                 0.0000
     29 ****        -4.9632   0.1337   0.9323 O.3            1 S1                 0.0000
     30 ****        -4.8217  -4.9261  -1.5687 H              1 S1                 0.0000
     31 ****        -5.0146  -3.4501  -2.5153 H              1 S1                 0.0000
     32 ****        -6.2916  -3.9660  -1.3982 H              1 S1                 0.0000
     33 ****        -4.8828  -1.3178  -1.3552 H              1 S1                 0.0000
     34 ****        -6.1274  -1.8473  -0.2301 H              1 S1                 0.0000
     35 ****        -4.4531  -1.7401   1.6357 H              1 S1                 0.0000
     36 ****        -2.3284  -1.8797   0.3538 H              1 S1                 0.0000
     37 ****        -2.7225  -0.3975  -0.5042 H              1 S1                 0.0000
     38 ****         1.5811  -0.6954   3.5365 H              1 S1                 0.0000
     39 ****         0.7785   1.6396  -2.4121 H              1 S1                 0.0000
     40 ****         3.2165   1.8383  -1.8428 H              1 S1                 0.0000
     41 ****         3.6076   1.7959  -0.1463 H              1 S1                 0.0000
     42 ****         3.7813  -0.7728  -0.3468 H              1 S1                 0.0000
     43 ****         3.5693  -0.1706  -3.3277 H              1 S1                 0.0000
     44 ****         4.2959  -1.6362  -2.7030 H              1 S1                 0.0000
     45 ****         2.1310  -1.9391  -3.1455 H              1 S1                 0.0000
     46 ****         6.0029  -0.8486  -1.3178 H              1 S1                 0.0000
     47 ****         6.3894   0.5913  -3.1127 H              1 S1                 0.0000
     48 ****         5.3573   1.8570  -2.4593 H              1 S1                 0.0000
     49 ****         8.1270   1.0971  -1.4697 H              1 S1                 0.0000
     50 ****         7.5201   2.7097  -1.8803 H              1 S1                 0.0000
     51 ****         5.3268   0.8082   0.9463 H              1 S1                 0.0000
     52 ****         6.8128  -0.0570   0.5903 H              1 S1                 0.0000
     53 ****        -2.4352   1.6769   2.5480 H              1 S1                 0.0000
     54 ****        -2.7375   1.7539   0.8230 H              1 S1                 0.0000
     55 ****        -4.3729   1.0434   4.1483 H              1 S1                 0.0000
     56 ****        -4.1595  -0.5788   3.5278 H              1 S1                 0.0000
     57 ****        -5.7534   0.1671   3.4983 H              1 S1                 0.0000
     58 ****        -4.7503   3.0254   2.5741 H              1 S1                 0.0000
     59 ****        -6.1979   2.2039   1.9976 H              1 S1                 0.0000
     60 ****        -4.9784   2.7435   0.8514 H              1 S1                 0.0000
     61 ****        -3.6033  -3.1733  -0.6602 LP             1 S1                 0.0000
     62 ****        -4.7818  -3.6446   0.3673 LP             1 S1                 0.0000
     63 ****        -2.4106  -0.6808   2.3422 LP             1 S1                 0.0000
     64 ****        -0.7182  -0.7856   3.3819 LP             1 S1                 0.0000
     65 ****         2.9466   0.0980   1.7681 LP             1 S1                 0.0000
     66 ****        -1.3704   1.0467  -1.2849 LP             1 S1                 0.0000
     67 ****         1.6124  -0.7714  -2.1982 LP             1 S1                 0.0000
     68 ****         2.3259  -2.1016  -1.5753 LP             1 S1                 0.0000
     69 ****         6.1092   2.6265  -0.0832 LP             1 S1                 0.0000
     70 ****         7.5076   2.0141   0.4967 LP             1 S1                 0.0000
     71 ****        -5.9235  -0.0326   1.1564 LP             1 S1                 0.0000
     72 ****        -4.9045   0.6405   0.0723 LP             1 S1                 0.0000
@<TRIPOS>BOND
    1    1    2 1     
    2    1   30 1     
    3    1   31 1     
    4    1   32 1     
    5    2    3 1     
    6    3    4 1     
    7    3   33 1     
    8    3   34 1     
    9    4   29 1     
   10    4    5 1     
   11    4   35 1     
   12    5    6 1     
   13    5   36 1     
   14    5   37 1     
   15    6    7 1     
   16    6   25 1     
   17    7   12 ar    
   18    7    8 ar    
   19    8    9 ar    
   20    9   10 ar    
   21    9   38 1     
   22   10   11 ar    
   23   11   15 1     
   24   11   12 ar    
   25   12   13 1     
   26   13   14 2     
   27   14   15 1     
   28   14   39 1     
   29   15   16 1     
   30   16   17 1     
   31   16   40 1     
   32   16   41 1     
   33   17   18 1     
   34   17   20 1     
   35   17   42 1     
   36   18   19 1     
   37   18   43 1     
   38   18   44 1     
   39   19   45 1     
   40   20   24 1     
   41   20   21 1     
   42   20   46 1     
   43   21   22 1     
   44   21   47 1     
   45   21   48 1     
   46   22   23 1     
   47   22   49 1     
   48   22   50 1     
   49   23   24 1     
   50   24   51 1     
   51   24   52 1     
   52   25   26 1     
   53   25   53 1     
   54   25   54 1     
   55   26   27 1     
   56   26   28 1     
   57   26   29 1     
   58   27   55 1     
   59   27   56 1     
   60   27   57 1     
   61   28   58 1     
   62   28   59 1     
   63   28   60 1     
   64    2   61 1     
   65    2   62 1     
   66    6   63 1     
   67    8   64 1     
   68   10   65 1     
   69   13   66 1     
   70   19   67 1     
   71   19   68 1     
   72   23   69 1     
   73   23   70 1     
   74   29   71 1     
   75   29   72 1     
@<TRIPOS>SUBSTRUCTURE
      1 S1             1
@<TRIPOS>SET
LONE_PAIRS      STATIC     ATOMS    <user>   **** ""
12 61 62 63 64 65 66 67 68 69 70 71 72
DONOR_HYDROGENS      STATIC     ATOMS    <user>   **** ""
1 45
ATOM$BLUE        STATIC     ATOMS    COLORGROUP SYSTEM
12 61 62 63 64 65 66 67 68 69 70 71 72
ATOM$RED        STATIC     ATOMS    COLORGROUP SYSTEM
1 45
