AV-unprocessed.smi:213|AV-procd|sdf|1643|dock2
  -GOLD-   2262020 13D 1   1.00000     0.00000
 Structure written by MMmdl.
 58 61  0  0  0  0  0  0  0  0  1 V2000
  146.6244  138.6880  151.6733 C   0  0  0  0  0  0  0  0  0  0  0  0
  146.7557  138.4868  153.1940 C   0  0  2  0  0  0  0  0  0  0  0  0
  145.3906  138.2281  153.8713 C   0  0  0  0  0  0  0  0  0  0  0  0
  144.8630  136.8696  153.7336 N   0  0  0  0  0  0  0  0  0  0  0  0
  144.6351  136.5392  152.3308 C   0  0  0  0  0  0  0  0  0  0  0  0
  144.0848  135.1132  152.1564 C   0  0  0  0  0  0  0  0  0  0  0  0
  142.8824  134.9735  152.9058 O   0  0  0  0  0  0  0  0  0  0  0  0
  143.0665  135.2425  154.2916 C   0  0  0  0  0  0  0  0  0  0  0  0
  143.6199  136.6664  154.4760 C   0  0  0  0  0  0  0  0  0  0  0  0
  147.4419  139.6229  153.8163 N   0  0  0  0  0  0  0  0  0  0  0  0
  147.6042  140.8865  153.0993 C   0  0  0  0  0  0  0  0  0  0  0  0
  147.9804  139.5222  155.0623 C   0  0  0  0  0  0  0  0  0  0  0  0
  147.6293  138.4495  155.8213 N   0  0  0  0  0  0  0  0  0  0  0  0
  148.1272  138.2905  157.0505 C   0  0  0  0  0  0  0  0  0  0  0  0
  148.9776  139.0751  157.7127 N   0  0  0  0  0  0  0  0  0  0  0  0
  149.3266  140.1616  156.9678 C   0  0  0  0  0  0  0  0  0  0  0  0
  148.8815  140.4633  155.6476 C   0  0  0  0  0  0  0  0  0  0  0  0
  149.4447  141.6677  155.2356 N   0  0  0  0  0  0  0  0  0  0  0  0
  150.1847  142.0447  156.2411 C   0  0  0  0  0  0  0  0  0  0  0  0
  150.1658  141.2008  157.3267 N   0  0  0  0  0  0  0  0  0  0  0  0
  150.8763  141.3782  158.5800 C   0  0  0  0  0  0  0  0  0  0  0  0
  151.7249  142.6672  158.6189 C   0  0  1  0  0  0  0  0  0  0  0  0
  150.8279  143.7595  158.6297 O   0  0  0  0  0  0  0  0  0  0  0  0
  152.6666  142.7745  159.8389 C   0  0  2  0  0  0  0  0  0  0  0  0
  153.4778  141.5105  160.1279 C   0  0  0  0  0  0  0  0  0  0  0  0
  153.8452  141.6565  161.5947 C   0  0  0  0  0  0  0  0  0  0  0  0
  152.8144  142.6515  162.1338 C   0  0  0  0  0  0  0  0  0  0  0  0
  151.9333  142.9044  161.0480 O   0  0  0  0  0  0  0  0  0  0  0  0
  146.2099  137.8008  151.1945 H   0  0  0  0  0  0  0  0  0  0  0  0
  147.5950  138.8802  151.2159 H   0  0  0  0  0  0  0  0  0  0  0  0
  145.9719  139.5268  151.4307 H   0  0  0  0  0  0  0  0  0  0  0  0
  147.3588  137.5997  153.3665 H   0  0  0  0  0  0  0  0  0  0  0  0
  145.4645  138.4765  154.9313 H   0  0  0  0  0  0  0  0  0  0  0  0
  144.6650  138.9276  153.4543 H   0  0  0  0  0  0  0  0  0  0  0  0
  143.9340  137.2510  151.8920 H   0  0  0  0  0  0  0  0  0  0  0  0
  145.5665  136.6345  151.7716 H   0  0  0  0  0  0  0  0  0  0  0  0
  143.8757  134.9126  151.1055 H   0  0  0  0  0  0  0  0  0  0  0  0
  144.8162  134.3734  152.4856 H   0  0  0  0  0  0  0  0  0  0  0  0
  142.1108  135.1377  154.8052 H   0  0  0  0  0  0  0  0  0  0  0  0
  143.7453  134.5063  154.7248 H   0  0  0  0  0  0  0  0  0  0  0  0
  143.7783  136.8366  155.5400 H   0  0  0  0  0  0  0  0  0  0  0  0
  142.8714  137.3902  154.1501 H   0  0  0  0  0  0  0  0  0  0  0  0
  148.6158  141.2750  153.2220 H   0  0  0  0  0  0  0  0  0  0  0  0
  146.9006  141.6298  153.4750 H   0  0  0  0  0  0  0  0  0  0  0  0
  147.4260  140.7660  152.0314 H   0  0  0  0  0  0  0  0  0  0  0  0
  147.7959  137.4090  157.5790 H   0  0  0  0  0  0  0  0  0  0  0  0
  150.7567  142.9609  156.2226 H   0  0  0  0  0  0  0  0  0  0  0  0
  150.1416  141.3850  159.3862 H   0  0  0  0  0  0  0  0  0  0  0  0
  151.5091  140.5043  158.7425 H   0  0  0  0  0  0  0  0  0  0  0  0
  152.3150  142.7403  157.7046 H   0  0  0  0  0  0  0  0  0  0  0  0
  150.0244  143.4926  158.2103 H   0  0  0  0  0  0  0  0  0  0  0  0
  153.3369  143.6297  159.7317 H   0  0  0  0  0  0  0  0  0  0  0  0
  152.8531  140.6260  159.9938 H   0  0  0  0  0  0  0  0  0  0  0  0
  154.3503  141.4080  159.4820 H   0  0  0  0  0  0  0  0  0  0  0  0
  153.8045  140.6982  162.1130 H   0  0  0  0  0  0  0  0  0  0  0  0
  154.8526  142.0587  161.7070 H   0  0  0  0  0  0  0  0  0  0  0  0
  152.2651  142.2611  162.9907 H   0  0  0  0  0  0  0  0  0  0  0  0
  153.2969  143.5826  162.4334 H   0  0  0  0  0  0  0  0  0  0  0  0
  1  2  1  0  0  0  0
  1 29  1  0  0  0  0
  1 30  1  0  0  0  0
  1 31  1  0  0  0  0
  2  3  1  0  0  0  0
  2 10  1  0  0  0  0
  2 32  1  0  0  0  0
  3  4  1  0  0  0  0
  3 33  1  0  0  0  0
  3 34  1  0  0  0  0
  4  9  1  0  0  0  0
  4  5  1  0  0  0  0
  5  6  1  0  0  0  0
  5 35  1  0  0  0  0
  5 36  1  0  0  0  0
  6  7  1  0  0  0  0
  6 37  1  0  0  0  0
  6 38  1  0  0  0  0
  7  8  1  0  0  0  0
  8  9  1  0  0  0  0
  8 39  1  0  0  0  0
  8 40  1  0  0  0  0
  9 41  1  0  0  0  0
  9 42  1  0  0  0  0
 10 11  1  0  0  0  0
 10 12  1  0  0  0  0
 11 43  1  0  0  0  0
 11 44  1  0  0  0  0
 11 45  1  0  0  0  0
 12 17  1  0  0  0  0
 12 13  2  0  0  0  0
 13 14  1  0  0  0  0
 14 15  2  0  0  0  0
 14 46  1  0  0  0  0
 15 16  1  0  0  0  0
 16 20  1  0  0  0  0
 16 17  2  0  0  0  0
 17 18  1  0  0  0  0
 18 19  2  0  0  0  0
 19 20  1  0  0  0  0
 19 47  1  0  0  0  0
 20 21  1  0  0  0  0
 21 22  1  0  0  0  0
 21 48  1  0  0  0  0
 21 49  1  0  0  0  0
 22 23  1  0  0  0  0
 22 24  1  0  0  0  0
 22 50  1  0  0  0  0
 23 51  1  0  0  0  0
 24 28  1  0  0  0  0
 24 25  1  0  0  0  0
 24 52  1  0  0  0  0
 25 26  1  0  0  0  0
 25 53  1  0  0  0  0
 25 54  1  0  0  0  0
 26 27  1  0  0  0  0
 26 55  1  0  0  0  0
 26 56  1  0  0  0  0
 27 28  1  0  0  0  0
 27 57  1  0  0  0  0
 27 58  1  0  0  0  0
M  END
> <s_m_source_file>
AV-unprocessed.smi

> <i_m_source_file_index>
213

> <i_lp_mmshare_version>
43012

> <i_f3d_flags>
0

> <s_epik_input>
W0NIMl0xW0NIMl1PW0NIMl1bQ0gyXU4xW0NIMl1bQ0BASF0oW0NIM10pTihbQ0gzXSljKG5bY0hdbjIpYyhjMjMpbltjSF1uM1tDSDJdW0NASF0oW09IXSlbQ0BASF00W0NIMl1bQ0gyXVtDSDJdTzQ=

> <s_epik_cmdline>
J2VwaWtfcHl0aG9uJywgJy1waCcsICc3LjAnLCAnLXRuJywgJzgnLCAnLW1hJywgJzIwMCcsICctbWV0YWxfYmluZGluZycsICctaW1hZScsICc8aW5maWxlLm1hZT4nLCAnLW9tYWUnLCAnPG91dGZpbGUubWFlPic=

> <r_lp_tautomer_probability>
1

> <r_epik_Ionization_Penalty>
0.423322

> <r_epik_Ionization_Penalty_Charging>
0

> <r_epik_Ionization_Penalty_Neutral>
0.423322

> <r_epik_State_Penalty>
0.569486

> <r_epik_Charging_Adjusted_Penalty>
0.569486

> <i_epik_Tot_Q>
0

> <i_epik_Tot_abs_Q>
0

> <r_epik_Metal_State_Penalty>
0.568671

> <b_epik_Metal_Only>
0

> <s_lp_Force_Field>
OPLS_2005

> <r_lp_Energy>
51.7694

> <b_lp_Chiralities_Consistent>
1

> <s_lp_Variant>
AV-unprocessed.smi:213-11

> <Gold.Version>
5.8.1

> <Gold.Id.Protein>
6NUR|6NUR_protein|mol2

> <Gold.PLP.Fitness>
40.3755

> <Gold.PLP.PLP>
-40.1720

> <Gold.PLP.part.hbond>
-0.7107

> <Gold.PLP.part.metal>
0.0000

> <Gold.PLP.part.buried>
-3.6630

> <Gold.PLP.part.nonpolar>
-36.9730

> <Gold.PLP.part.repulsive>
0.7903

> <Gold.PLP.ligand.clash>
0.0000

> <Gold.PLP.ligand.torsion>
0.7502

> <Gold.PLP.Chemscore.Hbond>
0.0000

> <Gold.PLP.Chemscore.CHOScore>
0.4507

> <Gold.PLP.Chemscore.Metal>
0.0000

> <Gold.Chemscore.Hbonds>
donor molecule, donor type, donor heavy atom, donor atom, acceptor molecule, acceptor atom, score
      L1  C    19    47       P1  8028  0.34

> <Gold.PLP.Chemscore.Internal.Correction>
0.3520

> <Gold.Rescore>
     Score         DG    S(hbond)    S(metal)    S(lipo)     H(rot)  DE(clash)    DE(int)     intcor
      6.55     -10.17       0.00        0.00      99.96       2.74       0.30       3.32       ----

> <Gold.Chemscore.Fitness>
6.5528

> <Gold.Chemscore.DG>
-10.1664

> <Gold.Chemscore.ZeroCoef>
-5.4800

> <Gold.Chemscore.Hbond>
0.0001

> <Gold.Chemscore.Metal>
0.0000

> <Gold.Chemscore.Lipo>
99.9551

> <Gold.Chemscore.Internal_Hbond>
0.0000

> <Gold.Chemscore.DEClash>
0.2963

> <Gold.Chemscore.DEInternal>
3.3173

> <Gold.Chemscore.Rot>
2.7378

> <Gold.Chemscore.Internal.Correction>
   9.000000E+99

> <Gold.Chemscore.Hbond.Weighted>
-0.0003

> <Gold.Chemscore.Metal.Weighted>
-0.0000

> <Gold.Chemscore.Lipo.Weighted>
-11.6948

> <Gold.Chemscore.Internal_Hbond.Weighted>
0.0000

> <Gold.Chemscore.DEClash.Weighted>
0.2963

> <Gold.Chemscore.DEInternal.Weighted>
3.3173

> <Gold.Chemscore.Rot.Weighted>
7.0087

> <Gold.Chemscore.Internal.Correction.Weighted>
   9.000000E+99

> <Gold.Protein.RotatedTorsions>
[ 6907 6896 6895 6894 ] final -121.27 input  -60.11 | X-H torsion
[ 7974 7965 7964 7962 ] final  -91.24 input  175.53 | X-H torsion
[ 8008 7997 7996 7995 ] final   21.76 input   59.86 | X-H torsion
[ 10167 10162 10161 10158 ] final  127.70 input  -65.29 | X-H torsion
[ 10718 10713 10712 10709 ] final  -38.87 input   66.30 | X-H torsion
[ 10763 10752 10751 10750 ] final   36.39 input  -60.55 | X-H torsion
[ 11005 11000 10999 10996 ] final  158.22 input  -57.11 | X-H torsion

> <Gold.Protein.ActiveResidues>
 VAL166  LYS551  ARG553  GLY616  TRP617  ASP618  TYR619  PRO620  LYS621  CYS622 
 ASP623  PHE694  ASN695  SER759  ASP760  ASP761  ALA762  ILE779  LEU786  VAL792 
 PHE793  MET794  SER795  GLU796  ALA797  LYS798  CYS799  TRP800  GLU811  SER814 

> <Gold.Protein.RotatedAtoms>
  150.8468  133.7849  159.3039 H   0  0  0  0  0  0  0  0  0  0  0  0  # atno 6907 bound_to 6896
  151.5533  135.1065  159.9964 H   0  0  0  0  0  0  0  0  0  0  0  0  # atno 6908 bound_to 6896
  152.4520  133.7605  159.6800 H   0  0  0  0  0  0  0  0  0  0  0  0  # atno 6909 bound_to 6896
  145.4158  140.9548  143.2209 H   0  0  0  0  0  0  0  0  0  0  0  0  # atno 7974 bound_to 7965
  154.9554  140.3071  155.5055 H   0  0  0  0  0  0  0  0  0  0  0  0  # atno 8008 bound_to 7997
  156.2983  140.2311  156.4573 H   0  0  0  0  0  0  0  0  0  0  0  0  # atno 8009 bound_to 7997
  154.8015  140.0434  157.1264 H   0  0  0  0  0  0  0  0  0  0  0  0  # atno 8010 bound_to 7997
  139.5564  144.6852  151.4169 H   0  0  0  0  0  0  0  0  0  0  0  0  # atno 10167 bound_to 10162
  156.2989  130.4237  149.8163 H   0  0  0  0  0  0  0  0  0  0  0  0  # atno 10718 bound_to 10713
  153.0079  135.6307  154.1977 H   0  0  0  0  0  0  0  0  0  0  0  0  # atno 10763 bound_to 10752
  154.1720  135.2818  155.3079 H   0  0  0  0  0  0  0  0  0  0  0  0  # atno 10764 bound_to 10752
  154.5901  135.5620  153.7330 H   0  0  0  0  0  0  0  0  0  0  0  0  # atno 10765 bound_to 10752
  140.1844  134.8452  157.2841 H   0  0  0  0  0  0  0  0  0  0  0  0  # atno 11005 bound_to 11000
  144.8278  139.5679  143.6957 LP  0  0  0  0  0  0  0  0  0  0  0  0  # atno 17320 bound_to 7965
  146.2682  139.6570  142.9315 LP  0  0  0  0  0  0  0  0  0  0  0  0  # atno 17321 bound_to 7965
  140.6838  143.8021  150.7157 LP  0  0  0  0  0  0  0  0  0  0  0  0  # atno 17342 bound_to 10162
  140.1482  143.4380  152.2148 LP  0  0  0  0  0  0  0  0  0  0  0  0  # atno 17343 bound_to 10162
  156.5549  130.8358  151.3311 LP  0  0  0  0  0  0  0  0  0  0  0  0  # atno 17370 bound_to 10713
  157.7362  130.9776  150.2127 LP  0  0  0  0  0  0  0  0  0  0  0  0  # atno 17371 bound_to 10713
  140.2230  134.4000  155.7557 LP  0  0  0  0  0  0  0  0  0  0  0  0  # atno 17394 bound_to 11000
  141.2224  133.7176  156.8520 LP  0  0  0  0  0  0  0  0  0  0  0  0  # atno 17395 bound_to 11000

$$$$
