#       Name:                AV-unprocessed.smi:2148
#       Creating user name   scv26
#       Creation time:       Fri Mar 27 11:52:32 2020


#       File generated by GOLD software.
#

@<TRIPOS>MOLECULE
AV-unprocessed.smi:2148
    50    51     1
SMALL
NO_CHARGES


@<TRIPOS>ATOM
      1 ****        -5.0984  -0.3388   3.2491 C.3            1 S1                 0.0000
      2 ****        -5.8249  -1.6993   2.2947 S.3            1 S1                 0.0000
      3 ****        -5.4373  -1.1791   0.5961 C.3            1 S1                 0.0000
      4 ****        -6.3074  -1.9530  -0.4071 C.3            1 S1                 0.0000
      5 ****        -3.9441  -1.3317   0.2771 C.2            1 S1                 0.0000
      6 ****        -3.4832  -2.4441   0.0211 O.2            1 S1                 0.0000
      7 ****        -3.2169  -0.2000   0.3303 N.am           1 S1                 0.0000
      8 ****        -1.8219  -0.0358   0.1202 C.ar           1 S1                 0.0000
      9 ****        -1.1924   1.0845   0.6960 C.ar           1 S1                 0.0000
     10 ****         0.1881   1.2747   0.4994 C.ar           1 S1                 0.0000
     11 ****         0.9084   0.3400  -0.2801 C.ar           1 S1                 0.0000
     12 ****         2.2964   0.5040  -0.4731 N.3            1 S1                 0.0000
     13 ****         3.0844   0.6069   0.7520 C.3            1 S1                 0.0000
     14 ****         4.5165   1.0908   0.4512 C.3            1 S1                 0.0000
     15 ****         4.5997   2.5949   0.1350 C.3            1 S1                 0.0000
     16 ****         5.1047   0.2884  -0.5749 O.3            1 S1                 0.0000
     17 ****         4.3596   0.2327  -1.7906 C.3            1 S1                 0.0000
     18 ****         5.1216  -0.6643  -2.7712 C.3            1 S1                 0.0000
     19 ****         2.9445  -0.3009  -1.5048 C.3            1 S1                 0.0000
     20 ****         0.2967  -0.7226  -0.8585 N.ar           1 S1                 0.0000
     21 ****        -1.0269  -0.9036  -0.6650 C.ar           1 S1                 0.0000
     22 ****        -5.3034  -0.4773   4.3105 H              1 S1                 0.0000
     23 ****        -5.5228   0.6156   2.9374 H              1 S1                 0.0000
     24 ****        -4.0177  -0.3028   3.1124 H              1 S1                 0.0000
     25 ****        -5.7053  -0.1247   0.5128 H              1 S1                 0.0000
     26 ****        -6.0763  -1.6709  -1.4349 H              1 S1                 0.0000
     27 ****        -7.3650  -1.7458  -0.2417 H              1 S1                 0.0000
     28 ****        -6.1660  -3.0307  -0.3157 H              1 S1                 0.0000
     29 ****        -3.7099   0.6266   0.6353 H              1 S1                 0.0000
     30 ****        -1.7568   1.7902   1.2881 H              1 S1                 0.0000
     31 ****         0.6755   2.1338   0.9364 H              1 S1                 0.0000
     32 ****         2.6223   1.2725   1.4801 H              1 S1                 0.0000
     33 ****         3.1232  -0.3808   1.2135 H              1 S1                 0.0000
     34 ****         5.1166   0.9246   1.3463 H              1 S1                 0.0000
     35 ****         4.2699   3.1859   0.9896 H              1 S1                 0.0000
     36 ****         3.9737   2.8757  -0.7115 H              1 S1                 0.0000
     37 ****         5.6244   2.8888  -0.0934 H              1 S1                 0.0000
     38 ****         4.2935   1.2294  -2.2271 H              1 S1                 0.0000
     39 ****         4.6002  -0.7342  -3.7262 H              1 S1                 0.0000
     40 ****         5.2351  -1.6741  -2.3759 H              1 S1                 0.0000
     41 ****         6.1190  -0.2688  -2.9649 H              1 S1                 0.0000
     42 ****         2.9924  -1.3390  -1.1723 H              1 S1                 0.0000
     43 ****         2.3569  -0.2787  -2.4237 H              1 S1                 0.0000
     44 ****        -1.4451  -1.7586  -1.1731 H              1 S1                 0.0000
     45 ****        -4.0815  -3.2454   0.0214 LP             1 S1                 0.0000
     46 ****        -2.5105  -2.5465  -0.1871 LP             1 S1                 0.0000
     47 ****         2.2968   1.4156  -0.8842 LP             1 S1                 0.0000
     48 ****         5.1998  -0.6436  -0.2251 LP             1 S1                 0.0000
     49 ****         6.0095   0.6610  -0.7811 LP             1 S1                 0.0000
     50 ****         0.8189  -1.3637  -1.4209 LP             1 S1                 0.0000
@<TRIPOS>BOND
    1    1    2 1     
    2    1   22 1     
    3    1   23 1     
    4    1   24 1     
    5    2    3 1     
    6    3    4 1     
    7    3    5 1     
    8    3   25 1     
    9    4   26 1     
   10    4   27 1     
   11    4   28 1     
   12    5    6 2     
   13    5    7 am    
   14    7    8 1     
   15    7   29 1     
   16    8   21 ar    
   17    8    9 ar    
   18    9   10 ar    
   19    9   30 1     
   20   10   11 ar    
   21   10   31 1     
   22   11   12 1     
   23   11   20 ar    
   24   12   19 1     
   25   12   13 1     
   26   13   14 1     
   27   13   32 1     
   28   13   33 1     
   29   14   15 1     
   30   14   16 1     
   31   14   34 1     
   32   15   35 1     
   33   15   36 1     
   34   15   37 1     
   35   16   17 1     
   36   17   18 1     
   37   17   19 1     
   38   17   38 1     
   39   18   39 1     
   40   18   40 1     
   41   18   41 1     
   42   19   42 1     
   43   19   43 1     
   44   20   21 ar    
   45   21   44 1     
   46    6   45 1     
   47    6   46 1     
   48   12   47 1     
   49   16   48 1     
   50   16   49 1     
   51   20   50 1     
@<TRIPOS>SUBSTRUCTURE
      1 S1             1
@<TRIPOS>SET
LONE_PAIRS      STATIC     ATOMS    <user>   **** ""
6 45 46 47 48 49 50
DONOR_HYDROGENS      STATIC     ATOMS    <user>   **** ""
1 29
ATOM$BLUE        STATIC     ATOMS    COLORGROUP SYSTEM
6 45 46 47 48 49 50
ATOM$RED        STATIC     ATOMS    COLORGROUP SYSTEM
1 29
