AV-unprocessed.smi:1135|AV-procd|sdf|4858|dock10
  -GOLD-   22720 3433D 1   1.00000     0.00000
 Structure written by MMmdl.
 45 46  0  0  0  0  0  0  0  0  1 V2000
  150.3168  142.0293  157.2933 C   0  0  0  0  0  0  0  0  0  0  0  0
  149.3037  141.2484  156.4445 C   0  0  2  0  0  0  0  0  0  0  0  0
  149.4535  141.5752  154.9497 C   0  0  0  0  0  0  0  0  0  0  0  0
  148.4341  140.8037  154.0931 C   0  0  0  0  0  0  0  0  0  0  0  0
  146.9614  141.0103  154.5298 C   0  0  1  0  0  0  0  0  0  0  0  0
  146.4864  142.4362  154.1586 C   0  0  0  0  0  0  0  0  0  0  0  0
  146.1774  140.0159  153.7845 N   0  0  0  0  0  0  0  0  0  0  0  0
  146.3625  138.6867  153.7159 C   0  0  0  0  0  0  0  0  0  0  0  0
  147.2584  138.0724  154.2952 O   0  0  0  0  0  0  0  0  0  0  0  0
  145.4418  138.1022  152.9369 N   0  0  0  0  0  0  0  0  0  0  0  0
  145.3552  136.6693  152.6798 C   0  0  0  0  0  0  0  0  0  0  0  0
  145.7032  136.3382  151.2190 C   0  0  0  0  0  0  0  0  0  0  0  0
  145.6450  134.8489  150.9360 C   0  0  0  0  0  0  0  0  0  0  0  0
  144.5696  134.2962  150.2080 C   0  0  0  0  0  0  0  0  0  0  0  0
  144.5608  132.9073  149.9745 C   0  0  0  0  0  0  0  0  0  0  0  0
  145.6207  132.1284  150.4771 C   0  0  0  0  0  0  0  0  0  0  0  0
  146.6467  132.7758  151.1940 C   0  0  0  0  0  0  0  0  0  0  0  0
  146.6660  134.1071  151.4219 N   0  0  0  0  0  0  0  0  0  0  0  0
  146.8362  140.7408  156.0544 C   0  0  0  0  0  0  0  0  0  0  0  0
  147.8601  141.5167  156.9014 C   0  0  0  0  0  0  0  0  0  0  0  0
  150.1648  143.1053  157.2012 H   0  0  0  0  0  0  0  0  0  0  0  0
  151.3392  141.8100  156.9841 H   0  0  0  0  0  0  0  0  0  0  0  0
  150.2292  141.7700  158.3487 H   0  0  0  0  0  0  0  0  0  0  0  0
  149.5089  140.1854  156.5807 H   0  0  0  0  0  0  0  0  0  0  0  0
  149.3395  142.6476  154.7895 H   0  0  0  0  0  0  0  0  0  0  0  0
  150.4624  141.3273  154.6179 H   0  0  0  0  0  0  0  0  0  0  0  0
  148.5574  141.0791  153.0447 H   0  0  0  0  0  0  0  0  0  0  0  0
  148.6835  139.7427  154.1525 H   0  0  0  0  0  0  0  0  0  0  0  0
  147.0993  143.2061  154.6253 H   0  0  0  0  0  0  0  0  0  0  0  0
  145.4606  142.6212  154.4766 H   0  0  0  0  0  0  0  0  0  0  0  0
  146.5299  142.5985  153.0811 H   0  0  0  0  0  0  0  0  0  0  0  0
  145.4009  140.3886  153.2577 H   0  0  0  0  0  0  0  0  0  0  0  0
  144.7455  138.6874  152.4989 H   0  0  0  0  0  0  0  0  0  0  0  0
  146.0484  136.1633  153.3525 H   0  0  0  0  0  0  0  0  0  0  0  0
  144.3578  136.3020  152.9275 H   0  0  0  0  0  0  0  0  0  0  0  0
  145.0198  136.8542  150.5433 H   0  0  0  0  0  0  0  0  0  0  0  0
  146.7031  136.7041  150.9814 H   0  0  0  0  0  0  0  0  0  0  0  0
  143.7694  134.9202  149.8373 H   0  0  0  0  0  0  0  0  0  0  0  0
  143.7551  132.4481  149.4211 H   0  0  0  0  0  0  0  0  0  0  0  0
  145.6459  131.0604  150.3182 H   0  0  0  0  0  0  0  0  0  0  0  0
  147.4735  132.2089  151.5958 H   0  0  0  0  0  0  0  0  0  0  0  0
  145.8326  140.9802  156.4065 H   0  0  0  0  0  0  0  0  0  0  0  0
  146.9740  139.6751  156.2448 H   0  0  0  0  0  0  0  0  0  0  0  0
  147.7461  141.2358  157.9488 H   0  0  0  0  0  0  0  0  0  0  0  0
  147.6466  142.5846  156.8507 H   0  0  0  0  0  0  0  0  0  0  0  0
  1  2  1  0  0  0  0
  1 21  1  0  0  0  0
  1 22  1  0  0  0  0
  1 23  1  0  0  0  0
  2 20  1  0  0  0  0
  2  3  1  0  0  0  0
  2 24  1  0  0  0  0
  3  4  1  0  0  0  0
  3 25  1  0  0  0  0
  3 26  1  0  0  0  0
  4  5  1  0  0  0  0
  4 27  1  0  0  0  0
  4 28  1  0  0  0  0
  5  6  1  0  0  0  0
  5  7  1  0  0  0  0
  5 19  1  0  0  0  0
  6 29  1  0  0  0  0
  6 30  1  0  0  0  0
  6 31  1  0  0  0  0
  7  8  1  0  0  0  0
  7 32  1  0  0  0  0
  8  9  2  0  0  0  0
  8 10  1  0  0  0  0
 10 11  1  0  0  0  0
 10 33  1  0  0  0  0
 11 12  1  0  0  0  0
 11 34  1  0  0  0  0
 11 35  1  0  0  0  0
 12 13  1  0  0  0  0
 12 36  1  0  0  0  0
 12 37  1  0  0  0  0
 13 18  1  0  0  0  0
 13 14  2  0  0  0  0
 14 15  1  0  0  0  0
 14 38  1  0  0  0  0
 15 16  2  0  0  0  0
 15 39  1  0  0  0  0
 16 17  1  0  0  0  0
 16 40  1  0  0  0  0
 17 18  2  0  0  0  0
 17 41  1  0  0  0  0
 19 20  1  0  0  0  0
 19 42  1  0  0  0  0
 19 43  1  0  0  0  0
 20 44  1  0  0  0  0
 20 45  1  0  0  0  0
M  END
> <s_m_source_file>
AV-unprocessed.smi

> <i_m_source_file_index>
1135

> <i_lp_mmshare_version>
43012

> <i_f3d_flags>
0

> <s_epik_input>
W0NIMl0xW0NIMl1bQ0BIXShbQ0gzXSlbQ0gyXVtDSDJdW0NAQF0xKFtDSDNdKVtOSF1DKD1PKVtOSF1bQ0gyXVtDSDJdYzJbY0hdW2NIXVtjSF1bY0hdbjI=

> <s_epik_cmdline>
J2VwaWtfcHl0aG9uJywgJy1waCcsICc3LjAnLCAnLXRuJywgJzgnLCAnLW1hJywgJzIwMCcsICctbWV0YWxfYmluZGluZycsICctaW1hZScsICc8aW5maWxlLm1hZT4nLCAnLW9tYWUnLCAnPG91dGZpbGUubWFlPic=

> <r_epik_Ionization_Penalty>
0.0448679

> <r_epik_Ionization_Penalty_Charging>
0

> <r_epik_Ionization_Penalty_Neutral>
0.0448679

> <r_epik_State_Penalty>
0.0379931

> <r_epik_Charging_Adjusted_Penalty>
0.0379931

> <i_epik_Tot_Q>
0

> <i_epik_Tot_abs_Q>
0

> <r_epik_Metal_State_Penalty>
0.0353093

> <b_epik_Metal_Only>
0

> <s_lp_Force_Field>
OPLS_2005

> <r_lp_Energy>
8.69074

> <b_lp_Chiralities_Consistent>
1

> <s_lp_Variant>
AV-unprocessed.smi:1135-1

> <Gold.Version>
5.8.1

> <Gold.Id.Protein>
6NUR|6NUR_protein|mol2

> <Gold.PLP.Fitness>
44.5203

> <Gold.PLP.PLP>
-36.1678

> <Gold.PLP.part.hbond>
-2.0000

> <Gold.PLP.part.metal>
0.0000

> <Gold.PLP.part.buried>
-3.5038

> <Gold.PLP.part.nonpolar>
-31.1018

> <Gold.PLP.part.repulsive>
0.3264

> <Gold.PLP.ligand.clash>
0.0000

> <Gold.PLP.ligand.torsion>
0.2718

> <Gold.PLP.Chemscore.Hbond>
2.0000

> <Gold.PLP.Chemscore.CHOScore>
0.9604

> <Gold.PLP.Chemscore.Metal>
0.0000

> <Gold.Chemscore.Hbonds>
donor molecule, donor type, donor heavy atom, donor atom, acceptor molecule, acceptor atom, score
      L1  H     7    32       P1 10175  1.00
      L1  H    10    33       P1 10175  0.93
      L1  C    17    41       P1 10747  0.89

> <Gold.PLP.Chemscore.Internal.Correction>
0.0150

> <Gold.Rescore>
     Score         DG    S(hbond)    S(metal)    S(lipo)     H(rot)  DE(clash)    DE(int)     intcor
     17.73     -18.96       1.92        0.00      91.58       1.42       0.02       1.21       ----

> <Gold.Chemscore.Fitness>
17.7269

> <Gold.Chemscore.DG>
-18.9589

> <Gold.Chemscore.ZeroCoef>
-5.4800

> <Gold.Chemscore.Hbond>
1.9168

> <Gold.Chemscore.Metal>
0.0000

> <Gold.Chemscore.Lipo>
91.5845

> <Gold.Chemscore.Internal_Hbond>
0.0000

> <Gold.Chemscore.DEClash>
0.0174

> <Gold.Chemscore.DEInternal>
1.2146

> <Gold.Chemscore.Rot>
1.4213

> <Gold.Chemscore.Internal.Correction>
   9.000000E+99

> <Gold.Chemscore.Hbonds>
donor molecule, donor type, donor heavy atom, donor atom, acceptor molecule, acceptor atom, score
      L1  H     7    32       P1 10175  0.97
      L1  H    10    33       P1 10175  0.84

> <Gold.Chemscore.Hbond.Weighted>
-6.4020

> <Gold.Chemscore.Metal.Weighted>
-0.0000

> <Gold.Chemscore.Lipo.Weighted>
-10.7154

> <Gold.Chemscore.Internal_Hbond.Weighted>
0.0000

> <Gold.Chemscore.DEClash.Weighted>
0.0174

> <Gold.Chemscore.DEInternal.Weighted>
1.2146

> <Gold.Chemscore.Rot.Weighted>
3.6385

> <Gold.Chemscore.Internal.Correction.Weighted>
   9.000000E+99

> <Gold.Protein.RotatedTorsions>
[ 6907 6896 6895 6894 ] final -124.35 input  -60.11 | X-H torsion
[ 7974 7965 7964 7962 ] final -165.34 input  175.53 | X-H torsion
[ 8008 7997 7996 7995 ] final -123.61 input   59.86 | X-H torsion
[ 10167 10162 10161 10158 ] final    4.38 input  -65.29 | X-H torsion
[ 10718 10713 10712 10709 ] final -121.95 input   66.30 | X-H torsion
[ 10763 10752 10751 10750 ] final   12.96 input  -60.55 | X-H torsion
[ 11005 11000 10999 10996 ] final  -52.05 input  -57.11 | X-H torsion

> <Gold.Protein.ActiveResidues>
 VAL166  LYS551  ARG553  GLY616  TRP617  ASP618  TYR619  PRO620  LYS621  CYS622 
 ASP623  PHE694  ASN695  SER759  ASP760  ASP761  ALA762  ILE779  LEU786  VAL792 
 PHE793  MET794  SER795  GLU796  ALA797  LYS798  CYS799  TRP800  GLU811  SER814 

> <Gold.Protein.RotatedAtoms>
  150.8760  133.7439  159.2946 H   0  0  0  0  0  0  0  0  0  0  0  0  # atno 6907 bound_to 6896
  151.5035  135.1061  159.9845 H   0  0  0  0  0  0  0  0  0  0  0  0  # atno 6908 bound_to 6896
  152.4727  133.8022  159.7015 H   0  0  0  0  0  0  0  0  0  0  0  0  # atno 6909 bound_to 6896
  144.7272  140.2828  143.6233 H   0  0  0  0  0  0  0  0  0  0  0  0  # atno 7974 bound_to 7965
  155.1833  140.0411  157.2886 H   0  0  0  0  0  0  0  0  0  0  0  0  # atno 8008 bound_to 7997
  154.6188  140.2495  155.7547 H   0  0  0  0  0  0  0  0  0  0  0  0  # atno 8009 bound_to 7997
  156.2422  140.2899  156.0486 H   0  0  0  0  0  0  0  0  0  0  0  0  # atno 8010 bound_to 7997
  140.6537  143.7480  150.7618 H   0  0  0  0  0  0  0  0  0  0  0  0  # atno 10167 bound_to 10162
  156.1379  130.6444  150.9725 H   0  0  0  0  0  0  0  0  0  0  0  0  # atno 10718 bound_to 10713
  153.1769  135.6821  153.8530 H   0  0  0  0  0  0  0  0  0  0  0  0  # atno 10763 bound_to 10752
  153.7875  135.3173  155.3375 H   0  0  0  0  0  0  0  0  0  0  0  0  # atno 10764 bound_to 10752
  154.8035  135.4763  154.0427 H   0  0  0  0  0  0  0  0  0  0  0  0  # atno 10765 bound_to 10752
  141.0904  133.6634  156.3968 H   0  0  0  0  0  0  0  0  0  0  0  0  # atno 11005 bound_to 11000
  145.7932  139.1935  143.2091 LP  0  0  0  0  0  0  0  0  0  0  0  0  # atno 17320 bound_to 7965
  146.0738  140.7839  142.9675 LP  0  0  0  0  0  0  0  0  0  0  0  0  # atno 17321 bound_to 7965
  140.1136  143.4677  152.2355 LP  0  0  0  0  0  0  0  0  0  0  0  0  # atno 17342 bound_to 10162
  139.5756  144.7486  151.3773 LP  0  0  0  0  0  0  0  0  0  0  0  0  # atno 17343 bound_to 10162
  157.6549  131.0891  150.7970 LP  0  0  0  0  0  0  0  0  0  0  0  0  # atno 17370 bound_to 10713
  156.8048  130.4933  149.5364 LP  0  0  0  0  0  0  0  0  0  0  0  0  # atno 17371 bound_to 10713
  140.5265  134.6253  157.5336 LP  0  0  0  0  0  0  0  0  0  0  0  0  # atno 17394 bound_to 11000
  139.9729  134.7263  156.0006 LP  0  0  0  0  0  0  0  0  0  0  0  0  # atno 17395 bound_to 11000

$$$$
