AV-unprocessed.smi:648|AV-procd|sdf|3177|dock1
  -GOLD-   22720 0103D 1   1.00000     0.00000
 Structure written by MMmdl.
 45 46  0  0  0  0  0  0  0  0  1 V2000
  151.2973  142.4056  157.2157 C   0  0  0  0  0  0  0  0  0  0  0  0
  150.5922  141.1770  156.6225 C   0  0  1  0  0  0  0  0  0  0  0  0
  149.5108  141.5934  155.6098 C   0  0  0  0  0  0  0  0  0  0  0  0
  148.7616  140.3958  154.9832 C   0  0  0  0  0  0  0  0  0  0  0  0
  147.7934  139.7549  156.0041 C   0  0  0  0  0  0  0  0  0  0  0  0
  147.8992  140.9165  153.8148 C   0  0  0  0  0  0  0  0  0  0  0  0
  149.7833  139.3680  154.4166 C   0  0  0  0  0  0  0  0  0  0  0  0
  150.9574  138.9481  155.3500 C   0  0  2  0  0  0  0  0  0  0  0  0
  151.9857  138.1759  154.4687 C   0  0  0  0  0  0  0  0  0  0  0  0
  151.5342  136.9053  154.0404 O   0  0  0  0  0  0  0  0  0  0  0  0
  150.4135  138.0298  156.3706 N   0  0  0  0  0  0  0  0  0  0  0  0
  151.3429  137.3786  157.2956 C   0  0  0  0  0  0  0  0  0  0  0  0
  151.1132  137.8832  158.7260 C   0  0  0  0  0  0  0  0  0  0  0  0
  152.2338  137.5727  159.5904 N   0  0  0  0  0  0  0  0  0  0  0  0
  153.0509  138.3759  160.2733 C   0  0  0  0  0  0  0  0  0  0  0  0
  153.9739  137.7306  160.9732 N   0  0  0  0  0  0  0  0  0  0  0  0
  153.6440  136.4438  160.6532 C   0  0  0  0  0  0  0  0  0  0  0  0
  152.6062  136.2935  159.8301 N   0  0  0  0  0  0  0  0  0  0  0  0
  151.6037  140.2214  155.9646 C   0  0  0  0  0  0  0  0  0  0  0  0
  151.8034  142.9854  156.4432 H   0  0  0  0  0  0  0  0  0  0  0  0
  152.0442  142.1113  157.9536 H   0  0  0  0  0  0  0  0  0  0  0  0
  150.5854  143.0642  157.7141 H   0  0  0  0  0  0  0  0  0  0  0  0
  150.1173  140.6552  157.4531 H   0  0  0  0  0  0  0  0  0  0  0  0
  148.7972  142.2667  156.0869 H   0  0  0  0  0  0  0  0  0  0  0  0
  149.9858  142.1754  154.8183 H   0  0  0  0  0  0  0  0  0  0  0  0
  147.2902  138.8863  155.5782 H   0  0  0  0  0  0  0  0  0  0  0  0
  147.0197  140.4605  156.3077 H   0  0  0  0  0  0  0  0  0  0  0  0
  148.2887  139.4283  156.9160 H   0  0  0  0  0  0  0  0  0  0  0  0
  147.3516  140.1054  153.3332 H   0  0  0  0  0  0  0  0  0  0  0  0
  148.5072  141.3995  153.0487 H   0  0  0  0  0  0  0  0  0  0  0  0
  147.1669  141.6492  154.1557 H   0  0  0  0  0  0  0  0  0  0  0  0
  149.2565  138.4822  154.0575 H   0  0  0  0  0  0  0  0  0  0  0  0
  150.2161  139.8198  153.5227 H   0  0  0  0  0  0  0  0  0  0  0  0
  152.2814  138.7664  153.6003 H   0  0  0  0  0  0  0  0  0  0  0  0
  152.9012  137.9839  155.0291 H   0  0  0  0  0  0  0  0  0  0  0  0
  151.2710  136.9692  153.1350 H   0  0  0  0  0  0  0  0  0  0  0  0
  149.8427  137.3241  155.9168 H   0  0  0  0  0  0  0  0  0  0  0  0
  151.2098  136.2978  157.2791 H   0  0  0  0  0  0  0  0  0  0  0  0
  152.3748  137.5814  157.0108 H   0  0  0  0  0  0  0  0  0  0  0  0
  150.9658  138.9641  158.7271 H   0  0  0  0  0  0  0  0  0  0  0  0
  150.2126  137.4383  159.1514 H   0  0  0  0  0  0  0  0  0  0  0  0
  152.9697  139.4529  160.2587 H   0  0  0  0  0  0  0  0  0  0  0  0
  154.1844  135.5920  161.0397 H   0  0  0  0  0  0  0  0  0  0  0  0
  152.1165  140.7658  155.1700 H   0  0  0  0  0  0  0  0  0  0  0  0
  152.3840  139.9652  156.6808 H   0  0  0  0  0  0  0  0  0  0  0  0
  1  2  1  0  0  0  0
  1 20  1  0  0  0  0
  1 21  1  0  0  0  0
  1 22  1  0  0  0  0
  2 19  1  0  0  0  0
  2  3  1  0  0  0  0
  2 23  1  0  0  0  0
  3  4  1  0  0  0  0
  3 24  1  0  0  0  0
  3 25  1  0  0  0  0
  4  5  1  0  0  0  0
  4  6  1  0  0  0  0
  4  7  1  0  0  0  0
  5 26  1  0  0  0  0
  5 27  1  0  0  0  0
  5 28  1  0  0  0  0
  6 29  1  0  0  0  0
  6 30  1  0  0  0  0
  6 31  1  0  0  0  0
  7  8  1  0  0  0  0
  7 32  1  0  0  0  0
  7 33  1  0  0  0  0
  8  9  1  0  0  0  0
  8 11  1  0  0  0  0
  8 19  1  0  0  0  0
  9 10  1  0  0  0  0
  9 34  1  0  0  0  0
  9 35  1  0  0  0  0
 10 36  1  0  0  0  0
 11 12  1  0  0  0  0
 11 37  1  0  0  0  0
 12 13  1  0  0  0  0
 12 38  1  0  0  0  0
 12 39  1  0  0  0  0
 13 14  1  0  0  0  0
 13 40  1  0  0  0  0
 13 41  1  0  0  0  0
 14 18  1  0  0  0  0
 14 15  1  0  0  0  0
 15 16  2  0  0  0  0
 15 42  1  0  0  0  0
 16 17  1  0  0  0  0
 17 18  2  0  0  0  0
 17 43  1  0  0  0  0
 19 44  1  0  0  0  0
 19 45  1  0  0  0  0
M  END
> <s_m_source_file>
AV-unprocessed.smi

> <i_m_source_file_index>
648

> <i_lp_mmshare_version>
43012

> <i_f3d_flags>
0

> <s_epik_input>
W0NIM11DMShbQ0gzXSlbQ0gyXVtDQEBIXShbQ0gzXSlbQ0gyXVtDQF0oW0NIMl0xKShbQ0gyXVtPSF0pW05IXVtDSDJdW0NIMl1uMltjSF1uW2NIXW4y

> <s_epik_cmdline>
J2VwaWtfcHl0aG9uJywgJy1waCcsICc3LjAnLCAnLXRuJywgJzgnLCAnLW1hJywgJzIwMCcsICctbWV0YWxfYmluZGluZycsICctaW1hZScsICc8aW5maWxlLm1hZT4nLCAnLW9tYWUnLCAnPG91dGZpbGUubWFlPic=

> <r_lp_tautomer_probability>
1

> <r_epik_Ionization_Penalty>
2.45849

> <r_epik_Ionization_Penalty_Charging>
0

> <r_epik_Ionization_Penalty_Neutral>
2.45849

> <r_epik_State_Penalty>
2.62037

> <r_epik_Charging_Adjusted_Penalty>
2.62037

> <i_epik_Tot_Q>
0

> <i_epik_Tot_abs_Q>
0

> <r_epik_Metal_State_Penalty>
2.62024

> <b_epik_Metal_Only>
0

> <s_lp_Force_Field>
OPLS_2005

> <r_lp_Energy>
32.8017

> <b_lp_Chiralities_Consistent>
1

> <s_lp_Variant>
AV-unprocessed.smi:648-8

> <Gold.Version>
5.8.1

> <Gold.Id.Protein>
6NUR|6NUR_protein|mol2

> <Gold.PLP.Fitness>
40.3268

> <Gold.PLP.PLP>
-32.3630

> <Gold.PLP.part.hbond>
-3.0000

> <Gold.PLP.part.metal>
0.0000

> <Gold.PLP.part.buried>
-4.7693

> <Gold.PLP.part.nonpolar>
-25.1219

> <Gold.PLP.part.repulsive>
0.0000

> <Gold.PLP.ligand.clash>
0.0000

> <Gold.PLP.ligand.torsion>
0.5448

> <Gold.PLP.Chemscore.Hbond>
2.9760

> <Gold.PLP.Chemscore.CHOScore>
0.0000

> <Gold.PLP.Chemscore.Metal>
0.0000

> <Gold.Chemscore.Hbonds>
donor molecule, donor type, donor heavy atom, donor atom, acceptor molecule, acceptor atom, score
      L1  H    10    36       P1  7949  0.86
      P1  H  6896  6908       L1    18  0.63
      P1  H 10752 10765       L1    10  1.00

> <Gold.PLP.Chemscore.Internal.Correction>
0.1255

> <Gold.Rescore>
     Score         DG    S(hbond)    S(metal)    S(lipo)     H(rot)  DE(clash)    DE(int)     intcor
     14.46     -14.91       2.68        0.00      72.22       3.12       0.01       0.44       ----

> <Gold.Chemscore.Fitness>
14.4590

> <Gold.Chemscore.DG>
-14.9077

> <Gold.Chemscore.ZeroCoef>
-5.4800

> <Gold.Chemscore.Hbond>
2.6829

> <Gold.Chemscore.Metal>
0.0000

> <Gold.Chemscore.Lipo>
72.2214

> <Gold.Chemscore.Internal_Hbond>
0.0000

> <Gold.Chemscore.DEClash>
0.0088

> <Gold.Chemscore.DEInternal>
0.4400

> <Gold.Chemscore.Rot>
3.1183

> <Gold.Chemscore.Internal.Correction>
   9.000000E+99

> <Gold.Chemscore.Hbonds>
donor molecule, donor type, donor heavy atom, donor atom, acceptor molecule, acceptor atom, score
      L1  H    10    36       P1  7949  0.55
      P1  H  6896  6908       L1    18  0.44
      P1  H 10752 10765       L1    10  0.22

> <Gold.Chemscore.Hbond.Weighted>
-8.9608

> <Gold.Chemscore.Metal.Weighted>
-0.0000

> <Gold.Chemscore.Lipo.Weighted>
-8.4499

> <Gold.Chemscore.Internal_Hbond.Weighted>
0.0000

> <Gold.Chemscore.DEClash.Weighted>
0.0088

> <Gold.Chemscore.DEInternal.Weighted>
0.4400

> <Gold.Chemscore.Rot.Weighted>
7.9829

> <Gold.Chemscore.Internal.Correction.Weighted>
   9.000000E+99

> <Gold.Protein.RotatedTorsions>
[ 6907 6896 6895 6894 ] final  -93.23 input  -60.11 | X-H torsion
[ 7974 7965 7964 7962 ] final  148.94 input  175.53 | X-H torsion
[ 8008 7997 7996 7995 ] final   63.09 input   59.86 | X-H torsion
[ 10167 10162 10161 10158 ] final -164.80 input  -65.29 | X-H torsion
[ 10718 10713 10712 10709 ] final  -54.73 input   66.30 | X-H torsion
[ 10763 10752 10751 10750 ] final  139.60 input  -60.55 | X-H torsion
[ 11005 11000 10999 10996 ] final   58.03 input  -57.11 | X-H torsion

> <Gold.Protein.ActiveResidues>
 VAL166  LYS551  ARG553  GLY616  TRP617  ASP618  TYR619  PRO620  LYS621  CYS622 
 ASP623  PHE694  ASN695  SER759  ASP760  ASP761  ALA762  ILE779  LEU786  VAL792 
 PHE793  MET794  SER795  GLU796  ALA797  LYS798  CYS799  TRP800  GLU811  SER814 

> <Gold.Protein.RotatedAtoms>
  150.6919  134.1999  159.4317 H   0  0  0  0  0  0  0  0  0  0  0  0  # atno 6907 bound_to 6896
  151.9966  134.9948  160.0573 H   0  0  0  0  0  0  0  0  0  0  0  0  # atno 6908 bound_to 6896
  152.1618  133.4551  159.4901 H   0  0  0  0  0  0  0  0  0  0  0  0  # atno 6909 bound_to 6896
  144.8476  139.6217  143.5988 H   0  0  0  0  0  0  0  0  0  0  0  0  # atno 7974 bound_to 7965
  155.6247  140.3496  155.4663 H   0  0  0  0  0  0  0  0  0  0  0  0  # atno 8008 bound_to 7997
  156.0051  140.1221  157.0533 H   0  0  0  0  0  0  0  0  0  0  0  0  # atno 8009 bound_to 7997
  154.4261  140.1093  156.5737 H   0  0  0  0  0  0  0  0  0  0  0  0  # atno 8010 bound_to 7997
  139.6226  144.0595  152.1946 H   0  0  0  0  0  0  0  0  0  0  0  0  # atno 10167 bound_to 10162
  156.1426  130.4154  150.0077 H   0  0  0  0  0  0  0  0  0  0  0  0  # atno 10718 bound_to 10713
  153.9088  135.3013  155.3448 H   0  0  0  0  0  0  0  0  0  0  0  0  # atno 10763 bound_to 10752
  154.7634  135.4923  153.9510 H   0  0  0  0  0  0  0  0  0  0  0  0  # atno 10764 bound_to 10752
  153.1204  135.6781  153.9446 H   0  0  0  0  0  0  0  0  0  0  0  0  # atno 10765 bound_to 10752
  140.0408  134.5876  155.9384 H   0  0  0  0  0  0  0  0  0  0  0  0  # atno 11005 bound_to 11000
  146.2757  139.6747  142.9264 LP  0  0  0  0  0  0  0  0  0  0  0  0  # atno 17320 bound_to 7965
  145.4566  141.0431  143.2775 LP  0  0  0  0  0  0  0  0  0  0  0  0  # atno 17321 bound_to 7965
  140.0240  144.6131  150.7542 LP  0  0  0  0  0  0  0  0  0  0  0  0  # atno 17342 bound_to 10162
  140.7391  143.2787  151.3663 LP  0  0  0  0  0  0  0  0  0  0  0  0  # atno 17343 bound_to 10162
  156.7958  130.9272  151.3646 LP  0  0  0  0  0  0  0  0  0  0  0  0  # atno 17370 bound_to 10713
  157.6589  130.8948  149.9787 LP  0  0  0  0  0  0  0  0  0  0  0  0  # atno 17371 bound_to 10713
  141.1882  133.6562  156.5314 LP  0  0  0  0  0  0  0  0  0  0  0  0  # atno 17394 bound_to 11000
  140.4072  134.7304  157.4815 LP  0  0  0  0  0  0  0  0  0  0  0  0  # atno 17395 bound_to 11000

$$$$
