AV-unprocessed.smi:2706|AV-procd|sdf|10444|dock3
  -GOLD-   2272014483D 1   1.00000     0.00000
 Structure written by MMmdl.
 43 46  0  0  0  0  0  0  0  0  1 V2000
  148.2502  136.6025  155.6389 C   0  0  0  0  0  0  0  0  0  0  0  0
  147.4576  136.9556  154.4677 N   0  0  0  0  0  0  0  0  0  0  0  0
  146.6309  135.9452  153.8150 C   0  0  0  0  0  0  0  0  0  0  0  0
  147.4453  138.2865  153.9919 C   0  0  0  0  0  0  0  0  0  0  0  0
  146.8195  138.6319  152.7699 C   0  0  0  0  0  0  0  0  0  0  0  0
  146.8426  139.9735  152.3488 C   0  0  0  0  0  0  0  0  0  0  0  0
  147.4864  140.9302  153.1537 C   0  0  0  0  0  0  0  0  0  0  0  0
  148.0896  140.5201  154.3611 C   0  0  0  0  0  0  0  0  0  0  0  0
  148.7161  141.5541  155.1063 N   0  0  0  0  0  0  0  0  0  0  0  0
  149.6165  141.4352  156.0984 C   0  0  0  0  0  0  0  0  0  0  0  0
  150.0485  140.3712  156.5441 O   0  0  0  0  0  0  0  0  0  0  0  0
  149.9929  142.6380  156.5543 N   0  0  0  0  0  0  0  0  0  0  0  0
  150.9254  142.8715  157.6089 C   0  0  2  0  0  0  0  0  0  0  0  0
  150.4657  143.7616  158.7455 C   0  0  1  0  0  0  0  0  0  0  0  0
  151.1664  143.9802  160.0843 C   0  0  1  0  0  0  0  0  0  0  0  0
  152.3414  142.9976  160.2690 C   0  0  0  0  0  0  0  0  0  0  0  0
  153.3745  143.5177  159.2449 C   0  0  0  0  0  0  0  0  0  0  0  0
  152.6446  144.7245  158.6189 C   0  0  2  0  0  0  0  0  0  0  0  0
  151.9188  145.2843  159.8383 C   0  0  0  0  0  0  0  0  0  0  0  0
  151.4813  144.2744  157.7384 C   0  0  1  0  0  0  0  0  0  0  0  0
  148.0595  139.2237  154.7541 N   0  0  0  0  0  0  0  0  0  0  0  0
  149.3088  136.7870  155.4547 H   0  0  0  0  0  0  0  0  0  0  0  0
  148.1361  135.5484  155.8920 H   0  0  0  0  0  0  0  0  0  0  0  0
  147.9374  137.1878  156.5043 H   0  0  0  0  0  0  0  0  0  0  0  0
  146.9040  135.8468  152.7639 H   0  0  0  0  0  0  0  0  0  0  0  0
  145.5764  136.2170  153.8737 H   0  0  0  0  0  0  0  0  0  0  0  0
  146.7507  134.9681  154.2832 H   0  0  0  0  0  0  0  0  0  0  0  0
  146.3244  137.8993  152.1506 H   0  0  0  0  0  0  0  0  0  0  0  0
  146.3734  140.2646  151.4209 H   0  0  0  0  0  0  0  0  0  0  0  0
  147.5133  141.9647  152.8437 H   0  0  0  0  0  0  0  0  0  0  0  0
  148.4485  142.4936  154.8535 H   0  0  0  0  0  0  0  0  0  0  0  0
  149.5842  143.4553  156.1254 H   0  0  0  0  0  0  0  0  0  0  0  0
  151.5847  142.0427  157.8551 H   0  0  0  0  0  0  0  0  0  0  0  0
  149.4719  144.2008  158.6753 H   0  0  0  0  0  0  0  0  0  0  0  0
  150.4654  144.0031  160.9190 H   0  0  0  0  0  0  0  0  0  0  0  0
  152.7429  143.0633  161.2811 H   0  0  0  0  0  0  0  0  0  0  0  0
  152.0518  141.9605  160.0980 H   0  0  0  0  0  0  0  0  0  0  0  0
  154.2847  143.8389  159.7530 H   0  0  0  0  0  0  0  0  0  0  0  0
  153.6592  142.7693  158.5048 H   0  0  0  0  0  0  0  0  0  0  0  0
  153.3001  145.4305  158.1086 H   0  0  0  0  0  0  0  0  0  0  0  0
  151.2614  146.1227  159.6010 H   0  0  0  0  0  0  0  0  0  0  0  0
  152.5847  145.5697  160.6550 H   0  0  0  0  0  0  0  0  0  0  0  0
  151.1165  145.0296  157.0443 H   0  0  0  0  0  0  0  0  0  0  0  0
  1  2  1  0  0  0  0
  1 22  1  0  0  0  0
  1 23  1  0  0  0  0
  1 24  1  0  0  0  0
  2  3  1  0  0  0  0
  2  4  1  0  0  0  0
  3 25  1  0  0  0  0
  3 26  1  0  0  0  0
  3 27  1  0  0  0  0
  4 21  1  0  0  0  0
  4  5  2  0  0  0  0
  5  6  1  0  0  0  0
  5 28  1  0  0  0  0
  6  7  2  0  0  0  0
  6 29  1  0  0  0  0
  7  8  1  0  0  0  0
  7 30  1  0  0  0  0
  8  9  1  0  0  0  0
  8 21  2  0  0  0  0
  9 10  1  0  0  0  0
  9 31  1  0  0  0  0
 10 11  2  0  0  0  0
 10 12  1  0  0  0  0
 12 13  1  0  0  0  0
 12 32  1  0  0  0  0
 13 20  1  0  0  0  0
 13 14  1  0  0  0  0
 13 33  1  0  0  0  0
 14 20  1  0  0  0  0
 14 15  1  0  0  0  0
 14 34  1  0  0  0  0
 15 19  1  0  0  0  0
 15 16  1  0  0  0  0
 15 35  1  0  0  0  0
 16 17  1  0  0  0  0
 16 36  1  0  0  0  0
 16 37  1  0  0  0  0
 17 18  1  0  0  0  0
 17 38  1  0  0  0  0
 17 39  1  0  0  0  0
 18 19  1  0  0  0  0
 18 20  1  0  0  0  0
 18 40  1  0  0  0  0
 19 41  1  0  0  0  0
 19 42  1  0  0  0  0
 20 43  1  0  0  0  0
M  END
> <s_m_source_file>
AV-unprocessed.smi

> <i_m_source_file_index>
2706

> <i_lp_mmshare_version>
43012

> <i_f3d_flags>
0

> <s_epik_input>
W0NIM11OKFtDSDNdKWMxW2NIXVtjSF1bY0hdYyhuMSlbTkhdQyg9TylbTkhdW0NASF0yW0NAQEhdM1tDQEBIXShbQ0gyXTQpW0NIMl1bQ0gyXVtDQEBIXTRbQ0BIXTIz

> <s_epik_cmdline>
J2VwaWtfcHl0aG9uJywgJy1waCcsICc3LjAnLCAnLXRuJywgJzgnLCAnLW1hJywgJzIwMCcsICctbWV0YWxfYmluZGluZycsICctaW1hZScsICc8aW5maWxlLm1hZT4nLCAnLW9tYWUnLCAnPG91dGZpbGUubWFlPic=

> <r_lp_tautomer_probability>
1

> <r_epik_Ionization_Penalty>
0.0296788

> <r_epik_Ionization_Penalty_Charging>
0

> <r_epik_Ionization_Penalty_Neutral>
0.0296788

> <r_epik_State_Penalty>
0.0248512

> <r_epik_Charging_Adjusted_Penalty>
0.0248512

> <i_epik_Tot_Q>
0

> <i_epik_Tot_abs_Q>
0

> <r_epik_Metal_State_Penalty>
0.0237882

> <b_epik_Metal_Only>
0

> <s_lp_Force_Field>
OPLS_2005

> <r_lp_Energy>
79.5337

> <b_lp_Chiralities_Consistent>
1

> <s_lp_Variant>
AV-unprocessed.smi:2706-1

> <Gold.Version>
5.8.1

> <Gold.Id.Protein>
6NUR|6NUR_protein|mol2

> <Gold.PLP.Fitness>
42.9608

> <Gold.PLP.PLP>
-40.0647

> <Gold.PLP.part.hbond>
-1.4168

> <Gold.PLP.part.metal>
0.0000

> <Gold.PLP.part.buried>
-2.2474

> <Gold.PLP.part.nonpolar>
-37.4407

> <Gold.PLP.part.repulsive>
0.3164

> <Gold.PLP.ligand.clash>
0.0000

> <Gold.PLP.ligand.torsion>
0.2206

> <Gold.PLP.Chemscore.Hbond>
1.0989

> <Gold.PLP.Chemscore.CHOScore>
0.0000

> <Gold.PLP.Chemscore.Metal>
0.0000

> <Gold.Chemscore.Hbonds>
donor molecule, donor type, donor heavy atom, donor atom, acceptor molecule, acceptor atom, score
      L1  H     9    31       P1  8028  0.07
      L1  H    12    32       P1  8028  0.98

> <Gold.PLP.Chemscore.Internal.Correction>
0.0406

> <Gold.Rescore>
     Score         DG    S(hbond)    S(metal)    S(lipo)     H(rot)  DE(clash)    DE(int)     intcor
     20.96     -23.09       1.82        0.00     120.30       1.00       0.79       1.35       ----

> <Gold.Chemscore.Fitness>
20.9554

> <Gold.Chemscore.DG>
-23.0893

> <Gold.Chemscore.ZeroCoef>
-5.4800

> <Gold.Chemscore.Hbond>
1.8245

> <Gold.Chemscore.Metal>
0.0000

> <Gold.Chemscore.Lipo>
120.3048

> <Gold.Chemscore.Internal_Hbond>
0.0000

> <Gold.Chemscore.DEClash>
0.7864

> <Gold.Chemscore.DEInternal>
1.3475

> <Gold.Chemscore.Rot>
1.0000

> <Gold.Chemscore.Internal.Correction>
   9.000000E+99

> <Gold.Chemscore.Hbonds>
donor molecule, donor type, donor heavy atom, donor atom, acceptor molecule, acceptor atom, score
      L1  H     9    31       P1  8028  0.10
      L1  H    12    32       P1  8028  0.91

> <Gold.Chemscore.Hbond.Weighted>
-6.0937

> <Gold.Chemscore.Metal.Weighted>
-0.0000

> <Gold.Chemscore.Lipo.Weighted>
-14.0757

> <Gold.Chemscore.Internal_Hbond.Weighted>
0.0000

> <Gold.Chemscore.DEClash.Weighted>
0.7864

> <Gold.Chemscore.DEInternal.Weighted>
1.3475

> <Gold.Chemscore.Rot.Weighted>
2.5600

> <Gold.Chemscore.Internal.Correction.Weighted>
   9.000000E+99

> <Gold.Protein.RotatedTorsions>
[ 6907 6896 6895 6894 ] final  141.88 input  -60.11 | X-H torsion
[ 7974 7965 7964 7962 ] final   24.47 input  175.53 | X-H torsion
[ 8008 7997 7996 7995 ] final  -60.71 input   59.86 | X-H torsion
[ 10167 10162 10161 10158 ] final -113.24 input  -65.29 | X-H torsion
[ 10718 10713 10712 10709 ] final -177.35 input   66.30 | X-H torsion
[ 10763 10752 10751 10750 ] final  164.30 input  -60.55 | X-H torsion
[ 11005 11000 10999 10996 ] final   24.27 input  -57.11 | X-H torsion

> <Gold.Protein.ActiveResidues>
 VAL166  LYS551  ARG553  GLY616  TRP617  ASP618  TYR619  PRO620  LYS621  CYS622 
 ASP623  PHE694  ASN695  SER759  ASP760  ASP761  ALA762  ILE779  LEU786  VAL792 
 PHE793  MET794  SER795  GLU796  ALA797  LYS798  CYS799  TRP800  GLU811  SER814 

> <Gold.Protein.RotatedAtoms>
  152.2256  133.5017  159.5186 H   0  0  0  0  0  0  0  0  0  0  0  0  # atno 6907 bound_to 6896
  150.7024  134.1285  159.4070 H   0  0  0  0  0  0  0  0  0  0  0  0  # atno 6908 bound_to 6896
  151.9206  135.0300  160.0572 H   0  0  0  0  0  0  0  0  0  0  0  0  # atno 6909 bound_to 6896
  146.1936  139.7601  142.8814 H   0  0  0  0  0  0  0  0  0  0  0  0  # atno 7974 bound_to 7965
  154.4412  140.1033  156.6317 H   0  0  0  0  0  0  0  0  0  0  0  0  # atno 8008 bound_to 7997
  155.5597  140.3487  155.4470 H   0  0  0  0  0  0  0  0  0  0  0  0  # atno 8009 bound_to 7997
  156.0468  140.1295  157.0083 H   0  0  0  0  0  0  0  0  0  0  0  0  # atno 8010 bound_to 7997
  140.1140  143.4502  152.1734 H   0  0  0  0  0  0  0  0  0  0  0  0  # atno 10167 bound_to 10162
  156.8282  130.9644  151.3108 H   0  0  0  0  0  0  0  0  0  0  0  0  # atno 10718 bound_to 10713
  154.3068  135.2758  155.2585 H   0  0  0  0  0  0  0  0  0  0  0  0  # atno 10763 bound_to 10752
  154.4998  135.5811  153.6525 H   0  0  0  0  0  0  0  0  0  0  0  0  # atno 10764 bound_to 10752
  152.9893  135.6155  154.3242 H   0  0  0  0  0  0  0  0  0  0  0  0  # atno 10765 bound_to 10752
  140.3605  134.2130  155.7672 H   0  0  0  0  0  0  0  0  0  0  0  0  # atno 11005 bound_to 11000
  145.3715  141.0343  143.3228 LP  0  0  0  0  0  0  0  0  0  0  0  0  # atno 17320 bound_to 7965
  144.8535  139.5285  143.6845 LP  0  0  0  0  0  0  0  0  0  0  0  0  # atno 17321 bound_to 7965
  139.5604  144.7401  151.4172 LP  0  0  0  0  0  0  0  0  0  0  0  0  # atno 17342 bound_to 10162
  140.6910  143.7862  150.7255 LP  0  0  0  0  0  0  0  0  0  0  0  0  # atno 17343 bound_to 10162
  157.6421  130.8814  149.9467 LP  0  0  0  0  0  0  0  0  0  0  0  0  # atno 17370 bound_to 10713
  156.0949  130.3660  150.0325 LP  0  0  0  0  0  0  0  0  0  0  0  0  # atno 17371 bound_to 10713
  141.1985  133.8033  157.0578 LP  0  0  0  0  0  0  0  0  0  0  0  0  # atno 17394 bound_to 11000
  140.0630  134.9744  157.1338 LP  0  0  0  0  0  0  0  0  0  0  0  0  # atno 17395 bound_to 11000

$$$$
