AV-unprocessed.smi:3068|AV-procd|sdf|11698|dock9
  -GOLD-   2272017103D 1   1.00000     0.00000
 Structure written by MMmdl.
 40 42  0  0  0  0  0  0  0  0  2 V2000
  153.0287  139.5790  154.6960 N   0  0  0  0  0  0  0  0  0  0  0  0
  152.2551  138.7514  154.9327 C   0  0  0  0  0  0  0  0  0  0  0  0
  151.2802  137.7096  155.2291 C   0  0  0  0  0  0  0  0  0  0  0  0
  151.5389  136.4767  154.7349 N   0  0  0  0  0  0  0  0  0  0  0  0
  150.6452  135.5019  155.0052 C   0  0  0  0  0  0  0  0  0  0  0  0
  149.4903  135.7522  155.7713 C   0  0  0  0  0  0  0  0  0  0  0  0
  149.2247  136.9785  156.2693 N   0  0  0  0  0  0  0  0  0  0  0  0
  150.1141  137.9681  156.0041 C   0  0  0  0  0  0  0  0  0  0  0  0
  149.8500  139.2534  156.5133 N   0  0  0  0  0  0  0  0  0  0  0  0
  149.4684  140.3644  155.6496 C   0  0  0  0  0  0  0  0  0  0  0  0
  149.4123  141.7032  156.4047 C   0  0  2  0  0  0  0  0  0  0  0  0
  150.8153  142.1737  156.8289 C   0  0  0  0  0  0  0  0  0  0  0  0
  150.7290  143.4252  157.6158 N   0  3  2  0  0  0  0  0  0  0  0  0
  152.0651  143.9392  158.0098 C   0  0  0  0  0  0  0  0  0  0  0  0
  151.9458  145.2856  158.7412 C   0  0  0  0  0  0  0  0  0  0  0  0
  151.0195  145.1649  159.9582 C   0  0  0  0  0  0  0  0  0  0  0  0
  149.6562  144.6065  159.5280 C   0  0  0  0  0  0  0  0  0  0  0  0
  149.8111  143.2692  158.7769 C   0  0  1  0  0  0  0  0  0  0  0  0
  148.4470  142.7333  158.2993 C   0  0  0  0  0  0  0  0  0  0  0  0
  148.6289  141.5209  157.5794 O   0  0  0  0  0  0  0  0  0  0  0  0
  150.8527  134.5186  154.6098 H   0  0  0  0  0  0  0  0  0  0  0  0
  148.7791  134.9679  155.9848 H   0  0  0  0  0  0  0  0  0  0  0  0
  149.8244  139.3936  157.5137 H   0  0  0  0  0  0  0  0  0  0  0  0
  150.1887  140.4294  154.8338 H   0  0  0  0  0  0  0  0  0  0  0  0
  148.5053  140.1484  155.1856 H   0  0  0  0  0  0  0  0  0  0  0  0
  148.9545  142.4650  155.7710 H   0  0  0  0  0  0  0  0  0  0  0  0
  151.3084  141.4020  157.4223 H   0  0  0  0  0  0  0  0  0  0  0  0
  151.4322  142.3423  155.9453 H   0  0  0  0  0  0  0  0  0  0  0  0
  152.5650  143.2088  158.6482 H   0  0  0  0  0  0  0  0  0  0  0  0
  152.6854  144.0615  157.1209 H   0  0  0  0  0  0  0  0  0  0  0  0
  152.9321  145.6286  159.0552 H   0  0  0  0  0  0  0  0  0  0  0  0
  151.5579  146.0415  158.0570 H   0  0  0  0  0  0  0  0  0  0  0  0
  151.4704  144.5070  160.7023 H   0  0  0  0  0  0  0  0  0  0  0  0
  150.8950  146.1377  160.4349 H   0  0  0  0  0  0  0  0  0  0  0  0
  149.0208  144.4730  160.4043 H   0  0  0  0  0  0  0  0  0  0  0  0
  149.1519  145.3334  158.8894 H   0  0  0  0  0  0  0  0  0  0  0  0
  150.2481  142.5355  159.4570 H   0  0  0  0  0  0  0  0  0  0  0  0
  147.7998  142.5357  159.1542 H   0  0  0  0  0  0  0  0  0  0  0  0
  147.9318  143.4647  157.6742 H   0  0  0  0  0  0  0  0  0  0  0  0
  150.3164  144.1210  157.0111 H   0  0  0  0  0  0  0  0  0  0  0  0
  1  2  3  0  0  0  0
  2  3  1  0  0  0  0
  3  8  1  0  0  0  0
  3  4  2  0  0  0  0
  4  5  1  0  0  0  0
  5  6  2  0  0  0  0
  5 21  1  0  0  0  0
  6  7  1  0  0  0  0
  6 22  1  0  0  0  0
  7  8  2  0  0  0  0
  8  9  1  0  0  0  0
  9 10  1  0  0  0  0
  9 23  1  0  0  0  0
 10 11  1  0  0  0  0
 10 24  1  0  0  0  0
 10 25  1  0  0  0  0
 11 20  1  0  0  0  0
 11 12  1  0  0  0  0
 11 26  1  0  0  0  0
 12 13  1  0  0  0  0
 12 27  1  0  0  0  0
 12 28  1  0  0  0  0
 13 18  1  0  0  0  0
 13 14  1  0  0  0  0
 13 40  1  0  0  0  0
 14 15  1  0  0  0  0
 14 29  1  0  0  0  0
 14 30  1  0  0  0  0
 15 16  1  0  0  0  0
 15 31  1  0  0  0  0
 15 32  1  0  0  0  0
 16 17  1  0  0  0  0
 16 33  1  0  0  0  0
 16 34  1  0  0  0  0
 17 18  1  0  0  0  0
 17 35  1  0  0  0  0
 17 36  1  0  0  0  0
 18 19  1  0  0  0  0
 18 37  1  0  0  0  0
 19 20  1  0  0  0  0
 19 38  1  0  0  0  0
 19 39  1  0  0  0  0
M  CHG  1  13   1
M  END
> <s_m_source_file>
AV-unprocessed.smi

> <i_m_source_file_index>
3068

> <i_lp_mmshare_version>
43012

> <i_f3d_flags>
0

> <s_epik_input>
TiNDYzFuW2NIXVtjSF1uYzFbTkhdW0NIMl1bQ0BIXShbQ0gyXTIpT1tDSDJdW0NAQEhdKE4yMylbQ0gyXVtDSDJdW0NIMl1bQ0gyXTM=

> <s_epik_cmdline>
J2VwaWtfcHl0aG9uJywgJy1waCcsICc3LjAnLCAnLXRuJywgJzgnLCAnLW1hJywgJzIwMCcsICctbWV0YWxfYmluZGluZycsICctaW1hZScsICc8aW5maWxlLm1hZT4nLCAnLW9tYWUnLCAnPG91dGZpbGUubWFlPic=

> <r_epik_Ionization_Penalty>
0.0804321

> <r_epik_Ionization_Penalty_Charging>
0.0803403

> <r_epik_Ionization_Penalty_Neutral>
9.17277e-05

> <r_epik_State_Penalty>
0.0711481

> <r_epik_Charging_Adjusted_Penalty>
0.151488

> <i_epik_Tot_Q>
1

> <i_epik_Tot_abs_Q>
1

> <r_epik_Metal_State_Penalty>
0.0711481

> <b_epik_Metal_Only>
0

> <s_lp_Force_Field>
OPLS_2005

> <r_lp_Energy>
36.4506

> <b_lp_Chiralities_Consistent>
1

> <s_lp_Variant>
AV-unprocessed.smi:3068-1

> <Gold.Version>
5.8.1

> <Gold.Id.Protein>
6NUR|6NUR_protein|mol2

> <Gold.PLP.Fitness>
45.7957

> <Gold.PLP.PLP>
-34.7669

> <Gold.PLP.part.hbond>
-4.0000

> <Gold.PLP.part.metal>
0.0000

> <Gold.PLP.part.buried>
-4.8983

> <Gold.PLP.part.nonpolar>
-27.0396

> <Gold.PLP.part.repulsive>
0.3113

> <Gold.PLP.ligand.clash>
0.0000

> <Gold.PLP.ligand.torsion>
0.7390

> <Gold.PLP.Chemscore.Hbond>
4.1681

> <Gold.PLP.Chemscore.CHOScore>
0.0000

> <Gold.PLP.Chemscore.Metal>
0.0000

> <Gold.Chemscore.Hbonds>
donor molecule, donor type, donor heavy atom, donor atom, acceptor molecule, acceptor atom, score
      L1  H    13    40       P1  8028  1.98
      P1  H  7989  7998       L1     1  0.19
      P1  H  7997  8008       L1     1  1.00
      P1  H 10752 10763       L1     4  1.00

> <Gold.PLP.Chemscore.Internal.Correction>
0.0025

> <Gold.Rescore>
     Score         DG    S(hbond)    S(metal)    S(lipo)     H(rot)  DE(clash)    DE(int)     intcor
     20.23     -21.03       2.80        0.00      81.86       1.32       0.02       0.78       ----

> <Gold.Chemscore.Fitness>
20.2302

> <Gold.Chemscore.DG>
-21.0277

> <Gold.Chemscore.ZeroCoef>
-5.4800

> <Gold.Chemscore.Hbond>
2.7986

> <Gold.Chemscore.Metal>
0.0000

> <Gold.Chemscore.Lipo>
81.8610

> <Gold.Chemscore.Internal_Hbond>
0.0000

> <Gold.Chemscore.DEClash>
0.0208

> <Gold.Chemscore.DEInternal>
0.7766

> <Gold.Chemscore.Rot>
1.3193

> <Gold.Chemscore.Internal.Correction>
   9.000000E+99

> <Gold.Chemscore.Hbonds>
donor molecule, donor type, donor heavy atom, donor atom, acceptor molecule, acceptor atom, score
      L1  H    13    40       P1  8028  0.86
      P1  H  7989  7998       L1     1  0.03
      P1  H  7997  8008       L1     1  0.99
      P1  H 10752 10763       L1     4  0.25

> <Gold.Chemscore.Hbond.Weighted>
-9.3473

> <Gold.Chemscore.Metal.Weighted>
-0.0000

> <Gold.Chemscore.Lipo.Weighted>
-9.5777

> <Gold.Chemscore.Internal_Hbond.Weighted>
0.0000

> <Gold.Chemscore.DEClash.Weighted>
0.0208

> <Gold.Chemscore.DEInternal.Weighted>
0.7766

> <Gold.Chemscore.Rot.Weighted>
3.3774

> <Gold.Chemscore.Internal.Correction.Weighted>
   9.000000E+99

> <Gold.Protein.RotatedTorsions>
[ 6907 6896 6895 6894 ] final  -86.89 input  -60.11 | X-H torsion
[ 7974 7965 7964 7962 ] final  -11.99 input  175.53 | X-H torsion
[ 8008 7997 7996 7995 ] final   -6.76 input   59.86 | X-H torsion
[ 10167 10162 10161 10158 ] final   18.17 input  -65.29 | X-H torsion
[ 10718 10713 10712 10709 ] final    7.82 input   66.30 | X-H torsion
[ 10763 10752 10751 10750 ] final   70.74 input  -60.55 | X-H torsion
[ 11005 11000 10999 10996 ] final  -93.19 input  -57.11 | X-H torsion

> <Gold.Protein.ActiveResidues>
 VAL166  LYS551  ARG553  GLY616  TRP617  ASP618  TYR619  PRO620  LYS621  CYS622 
 ASP623  PHE694  ASN695  SER759  ASP760  ASP761  ALA762  ILE779  LEU786  VAL792 
 PHE793  MET794  SER795  GLU796  ALA797  LYS798  CYS799  TRP800  GLU811  SER814 

> <Gold.Protein.RotatedAtoms>
  150.6866  134.2981  159.4694 H   0  0  0  0  0  0  0  0  0  0  0  0  # atno 6907 bound_to 6896
  152.0879  134.9424  160.0581 H   0  0  0  0  0  0  0  0  0  0  0  0  # atno 6908 bound_to 6896
  152.0752  133.4091  159.4513 H   0  0  0  0  0  0  0  0  0  0  0  0  # atno 6909 bound_to 6896
  146.2168  140.2992  142.8374 H   0  0  0  0  0  0  0  0  0  0  0  0  # atno 7974 bound_to 7965
  154.5905  140.2424  155.7927 H   0  0  0  0  0  0  0  0  0  0  0  0  # atno 8008 bound_to 7997
  156.2243  140.2987  155.9984 H   0  0  0  0  0  0  0  0  0  0  0  0  # atno 8009 bound_to 7997
  155.2382  140.0406  157.2962 H   0  0  0  0  0  0  0  0  0  0  0  0  # atno 8010 bound_to 7997
  140.5673  143.9227  150.6686 H   0  0  0  0  0  0  0  0  0  0  0  0  # atno 10167 bound_to 10162
  156.9426  130.5867  149.5653 H   0  0  0  0  0  0  0  0  0  0  0  0  # atno 10718 bound_to 10713
  153.0359  135.5162  154.7487 H   0  0  0  0  0  0  0  0  0  0  0  0  # atno 10763 bound_to 10752
  154.6464  135.2919  155.0043 H   0  0  0  0  0  0  0  0  0  0  0  0  # atno 10764 bound_to 10752
  154.0942  135.6646  153.4910 H   0  0  0  0  0  0  0  0  0  0  0  0  # atno 10765 bound_to 10752
  141.1503  133.7871  157.0125 H   0  0  0  0  0  0  0  0  0  0  0  0  # atno 11005 bound_to 11000
  144.9069  140.7711  143.5831 LP  0  0  0  0  0  0  0  0  0  0  0  0  # atno 17320 bound_to 7965
  145.2921  139.1880  143.4735 LP  0  0  0  0  0  0  0  0  0  0  0  0  # atno 17321 bound_to 7965
  140.2693  143.3467  152.1252 LP  0  0  0  0  0  0  0  0  0  0  0  0  # atno 17342 bound_to 10162
  139.5099  144.6875  151.5847 LP  0  0  0  0  0  0  0  0  0  0  0  0  # atno 17343 bound_to 10162
  156.0398  130.5481  150.8742 LP  0  0  0  0  0  0  0  0  0  0  0  0  # atno 17370 bound_to 10713
  157.5775  131.0946  150.9323 LP  0  0  0  0  0  0  0  0  0  0  0  0  # atno 17371 bound_to 10713
  140.0868  134.9616  157.1713 LP  0  0  0  0  0  0  0  0  0  0  0  0  # atno 17394 bound_to 11000
  140.3500  134.2609  155.7200 LP  0  0  0  0  0  0  0  0  0  0  0  0  # atno 17395 bound_to 11000

$$$$
