AV-unprocessed.smi:1341|AV-procd|sdf|5505|dock10
  -GOLD-   22720 5 83D 1   1.00000     0.00000
 Structure written by MMmdl.
 34 35  0  0  0  0  0  0  0  0  1 V2000
  146.8763  140.2853  152.8271 C   0  0  0  0  0  0  0  0  0  0  0  0
  147.7835  140.3723  153.8113 C   0  0  0  0  0  0  0  0  0  0  0  0
  148.2226  141.6697  154.4616 C   0  0  0  0  0  0  0  0  0  0  0  0
  149.2825  141.4481  155.4371 N   0  0  0  0  0  0  0  0  0  0  0  0
  150.3375  140.6341  155.2656 C   0  0  0  0  0  0  0  0  0  0  0  0
  150.5315  139.9779  154.2420 O   0  0  0  0  0  0  0  0  0  0  0  0
  151.3071  140.6036  156.4135 C   0  0  0  0  0  0  0  0  0  0  0  0
  151.3458  141.6950  157.2150 N   0  0  0  0  0  0  0  0  0  0  0  0
  152.1716  141.6895  158.2688 C   0  0  0  0  0  0  0  0  0  0  0  0
  152.1969  142.8330  159.0779 N   0  0  0  0  0  0  0  0  0  0  0  0
  152.9294  142.8714  160.3463 C   0  0  0  0  0  0  0  0  0  0  0  0
  152.2335  143.8042  161.3518 C   0  0  0  0  0  0  0  0  0  0  0  0
  152.0721  145.0959  160.7790 O   0  0  0  0  0  0  0  0  0  0  0  0
  151.2519  145.0535  159.6180 C   0  0  0  0  0  0  0  0  0  0  0  0
  151.9103  144.1680  158.5464 C   0  0  0  0  0  0  0  0  0  0  0  0
  152.9751  140.6726  158.6033 N   0  0  0  0  0  0  0  0  0  0  0  0
  152.9526  139.5716  157.8239 C   0  0  0  0  0  0  0  0  0  0  0  0
  152.1205  139.4758  156.6922 C   0  0  0  0  0  0  0  0  0  0  0  0
  152.1519  138.0465  155.7174 Cl  0  0  0  0  0  0  0  0  0  0  0  0
  146.3951  141.1656  152.4268 H   0  0  0  0  0  0  0  0  0  0  0  0
  146.6031  139.3279  152.4083 H   0  0  0  0  0  0  0  0  0  0  0  0
  148.2392  139.4677  154.1874 H   0  0  0  0  0  0  0  0  0  0  0  0
  148.5849  142.3643  153.7030 H   0  0  0  0  0  0  0  0  0  0  0  0
  147.3621  142.1422  154.9377 H   0  0  0  0  0  0  0  0  0  0  0  0
  149.2131  141.9479  156.3119 H   0  0  0  0  0  0  0  0  0  0  0  0
  153.0183  141.8857  160.8019 H   0  0  0  0  0  0  0  0  0  0  0  0
  153.9436  143.2216  160.1517 H   0  0  0  0  0  0  0  0  0  0  0  0
  151.2643  143.4008  161.6496 H   0  0  0  0  0  0  0  0  0  0  0  0
  152.8330  143.8917  162.2579 H   0  0  0  0  0  0  0  0  0  0  0  0
  150.2580  144.6815  159.8732 H   0  0  0  0  0  0  0  0  0  0  0  0
  151.1232  146.0672  159.2384 H   0  0  0  0  0  0  0  0  0  0  0  0
  152.8454  144.6186  158.2118 H   0  0  0  0  0  0  0  0  0  0  0  0
  151.2495  144.1331  157.6808 H   0  0  0  0  0  0  0  0  0  0  0  0
  153.6085  138.7612  158.1053 H   0  0  0  0  0  0  0  0  0  0  0  0
  1  2  2  0  0  0  0
  1 20  1  0  0  0  0
  1 21  1  0  0  0  0
  2  3  1  0  0  0  0
  2 22  1  0  0  0  0
  3  4  1  0  0  0  0
  3 23  1  0  0  0  0
  3 24  1  0  0  0  0
  4  5  1  0  0  0  0
  4 25  1  0  0  0  0
  5  6  2  0  0  0  0
  5  7  1  0  0  0  0
  7 18  1  0  0  0  0
  7  8  2  0  0  0  0
  8  9  1  0  0  0  0
  9 10  1  0  0  0  0
  9 16  2  0  0  0  0
 10 15  1  0  0  0  0
 10 11  1  0  0  0  0
 11 12  1  0  0  0  0
 11 26  1  0  0  0  0
 11 27  1  0  0  0  0
 12 13  1  0  0  0  0
 12 28  1  0  0  0  0
 12 29  1  0  0  0  0
 13 14  1  0  0  0  0
 14 15  1  0  0  0  0
 14 30  1  0  0  0  0
 14 31  1  0  0  0  0
 15 32  1  0  0  0  0
 15 33  1  0  0  0  0
 16 17  1  0  0  0  0
 17 18  2  0  0  0  0
 17 34  1  0  0  0  0
 18 19  1  0  0  0  0
M  END
> <s_m_source_file>
AV-unprocessed.smi

> <i_m_source_file_index>
1341

> <i_lp_mmshare_version>
43012

> <i_f3d_flags>
0

> <s_epik_input>
W0NIMl09W0NIXVtDSDJdW05IXUMoPU8pYzFuYyhuW2NIXWMxQ2wpTjJbQ0gyXVtDSDJdT1tDSDJdW0NIMl0y

> <s_epik_cmdline>
J2VwaWtfcHl0aG9uJywgJy1waCcsICc3LjAnLCAnLXRuJywgJzgnLCAnLW1hJywgJzIwMCcsICctbWV0YWxfYmluZGluZycsICctaW1hZScsICc8aW5maWxlLm1hZT4nLCAnLW9tYWUnLCAnPG91dGZpbGUubWFlPic=

> <r_lp_tautomer_probability>
1

> <r_epik_Ionization_Penalty>
2.38615e-05

> <r_epik_Ionization_Penalty_Charging>
0

> <r_epik_Ionization_Penalty_Neutral>
2.38615e-05

> <r_epik_State_Penalty>
-0

> <r_epik_Charging_Adjusted_Penalty>
0

> <i_epik_Tot_Q>
0

> <i_epik_Tot_abs_Q>
0

> <r_epik_Metal_State_Penalty>
0.0225026

> <b_epik_Metal_Only>
0

> <s_lp_Force_Field>
OPLS_2005

> <r_lp_Energy>
14.7295

> <b_lp_Chiralities_Consistent>
1

> <s_lp_Variant>
AV-unprocessed.smi:1341-1

> <Gold.Version>
5.8.1

> <Gold.Id.Protein>
6NUR|6NUR_protein|mol2

> <Gold.PLP.Fitness>
40.3321

> <Gold.PLP.PLP>
-38.4719

> <Gold.PLP.part.hbond>
-1.1739

> <Gold.PLP.part.metal>
0.0000

> <Gold.PLP.part.buried>
-1.5377

> <Gold.PLP.part.nonpolar>
-35.9229

> <Gold.PLP.part.repulsive>
0.4917

> <Gold.PLP.ligand.clash>
0.0000

> <Gold.PLP.ligand.torsion>
0.6241

> <Gold.PLP.Chemscore.Hbond>
1.0000

> <Gold.PLP.Chemscore.CHOScore>
0.0000

> <Gold.PLP.Chemscore.Metal>
0.0000

> <Gold.Chemscore.Hbonds>
donor molecule, donor type, donor heavy atom, donor atom, acceptor molecule, acceptor atom, score
      P1  H  7989  7998       L1     6  1.00

> <Gold.PLP.Chemscore.Internal.Correction>
0.1084

> <Gold.Rescore>
     Score         DG    S(hbond)    S(metal)    S(lipo)     H(rot)  DE(clash)    DE(int)     intcor
     12.68     -16.07       0.83        0.00      92.26       1.16       0.21       3.18       ----

> <Gold.Chemscore.Fitness>
12.6808

> <Gold.Chemscore.DG>
-16.0713

> <Gold.Chemscore.ZeroCoef>
-5.4800

> <Gold.Chemscore.Hbond>
0.8316

> <Gold.Chemscore.Metal>
0.0000

> <Gold.Chemscore.Lipo>
92.2552

> <Gold.Chemscore.Internal_Hbond>
0.0000

> <Gold.Chemscore.DEClash>
0.2136

> <Gold.Chemscore.DEInternal>
3.1769

> <Gold.Chemscore.Rot>
1.1641

> <Gold.Chemscore.Internal.Correction>
   9.000000E+99

> <Gold.Chemscore.Hbonds>
donor molecule, donor type, donor heavy atom, donor atom, acceptor molecule, acceptor atom, score
      P1  H  7989  7998       L1     6  0.34

> <Gold.Chemscore.Hbond.Weighted>
-2.7776

> <Gold.Chemscore.Metal.Weighted>
-0.0000

> <Gold.Chemscore.Lipo.Weighted>
-10.7939

> <Gold.Chemscore.Internal_Hbond.Weighted>
0.0000

> <Gold.Chemscore.DEClash.Weighted>
0.2136

> <Gold.Chemscore.DEInternal.Weighted>
3.1769

> <Gold.Chemscore.Rot.Weighted>
2.9802

> <Gold.Chemscore.Internal.Correction.Weighted>
   9.000000E+99

> <Gold.Protein.RotatedTorsions>
[ 6907 6896 6895 6894 ] final -140.29 input  -60.11 | X-H torsion
[ 7974 7965 7964 7962 ] final   24.49 input  175.53 | X-H torsion
[ 8008 7997 7996 7995 ] final -109.00 input   59.86 | X-H torsion
[ 10167 10162 10161 10158 ] final  -49.54 input  -65.29 | X-H torsion
[ 10718 10713 10712 10709 ] final  -66.74 input   66.30 | X-H torsion
[ 10763 10752 10751 10750 ] final  -81.16 input  -60.55 | X-H torsion
[ 11005 11000 10999 10996 ] final   75.86 input  -57.11 | X-H torsion

> <Gold.Protein.ActiveResidues>
 VAL166  LYS551  ARG553  GLY616  TRP617  ASP618  TYR619  PRO620  LYS621  CYS622 
 ASP623  PHE694  ASN695  SER759  ASP760  ASP761  ALA762  ILE779  LEU786  VAL792 
 PHE793  MET794  SER795  GLU796  ALA797  LYS798  CYS799  TRP800  GLU811  SER814 

> <Gold.Protein.RotatedAtoms>
  151.0588  133.5561  159.2635 H   0  0  0  0  0  0  0  0  0  0  0  0  # atno 6907 bound_to 6896
  151.2544  135.0632  159.9084 H   0  0  0  0  0  0  0  0  0  0  0  0  # atno 6908 bound_to 6896
  152.5394  134.0344  159.8093 H   0  0  0  0  0  0  0  0  0  0  0  0  # atno 6909 bound_to 6896
  146.1935  139.7598  142.8814 H   0  0  0  0  0  0  0  0  0  0  0  0  # atno 7974 bound_to 7965
  154.9528  140.0400  157.2152 H   0  0  0  0  0  0  0  0  0  0  0  0  # atno 8008 bound_to 7997
  154.7963  140.2844  155.5932 H   0  0  0  0  0  0  0  0  0  0  0  0  # atno 8009 bound_to 7997
  156.2956  140.2564  156.2821 H   0  0  0  0  0  0  0  0  0  0  0  0  # atno 8010 bound_to 7997
  140.6680  143.2694  151.4229 H   0  0  0  0  0  0  0  0  0  0  0  0  # atno 10167 bound_to 10162
  156.0596  130.4267  150.1752 H   0  0  0  0  0  0  0  0  0  0  0  0  # atno 10718 bound_to 10713
  154.5602  135.5636  153.7000 H   0  0  0  0  0  0  0  0  0  0  0  0  # atno 10763 bound_to 10752
  153.0015  135.6272  154.2255 H   0  0  0  0  0  0  0  0  0  0  0  0  # atno 10764 bound_to 10752
  154.2193  135.2870  155.2910 H   0  0  0  0  0  0  0  0  0  0  0  0  # atno 10765 bound_to 10752
  139.9324  134.7553  156.1323 H   0  0  0  0  0  0  0  0  0  0  0  0  # atno 11005 bound_to 11000
  145.3718  141.0344  143.3227 LP  0  0  0  0  0  0  0  0  0  0  0  0  # atno 17320 bound_to 7965
  144.8533  139.5288  143.6846 LP  0  0  0  0  0  0  0  0  0  0  0  0  # atno 17321 bound_to 7965
  139.5937  144.1444  152.2118 LP  0  0  0  0  0  0  0  0  0  0  0  0  # atno 17342 bound_to 10162
  140.0806  144.5703  150.7125 LP  0  0  0  0  0  0  0  0  0  0  0  0  # atno 17343 bound_to 10162
  156.9823  130.9868  151.3434 LP  0  0  0  0  0  0  0  0  0  0  0  0  # atno 17370 bound_to 10713
  157.5594  130.8235  149.8246 LP  0  0  0  0  0  0  0  0  0  0  0  0  # atno 17371 bound_to 10713
  141.0920  133.6710  156.2562 LP  0  0  0  0  0  0  0  0  0  0  0  0  # atno 17394 bound_to 11000
  140.6165  134.5405  157.5541 LP  0  0  0  0  0  0  0  0  0  0  0  0  # atno 17395 bound_to 11000

$$$$
