AV-unprocessed.smi:3306|AV-procd|sdf|12702|dock9
  -GOLD-   2272019 33D 1   1.00000     0.00000
 Structure written by MMmdl.
 45 46  0  0  0  0  0  0  0  0  3 V2000
  142.6285  140.9887  155.7444 C   0  0  0  0  0  0  0  0  0  0  0  0
  143.9020  140.1318  155.8829 C   0  0  0  0  0  0  0  0  0  0  0  0
  144.2854  139.9209  157.3570 C   0  0  0  0  0  0  0  0  0  0  0  0
  145.0576  140.6477  155.0914 N   0  3  2  0  0  0  0  0  0  0  0  0
  146.3026  139.8378  155.1825 C   0  0  0  0  0  0  0  0  0  0  0  0
  147.3421  140.3154  154.1530 C   0  0  0  0  0  0  0  0  0  0  0  0
  147.6674  141.8163  154.3066 C   0  0  2  0  0  0  0  0  0  0  0  0
  148.4619  142.1128  155.5235 N   0  3  0  0  0  0  0  0  0  0  0  0
  149.8818  141.7051  155.4698 C   0  0  0  0  0  0  0  0  0  0  0  0
  150.3046  141.0185  156.7758 C   0  0  0  0  0  0  0  0  0  0  0  0
  151.0889  141.9469  157.6838 C   0  0  0  0  0  0  0  0  0  0  0  0
  151.1686  143.3289  157.4097 C   0  0  0  0  0  0  0  0  0  0  0  0
  151.9077  144.1448  158.2885 C   0  0  0  0  0  0  0  0  0  0  0  0
  152.5334  143.5506  159.4016 C   0  0  0  0  0  0  0  0  0  0  0  0
  152.3924  142.1609  159.5873 C   0  0  0  0  0  0  0  0  0  0  0  0
  151.6856  141.3696  158.7507 N   0  0  0  0  0  0  0  0  0  0  0  0
  146.3578  142.6266  154.2987 C   0  0  0  0  0  0  0  0  0  0  0  0
  145.3285  142.0925  155.3130 C   0  0  0  0  0  0  0  0  0  0  0  0
  141.7895  140.5111  156.2517 H   0  0  0  0  0  0  0  0  0  0  0  0
  142.3399  141.1211  154.7019 H   0  0  0  0  0  0  0  0  0  0  0  0
  142.7504  141.9764  156.1895 H   0  0  0  0  0  0  0  0  0  0  0  0
  143.6684  139.1397  155.4940 H   0  0  0  0  0  0  0  0  0  0  0  0
  143.4840  139.4140  157.8956 H   0  0  0  0  0  0  0  0  0  0  0  0
  144.4735  140.8626  157.8722 H   0  0  0  0  0  0  0  0  0  0  0  0
  145.1799  139.3039  157.4482 H   0  0  0  0  0  0  0  0  0  0  0  0
  146.7230  139.9057  156.1866 H   0  0  0  0  0  0  0  0  0  0  0  0
  146.0843  138.7857  155.0019 H   0  0  0  0  0  0  0  0  0  0  0  0
  148.2426  139.7056  154.2168 H   0  0  0  0  0  0  0  0  0  0  0  0
  146.9443  140.1435  153.1517 H   0  0  0  0  0  0  0  0  0  0  0  0
  148.2612  142.1380  153.4495 H   0  0  0  0  0  0  0  0  0  0  0  0
  148.4497  143.1144  155.6561 H   0  0  0  0  0  0  0  0  0  0  0  0
  150.0432  141.0259  154.6327 H   0  0  0  0  0  0  0  0  0  0  0  0
  150.5025  142.5855  155.2974 H   0  0  0  0  0  0  0  0  0  0  0  0
  149.4248  140.6619  157.3139 H   0  0  0  0  0  0  0  0  0  0  0  0
  150.9084  140.1369  156.5560 H   0  0  0  0  0  0  0  0  0  0  0  0
  150.6787  143.7577  156.5479 H   0  0  0  0  0  0  0  0  0  0  0  0
  151.9936  145.2069  158.1118 H   0  0  0  0  0  0  0  0  0  0  0  0
  153.1081  144.1454  160.0960 H   0  0  0  0  0  0  0  0  0  0  0  0
  152.8580  141.6722  160.4304 H   0  0  0  0  0  0  0  0  0  0  0  0
  146.5625  143.6807  154.4914 H   0  0  0  0  0  0  0  0  0  0  0  0
  145.9202  142.5843  153.3002 H   0  0  0  0  0  0  0  0  0  0  0  0
  144.4045  142.6630  155.2114 H   0  0  0  0  0  0  0  0  0  0  0  0
  145.6862  142.2521  156.3310 H   0  0  0  0  0  0  0  0  0  0  0  0
  144.7564  140.5821  154.1292 H   0  0  0  0  0  0  0  0  0  0  0  0
  148.0234  141.6804  156.3239 H   0  0  0  0  0  0  0  0  0  0  0  0
  1  2  1  0  0  0  0
  1 19  1  0  0  0  0
  1 20  1  0  0  0  0
  1 21  1  0  0  0  0
  2  3  1  0  0  0  0
  2  4  1  0  0  0  0
  2 22  1  0  0  0  0
  3 23  1  0  0  0  0
  3 24  1  0  0  0  0
  3 25  1  0  0  0  0
  4 18  1  0  0  0  0
  4  5  1  0  0  0  0
  4 44  1  0  0  0  0
  5  6  1  0  0  0  0
  5 26  1  0  0  0  0
  5 27  1  0  0  0  0
  6  7  1  0  0  0  0
  6 28  1  0  0  0  0
  6 29  1  0  0  0  0
  7  8  1  0  0  0  0
  7 17  1  0  0  0  0
  7 30  1  0  0  0  0
  8  9  1  0  0  0  0
  8 31  1  0  0  0  0
  8 45  1  0  0  0  0
  9 10  1  0  0  0  0
  9 32  1  0  0  0  0
  9 33  1  0  0  0  0
 10 11  1  0  0  0  0
 10 34  1  0  0  0  0
 10 35  1  0  0  0  0
 11 16  1  0  0  0  0
 11 12  2  0  0  0  0
 12 13  1  0  0  0  0
 12 36  1  0  0  0  0
 13 14  2  0  0  0  0
 13 37  1  0  0  0  0
 14 15  1  0  0  0  0
 14 38  1  0  0  0  0
 15 16  2  0  0  0  0
 15 39  1  0  0  0  0
 17 18  1  0  0  0  0
 17 40  1  0  0  0  0
 17 41  1  0  0  0  0
 18 42  1  0  0  0  0
 18 43  1  0  0  0  0
M  CHG  1   4   1
M  CHG  1   8   1
M  END
> <s_m_source_file>
AV-unprocessed.smi

> <i_m_source_file_index>
3306

> <i_lp_mmshare_version>
43012

> <i_f3d_flags>
0

> <s_epik_input>
W0NIM11bQ0hdKFtDSDNdKU4xW0NIMl1bQ0gyXVtDSF0oW0NIMl1bQ0gyXTEpW05IXVtDSDJdW0NIMl1jMltjSF1bY0hdW2NIXVtjSF1uMg==

> <s_epik_cmdline>
J2VwaWtfcHl0aG9uJywgJy1waCcsICc3LjAnLCAnLXRuJywgJzgnLCAnLW1hJywgJzIwMCcsICctbWV0YWxfYmluZGluZycsICctaW1hZScsICc8aW5maWxlLm1hZT4nLCAnLW9tYWUnLCAnPG91dGZpbGUubWFlPic=

> <r_epik_Ionization_Penalty>
0.0800465

> <r_epik_Ionization_Penalty_Charging>
0.0790817

> <r_epik_Ionization_Penalty_Neutral>
0.000964829

> <r_epik_State_Penalty>
0.0665964

> <r_epik_Charging_Adjusted_Penalty>
0.145678

> <i_epik_Tot_Q>
2

> <i_epik_Tot_abs_Q>
2

> <r_epik_Metal_State_Penalty>
0.0683331

> <b_epik_Metal_Only>
0

> <s_lp_Force_Field>
OPLS_2005

> <r_lp_Energy>
31.8931

> <b_lp_Chiralities_Consistent>
1

> <s_lp_Variant>
AV-unprocessed.smi:3306-2

> <Gold.Version>
5.8.1

> <Gold.Id.Protein>
6NUR|6NUR_protein|mol2

> <Gold.PLP.Fitness>
45.8414

> <Gold.PLP.PLP>
-35.5722

> <Gold.PLP.part.hbond>
-1.9708

> <Gold.PLP.part.metal>
0.0000

> <Gold.PLP.part.buried>
-3.5011

> <Gold.PLP.part.nonpolar>
-30.9800

> <Gold.PLP.part.repulsive>
0.1449

> <Gold.PLP.ligand.clash>
0.0000

> <Gold.PLP.ligand.torsion>
0.9183

> <Gold.PLP.Chemscore.Hbond>
4.0000

> <Gold.PLP.Chemscore.CHOScore>
0.0000

> <Gold.PLP.Chemscore.Metal>
0.0000

> <Gold.Chemscore.Hbonds>
donor molecule, donor type, donor heavy atom, donor atom, acceptor molecule, acceptor atom, score
      L1  H     4    44       P1 10175  2.00
      L1  H     8    31       P1  8028  2.00

> <Gold.PLP.Chemscore.Internal.Correction>
0.1058

> <Gold.Rescore>
     Score         DG    S(hbond)    S(metal)    S(lipo)     H(rot)  DE(clash)    DE(int)     intcor
     18.78     -20.04       1.97        0.00     100.26       1.47       0.33       0.93       ----

> <Gold.Chemscore.Fitness>
18.7808

> <Gold.Chemscore.DG>
-20.0408

> <Gold.Chemscore.ZeroCoef>
-5.4800

> <Gold.Chemscore.Hbond>
1.9724

> <Gold.Chemscore.Metal>
0.0000

> <Gold.Chemscore.Lipo>
100.2643

> <Gold.Chemscore.Internal_Hbond>
0.0000

> <Gold.Chemscore.DEClash>
0.3338

> <Gold.Chemscore.DEInternal>
0.9263

> <Gold.Chemscore.Rot>
1.4679

> <Gold.Chemscore.Internal.Correction>
   9.000000E+99

> <Gold.Chemscore.Hbonds>
donor molecule, donor type, donor heavy atom, donor atom, acceptor molecule, acceptor atom, score
      L1  H     4    44       P1 10175  0.98
      L1  H     8    31       P1  8028  0.99

> <Gold.Chemscore.Hbond.Weighted>
-6.5878

> <Gold.Chemscore.Metal.Weighted>
-0.0000

> <Gold.Chemscore.Lipo.Weighted>
-11.7309

> <Gold.Chemscore.Internal_Hbond.Weighted>
0.0000

> <Gold.Chemscore.DEClash.Weighted>
0.3338

> <Gold.Chemscore.DEInternal.Weighted>
0.9263

> <Gold.Chemscore.Rot.Weighted>
3.7579

> <Gold.Chemscore.Internal.Correction.Weighted>
   9.000000E+99

> <Gold.Protein.RotatedTorsions>
[ 6907 6896 6895 6894 ] final  -40.88 input  -60.11 | X-H torsion
[ 7974 7965 7964 7962 ] final -135.94 input  175.53 | X-H torsion
[ 8008 7997 7996 7995 ] final   34.74 input   59.86 | X-H torsion
[ 10167 10162 10161 10158 ] final   73.91 input  -65.29 | X-H torsion
[ 10718 10713 10712 10709 ] final   59.59 input   66.30 | X-H torsion
[ 10763 10752 10751 10750 ] final  128.93 input  -60.55 | X-H torsion
[ 11005 11000 10999 10996 ] final  140.18 input  -57.11 | X-H torsion

> <Gold.Protein.ActiveResidues>
 VAL166  LYS551  ARG553  GLY616  TRP617  ASP618  TYR619  PRO620  LYS621  CYS622 
 ASP623  PHE694  ASN695  SER759  ASP760  ASP761  ALA762  ILE779  LEU786  VAL792 
 PHE793  MET794  SER795  GLU796  ALA797  LYS798  CYS799  TRP800  GLU811  SER814 

> <Gold.Protein.RotatedAtoms>
  150.9732  134.9101  159.7800 H   0  0  0  0  0  0  0  0  0  0  0  0  # atno 6907 bound_to 6896
  152.5197  134.3512  159.9261 H   0  0  0  0  0  0  0  0  0  0  0  0  # atno 6908 bound_to 6896
  151.3520  133.3881  159.2716 H   0  0  0  0  0  0  0  0  0  0  0  0  # atno 6909 bound_to 6896
  144.8970  140.6720  143.5109 H   0  0  0  0  0  0  0  0  0  0  0  0  # atno 7974 bound_to 7965
  155.1597  140.3282  155.4414 H   0  0  0  0  0  0  0  0  0  0  0  0  # atno 8008 bound_to 7997
  156.2547  140.1962  156.6656 H   0  0  0  0  0  0  0  0  0  0  0  0  # atno 8009 bound_to 7997
  154.6414  140.0570  156.9836 H   0  0  0  0  0  0  0  0  0  0  0  0  # atno 8010 bound_to 7997
  140.0194  144.5552  150.7594 H   0  0  0  0  0  0  0  0  0  0  0  0  # atno 10167 bound_to 10162
  157.5688  130.8891  149.9231 H   0  0  0  0  0  0  0  0  0  0  0  0  # atno 10718 bound_to 10713
  153.7335  135.3235  155.3290 H   0  0  0  0  0  0  0  0  0  0  0  0  # atno 10763 bound_to 10752
  154.8318  135.4528  154.1097 H   0  0  0  0  0  0  0  0  0  0  0  0  # atno 10764 bound_to 10752
  153.2252  135.6953  153.8035 H   0  0  0  0  0  0  0  0  0  0  0  0  # atno 10765 bound_to 10752
  140.0308  134.9353  157.0659 H   0  0  0  0  0  0  0  0  0  0  0  0  # atno 11005 bound_to 11000
  145.3682  139.1665  143.4346 LP  0  0  0  0  0  0  0  0  0  0  0  0  # atno 17320 bound_to 7965
  146.3087  140.3751  142.8678 LP  0  0  0  0  0  0  0  0  0  0  0  0  # atno 17321 bound_to 7965
  140.7349  143.2734  151.3817 LP  0  0  0  0  0  0  0  0  0  0  0  0  # atno 17342 bound_to 10162
  139.6150  144.1021  152.2337 LP  0  0  0  0  0  0  0  0  0  0  0  0  # atno 17343 bound_to 10162
  156.0734  130.3682  150.0728 LP  0  0  0  0  0  0  0  0  0  0  0  0  # atno 17370 bound_to 10713
  156.8883  130.9580  151.3591 LP  0  0  0  0  0  0  0  0  0  0  0  0  # atno 17371 bound_to 10713
  140.4229  134.1862  155.7165 LP  0  0  0  0  0  0  0  0  0  0  0  0  # atno 17394 bound_to 11000
  141.1830  133.8374  157.1191 LP  0  0  0  0  0  0  0  0  0  0  0  0  # atno 17395 bound_to 11000

$$$$
