AV-unprocessed.smi:1080|AV-procd|sdf|4706|dock2
  -GOLD-   22720 3233D 1   1.00000     0.00000
 Structure written by MMmdl.
 48 50  0  0  0  0  0  0  0  0  1 V2000
  150.2884  133.9936  155.6220 O   0  0  0  0  0  0  0  0  0  0  0  0
  149.9146  134.7018  154.6876 C   0  0  0  0  0  0  0  0  0  0  0  0
  149.1298  134.3036  153.6707 N   0  0  0  0  0  0  0  0  0  0  0  0
  148.5595  133.0245  153.4225 C   0  0  0  0  0  0  0  0  0  0  0  0
  149.2749  131.8945  153.8710 C   0  0  0  0  0  0  0  0  0  0  0  0
  148.7424  130.6122  153.6311 C   0  0  0  0  0  0  0  0  0  0  0  0
  147.5774  130.4023  152.9835 N   0  0  0  0  0  0  0  0  0  0  0  0
  146.8989  131.4833  152.5444 C   0  0  0  0  0  0  0  0  0  0  0  0
  147.3423  132.8080  152.7313 C   0  0  0  0  0  0  0  0  0  0  0  0
  150.2613  135.9901  154.5484 N   0  0  0  0  0  0  0  0  0  0  0  0
  151.1204  136.7495  155.4535 C   0  0  2  0  0  0  0  0  0  0  0  0
  150.4342  136.9028  156.8236 C   0  0  0  0  0  0  0  0  0  0  0  0
  151.2667  137.7761  157.7770 C   0  0  0  0  0  0  0  0  0  0  0  0
  151.5635  139.1603  157.1630 C   0  0  1  0  0  0  0  0  0  0  0  0
  152.3997  140.0187  158.1377 C   0  0  0  0  0  0  0  0  0  0  0  0
  153.5694  139.6914  158.3442 O   0  0  0  0  0  0  0  0  0  0  0  0
  151.8538  141.1187  158.7162 N   0  0  0  0  0  0  0  0  0  0  0  0
  152.6603  142.0903  159.4658 C   0  0  0  0  0  0  0  0  0  0  0  0
  152.9365  143.3067  158.5652 C   0  0  0  0  0  0  0  0  0  0  0  0
  151.3882  144.1390  158.0874 S   0  0  0  0  0  0  0  0  0  0  0  0
  150.4224  142.7022  157.5232 C   0  0  0  0  0  0  0  0  0  0  0  0
  150.4664  141.5735  158.5657 C   0  0  0  0  0  0  0  0  0  0  0  0
  152.2693  138.9883  155.7985 C   0  0  0  0  0  0  0  0  0  0  0  0
  151.4306  138.1271  154.8403 C   0  0  0  0  0  0  0  0  0  0  0  0
  148.9597  134.9931  152.9534 H   0  0  0  0  0  0  0  0  0  0  0  0
  150.2136  132.0029  154.3946 H   0  0  0  0  0  0  0  0  0  0  0  0
  149.2680  129.7311  153.9683 H   0  0  0  0  0  0  0  0  0  0  0  0
  145.9740  131.2875  152.0221 H   0  0  0  0  0  0  0  0  0  0  0  0
  146.7483  133.6159  152.3346 H   0  0  0  0  0  0  0  0  0  0  0  0
  149.9049  136.4882  153.7460 H   0  0  0  0  0  0  0  0  0  0  0  0
  152.0678  136.2285  155.6036 H   0  0  0  0  0  0  0  0  0  0  0  0
  149.4474  137.3503  156.6958 H   0  0  0  0  0  0  0  0  0  0  0  0
  150.2726  135.9217  157.2719 H   0  0  0  0  0  0  0  0  0  0  0  0
  150.7344  137.8868  158.7225 H   0  0  0  0  0  0  0  0  0  0  0  0
  152.2015  137.2637  158.0105 H   0  0  0  0  0  0  0  0  0  0  0  0
  150.6231  139.6634  156.9432 H   0  0  0  0  0  0  0  0  0  0  0  0
  152.1363  142.4017  160.3706 H   0  0  0  0  0  0  0  0  0  0  0  0
  153.6040  141.6670  159.8122 H   0  0  0  0  0  0  0  0  0  0  0  0
  153.5750  144.0243  159.0806 H   0  0  0  0  0  0  0  0  0  0  0  0
  153.4663  142.9977  157.6633 H   0  0  0  0  0  0  0  0  0  0  0  0
  149.3943  143.0192  157.3480 H   0  0  0  0  0  0  0  0  0  0  0  0
  150.8191  142.3575  156.5676 H   0  0  0  0  0  0  0  0  0  0  0  0
  149.7827  140.7690  158.2986 H   0  0  0  0  0  0  0  0  0  0  0  0
  150.0907  141.9422  159.5213 H   0  0  0  0  0  0  0  0  0  0  0  0
  152.4516  139.9633  155.3448 H   0  0  0  0  0  0  0  0  0  0  0  0
  153.2463  138.5198  155.9281 H   0  0  0  0  0  0  0  0  0  0  0  0
  151.9629  138.0044  153.8962 H   0  0  0  0  0  0  0  0  0  0  0  0
  150.5011  138.6480  154.6058 H   0  0  0  0  0  0  0  0  0  0  0  0
  1  2  2  0  0  0  0
  2  3  1  0  0  0  0
  2 10  1  0  0  0  0
  3  4  1  0  0  0  0
  3 25  1  0  0  0  0
  4  9  1  0  0  0  0
  4  5  2  0  0  0  0
  5  6  1  0  0  0  0
  5 26  1  0  0  0  0
  6  7  2  0  0  0  0
  6 27  1  0  0  0  0
  7  8  1  0  0  0  0
  8  9  2  0  0  0  0
  8 28  1  0  0  0  0
  9 29  1  0  0  0  0
 10 11  1  0  0  0  0
 10 30  1  0  0  0  0
 11 24  1  0  0  0  0
 11 12  1  0  0  0  0
 11 31  1  0  0  0  0
 12 13  1  0  0  0  0
 12 32  1  0  0  0  0
 12 33  1  0  0  0  0
 13 14  1  0  0  0  0
 13 34  1  0  0  0  0
 13 35  1  0  0  0  0
 14 15  1  0  0  0  0
 14 23  1  0  0  0  0
 14 36  1  0  0  0  0
 15 16  2  0  0  0  0
 15 17  1  0  0  0  0
 17 22  1  0  0  0  0
 17 18  1  0  0  0  0
 18 19  1  0  0  0  0
 18 37  1  0  0  0  0
 18 38  1  0  0  0  0
 19 20  1  0  0  0  0
 19 39  1  0  0  0  0
 19 40  1  0  0  0  0
 20 21  1  0  0  0  0
 21 22  1  0  0  0  0
 21 41  1  0  0  0  0
 21 42  1  0  0  0  0
 22 43  1  0  0  0  0
 22 44  1  0  0  0  0
 23 24  1  0  0  0  0
 23 45  1  0  0  0  0
 23 46  1  0  0  0  0
 24 47  1  0  0  0  0
 24 48  1  0  0  0  0
M  END
> <s_m_source_file>
AV-unprocessed.smi

> <i_m_source_file_index>
1080

> <i_lp_mmshare_version>
43012

> <i_f3d_flags>
0

> <s_epik_input>
W2NIXTFbY0hdbltjSF1bY0hdYzFbTkhdQyg9TylbTkhdW0NAQEhdMltDSDJdW0NIMl1bQ0BIXShbQ0gyXVtDSDJdMilDKD1PKU4zW0NIMl1bQ0gyXVNbQ0gyXVtDSDJdMw==

> <s_epik_cmdline>
J2VwaWtfcHl0aG9uJywgJy1waCcsICc3LjAnLCAnLXRuJywgJzgnLCAnLW1hJywgJzIwMCcsICctbWV0YWxfYmluZGluZycsICctaW1hZScsICc8aW5maWxlLm1hZT4nLCAnLW9tYWUnLCAnPG91dGZpbGUubWFlPic=

> <r_epik_Ionization_Penalty>
0.118325

> <r_epik_Ionization_Penalty_Charging>
0

> <r_epik_Ionization_Penalty_Neutral>
0.118325

> <r_epik_State_Penalty>
0.107868

> <r_epik_Charging_Adjusted_Penalty>
0.107868

> <i_epik_Tot_Q>
0

> <i_epik_Tot_abs_Q>
0

> <r_epik_Metal_State_Penalty>
0.0897632

> <b_epik_Metal_Only>
0

> <s_lp_Force_Field>
OPLS_2005

> <r_lp_Energy>
33.2651

> <b_lp_Chiralities_Consistent>
1

> <s_lp_Variant>
AV-unprocessed.smi:1080-1

> <Gold.Version>
5.8.1

> <Gold.Id.Protein>
6NUR|6NUR_protein|mol2

> <Gold.PLP.Fitness>
48.1334

> <Gold.PLP.PLP>
-40.5723

> <Gold.PLP.part.hbond>
-3.3692

> <Gold.PLP.part.metal>
0.0000

> <Gold.PLP.part.buried>
-2.6855

> <Gold.PLP.part.nonpolar>
-34.7794

> <Gold.PLP.part.repulsive>
0.2224

> <Gold.PLP.ligand.clash>
0.0000

> <Gold.PLP.ligand.torsion>
0.3658

> <Gold.PLP.Chemscore.Hbond>
2.7441

> <Gold.PLP.Chemscore.CHOScore>
0.0000

> <Gold.PLP.Chemscore.Metal>
0.0000

> <Gold.Chemscore.Hbonds>
donor molecule, donor type, donor heavy atom, donor atom, acceptor molecule, acceptor atom, score
      L1  H     3    25       P1  7948  0.80
      L1  H    10    30       P1  7948  0.74
      P1  H  7997  8008       L1    16  1.00

> <Gold.PLP.Chemscore.Internal.Correction>
0.0604

> <Gold.Rescore>
     Score         DG    S(hbond)    S(metal)    S(lipo)     H(rot)  DE(clash)    DE(int)     intcor
     20.24     -22.09       2.32        0.00     102.66       1.23       0.32       1.53       ----

> <Gold.Chemscore.Fitness>
20.2385

> <Gold.Chemscore.DG>
-22.0887

> <Gold.Chemscore.ZeroCoef>
-5.4800

> <Gold.Chemscore.Hbond>
2.3224

> <Gold.Chemscore.Metal>
0.0000

> <Gold.Chemscore.Lipo>
102.6643

> <Gold.Chemscore.Internal_Hbond>
0.0000

> <Gold.Chemscore.DEClash>
0.3181

> <Gold.Chemscore.DEInternal>
1.5321

> <Gold.Chemscore.Rot>
1.2344

> <Gold.Chemscore.Internal.Correction>
   9.000000E+99

> <Gold.Chemscore.Hbonds>
donor molecule, donor type, donor heavy atom, donor atom, acceptor molecule, acceptor atom, score
      L1  H     3    25       P1  7948  0.12
      L1  H    10    30       P1  7948  0.21
      P1  H  7997  8008       L1    16  0.77

> <Gold.Chemscore.Hbond.Weighted>
-7.7569

> <Gold.Chemscore.Metal.Weighted>
-0.0000

> <Gold.Chemscore.Lipo.Weighted>
-12.0117

> <Gold.Chemscore.Internal_Hbond.Weighted>
0.0000

> <Gold.Chemscore.DEClash.Weighted>
0.3181

> <Gold.Chemscore.DEInternal.Weighted>
1.5321

> <Gold.Chemscore.Rot.Weighted>
3.1600

> <Gold.Chemscore.Internal.Correction.Weighted>
   9.000000E+99

> <Gold.Protein.RotatedTorsions>
[ 6907 6896 6895 6894 ] final   -3.48 input  -60.11 | X-H torsion
[ 7974 7965 7964 7962 ] final  135.00 input  175.53 | X-H torsion
[ 8008 7997 7996 7995 ] final  -80.71 input   59.86 | X-H torsion
[ 10167 10162 10161 10158 ] final   26.01 input  -65.29 | X-H torsion
[ 10718 10713 10712 10709 ] final   -5.43 input   66.30 | X-H torsion
[ 10763 10752 10751 10750 ] final -153.92 input  -60.55 | X-H torsion
[ 11005 11000 10999 10996 ] final  145.90 input  -57.11 | X-H torsion

> <Gold.Protein.ActiveResidues>
 VAL166  LYS551  ARG553  GLY616  TRP617  ASP618  TYR619  PRO620  LYS621  CYS622 
 ASP623  PHE694  ASN695  SER759  ASP760  ASP761  ALA762  ILE779  LEU786  VAL792 
 PHE793  MET794  SER795  GLU796  ALA797  LYS798  CYS799  TRP800  GLU811  SER814 

> <Gold.Protein.RotatedAtoms>
  151.5131  135.1065  159.9858 H   0  0  0  0  0  0  0  0  0  0  0  0  # atno 6907 bound_to 6896
  152.4653  133.7905  159.6910 H   0  0  0  0  0  0  0  0  0  0  0  0  # atno 6908 bound_to 6896
  150.8634  133.7547  159.3010 H   0  0  0  0  0  0  0  0  0  0  0  0  # atno 6909 bound_to 6896
  144.9707  139.4608  143.5434 H   0  0  0  0  0  0  0  0  0  0  0  0  # atno 7974 bound_to 7965
  154.5911  140.0659  156.9239 H   0  0  0  0  0  0  0  0  0  0  0  0  # atno 8008 bound_to 7997
  155.2295  140.3336  155.4287 H   0  0  0  0  0  0  0  0  0  0  0  0  # atno 8009 bound_to 7997
  156.2256  140.1818  156.7356 H   0  0  0  0  0  0  0  0  0  0  0  0  # atno 8010 bound_to 7997
  140.5059  144.0240  150.6352 H   0  0  0  0  0  0  0  0  0  0  0  0  # atno 10167 bound_to 10162
  156.7466  130.5226  149.5813 H   0  0  0  0  0  0  0  0  0  0  0  0  # atno 10718 bound_to 10713
  154.7895  135.3202  154.7811 H   0  0  0  0  0  0  0  0  0  0  0  0  # atno 10763 bound_to 10752
  153.8503  135.6863  153.4797 H   0  0  0  0  0  0  0  0  0  0  0  0  # atno 10764 bound_to 10752
  153.1559  135.4680  154.9643 H   0  0  0  0  0  0  0  0  0  0  0  0  # atno 10765 bound_to 10752
  140.0750  134.9130  157.1407 H   0  0  0  0  0  0  0  0  0  0  0  0  # atno 11005 bound_to 11000
  146.3381  139.8918  142.8808 LP  0  0  0  0  0  0  0  0  0  0  0  0  # atno 17320 bound_to 7965
  145.2563  141.0061  143.3852 LP  0  0  0  0  0  0  0  0  0  0  0  0  # atno 17321 bound_to 7965
  140.3549  143.2941  152.0447 LP  0  0  0  0  0  0  0  0  0  0  0  0  # atno 17342 bound_to 10162
  139.4883  144.6346  151.7001 LP  0  0  0  0  0  0  0  0  0  0  0  0  # atno 17343 bound_to 10162
  156.1429  130.6257  151.0491 LP  0  0  0  0  0  0  0  0  0  0  0  0  # atno 17370 bound_to 10713
  157.6795  131.0842  150.7406 LP  0  0  0  0  0  0  0  0  0  0  0  0  # atno 17371 bound_to 10713
  140.3571  134.2534  155.7191 LP  0  0  0  0  0  0  0  0  0  0  0  0  # atno 17394 bound_to 11000
  141.2026  133.7934  157.0383 LP  0  0  0  0  0  0  0  0  0  0  0  0  # atno 17395 bound_to 11000

$$$$
