AV-unprocessed.smi:245|AV-procd|sdf|1878|dock6
  -GOLD-   2262020523D 1   1.00000     0.00000
 Structure written by MMmdl.
 54 58  0  0  0  0  0  0  0  0  1 V2000
  146.4967  142.8876  154.2314 O   0  0  0  0  0  0  0  0  0  0  0  0
  147.3389  141.9960  154.3058 C   0  0  0  0  0  0  0  0  0  0  0  0
  146.9459  140.5517  153.9482 C   0  0  0  0  0  0  0  0  0  0  0  0
  148.0112  139.5474  154.1107 N   0  0  0  0  0  0  0  0  0  0  0  0
  147.4918  138.2962  154.1005 C   0  0  0  0  0  0  0  0  0  0  0  0
  147.6375  137.4865  155.1828 N   0  0  0  0  0  0  0  0  0  0  0  0
  147.0998  136.2628  155.1792 C   0  0  0  0  0  0  0  0  0  0  0  0
  146.3829  135.6683  154.2227 N   0  0  0  0  0  0  0  0  0  0  0  0
  146.2231  136.4858  153.1422 C   0  0  0  0  0  0  0  0  0  0  0  0
  146.7423  137.8025  152.9999 C   0  0  0  0  0  0  0  0  0  0  0  0
  146.3910  138.3235  151.7613 N   0  0  0  0  0  0  0  0  0  0  0  0
  145.7070  137.3645  151.1987 C   0  0  0  0  0  0  0  0  0  0  0  0
  145.5347  136.2351  151.9683 N   0  0  0  0  0  0  0  0  0  0  0  0
  144.8601  135.0273  151.5931 C   0  0  0  0  0  0  0  0  0  0  0  0
  145.6077  133.6973  151.4627 C   0  0  0  0  0  0  0  0  0  0  0  0
  144.6431  133.2762  150.3304 C   0  0  0  0  0  0  0  0  0  0  0  0
  145.3188  132.5427  149.1582 C   0  0  0  0  0  0  0  0  0  0  0  0
  144.4931  132.5022  148.0126 O   0  0  0  0  0  0  0  0  0  0  0  0
  143.4319  132.4523  150.8167 C   0  0  0  0  0  0  0  0  0  0  0  0
  142.5753  132.0823  149.7562 O   0  0  0  0  0  0  0  0  0  0  0  0
  144.4149  134.7947  150.1487 C   0  0  0  0  0  0  0  0  0  0  0  0
  149.0925  139.8420  155.0592 C   0  0  1  0  0  0  0  0  0  0  0  0
  150.2562  138.8195  155.0205 C   0  0  0  0  0  0  0  0  0  0  0  0
  151.3608  139.1977  156.0227 C   0  0  0  0  0  0  0  0  0  0  0  0
  151.8824  140.6228  155.7797 C   0  0  0  0  0  0  0  0  0  0  0  0
  150.7355  141.6459  155.7785 C   0  0  0  0  0  0  0  0  0  0  0  0
  149.6547  141.2492  154.7583 C   0  0  2  0  0  0  0  0  0  0  0  0
  148.5936  142.2470  154.7097 N   0  0  0  0  0  0  0  0  0  0  0  0
  146.0821  140.2859  154.5612 H   0  0  0  0  0  0  0  0  0  0  0  0
  146.6098  140.5431  152.9106 H   0  0  0  0  0  0  0  0  0  0  0  0
  147.2644  135.6770  156.0716 H   0  0  0  0  0  0  0  0  0  0  0  0
  145.3021  137.4614  150.2018 H   0  0  0  0  0  0  0  0  0  0  0  0
  144.0143  134.9310  152.2761 H   0  0  0  0  0  0  0  0  0  0  0  0
  146.6364  133.8289  151.1223 H   0  0  0  0  0  0  0  0  0  0  0  0
  145.5718  133.0710  152.3548 H   0  0  0  0  0  0  0  0  0  0  0  0
  146.2452  133.0413  148.8714 H   0  0  0  0  0  0  0  0  0  0  0  0
  145.5931  131.5236  149.4327 H   0  0  0  0  0  0  0  0  0  0  0  0
  143.8663  131.8031  148.1178 H   0  0  0  0  0  0  0  0  0  0  0  0
  143.7535  131.5496  151.3367 H   0  0  0  0  0  0  0  0  0  0  0  0
  142.8360  133.0157  151.5348 H   0  0  0  0  0  0  0  0  0  0  0  0
  142.0302  132.8223  149.5371 H   0  0  0  0  0  0  0  0  0  0  0  0
  143.3855  135.0883  149.9419 H   0  0  0  0  0  0  0  0  0  0  0  0
  145.0991  135.2426  149.4252 H   0  0  0  0  0  0  0  0  0  0  0  0
  148.6638  139.8450  156.0638 H   0  0  0  0  0  0  0  0  0  0  0  0
  149.9105  137.8132  155.2538 H   0  0  0  0  0  0  0  0  0  0  0  0
  150.6746  138.7734  154.0141 H   0  0  0  0  0  0  0  0  0  0  0  0
  150.9704  139.1216  157.0384 H   0  0  0  0  0  0  0  0  0  0  0  0
  152.1838  138.4856  155.9549 H   0  0  0  0  0  0  0  0  0  0  0  0
  152.6165  140.8863  156.5415 H   0  0  0  0  0  0  0  0  0  0  0  0
  152.4039  140.6601  154.8223 H   0  0  0  0  0  0  0  0  0  0  0  0
  150.2993  141.7108  156.7765 H   0  0  0  0  0  0  0  0  0  0  0  0
  151.1288  142.6361  155.5454 H   0  0  0  0  0  0  0  0  0  0  0  0
  150.1092  141.2396  153.7657 H   0  0  0  0  0  0  0  0  0  0  0  0
  148.8362  143.1950  154.9587 H   0  0  0  0  0  0  0  0  0  0  0  0
  1  2  2  0  0  0  0
  2 28  1  0  0  0  0
  2  3  1  0  0  0  0
  3  4  1  0  0  0  0
  3 29  1  0  0  0  0
  3 30  1  0  0  0  0
  4  5  1  0  0  0  0
  4 22  1  0  0  0  0
  5 10  1  0  0  0  0
  5  6  2  0  0  0  0
  6  7  1  0  0  0  0
  7  8  2  0  0  0  0
  7 31  1  0  0  0  0
  8  9  1  0  0  0  0
  9 13  1  0  0  0  0
  9 10  2  0  0  0  0
 10 11  1  0  0  0  0
 11 12  2  0  0  0  0
 12 13  1  0  0  0  0
 12 32  1  0  0  0  0
 13 14  1  0  0  0  0
 14 21  1  0  0  0  0
 14 15  1  0  0  0  0
 14 33  1  0  0  0  0
 15 16  1  0  0  0  0
 15 34  1  0  0  0  0
 15 35  1  0  0  0  0
 16 17  1  0  0  0  0
 16 19  1  0  0  0  0
 16 21  1  0  0  0  0
 17 18  1  0  0  0  0
 17 36  1  0  0  0  0
 17 37  1  0  0  0  0
 18 38  1  0  0  0  0
 19 20  1  0  0  0  0
 19 39  1  0  0  0  0
 19 40  1  0  0  0  0
 20 41  1  0  0  0  0
 21 42  1  0  0  0  0
 21 43  1  0  0  0  0
 22 27  1  0  0  0  0
 22 23  1  0  0  0  0
 22 44  1  0  0  0  0
 23 24  1  0  0  0  0
 23 45  1  0  0  0  0
 23 46  1  0  0  0  0
 24 25  1  0  0  0  0
 24 47  1  0  0  0  0
 24 48  1  0  0  0  0
 25 26  1  0  0  0  0
 25 49  1  0  0  0  0
 25 50  1  0  0  0  0
 26 27  1  0  0  0  0
 26 51  1  0  0  0  0
 26 52  1  0  0  0  0
 27 28  1  0  0  0  0
 27 53  1  0  0  0  0
 28 54  1  0  0  0  0
M  END
> <s_m_source_file>
AV-unprocessed.smi

> <i_m_source_file_index>
245

> <i_lp_mmshare_version>
43012

> <i_f3d_flags>
0

> <s_epik_input>
W0NIMl0xW0NIMl1bQ0gyXVtDSDJdW0NASF0oW0NASF0xMilbTkhdQyg9TylbQ0gyXU4yYyhuW2NIXW4zKWMoYzM0KW5bY0hdbjRbQ0hdKFtDSDJdNSlbQ0gyXUM1KFtDSDJdW09IXSlbQ0gyXVtPSF0=

> <s_epik_cmdline>
J2VwaWtfcHl0aG9uJywgJy1waCcsICc3LjAnLCAnLXRuJywgJzgnLCAnLW1hJywgJzIwMCcsICctbWV0YWxfYmluZGluZycsICctaW1hZScsICc8aW5maWxlLm1hZT4nLCAnLW9tYWUnLCAnPG91dGZpbGUubWFlPic=

> <r_lp_tautomer_probability>
1

> <r_epik_Ionization_Penalty>
0.000702616

> <r_epik_Ionization_Penalty_Charging>
0

> <r_epik_Ionization_Penalty_Neutral>
0.000702616

> <r_epik_State_Penalty>
0.000343985

> <r_epik_Charging_Adjusted_Penalty>
0.000343985

> <i_epik_Tot_Q>
0

> <i_epik_Tot_abs_Q>
0

> <r_epik_Metal_State_Penalty>
-0

> <b_epik_Metal_Only>
0

> <s_lp_Force_Field>
OPLS_2005

> <r_lp_Energy>
49.1986

> <b_lp_Chiralities_Consistent>
1

> <s_lp_Variant>
AV-unprocessed.smi:245-3

> <Gold.Version>
5.8.1

> <Gold.Id.Protein>
6NUR|6NUR_protein|mol2

> <Gold.PLP.Fitness>
50.7510

> <Gold.PLP.PLP>
-40.9756

> <Gold.PLP.part.hbond>
-5.6812

> <Gold.PLP.part.metal>
0.0000

> <Gold.PLP.part.buried>
2.0305

> <Gold.PLP.part.nonpolar>
-36.5950

> <Gold.PLP.part.repulsive>
1.0164

> <Gold.PLP.ligand.clash>
0.0000

> <Gold.PLP.ligand.torsion>
0.6498

> <Gold.PLP.Chemscore.Hbond>
2.6403

> <Gold.PLP.Chemscore.CHOScore>
0.7575

> <Gold.PLP.Chemscore.Metal>
0.0000

> <Gold.Chemscore.Hbonds>
donor molecule, donor type, donor heavy atom, donor atom, acceptor molecule, acceptor atom, score
      L1  H    20    41       P1 10186  1.00
      L1  H    28    54       P1  8028  1.00
      P1  H  7918  7932       L1    18  0.09
      P1  H 10785 10796       L1    20  0.39
      L1  C    12    32       P1 10171  0.48

> <Gold.PLP.Chemscore.Internal.Correction>
0.8817

> <Gold.Rescore>
     Score         DG    S(hbond)    S(metal)    S(lipo)     H(rot)  DE(clash)    DE(int)     intcor
     12.63     -18.16       2.92        0.00      96.55       3.28       3.52       2.01       ----

> <Gold.Chemscore.Fitness>
12.6266

> <Gold.Chemscore.DG>
-18.1564

> <Gold.Chemscore.ZeroCoef>
-5.4800

> <Gold.Chemscore.Hbond>
2.9240

> <Gold.Chemscore.Metal>
0.0000

> <Gold.Chemscore.Lipo>
96.5485

> <Gold.Chemscore.Internal_Hbond>
0.0000

> <Gold.Chemscore.DEClash>
3.5171

> <Gold.Chemscore.DEInternal>
2.0127

> <Gold.Chemscore.Rot>
3.2758

> <Gold.Chemscore.Internal.Correction>
   9.000000E+99

> <Gold.Chemscore.Hbonds>
donor molecule, donor type, donor heavy atom, donor atom, acceptor molecule, acceptor atom, score
      L1  H    20    41       P1 10186  1.00
      L1  H    28    54       P1  8028  1.00
      P1  H  7918  7932       L1    18  0.10
      P1  H 10785 10796       L1    20  0.34

> <Gold.Chemscore.Hbond.Weighted>
-9.7662

> <Gold.Chemscore.Metal.Weighted>
-0.0000

> <Gold.Chemscore.Lipo.Weighted>
-11.2962

> <Gold.Chemscore.Internal_Hbond.Weighted>
0.0000

> <Gold.Chemscore.DEClash.Weighted>
3.5171

> <Gold.Chemscore.DEInternal.Weighted>
2.0127

> <Gold.Chemscore.Rot.Weighted>
8.3859

> <Gold.Chemscore.Internal.Correction.Weighted>
   9.000000E+99

> <Gold.Protein.RotatedTorsions>
[ 6907 6896 6895 6894 ] final  105.70 input  -60.11 | X-H torsion
[ 7974 7965 7964 7962 ] final  174.55 input  175.53 | X-H torsion
[ 8008 7997 7996 7995 ] final   79.85 input   59.86 | X-H torsion
[ 10167 10162 10161 10158 ] final  162.02 input  -65.29 | X-H torsion
[ 10718 10713 10712 10709 ] final -150.00 input   66.30 | X-H torsion
[ 10763 10752 10751 10750 ] final  134.89 input  -60.55 | X-H torsion
[ 11005 11000 10999 10996 ] final   16.04 input  -57.11 | X-H torsion

> <Gold.Protein.ActiveResidues>
 VAL166  LYS551  ARG553  GLY616  TRP617  ASP618  TYR619  PRO620  LYS621  CYS622 
 ASP623  PHE694  ASN695  SER759  ASP760  ASP761  ALA762  ILE779  LEU786  VAL792 
 PHE793  MET794  SER795  GLU796  ALA797  LYS798  CYS799  TRP800  GLU811  SER814 

> <Gold.Protein.RotatedAtoms>
  152.5221  133.9490  159.7662 H   0  0  0  0  0  0  0  0  0  0  0  0  # atno 6907 bound_to 6896
  150.9804  133.6243  159.2730 H   0  0  0  0  0  0  0  0  0  0  0  0  # atno 6908 bound_to 6896
  151.3423  135.0872  159.9428 H   0  0  0  0  0  0  0  0  0  0  0  0  # atno 6909 bound_to 6896
  144.7219  139.9813  143.6439 H   0  0  0  0  0  0  0  0  0  0  0  0  # atno 7974 bound_to 7965
  155.8754  140.3447  155.5850 H   0  0  0  0  0  0  0  0  0  0  0  0  # atno 8008 bound_to 7997
  155.7780  140.0854  157.2093 H   0  0  0  0  0  0  0  0  0  0  0  0  # atno 8009 bound_to 7997
  154.4020  140.1506  156.3006 H   0  0  0  0  0  0  0  0  0  0  0  0  # atno 8010 bound_to 7997
  139.4856  144.4479  151.8868 H   0  0  0  0  0  0  0  0  0  0  0  0  # atno 10167 bound_to 10162
  156.4405  130.8119  151.2349 H   0  0  0  0  0  0  0  0  0  0  0  0  # atno 10718 bound_to 10713
  153.8311  135.3103  155.3418 H   0  0  0  0  0  0  0  0  0  0  0  0  # atno 10763 bound_to 10752
  154.7973  135.4748  154.0194 H   0  0  0  0  0  0  0  0  0  0  0  0  # atno 10764 bound_to 10752
  153.1634  135.6865  153.8801 H   0  0  0  0  0  0  0  0  0  0  0  0  # atno 10765 bound_to 10752
  140.4515  134.1219  155.7703 H   0  0  0  0  0  0  0  0  0  0  0  0  # atno 11005 bound_to 11000
  146.0485  139.3488  143.0654 LP  0  0  0  0  0  0  0  0  0  0  0  0  # atno 17320 bound_to 7965
  145.8245  140.9662  143.0881 LP  0  0  0  0  0  0  0  0  0  0  0  0  # atno 17321 bound_to 7965
  140.3934  144.2586  150.5898 LP  0  0  0  0  0  0  0  0  0  0  0  0  # atno 17342 bound_to 10162
  140.5125  143.2287  151.8514 LP  0  0  0  0  0  0  0  0  0  0  0  0  # atno 17343 bound_to 10162
  157.7506  131.0170  150.3566 LP  0  0  0  0  0  0  0  0  0  0  0  0  # atno 17370 bound_to 10713
  156.3923  130.3900  149.7021 LP  0  0  0  0  0  0  0  0  0  0  0  0  # atno 17371 bound_to 10713
  141.1662  133.8698  157.1708 LP  0  0  0  0  0  0  0  0  0  0  0  0  # atno 17394 bound_to 11000
  140.0004  135.0030  157.0176 LP  0  0  0  0  0  0  0  0  0  0  0  0  # atno 17395 bound_to 11000

$$$$
