AV-unprocessed.smi:1047|AV-procd|sdf|4581|dock6
  -GOLD-   22720 3 43D 1   1.00000     0.00000
 Structure written by MMmdl.
 58 60  0  0  0  0  0  0  0  0  4 V2000
  144.3125  132.0752  151.2960 C   0  0  0  0  0  0  0  0  0  0  0  0
  145.2775  132.3165  152.4651 C   0  0  0  0  0  0  0  0  0  0  0  0
  144.7515  133.3105  153.4384 N   0  3  2  0  0  0  0  0  0  0  0  0
  144.1298  134.4950  152.7981 C   0  0  0  0  0  0  0  0  0  0  0  0
  145.1995  135.4808  152.2960 C   0  0  0  0  0  0  0  0  0  0  0  0
  146.0393  135.8599  153.3804 O   0  0  0  0  0  0  0  0  0  0  0  0
  146.7445  134.7556  153.9389 C   0  0  1  0  0  0  0  0  0  0  0  0
  147.6599  135.2895  155.0521 C   0  0  0  0  0  0  0  0  0  0  0  0
  148.7890  136.0636  154.4972 N   0  3  0  0  0  0  0  0  0  0  0  0
  149.0533  137.3340  155.2027 C   0  0  0  0  0  0  0  0  0  0  0  0
  150.4002  137.9444  154.7710 C   0  0  2  0  0  0  0  0  0  0  0  0
  151.2187  136.9189  154.2464 O   0  0  0  0  0  0  0  0  0  0  0  0
  151.1820  138.6231  155.9140 C   0  0  0  0  0  0  0  0  0  0  0  0
  150.7598  140.0093  156.1608 N   0  0  0  0  0  0  0  0  0  0  0  0
  149.8925  140.7873  155.4571 C   0  0  0  0  0  0  0  0  0  0  0  0
  149.8364  142.0009  156.0715 N   0  3  0  0  0  0  0  0  0  0  0  0
  150.6841  142.0015  157.1809 C   0  0  0  0  0  0  0  0  0  0  0  0
  150.9641  142.9960  158.1101 C   0  0  0  0  0  0  0  0  0  0  0  0
  151.8834  142.6806  159.1356 C   0  0  0  0  0  0  0  0  0  0  0  0
  152.2128  143.7465  160.1672 C   0  0  0  0  0  0  0  0  0  0  0  0
  152.4897  141.3996  159.2036 C   0  0  0  0  0  0  0  0  0  0  0  0
  153.4766  141.0709  160.3110 C   0  0  0  0  0  0  0  0  0  0  0  0
  152.1929  140.4018  158.2475 C   0  0  0  0  0  0  0  0  0  0  0  0
  151.2836  140.7280  157.2432 C   0  0  0  0  0  0  0  0  0  0  0  0
  145.7191  133.7350  154.4834 C   0  0  0  0  0  0  0  0  0  0  0  0
  144.7650  131.4130  150.5576 H   0  0  0  0  0  0  0  0  0  0  0  0
  144.0639  133.0094  150.7912 H   0  0  0  0  0  0  0  0  0  0  0  0
  143.3823  131.6089  151.6190 H   0  0  0  0  0  0  0  0  0  0  0  0
  145.5209  131.3758  152.9586 H   0  0  0  0  0  0  0  0  0  0  0  0
  146.2125  132.6905  152.0460 H   0  0  0  0  0  0  0  0  0  0  0  0
  143.4667  134.1933  151.9863 H   0  0  0  0  0  0  0  0  0  0  0  0
  143.5002  134.9933  153.5365 H   0  0  0  0  0  0  0  0  0  0  0  0
  145.7929  135.0469  151.4898 H   0  0  0  0  0  0  0  0  0  0  0  0
  144.7230  136.3740  151.8919 H   0  0  0  0  0  0  0  0  0  0  0  0
  147.3634  134.2901  153.1703 H   0  0  0  0  0  0  0  0  0  0  0  0
  147.0919  135.9127  155.7443 H   0  0  0  0  0  0  0  0  0  0  0  0
  148.0628  134.4549  155.6278 H   0  0  0  0  0  0  0  0  0  0  0  0
  149.6259  135.4992  154.5422 H   0  0  0  0  0  0  0  0  0  0  0  0
  148.2376  138.0191  154.9706 H   0  0  0  0  0  0  0  0  0  0  0  0
  149.0376  137.1691  156.2812 H   0  0  0  0  0  0  0  0  0  0  0  0
  150.2271  138.6747  153.9791 H   0  0  0  0  0  0  0  0  0  0  0  0
  150.9036  136.6863  153.3857 H   0  0  0  0  0  0  0  0  0  0  0  0
  151.1087  138.0518  156.8394 H   0  0  0  0  0  0  0  0  0  0  0  0
  152.2438  138.6582  155.6650 H   0  0  0  0  0  0  0  0  0  0  0  0
  149.3486  140.4966  154.5694 H   0  0  0  0  0  0  0  0  0  0  0  0
  150.5000  143.9700  158.0512 H   0  0  0  0  0  0  0  0  0  0  0  0
  153.2717  144.0031  160.1257 H   0  0  0  0  0  0  0  0  0  0  0  0
  151.9802  143.3944  161.1727 H   0  0  0  0  0  0  0  0  0  0  0  0
  151.6417  144.6593  159.9941 H   0  0  0  0  0  0  0  0  0  0  0  0
  153.8638  140.0562  160.2138 H   0  0  0  0  0  0  0  0  0  0  0  0
  152.9976  141.1516  161.2871 H   0  0  0  0  0  0  0  0  0  0  0  0
  154.3253  141.7545  160.2837 H   0  0  0  0  0  0  0  0  0  0  0  0
  152.6577  139.4289  158.3035 H   0  0  0  0  0  0  0  0  0  0  0  0
  145.1521  134.1931  155.2953 H   0  0  0  0  0  0  0  0  0  0  0  0
  146.2249  132.8746  154.9196 H   0  0  0  0  0  0  0  0  0  0  0  0
  148.5936  136.2698  153.5278 H   0  0  0  0  0  0  0  0  0  0  0  0
  144.0008  132.8328  153.9172 H   0  0  0  0  0  0  0  0  0  0  0  0
  149.2647  142.7727  155.7516 H   0  0  0  0  0  0  0  0  0  0  0  0
  1  2  1  0  0  0  0
  1 26  1  0  0  0  0
  1 27  1  0  0  0  0
  1 28  1  0  0  0  0
  2  3  1  0  0  0  0
  2 29  1  0  0  0  0
  2 30  1  0  0  0  0
  3 25  1  0  0  0  0
  3  4  1  0  0  0  0
  3 57  1  0  0  0  0
  4  5  1  0  0  0  0
  4 31  1  0  0  0  0
  4 32  1  0  0  0  0
  5  6  1  0  0  0  0
  5 33  1  0  0  0  0
  5 34  1  0  0  0  0
  6  7  1  0  0  0  0
  7  8  1  0  0  0  0
  7 25  1  0  0  0  0
  7 35  1  0  0  0  0
  8  9  1  0  0  0  0
  8 36  1  0  0  0  0
  8 37  1  0  0  0  0
  9 10  1  0  0  0  0
  9 38  1  0  0  0  0
  9 56  1  0  0  0  0
 10 11  1  0  0  0  0
 10 39  1  0  0  0  0
 10 40  1  0  0  0  0
 11 12  1  0  0  0  0
 11 13  1  0  0  0  0
 11 41  1  0  0  0  0
 12 42  1  0  0  0  0
 13 14  1  0  0  0  0
 13 43  1  0  0  0  0
 13 44  1  0  0  0  0
 14 24  1  0  0  0  0
 14 15  1  0  0  0  0
 15 16  2  0  0  0  0
 15 45  1  0  0  0  0
 16 17  1  0  0  0  0
 16 58  1  0  0  0  0
 17 24  2  0  0  0  0
 17 18  1  0  0  0  0
 18 19  2  0  0  0  0
 18 46  1  0  0  0  0
 19 20  1  0  0  0  0
 19 21  1  0  0  0  0
 20 47  1  0  0  0  0
 20 48  1  0  0  0  0
 20 49  1  0  0  0  0
 21 22  1  0  0  0  0
 21 23  2  0  0  0  0
 22 50  1  0  0  0  0
 22 51  1  0  0  0  0
 22 52  1  0  0  0  0
 23 24  1  0  0  0  0
 23 53  1  0  0  0  0
 25 54  1  0  0  0  0
 25 55  1  0  0  0  0
M  CHG  1   3   1
M  CHG  1   9   1
M  CHG  1  16   1
M  END
> <s_m_source_file>
AV-unprocessed.smi

> <i_m_source_file_index>
1047

> <i_lp_mmshare_version>
43012

> <i_f3d_flags>
0

> <s_epik_input>
W0NIM11bQ0gyXU4xW0NIMl1bQ0gyXU9bQ0BIXShbQ0gyXTEpW0NIMl1bTkhdW0NIMl1bQ0BIXShbT0hdKVtDSDJdbihbY0hdbjIpYyhjMjMpW2NIXWMoW0NIM10pYyhbY0hdMylbQ0gzXQ==

> <s_epik_cmdline>
J2VwaWtfcHl0aG9uJywgJy1waCcsICc3LjAnLCAnLXRuJywgJzgnLCAnLW1hJywgJzIwMCcsICctbWV0YWxfYmluZGluZycsICctaW1hZScsICc8aW5maWxlLm1hZT4nLCAnLW9tYWUnLCAnPG91dGZpbGUubWFlPic=

> <r_epik_Ionization_Penalty>
1.6114

> <r_epik_Ionization_Penalty_Charging>
1.61139

> <r_epik_Ionization_Penalty_Neutral>
5.04732e-06

> <r_epik_State_Penalty>
1.63724

> <r_epik_Charging_Adjusted_Penalty>
3.24864

> <i_epik_Tot_Q>
3

> <i_epik_Tot_abs_Q>
3

> <r_epik_Metal_State_Penalty>
5.64594

> <b_epik_Metal_Only>
0

> <s_lp_Force_Field>
OPLS_2005

> <r_lp_Energy>
44.3097

> <b_lp_Chiralities_Consistent>
1

> <s_lp_Variant>
AV-unprocessed.smi:1047-22

> <Gold.Version>
5.8.1

> <Gold.Id.Protein>
6NUR|6NUR_protein|mol2

> <Gold.PLP.Fitness>
66.4520

> <Gold.PLP.PLP>
-44.9121

> <Gold.PLP.part.hbond>
-4.9995

> <Gold.PLP.part.metal>
0.0000

> <Gold.PLP.part.buried>
-5.4131

> <Gold.PLP.part.nonpolar>
-34.7866

> <Gold.PLP.part.repulsive>
0.2390

> <Gold.PLP.ligand.clash>
0.0000

> <Gold.PLP.ligand.torsion>
1.3266

> <Gold.PLP.Chemscore.Hbond>
8.0000

> <Gold.PLP.Chemscore.CHOScore>
0.0000

> <Gold.PLP.Chemscore.Metal>
0.0000

> <Gold.Chemscore.Hbonds>
donor molecule, donor type, donor heavy atom, donor atom, acceptor molecule, acceptor atom, score
      L1  H     3    57       P1 10957  2.00
      L1  H     9    56       P1  7948  2.00
      L1  H    12    42       P1  7949  0.89
      L1  H    16    58       P1  8028  2.00
      P1  H 10752 10763       L1    12  0.71

> <Gold.PLP.Chemscore.Internal.Correction>
0.1931

> <Gold.Rescore>
     Score         DG    S(hbond)    S(metal)    S(lipo)     H(rot)  DE(clash)    DE(int)     intcor
     23.51     -25.07       4.09        0.00     111.68       2.78       0.13       1.42       ----

> <Gold.Chemscore.Fitness>
23.5129

> <Gold.Chemscore.DG>
-25.0683

> <Gold.Chemscore.ZeroCoef>
-5.4800

> <Gold.Chemscore.Hbond>
4.0869

> <Gold.Chemscore.Metal>
0.0000

> <Gold.Chemscore.Lipo>
111.6842

> <Gold.Chemscore.Internal_Hbond>
0.0000

> <Gold.Chemscore.DEClash>
0.1318

> <Gold.Chemscore.DEInternal>
1.4236

> <Gold.Chemscore.Rot>
2.7848

> <Gold.Chemscore.Internal.Correction>
   9.000000E+99

> <Gold.Chemscore.Hbonds>
donor molecule, donor type, donor heavy atom, donor atom, acceptor molecule, acceptor atom, score
      L1  H     3    57       P1 10957  0.90
      L1  H     9    56       P1  7948  0.96
      L1  H    12    42       P1  7949  0.16
      L1  H    16    58       P1  8028  0.93
      P1  H 10752 10763       L1    12  0.16

> <Gold.Chemscore.Hbond.Weighted>
-13.6504

> <Gold.Chemscore.Metal.Weighted>
-0.0000

> <Gold.Chemscore.Lipo.Weighted>
-13.0670

> <Gold.Chemscore.Internal_Hbond.Weighted>
0.0000

> <Gold.Chemscore.DEClash.Weighted>
0.1318

> <Gold.Chemscore.DEInternal.Weighted>
1.4236

> <Gold.Chemscore.Rot.Weighted>
7.1291

> <Gold.Chemscore.Internal.Correction.Weighted>
   9.000000E+99

> <Gold.Protein.RotatedTorsions>
[ 6907 6896 6895 6894 ] final   76.90 input  -60.11 | X-H torsion
[ 7974 7965 7964 7962 ] final -118.23 input  175.53 | X-H torsion
[ 8008 7997 7996 7995 ] final  104.35 input   59.86 | X-H torsion
[ 10167 10162 10161 10158 ] final  -52.19 input  -65.29 | X-H torsion
[ 10718 10713 10712 10709 ] final  -18.14 input   66.30 | X-H torsion
[ 10763 10752 10751 10750 ] final   45.53 input  -60.55 | X-H torsion
[ 11005 11000 10999 10996 ] final   36.46 input  -57.11 | X-H torsion

> <Gold.Protein.ActiveResidues>
 VAL166  LYS551  ARG553  GLY616  TRP617  ASP618  TYR619  PRO620  LYS621  CYS622 
 ASP623  PHE694  ASN695  SER759  ASP760  ASP761  ALA762  ILE779  LEU786  VAL792 
 PHE793  MET794  SER795  GLU796  ALA797  LYS798  CYS799  TRP800  GLU811  SER814 

> <Gold.Protein.RotatedAtoms>
  152.5094  134.3899  159.9379 H   0  0  0  0  0  0  0  0  0  0  0  0  # atno 6907 bound_to 6896
  151.3858  133.3799  159.2723 H   0  0  0  0  0  0  0  0  0  0  0  0  # atno 6908 bound_to 6896
  150.9470  134.8894  159.7707 H   0  0  0  0  0  0  0  0  0  0  0  0  # atno 6909 bound_to 6896
  145.0762  140.8394  143.4066 H   0  0  0  0  0  0  0  0  0  0  0  0  # atno 7974 bound_to 7965
  156.1565  140.3149  155.8735 H   0  0  0  0  0  0  0  0  0  0  0  0  # atno 8008 bound_to 7997
  155.3868  140.0491  157.3059 H   0  0  0  0  0  0  0  0  0  0  0  0  # atno 8009 bound_to 7997
  154.5106  140.2163  155.9175 H   0  0  0  0  0  0  0  0  0  0  0  0  # atno 8010 bound_to 7997
  140.6550  143.2592  151.4612 H   0  0  0  0  0  0  0  0  0  0  0  0  # atno 10167 bound_to 10162
  156.5637  130.4732  149.6395 H   0  0  0  0  0  0  0  0  0  0  0  0  # atno 10718 bound_to 10713
  152.9823  135.6037  154.3451 H   0  0  0  0  0  0  0  0  0  0  0  0  # atno 10763 bound_to 10752
  154.3145  135.2770  155.2552 H   0  0  0  0  0  0  0  0  0  0  0  0  # atno 10764 bound_to 10752
  154.4746  135.5933  153.6402 H   0  0  0  0  0  0  0  0  0  0  0  0  # atno 10765 bound_to 10752
  140.2324  134.3512  155.7958 H   0  0  0  0  0  0  0  0  0  0  0  0  # atno 11005 bound_to 11000
  145.1233  139.2679  143.5577 LP  0  0  0  0  0  0  0  0  0  0  0  0  # atno 17320 bound_to 7965
  146.3530  140.0863  142.8615 LP  0  0  0  0  0  0  0  0  0  0  0  0  # atno 17321 bound_to 7965
  139.5771  144.1794  152.1918 LP  0  0  0  0  0  0  0  0  0  0  0  0  # atno 17342 bound_to 10162
  140.1108  144.5459  150.6926 LP  0  0  0  0  0  0  0  0  0  0  0  0  # atno 17343 bound_to 10162
  156.2776  130.7053  151.1868 LP  0  0  0  0  0  0  0  0  0  0  0  0  # atno 17370 bound_to 10713
  157.7363  131.0563  150.5421 LP  0  0  0  0  0  0  0  0  0  0  0  0  # atno 17371 bound_to 10713
  141.2217  133.7252  156.8752 LP  0  0  0  0  0  0  0  0  0  0  0  0  # atno 17394 bound_to 11000
  140.1737  134.9082  157.2865 LP  0  0  0  0  0  0  0  0  0  0  0  0  # atno 17395 bound_to 11000

$$$$
