AV-unprocessed.smi:34|AV-procd|sdf|220|dock6
  -GOLD-   2262015533D 1   1.00000     0.00000
 Structure written by MMmdl.
 55 59  0  0  0  0  0  0  0  0  1 V2000
  145.6291  132.1667  150.8385 O   0  0  0  0  0  0  0  0  0  0  0  0
  145.9838  132.0336  152.0102 C   0  0  0  0  0  0  0  0  0  0  0  0
  146.1526  133.1682  152.9010 N   0  0  0  0  0  0  0  0  0  0  0  0
  146.0236  134.4843  152.6108 C   0  0  0  0  0  0  0  0  0  0  0  0
  145.6079  134.9242  151.3942 N   0  0  0  0  0  0  0  0  0  0  0  0
  145.4912  136.2336  151.1572 C   0  0  0  0  0  0  0  0  0  0  0  0
  145.7358  137.2530  151.9821 N   0  0  0  0  0  0  0  0  0  0  0  0
  146.1601  136.8235  153.2048 C   0  0  0  0  0  0  0  0  0  0  0  0
  146.3307  135.4642  153.5908 C   0  0  0  0  0  0  0  0  0  0  0  0
  146.7758  135.4007  154.9046 N   0  0  0  0  0  0  0  0  0  0  0  0
  146.8585  136.6513  155.2707 C   0  0  0  0  0  0  0  0  0  0  0  0
  146.5011  137.5747  154.3136 N   0  0  0  0  0  0  0  0  0  0  0  0
  146.4836  139.0659  154.4648 C   0  0  1  0  0  0  0  0  0  0  0  0
  146.9014  139.4243  155.7470 O   0  0  0  0  0  0  0  0  0  0  0  0
  147.8034  140.5329  155.7032 C   0  0  1  0  0  0  0  0  0  0  0  0
  149.1926  140.0634  156.1593 C   0  0  0  0  0  0  0  0  0  0  0  0
  149.8519  141.1306  156.8216 O   0  0  0  0  0  0  0  0  0  0  0  0
  150.8463  140.8758  157.6946 C   0  0  0  0  0  0  0  0  0  0  0  0
  151.2559  139.7420  157.9524 O   0  0  0  0  0  0  0  0  0  0  0  0
  151.3964  142.1109  158.3235 C   0  0  0  0  0  0  0  0  0  0  0  0
  152.4725  142.0038  159.2352 C   0  0  0  0  0  0  0  0  0  0  0  0
  153.0127  143.1525  159.8456 C   0  0  0  0  0  0  0  0  0  0  0  0
  152.4833  144.4225  159.5511 C   0  0  0  0  0  0  0  0  0  0  0  0
  151.4125  144.5424  158.6463 C   0  0  0  0  0  0  0  0  0  0  0  0
  150.8702  143.3946  158.0359 C   0  0  0  0  0  0  0  0  0  0  0  0
  147.7997  141.0112  154.2468 C   0  0  2  0  0  0  0  0  0  0  0  0
  146.8684  141.9542  154.0919 F   0  0  0  0  0  0  0  0  0  0  0  0
  147.3973  139.7786  153.4600 C   0  0  1  0  0  0  0  0  0  0  0  0
  148.5262  139.0219  153.0608 O   0  0  0  0  0  0  0  0  0  0  0  0
  146.1784  130.6785  152.6253 C   0  0  0  0  0  0  0  0  0  0  0  0
  145.9910  129.5153  151.8450 C   0  0  0  0  0  0  0  0  0  0  0  0
  146.1833  128.2393  152.4094 C   0  0  0  0  0  0  0  0  0  0  0  0
  146.5737  128.1157  153.7561 C   0  0  0  0  0  0  0  0  0  0  0  0
  146.7752  129.2694  154.5371 C   0  0  0  0  0  0  0  0  0  0  0  0
  146.5820  130.5461  153.9742 C   0  0  0  0  0  0  0  0  0  0  0  0
  146.3918  132.9475  153.8567 H   0  0  0  0  0  0  0  0  0  0  0  0
  145.1529  136.5031  150.1674 H   0  0  0  0  0  0  0  0  0  0  0  0
  147.1783  136.9382  156.2619 H   0  0  0  0  0  0  0  0  0  0  0  0
  145.4359  139.3461  154.3467 H   0  0  0  0  0  0  0  0  0  0  0  0
  147.4542  141.3256  156.3662 H   0  0  0  0  0  0  0  0  0  0  0  0
  149.1041  139.1906  156.8064 H   0  0  0  0  0  0  0  0  0  0  0  0
  149.7912  139.7669  155.2975 H   0  0  0  0  0  0  0  0  0  0  0  0
  152.8959  141.0394  159.4764 H   0  0  0  0  0  0  0  0  0  0  0  0
  153.8344  143.0583  160.5403 H   0  0  0  0  0  0  0  0  0  0  0  0
  152.8978  145.3034  160.0188 H   0  0  0  0  0  0  0  0  0  0  0  0
  151.0058  145.5168  158.4190 H   0  0  0  0  0  0  0  0  0  0  0  0
  150.0472  143.5217  157.3479 H   0  0  0  0  0  0  0  0  0  0  0  0
  148.7457  141.4489  153.9248 H   0  0  0  0  0  0  0  0  0  0  0  0
  146.8278  140.0294  152.5643 H   0  0  0  0  0  0  0  0  0  0  0  0
  149.0906  139.5766  152.5438 H   0  0  0  0  0  0  0  0  0  0  0  0
  145.6926  129.5934  150.8094 H   0  0  0  0  0  0  0  0  0  0  0  0
  146.0320  127.3552  151.8078 H   0  0  0  0  0  0  0  0  0  0  0  0
  146.7217  127.1371  154.1884 H   0  0  0  0  0  0  0  0  0  0  0  0
  147.0811  129.1754  155.5687 H   0  0  0  0  0  0  0  0  0  0  0  0
  146.7508  131.4186  154.5885 H   0  0  0  0  0  0  0  0  0  0  0  0
  1  2  2  0  0  0  0
  2  3  1  0  0  0  0
  2 30  1  0  0  0  0
  3  4  1  0  0  0  0
  3 36  1  0  0  0  0
  4  9  1  0  0  0  0
  4  5  2  0  0  0  0
  5  6  1  0  0  0  0
  6  7  2  0  0  0  0
  6 37  1  0  0  0  0
  7  8  1  0  0  0  0
  8 12  1  0  0  0  0
  8  9  2  0  0  0  0
  9 10  1  0  0  0  0
 10 11  2  0  0  0  0
 11 12  1  0  0  0  0
 11 38  1  0  0  0  0
 12 13  1  0  0  0  0
 13 28  1  0  0  0  0
 13 14  1  0  0  0  0
 13 39  1  0  0  0  0
 14 15  1  0  0  0  0
 15 16  1  0  0  0  0
 15 26  1  0  0  0  0
 15 40  1  0  0  0  0
 16 17  1  0  0  0  0
 16 41  1  0  0  0  0
 16 42  1  0  0  0  0
 17 18  1  0  0  0  0
 18 19  2  0  0  0  0
 18 20  1  0  0  0  0
 20 25  1  0  0  0  0
 20 21  2  0  0  0  0
 21 22  1  0  0  0  0
 21 43  1  0  0  0  0
 22 23  2  0  0  0  0
 22 44  1  0  0  0  0
 23 24  1  0  0  0  0
 23 45  1  0  0  0  0
 24 25  2  0  0  0  0
 24 46  1  0  0  0  0
 25 47  1  0  0  0  0
 26 27  1  0  0  0  0
 26 28  1  0  0  0  0
 26 48  1  0  0  0  0
 28 29  1  0  0  0  0
 28 49  1  0  0  0  0
 29 50  1  0  0  0  0
 30 35  1  0  0  0  0
 30 31  2  0  0  0  0
 31 32  1  0  0  0  0
 31 51  1  0  0  0  0
 32 33  2  0  0  0  0
 32 52  1  0  0  0  0
 33 34  1  0  0  0  0
 33 53  1  0  0  0  0
 34 35  2  0  0  0  0
 34 54  1  0  0  0  0
 35 55  1  0  0  0  0
M  END
> <s_m_source_file>
AV-unprocessed.smi

> <i_m_source_file_index>
34

> <i_lp_mmshare_version>
43012

> <i_f3d_flags>
0

> <s_epik_input>
W2NIXTFbY0hdW2NIXVtjSF1bY0hdYzFDKD1PKVtOSF1jKG5bY0hdbjIpYyhjMjMpbltjSF1uM1tDQEBIXTRPW0NASF0oW0NAQEhdKEYpW0NASF00W09IXSlbQ0gyXU9DKD1PKWM1W2NIXVtjSF1bY0hdW2NIXVtjSF01

> <s_epik_cmdline>
J2VwaWtfcHl0aG9uJywgJy1waCcsICc3LjAnLCAnLXRuJywgJzgnLCAnLW1hJywgJzIwMCcsICctbWV0YWxfYmluZGluZycsICctaW1hZScsICc8aW5maWxlLm1hZT4nLCAnLW9tYWUnLCAnPG91dGZpbGUubWFlPic=

> <r_lp_tautomer_probability>
1

> <r_epik_Ionization_Penalty>
0.00257489

> <r_epik_Ionization_Penalty_Charging>
0

> <r_epik_Ionization_Penalty_Neutral>
0.00257489

> <r_epik_State_Penalty>
0.00519398

> <r_epik_Charging_Adjusted_Penalty>
0.00519398

> <i_epik_Tot_Q>
0

> <i_epik_Tot_abs_Q>
0

> <r_epik_Metal_State_Penalty>
0.335891

> <b_epik_Metal_Only>
0

> <s_epik_Chemistry_Notes>
This compound has an ester and may undergo hydrolysis at high or low pH. This compound contains an acetal/aminal-like group ( X-CH(R)-Y where X, Y are N, S, or O) that may be acid/base labile, releasing an aldehyde.

> <s_lp_Force_Field>
OPLS_2005

> <r_lp_Energy>
51.6643

> <b_lp_Chiralities_Consistent>
1

> <s_lp_Variant>
AV-unprocessed.smi:34-6

> <Gold.Version>
5.8.1

> <Gold.Id.Protein>
6NUR|6NUR_protein|mol2

> <Gold.PLP.Fitness>
55.5975

> <Gold.PLP.PLP>
-51.1222

> <Gold.PLP.part.hbond>
-1.5099

> <Gold.PLP.part.metal>
0.0000

> <Gold.PLP.part.buried>
-8.1581

> <Gold.PLP.part.nonpolar>
-43.2365

> <Gold.PLP.part.repulsive>
0.6705

> <Gold.PLP.ligand.clash>
0.0000

> <Gold.PLP.ligand.torsion>
0.5824

> <Gold.PLP.Chemscore.Hbond>
0.9920

> <Gold.PLP.Chemscore.CHOScore>
0.8349

> <Gold.PLP.Chemscore.Metal>
0.0000

> <Gold.Chemscore.Hbonds>
donor molecule, donor type, donor heavy atom, donor atom, acceptor molecule, acceptor atom, score
      L1  H    29    50       P1  7957  0.98
      L1  C     6    37       P1 10171  0.83

> <Gold.PLP.Chemscore.Internal.Correction>
0.1592

> <Gold.Rescore>
     Score         DG    S(hbond)    S(metal)    S(lipo)     H(rot)  DE(clash)    DE(int)     intcor
     14.67     -16.69       0.93        0.00     128.81       2.72       0.09       1.93       ----

> <Gold.Chemscore.Fitness>
14.6741

> <Gold.Chemscore.DG>
-16.6888

> <Gold.Chemscore.ZeroCoef>
-5.4800

> <Gold.Chemscore.Hbond>
0.9297

> <Gold.Chemscore.Metal>
0.0000

> <Gold.Chemscore.Lipo>
128.8100

> <Gold.Chemscore.Internal_Hbond>
0.0000

> <Gold.Chemscore.DEClash>
0.0855

> <Gold.Chemscore.DEInternal>
1.9293

> <Gold.Chemscore.Rot>
2.7215

> <Gold.Chemscore.Internal.Correction>
   9.000000E+99

> <Gold.Chemscore.Hbonds>
donor molecule, donor type, donor heavy atom, donor atom, acceptor molecule, acceptor atom, score
      L1  H    29    50       P1  7957  0.88

> <Gold.Chemscore.Hbond.Weighted>
-3.1051

> <Gold.Chemscore.Metal.Weighted>
-0.0000

> <Gold.Chemscore.Lipo.Weighted>
-15.0708

> <Gold.Chemscore.Internal_Hbond.Weighted>
0.0000

> <Gold.Chemscore.DEClash.Weighted>
0.0855

> <Gold.Chemscore.DEInternal.Weighted>
1.9293

> <Gold.Chemscore.Rot.Weighted>
6.9670

> <Gold.Chemscore.Internal.Correction.Weighted>
   9.000000E+99

> <Gold.Protein.RotatedTorsions>
[ 6907 6896 6895 6894 ] final  -24.05 input  -60.11 | X-H torsion
[ 7974 7965 7964 7962 ] final    4.74 input  175.53 | X-H torsion
[ 8008 7997 7996 7995 ] final  -74.38 input   59.86 | X-H torsion
[ 10167 10162 10161 10158 ] final  -31.18 input  -65.29 | X-H torsion
[ 10718 10713 10712 10709 ] final   41.04 input   66.30 | X-H torsion
[ 10763 10752 10751 10750 ] final  -98.24 input  -60.55 | X-H torsion
[ 11005 11000 10999 10996 ] final   57.07 input  -57.11 | X-H torsion

> <Gold.Protein.ActiveResidues>
 VAL166  LYS551  ARG553  GLY616  TRP617  ASP618  TYR619  PRO620  LYS621  CYS622 
 ASP623  PHE694  ASN695  SER759  ASP760  ASP761  ALA762  ILE779  LEU786  VAL792 
 PHE793  MET794  SER795  GLU796  ALA797  LYS798  CYS799  TRP800  GLU811  SER814 

> <Gold.Protein.RotatedAtoms>
  151.1951  135.0419  159.8848 H   0  0  0  0  0  0  0  0  0  0  0  0  # atno 6907 bound_to 6896
  152.5437  134.0912  159.8288 H   0  0  0  0  0  0  0  0  0  0  0  0  # atno 6908 bound_to 6896
  151.1046  133.5171  159.2640 H   0  0  0  0  0  0  0  0  0  0  0  0  # atno 6909 bound_to 6896
  146.2443  140.0489  142.8376 H   0  0  0  0  0  0  0  0  0  0  0  0  # atno 7974 bound_to 7965
  154.5326  140.0762  156.8371 H   0  0  0  0  0  0  0  0  0  0  0  0  # atno 8008 bound_to 7997
  155.3344  140.3403  155.4221 H   0  0  0  0  0  0  0  0  0  0  0  0  # atno 8009 bound_to 7997
  156.1796  140.1647  156.8285 H   0  0  0  0  0  0  0  0  0  0  0  0  # atno 8010 bound_to 7997
  140.7239  143.3791  151.1635 H   0  0  0  0  0  0  0  0  0  0  0  0  # atno 10167 bound_to 10162
  157.3890  130.7796  149.7254 H   0  0  0  0  0  0  0  0  0  0  0  0  # atno 10718 bound_to 10713
  154.7397  135.5017  153.9102 H   0  0  0  0  0  0  0  0  0  0  0  0  # atno 10763 bound_to 10752
  153.1031  135.6690  153.9645 H   0  0  0  0  0  0  0  0  0  0  0  0  # atno 10764 bound_to 10752
  153.9425  135.3066  155.3421 H   0  0  0  0  0  0  0  0  0  0  0  0  # atno 10765 bound_to 10752
  140.0481  134.5777  155.9298 H   0  0  0  0  0  0  0  0  0  0  0  0  # atno 11005 bound_to 11000
  145.1002  140.9341  143.4717 LP  0  0  0  0  0  0  0  0  0  0  0  0  # atno 17320 bound_to 7965
  145.0680  139.3053  143.5846 LP  0  0  0  0  0  0  0  0  0  0  0  0  # atno 17321 bound_to 7965
  139.7376  143.8974  152.3040 LP  0  0  0  0  0  0  0  0  0  0  0  0  # atno 17342 bound_to 10162
  139.8785  144.7030  150.8905 LP  0  0  0  0  0  0  0  0  0  0  0  0  # atno 17343 bound_to 10162
  155.9794  130.4041  150.3591 LP  0  0  0  0  0  0  0  0  0  0  0  0  # atno 17370 bound_to 10713
  157.1705  131.0367  151.2797 LP  0  0  0  0  0  0  0  0  0  0  0  0  # atno 17371 bound_to 10713
  141.1917  133.6572  156.5467 LP  0  0  0  0  0  0  0  0  0  0  0  0  # atno 17394 bound_to 11000
  140.3961  134.7397  157.4751 LP  0  0  0  0  0  0  0  0  0  0  0  0  # atno 17395 bound_to 11000

$$$$
