#       Name:                AV-unprocessed.smi:793
#       Creating user name   scv26
#       Creation time:       Fri Mar 27 01:18:50 2020


#       File generated by GOLD software.
#

@<TRIPOS>MOLECULE
AV-unprocessed.smi:793
    43    44     1
SMALL
NO_CHARGES


@<TRIPOS>ATOM
      1 ****        -3.4184   2.1076  -0.3863 C.3            1 S1                 0.0000
      2 ****        -2.8927   0.6835  -0.1663 C.3            1 S1                 0.0000
      3 ****        -1.3640   0.5825  -0.3272 C.3            1 S1                 0.0000
      4 ****        -0.7663   1.3131   0.7429 O.3            1 S1                 0.0000
      5 ****         0.6352   1.5548   0.6387 C.3            1 S1                 0.0000
      6 ****         1.3847   0.7478   1.7042 C.3            1 S1                 0.0000
      7 ****         1.2707   1.5624   2.9995 C.3            1 S1                 0.0000
      8 ****         0.8735   2.9870   2.5841 C.3            1 S1                 0.0000
      9 ****         0.8926   3.0033   1.0528 C.3            1 S1                 0.0000
     10 ****        -0.8879  -0.8802  -0.3080 C.2            1 S1                 0.0000
     11 ****        -1.3000  -1.6437   0.5656 O.2            1 S1                 0.0000
     12 ****        -0.0289  -1.2243  -1.2847 N.am           1 S1                 0.0000
     13 ****         0.5847  -2.4824  -1.5405 C.ar           1 S1                 0.0000
     14 ****         0.7512  -3.4915  -0.5587 C.ar           1 S1                 0.0000
     15 ****         1.3473  -4.6789  -0.8012 N.ar           1 S1                 0.0000
     16 ****         1.8140  -4.9091  -2.0462 C.ar           1 S1                 0.0000
     17 ****         1.7196  -3.9723  -3.0929 C.ar           1 S1                 0.0000
     18 ****         1.0986  -2.7350  -2.8347 C.ar           1 S1                 0.0000
     19 ****         1.0024  -1.8079  -3.8356 O.co2          1 S1                -1.0000
     20 ****        -4.5017   2.1439  -0.2701 H              1 S1                 0.0000
     21 ****        -3.1790   2.4645  -1.3882 H              1 S1                 0.0000
     22 ****        -2.9838   2.8046   0.3307 H              1 S1                 0.0000
     23 ****        -3.1870   0.3416   0.8270 H              1 S1                 0.0000
     24 ****        -3.3833   0.0177  -0.8779 H              1 S1                 0.0000
     25 ****        -1.0880   1.0421  -1.2787 H              1 S1                 0.0000
     26 ****         1.0130   1.3651  -0.3676 H              1 S1                 0.0000
     27 ****         1.0075  -0.2686   1.8171 H              1 S1                 0.0000
     28 ****         2.4351   0.6721   1.4204 H              1 S1                 0.0000
     29 ****         0.5051   1.1381   3.6503 H              1 S1                 0.0000
     30 ****         2.2109   1.5503   3.5518 H              1 S1                 0.0000
     31 ****        -0.1342   3.2028   2.9414 H              1 S1                 0.0000
     32 ****         1.5381   3.7417   3.0057 H              1 S1                 0.0000
     33 ****         1.8810   3.3077   0.7061 H              1 S1                 0.0000
     34 ****         0.1673   3.6987   0.6288 H              1 S1                 0.0000
     35 ****         0.1598  -0.5154  -1.9789 H              1 S1                 0.0000
     36 ****         0.4246  -3.3569   0.4604 H              1 S1                 0.0000
     37 ****         2.2836  -5.8673  -2.2119 H              1 S1                 0.0000
     38 ****         2.1164  -4.2006  -4.0713 H              1 S1                 0.0000
     39 ****        -0.9251   0.8012   1.5871 LP             1 S1                 0.0000
     40 ****        -1.2249   2.2000   0.7996 LP             1 S1                 0.0000
     41 ****        -1.9409  -1.3120   1.2579 LP             1 S1                 0.0000
     42 ****        -0.9939  -2.5955   0.5828 LP             1 S1                 0.0000
     43 ****         1.4399  -5.3660  -0.0806 LP             1 S1                 0.0000
@<TRIPOS>BOND
    1    1    2 1     
    2    1   20 1     
    3    1   21 1     
    4    1   22 1     
    5    2    3 1     
    6    2   23 1     
    7    2   24 1     
    8    3    4 1     
    9    3   10 1     
   10    3   25 1     
   11    4    5 1     
   12    5    9 1     
   13    5    6 1     
   14    5   26 1     
   15    6    7 1     
   16    6   27 1     
   17    6   28 1     
   18    7    8 1     
   19    7   29 1     
   20    7   30 1     
   21    8    9 1     
   22    8   31 1     
   23    8   32 1     
   24    9   33 1     
   25    9   34 1     
   26   10   11 2     
   27   10   12 am    
   28   12   35 1     
   29   12   13 1     
   30   13   18 ar    
   31   13   14 ar    
   32   14   36 1     
   33   14   15 ar    
   34   15   16 ar    
   35   16   37 1     
   36   16   17 ar    
   37   17   18 ar    
   38   17   38 1     
   39   18   19 ar    
   40    4   39 1     
   41    4   40 1     
   42   11   41 1     
   43   11   42 1     
   44   15   43 1     
@<TRIPOS>SUBSTRUCTURE
      1 S1             1
@<TRIPOS>SET
LONE_PAIRS      STATIC     ATOMS    <user>   **** ""
6 39 40 41 42 43 19
DONOR_HYDROGENS      STATIC     ATOMS    <user>   **** ""
1 35
ATOM$BLUE        STATIC     ATOMS    COLORGROUP SYSTEM
6 39 40 41 42 43 19
ATOM$RED        STATIC     ATOMS    COLORGROUP SYSTEM
1 35
