AV-unprocessed.smi:3292|AV-procd|sdf|12628|dock5
  -GOLD-   2272018563D 1   1.00000     0.00000
 Structure written by MMmdl.
 38 39  0  0  0  0  0  0  0  0  1 V2000
  144.6603  135.8774  151.7151 C   0  0  0  0  0  0  0  0  0  0  0  0
  145.6581  134.9394  152.4142 C   0  0  1  0  0  0  0  0  0  0  0  0
  146.2005  133.8289  151.4884 C   0  0  0  0  0  0  0  0  0  0  0  0
  145.1522  133.1577  150.7439 N   0  0  0  0  0  0  0  0  0  0  0  0
  144.4130  133.6770  149.6895 C   0  0  0  0  0  0  0  0  0  0  0  0
  143.5358  132.6899  149.3006 C   0  0  0  0  0  0  0  0  0  0  0  0
  143.7142  131.5630  150.1000 N   0  0  0  0  0  0  0  0  0  0  0  0
  144.6851  131.9158  150.9326 C   0  0  0  0  0  0  0  0  0  0  0  0
  146.7643  135.7275  152.9504 N   0  0  0  0  0  0  0  0  0  0  0  0
  146.8678  136.1483  154.2192 C   0  0  0  0  0  0  0  0  0  0  0  0
  146.0242  135.9299  155.0888 O   0  0  0  0  0  0  0  0  0  0  0  0
  148.0063  136.8244  154.4280 N   0  0  0  0  0  0  0  0  0  0  0  0
  148.4279  137.3952  155.7038 C   0  0  0  0  0  0  0  0  0  0  0  0
  149.8506  137.9815  155.6299 C   0  0  1  0  0  0  0  0  0  0  0  0
  150.7792  137.2186  154.7076 C   0  0  0  0  0  0  0  0  0  0  0  0
  151.8982  138.2300  154.4771 C   0  0  0  0  0  0  0  0  0  0  0  0
  151.2869  139.5141  154.5612 O   0  0  0  0  0  0  0  0  0  0  0  0
  149.9499  139.3879  155.0349 C   0  0  0  0  0  0  0  0  0  0  0  0
  143.7728  135.3396  151.3806 H   0  0  0  0  0  0  0  0  0  0  0  0
  145.1089  136.3553  150.8437 H   0  0  0  0  0  0  0  0  0  0  0  0
  144.3238  136.6646  152.3907 H   0  0  0  0  0  0  0  0  0  0  0  0
  145.1313  134.4702  153.2474 H   0  0  0  0  0  0  0  0  0  0  0  0
  146.9197  134.2430  150.7798 H   0  0  0  0  0  0  0  0  0  0  0  0
  146.7342  133.0748  152.0683 H   0  0  0  0  0  0  0  0  0  0  0  0
  144.5695  134.6775  149.3132 H   0  0  0  0  0  0  0  0  0  0  0  0
  142.7951  132.7046  148.5150 H   0  0  0  0  0  0  0  0  0  0  0  0
  145.0682  131.2533  151.6949 H   0  0  0  0  0  0  0  0  0  0  0  0
  147.5096  135.9587  152.3099 H   0  0  0  0  0  0  0  0  0  0  0  0
  148.6339  136.9489  153.6472 H   0  0  0  0  0  0  0  0  0  0  0  0
  147.7231  138.1870  155.9590 H   0  0  0  0  0  0  0  0  0  0  0  0
  148.3555  136.6553  156.5029 H   0  0  0  0  0  0  0  0  0  0  0  0
  150.2908  137.9914  156.6285 H   0  0  0  0  0  0  0  0  0  0  0  0
  151.1365  136.2816  155.1358 H   0  0  0  0  0  0  0  0  0  0  0  0
  150.2793  136.9944  153.7638 H   0  0  0  0  0  0  0  0  0  0  0  0
  152.6487  138.1526  155.2646 H   0  0  0  0  0  0  0  0  0  0  0  0
  152.3969  138.0871  153.5182 H   0  0  0  0  0  0  0  0  0  0  0  0
  149.2747  139.4969  154.1851 H   0  0  0  0  0  0  0  0  0  0  0  0
  149.7104  140.1676  155.7586 H   0  0  0  0  0  0  0  0  0  0  0  0
  1  2  1  0  0  0  0
  1 19  1  0  0  0  0
  1 20  1  0  0  0  0
  1 21  1  0  0  0  0
  2  3  1  0  0  0  0
  2  9  1  0  0  0  0
  2 22  1  0  0  0  0
  3  4  1  0  0  0  0
  3 23  1  0  0  0  0
  3 24  1  0  0  0  0
  4  8  1  0  0  0  0
  4  5  1  0  0  0  0
  5  6  2  0  0  0  0
  5 25  1  0  0  0  0
  6  7  1  0  0  0  0
  6 26  1  0  0  0  0
  7  8  2  0  0  0  0
  8 27  1  0  0  0  0
  9 10  1  0  0  0  0
  9 28  1  0  0  0  0
 10 11  2  0  0  0  0
 10 12  1  0  0  0  0
 12 13  1  0  0  0  0
 12 29  1  0  0  0  0
 13 14  1  0  0  0  0
 13 30  1  0  0  0  0
 13 31  1  0  0  0  0
 14 18  1  0  0  0  0
 14 15  1  0  0  0  0
 14 32  1  0  0  0  0
 15 16  1  0  0  0  0
 15 33  1  0  0  0  0
 15 34  1  0  0  0  0
 16 17  1  0  0  0  0
 16 35  1  0  0  0  0
 16 36  1  0  0  0  0
 17 18  1  0  0  0  0
 18 37  1  0  0  0  0
 18 38  1  0  0  0  0
M  END
> <s_m_source_file>
AV-unprocessed.smi

> <i_m_source_file_index>
3292

> <i_lp_mmshare_version>
43012

> <i_f3d_flags>
0

> <s_epik_input>
W2NIXTFuW2NIXVtjSF1uMVtDSDJdW0NAQEhdKFtDSDNdKVtOSF1DKD1PKVtOSF1bQ0gyXVtDQEBIXTJbQ0gyXVtDSDJdT1tDSDJdMg==

> <s_epik_cmdline>
J2VwaWtfcHl0aG9uJywgJy1waCcsICc3LjAnLCAnLXRuJywgJzgnLCAnLW1hJywgJzIwMCcsICctbWV0YWxfYmluZGluZycsICctaW1hZScsICc8aW5maWxlLm1hZT4nLCAnLW9tYWUnLCAnPG91dGZpbGUubWFlPic=

> <r_lp_tautomer_probability>
1

> <r_epik_Ionization_Penalty>
0.621291

> <r_epik_Ionization_Penalty_Charging>
0.621234

> <r_epik_Ionization_Penalty_Neutral>
5.72199e-05

> <r_epik_State_Penalty>
0.637278

> <r_epik_Charging_Adjusted_Penalty>
1.25851

> <i_epik_Tot_Q>
0

> <i_epik_Tot_abs_Q>
0

> <r_epik_Metal_State_Penalty>
0.306757

> <b_epik_Metal_Only>
0

> <s_lp_Force_Field>
OPLS_2005

> <r_lp_Energy>
18.205

> <b_lp_Chiralities_Consistent>
1

> <s_lp_Variant>
AV-unprocessed.smi:3292-8

> <Gold.Version>
5.8.1

> <Gold.Id.Protein>
6NUR|6NUR_protein|mol2

> <Gold.PLP.Fitness>
40.7166

> <Gold.PLP.PLP>
-28.2245

> <Gold.PLP.part.hbond>
-3.8681

> <Gold.PLP.part.metal>
0.0000

> <Gold.PLP.part.buried>
-1.9380

> <Gold.PLP.part.nonpolar>
-23.1109

> <Gold.PLP.part.repulsive>
0.3091

> <Gold.PLP.ligand.clash>
0.0000

> <Gold.PLP.ligand.torsion>
0.7406

> <Gold.PLP.Chemscore.Hbond>
3.6800

> <Gold.PLP.Chemscore.CHOScore>
0.9564

> <Gold.PLP.Chemscore.Metal>
0.0000

> <Gold.Chemscore.Hbonds>
donor molecule, donor type, donor heavy atom, donor atom, acceptor molecule, acceptor atom, score
      L1  H     9    28       P1  7948  0.98
      L1  H    12    29       P1  7948  0.82
      P1  H  7989  7998       L1    17  1.00
      P1  H 10785 10796       L1     7  0.81
      L1  C     5    25       P1  7921  0.69
      L1  C     6    26       P1 10186  0.28

> <Gold.PLP.Chemscore.Internal.Correction>
0.0640

> <Gold.Rescore>
     Score         DG    S(hbond)    S(metal)    S(lipo)     H(rot)  DE(clash)    DE(int)     intcor
     15.33     -19.33       3.71        0.00      59.71       2.16       1.91       2.09       ----

> <Gold.Chemscore.Fitness>
15.3301

> <Gold.Chemscore.DG>
-19.3291

> <Gold.Chemscore.ZeroCoef>
-5.4800

> <Gold.Chemscore.Hbond>
3.7088

> <Gold.Chemscore.Metal>
0.0000

> <Gold.Chemscore.Lipo>
59.7061

> <Gold.Chemscore.Internal_Hbond>
0.0000

> <Gold.Chemscore.DEClash>
1.9079

> <Gold.Chemscore.DEInternal>
2.0911

> <Gold.Chemscore.Rot>
2.1577

> <Gold.Chemscore.Internal.Correction>
   9.000000E+99

> <Gold.Chemscore.Hbonds>
donor molecule, donor type, donor heavy atom, donor atom, acceptor molecule, acceptor atom, score
      L1  H     9    28       P1  7948  0.90
      L1  H    12    29       P1  7948  0.81
      P1  H  7989  7998       L1    17  0.95
      P1  H 10785 10796       L1     7  0.17

> <Gold.Chemscore.Hbond.Weighted>
-12.3872

> <Gold.Chemscore.Metal.Weighted>
-0.0000

> <Gold.Chemscore.Lipo.Weighted>
-6.9856

> <Gold.Chemscore.Internal_Hbond.Weighted>
0.0000

> <Gold.Chemscore.DEClash.Weighted>
1.9079

> <Gold.Chemscore.DEInternal.Weighted>
2.0911

> <Gold.Chemscore.Rot.Weighted>
5.5237

> <Gold.Chemscore.Internal.Correction.Weighted>
   9.000000E+99

> <Gold.Protein.RotatedTorsions>
[ 6907 6896 6895 6894 ] final -158.57 input  -60.11 | X-H torsion
[ 7974 7965 7964 7962 ] final   62.06 input  175.53 | X-H torsion
[ 8008 7997 7996 7995 ] final  -36.65 input   59.86 | X-H torsion
[ 10167 10162 10161 10158 ] final  149.86 input  -65.29 | X-H torsion
[ 10718 10713 10712 10709 ] final   -1.22 input   66.30 | X-H torsion
[ 10763 10752 10751 10750 ] final -175.93 input  -60.55 | X-H torsion
[ 11005 11000 10999 10996 ] final    2.08 input  -57.11 | X-H torsion

> <Gold.Protein.ActiveResidues>
 VAL166  LYS551  ARG553  GLY616  TRP617  ASP618  TYR619  PRO620  LYS621  CYS622 
 ASP623  PHE694  ASN695  SER759  ASP760  ASP761  ALA762  ILE779  LEU786  VAL792 
 PHE793  MET794  SER795  GLU796  ALA797  LYS798  CYS799  TRP800  GLU811  SER814 

> <Gold.Protein.RotatedAtoms>
  151.3202  133.4043  159.2653 H   0  0  0  0  0  0  0  0  0  0  0  0  # atno 6907 bound_to 6896
  151.0041  134.9346  159.7980 H   0  0  0  0  0  0  0  0  0  0  0  0  # atno 6908 bound_to 6896
  152.5283  134.3167  159.9186 H   0  0  0  0  0  0  0  0  0  0  0  0  # atno 6909 bound_to 6896
  145.8776  139.3421  143.0725 H   0  0  0  0  0  0  0  0  0  0  0  0  # atno 7974 bound_to 7965
  154.4069  140.1625  156.2408 H   0  0  0  0  0  0  0  0  0  0  0  0  # atno 8008 bound_to 7997
  155.9202  140.3421  155.6144 H   0  0  0  0  0  0  0  0  0  0  0  0  # atno 8009 bound_to 7997
  155.7231  140.0771  157.2313 H   0  0  0  0  0  0  0  0  0  0  0  0  # atno 8010 bound_to 7997
  139.4856  144.5568  151.7302 H   0  0  0  0  0  0  0  0  0  0  0  0  # atno 10167 bound_to 10162
  156.8088  130.5417  149.5711 H   0  0  0  0  0  0  0  0  0  0  0  0  # atno 10718 bound_to 10713
  154.5784  135.2834  155.0757 H   0  0  0  0  0  0  0  0  0  0  0  0  # atno 10763 bound_to 10752
  154.2103  135.6409  153.5117 H   0  0  0  0  0  0  0  0  0  0  0  0  # atno 10764 bound_to 10752
  153.0080  135.5490  154.6430 H   0  0  0  0  0  0  0  0  0  0  0  0  # atno 10765 bound_to 10752
  140.6083  133.9772  155.8165 H   0  0  0  0  0  0  0  0  0  0  0  0  # atno 11005 bound_to 11000
  145.9062  140.9210  143.0477 LP  0  0  0  0  0  0  0  0  0  0  0  0  # atno 17320 bound_to 7965
  144.6726  140.1099  143.7456 LP  0  0  0  0  0  0  0  0  0  0  0  0  # atno 17321 bound_to 7965
  140.5131  144.0994  150.6001 LP  0  0  0  0  0  0  0  0  0  0  0  0  # atno 17342 bound_to 10162
  140.3927  143.2744  152.0042 LP  0  0  0  0  0  0  0  0  0  0  0  0  # atno 17343 bound_to 10162
  156.1057  130.6002  150.9967 LP  0  0  0  0  0  0  0  0  0  0  0  0  # atno 17370 bound_to 10713
  157.6516  131.0896  150.8037 LP  0  0  0  0  0  0  0  0  0  0  0  0  # atno 17371 bound_to 10713
  141.0826  134.0040  157.3363 LP  0  0  0  0  0  0  0  0  0  0  0  0  # atno 17394 bound_to 11000
  139.9203  135.0200  156.8039 LP  0  0  0  0  0  0  0  0  0  0  0  0  # atno 17395 bound_to 11000

$$$$
