#       Name:                AV-unprocessed.smi:2507
#       Creating user name   scv26
#       Creation time:       Fri Mar 27 13:49:23 2020


#       File generated by GOLD software.
#

@<TRIPOS>MOLECULE
AV-unprocessed.smi:2507
    49    50     1
SMALL
NO_CHARGES


@<TRIPOS>ATOM
      1 ****        -3.6487  -3.5368   3.3864 C.3            1 S1                 0.0000
      2 ****        -3.5154  -3.4782   1.8607 C.3            1 S1                 0.0000
      3 ****        -3.8468  -2.1147   1.3192 C.2            1 S1                 0.0000
      4 ****        -5.1129  -1.7654   1.1357 N.2            1 S1                 0.0000
      5 ****        -5.0668  -0.5002   0.6542 N.pl3          1 S1                 0.0000
      6 ****        -6.3029   0.1834   0.3401 C.3            1 S1                 0.0000
      7 ****        -3.7740  -0.0337   0.5312 C.2            1 S1                 0.0000
      8 ****        -2.9717  -1.0551   0.9554 C.2            1 S1                 0.0000
      9 ****        -1.5567  -1.1063   1.0408 N.am           1 S1                 0.0000
     10 ****        -0.6820  -0.1420   0.7108 C.2            1 S1                 0.0000
     11 ****        -0.9838   0.9695   0.2760 O.2            1 S1                 0.0000
     12 ****         0.5811  -0.5424   0.9131 N.am           1 S1                 0.0000
     13 ****         1.7687   0.2620   0.6500 C.3            1 S1                 0.0000
     14 ****         2.1422   0.2504  -0.8424 C.3            1 S1                 0.0000
     15 ****         3.4364   1.0233  -1.1412 C.3            1 S1                 0.0000
     16 ****         3.8544   0.8950  -2.6192 C.3            1 S1                 0.0000
     17 ****         5.1023   1.7387  -2.9033 C.3            1 S1                 0.0000
     18 ****         4.8685   3.1797  -2.4386 C.3            1 S1                 0.0000
     19 ****         4.3962   3.1985  -0.9763 C.3            1 S1                 0.0000
     20 ****         3.2251   2.4002  -0.8346 O.3            1 S1                 0.0000
     21 ****        -3.4016  -4.5305   3.7603 H              1 S1                 0.0000
     22 ****        -4.6664  -3.3055   3.7024 H              1 S1                 0.0000
     23 ****        -2.9779  -2.8237   3.8664 H              1 S1                 0.0000
     24 ****        -2.5010  -3.7573   1.5758 H              1 S1                 0.0000
     25 ****        -4.1691  -4.2270   1.4114 H              1 S1                 0.0000
     26 ****        -6.0931   1.1947  -0.0095 H              1 S1                 0.0000
     27 ****        -6.9310   0.2390   1.2298 H              1 S1                 0.0000
     28 ****        -6.8357  -0.3587  -0.4416 H              1 S1                 0.0000
     29 ****        -3.5539   0.9575   0.1636 H              1 S1                 0.0000
     30 ****        -1.1693  -1.9715   1.3876 H              1 S1                 0.0000
     31 ****         0.7331  -1.4725   1.2747 H              1 S1                 0.0000
     32 ****         1.6128   1.2833   1.0016 H              1 S1                 0.0000
     33 ****         2.5886  -0.1469   1.2407 H              1 S1                 0.0000
     34 ****         2.2611  -0.7834  -1.1692 H              1 S1                 0.0000
     35 ****         1.3259   0.6672  -1.4338 H              1 S1                 0.0000
     36 ****         4.2333   0.6321  -0.5061 H              1 S1                 0.0000
     37 ****         4.0475  -0.1488  -2.8690 H              1 S1                 0.0000
     38 ****         3.0377   1.2249  -3.2630 H              1 S1                 0.0000
     39 ****         5.9587   1.3166  -2.3760 H              1 S1                 0.0000
     40 ****         5.3444   1.7151  -3.9663 H              1 S1                 0.0000
     41 ****         5.7814   3.7655  -2.5489 H              1 S1                 0.0000
     42 ****         4.1145   3.6508  -3.0705 H              1 S1                 0.0000
     43 ****         5.1798   2.8354  -0.3097 H              1 S1                 0.0000
     44 ****         4.1662   4.2188  -0.6698 H              1 S1                 0.0000
     45 ****        -5.9271  -2.3177   1.3145 LP             1 S1                 0.0000
     46 ****        -1.9453   1.2107   0.1444 LP             1 S1                 0.0000
     47 ****        -0.2674   1.6311   0.0544 LP             1 S1                 0.0000
     48 ****         2.9073   2.4690   0.1111 LP             1 S1                 0.0000
     49 ****         2.5219   2.7573  -1.4494 LP             1 S1                 0.0000
@<TRIPOS>BOND
    1    1    2 1     
    2    1   21 1     
    3    1   22 1     
    4    1   23 1     
    5    2    3 1     
    6    2   24 1     
    7    2   25 1     
    8    3    8 1     
    9    3    4 2     
   10    4    5 1     
   11    5    6 1     
   12    5    7 1     
   13    6   26 1     
   14    6   27 1     
   15    6   28 1     
   16    7    8 2     
   17    7   29 1     
   18    8    9 1     
   19    9   10 am    
   20    9   30 1     
   21   10   11 2     
   22   10   12 am    
   23   12   13 1     
   24   12   31 1     
   25   13   14 1     
   26   13   32 1     
   27   13   33 1     
   28   14   15 1     
   29   14   34 1     
   30   14   35 1     
   31   15   20 1     
   32   15   16 1     
   33   15   36 1     
   34   16   17 1     
   35   16   37 1     
   36   16   38 1     
   37   17   18 1     
   38   17   39 1     
   39   17   40 1     
   40   18   19 1     
   41   18   41 1     
   42   18   42 1     
   43   19   20 1     
   44   19   43 1     
   45   19   44 1     
   46    4   45 1     
   47   11   46 1     
   48   11   47 1     
   49   20   48 1     
   50   20   49 1     
@<TRIPOS>SUBSTRUCTURE
      1 S1             1
@<TRIPOS>SET
LONE_PAIRS      STATIC     ATOMS    <user>   **** ""
5 45 46 47 48 49
DONOR_HYDROGENS      STATIC     ATOMS    <user>   **** ""
2 30 31
ATOM$BLUE        STATIC     ATOMS    COLORGROUP SYSTEM
5 45 46 47 48 49
ATOM$RED        STATIC     ATOMS    COLORGROUP SYSTEM
2 30 31
