AV-unprocessed.smi:2198|AV-procd|sdf|8921|dock2
  -GOLD-   2272012133D 1   1.00000     0.00000
 Structure written by MMmdl.
 42 43  0  0  0  0  0  0  0  0  2 V2000
  148.5696  140.5371  153.9314 C   0  0  0  0  0  0  0  0  0  0  0  0
  149.5869  140.0170  154.9247 C   0  0  0  0  0  0  0  0  0  0  0  0
  149.1891  139.5921  156.0629 N   0  0  0  0  0  0  0  0  0  0  0  0
  150.1294  139.1025  156.9853 C   0  0  0  0  0  0  0  0  0  0  0  0
  149.5652  138.6144  158.3084 C   0  0  0  0  0  0  0  0  0  0  0  0
  151.4608  139.0749  156.6896 C   0  0  0  0  0  0  0  0  0  0  0  0
  152.5211  138.5446  157.6540 C   0  0  0  0  0  0  0  0  0  0  0  0
  153.2218  139.6049  158.5050 C   0  0  0  0  0  0  0  0  0  0  0  0
  154.3896  139.4409  158.8573 O   0  0  0  0  0  0  0  0  0  0  0  0
  152.4981  140.6885  158.8262 N   0  0  0  0  0  0  0  0  0  0  0  0
  152.9739  141.8198  159.6153 C   0  0  2  0  0  0  0  0  0  0  0  0
  153.0572  141.4445  161.1085 C   0  0  0  0  0  0  0  0  0  0  0  0
  153.4837  142.6476  161.9629 C   0  0  0  0  0  0  0  0  0  0  0  0
  152.5457  143.8454  161.7467 C   0  0  0  0  0  0  0  0  0  0  0  0
  152.4613  144.2360  160.2586 C   0  0  2  0  0  0  0  0  0  0  0  0
  151.5206  145.4305  160.0457 C   0  0  0  0  0  0  0  0  0  0  0  0
  152.0367  143.0244  159.4055 C   0  0  0  0  0  0  0  0  0  0  0  0
  151.8783  139.5807  155.3694 C   0  0  0  0  0  0  0  0  0  0  0  0
  153.0678  139.5911  155.0552 O   0  0  0  0  0  0  0  0  0  0  0  0
  150.9049  140.0319  154.5278 N   0  5  0  0  0  0  0  0  0  0  0  0
  147.5902  140.6554  154.3971 H   0  0  0  0  0  0  0  0  0  0  0  0
  148.4711  139.8433  153.0962 H   0  0  0  0  0  0  0  0  0  0  0  0
  148.8794  141.5073  153.5416 H   0  0  0  0  0  0  0  0  0  0  0  0
  149.8194  137.5675  158.4740 H   0  0  0  0  0  0  0  0  0  0  0  0
  148.4781  138.6998  158.3292 H   0  0  0  0  0  0  0  0  0  0  0  0
  149.9618  139.2052  159.1339 H   0  0  0  0  0  0  0  0  0  0  0  0
  152.0539  137.8088  158.3091 H   0  0  0  0  0  0  0  0  0  0  0  0
  153.2848  137.9806  157.1181 H   0  0  0  0  0  0  0  0  0  0  0  0
  151.5476  140.7362  158.4893 H   0  0  0  0  0  0  0  0  0  0  0  0
  153.9692  142.1016  159.2656 H   0  0  0  0  0  0  0  0  0  0  0  0
  152.0879  141.0815  161.4535 H   0  0  0  0  0  0  0  0  0  0  0  0
  153.7633  140.6263  161.2539 H   0  0  0  0  0  0  0  0  0  0  0  0
  153.4941  142.3694  163.0171 H   0  0  0  0  0  0  0  0  0  0  0  0
  154.5056  142.9322  161.7086 H   0  0  0  0  0  0  0  0  0  0  0  0
  151.5511  143.5993  162.1212 H   0  0  0  0  0  0  0  0  0  0  0  0
  152.8959  144.6933  162.3363 H   0  0  0  0  0  0  0  0  0  0  0  0
  153.4573  144.5415  159.9344 H   0  0  0  0  0  0  0  0  0  0  0  0
  150.5018  145.1929  160.3538 H   0  0  0  0  0  0  0  0  0  0  0  0
  151.4910  145.7259  158.9966 H   0  0  0  0  0  0  0  0  0  0  0  0
  151.8493  146.2960  160.6217 H   0  0  0  0  0  0  0  0  0  0  0  0
  152.0277  143.3018  158.3504 H   0  0  0  0  0  0  0  0  0  0  0  0
  151.0132  142.7419  159.6578 H   0  0  0  0  0  0  0  0  0  0  0  0
  1  2  1  0  0  0  0
  1 21  1  0  0  0  0
  1 22  1  0  0  0  0
  1 23  1  0  0  0  0
  2 20  1  0  0  0  0
  2  3  2  0  0  0  0
  3  4  1  0  0  0  0
  4  5  1  0  0  0  0
  4  6  2  0  0  0  0
  5 24  1  0  0  0  0
  5 25  1  0  0  0  0
  5 26  1  0  0  0  0
  6  7  1  0  0  0  0
  6 18  1  0  0  0  0
  7  8  1  0  0  0  0
  7 27  1  0  0  0  0
  7 28  1  0  0  0  0
  8  9  2  0  0  0  0
  8 10  1  0  0  0  0
 10 11  1  0  0  0  0
 10 29  1  0  0  0  0
 11 17  1  0  0  0  0
 11 12  1  0  0  0  0
 11 30  1  0  0  0  0
 12 13  1  0  0  0  0
 12 31  1  0  0  0  0
 12 32  1  0  0  0  0
 13 14  1  0  0  0  0
 13 33  1  0  0  0  0
 13 34  1  0  0  0  0
 14 15  1  0  0  0  0
 14 35  1  0  0  0  0
 14 36  1  0  0  0  0
 15 16  1  0  0  0  0
 15 17  1  0  0  0  0
 15 37  1  0  0  0  0
 16 38  1  0  0  0  0
 16 39  1  0  0  0  0
 16 40  1  0  0  0  0
 17 41  1  0  0  0  0
 17 42  1  0  0  0  0
 18 19  2  0  0  0  0
 18 20  1  0  0  0  0
M  CHG  1  20  -1
M  END
> <s_m_source_file>
AV-unprocessed.smi

> <i_m_source_file_index>
2198

> <i_lp_mmshare_version>
43012

> <i_f3d_flags>
0

> <s_epik_input>
W0NIM11jMW5jKFtDSDNdKWMoYyg9TylbbkhdMSlbQ0gyXUMoPU8pW05IXVtDQEBIXTJbQ0gyXVtDSDJdW0NIMl1bQ0BASF0oW0NIM10pW0NIMl0y

> <s_epik_cmdline>
J2VwaWtfcHl0aG9uJywgJy1waCcsICc3LjAnLCAnLXRuJywgJzgnLCAnLW1hJywgJzIwMCcsICctbWV0YWxfYmluZGluZycsICctaW1hZScsICc8aW5maWxlLm1hZT4nLCAnLW9tYWUnLCAnPG91dGZpbGUubWFlPic=

> <r_lp_tautomer_probability>
0.839158

> <r_epik_Ionization_Penalty>
6.67193

> <r_epik_Ionization_Penalty_Charging>
7.66837e-08

> <r_epik_Ionization_Penalty_Neutral>
6.67193

> <r_epik_State_Penalty>
4.51643

> <r_epik_Charging_Adjusted_Penalty>
4.51643

> <i_epik_Tot_Q>
-1

> <i_epik_Tot_abs_Q>
1

> <r_epik_Metal_State_Penalty>
0.851582

> <b_epik_Metal_Only>
1

> <s_lp_Force_Field>
OPLS_2005

> <r_lp_Energy>
13.6631

> <b_lp_Chiralities_Consistent>
1

> <s_lp_Variant>
AV-unprocessed.smi:2198-11

> <Gold.Version>
5.8.1

> <Gold.Id.Protein>
6NUR|6NUR_protein|mol2

> <Gold.PLP.Fitness>
47.6222

> <Gold.PLP.PLP>
-40.4710

> <Gold.PLP.part.hbond>
-4.0000

> <Gold.PLP.part.metal>
0.0000

> <Gold.PLP.part.buried>
-3.5447

> <Gold.PLP.part.nonpolar>
-31.9330

> <Gold.PLP.part.repulsive>
0.2245

> <Gold.PLP.ligand.clash>
0.0000

> <Gold.PLP.ligand.torsion>
0.9262

> <Gold.PLP.Chemscore.Hbond>
3.0000

> <Gold.PLP.Chemscore.CHOScore>
0.0000

> <Gold.PLP.Chemscore.Metal>
0.0000

> <Gold.Chemscore.Hbonds>
donor molecule, donor type, donor heavy atom, donor atom, acceptor molecule, acceptor atom, score
      P1  H  7989  7998       L1    20  0.96
      P1  H  7997  8008       L1     9  0.90
      P1  H  7997  8009       L1    19  1.00

> <Gold.PLP.Chemscore.Internal.Correction>
0.0036

> <Gold.Rescore>
     Score         DG    S(hbond)    S(metal)    S(lipo)     H(rot)  DE(clash)    DE(int)     intcor
     18.72     -19.62       1.84        0.00      99.94       1.45       0.01       0.89       ----

> <Gold.Chemscore.Fitness>
18.7187

> <Gold.Chemscore.DG>
-19.6184

> <Gold.Chemscore.ZeroCoef>
-5.4800

> <Gold.Chemscore.Hbond>
1.8397

> <Gold.Chemscore.Metal>
0.0000

> <Gold.Chemscore.Lipo>
99.9416

> <Gold.Chemscore.Internal_Hbond>
0.0000

> <Gold.Chemscore.DEClash>
0.0144

> <Gold.Chemscore.DEInternal>
0.8853

> <Gold.Chemscore.Rot>
1.4450

> <Gold.Chemscore.Internal.Correction>
   9.000000E+99

> <Gold.Chemscore.Hbonds>
donor molecule, donor type, donor heavy atom, donor atom, acceptor molecule, acceptor atom, score
      P1  H  7989  7998       L1    20  0.46
      P1  H  7997  8008       L1     9  0.18
      P1  H  7997  8009       L1    19  1.00

> <Gold.Chemscore.Hbond.Weighted>
-6.1445

> <Gold.Chemscore.Metal.Weighted>
-0.0000

> <Gold.Chemscore.Lipo.Weighted>
-11.6932

> <Gold.Chemscore.Internal_Hbond.Weighted>
0.0000

> <Gold.Chemscore.DEClash.Weighted>
0.0144

> <Gold.Chemscore.DEInternal.Weighted>
0.8853

> <Gold.Chemscore.Rot.Weighted>
3.6992

> <Gold.Chemscore.Internal.Correction.Weighted>
   9.000000E+99

> <Gold.Protein.RotatedTorsions>
[ 6907 6896 6895 6894 ] final    3.48 input  -60.11 | X-H torsion
[ 7974 7965 7964 7962 ] final  -52.99 input  175.53 | X-H torsion
[ 8008 7997 7996 7995 ] final -125.97 input   59.86 | X-H torsion
[ 10167 10162 10161 10158 ] final -129.92 input  -65.29 | X-H torsion
[ 10718 10713 10712 10709 ] final   94.38 input   66.30 | X-H torsion
[ 10763 10752 10751 10750 ] final   55.12 input  -60.55 | X-H torsion
[ 11005 11000 10999 10996 ] final  -64.41 input  -57.11 | X-H torsion

> <Gold.Protein.ActiveResidues>
 VAL166  LYS551  ARG553  GLY616  TRP617  ASP618  TYR619  PRO620  LYS621  CYS622 
 ASP623  PHE694  ASN695  SER759  ASP760  ASP761  ALA762  ILE779  LEU786  VAL792 
 PHE793  MET794  SER795  GLU796  ALA797  LYS798  CYS799  TRP800  GLU811  SER814 

> <Gold.Protein.RotatedAtoms>
  151.6258  135.1028  160.0110 H   0  0  0  0  0  0  0  0  0  0  0  0  # atno 6907 bound_to 6896
  152.4133  133.6994  159.6425 H   0  0  0  0  0  0  0  0  0  0  0  0  # atno 6908 bound_to 6896
  150.8022  133.8502  159.3244 H   0  0  0  0  0  0  0  0  0  0  0  0  # atno 6909 bound_to 6896
  145.9018  140.7988  142.9739 H   0  0  0  0  0  0  0  0  0  0  0  0  # atno 7974 bound_to 7965
  155.2221  140.0422  157.2950 H   0  0  0  0  0  0  0  0  0  0  0  0  # atno 8008 bound_to 7997
  154.5943  140.2435  155.7849 H   0  0  0  0  0  0  0  0  0  0  0  0  # atno 8009 bound_to 7997
  156.2280  140.2948  156.0124 H   0  0  0  0  0  0  0  0  0  0  0  0  # atno 8010 bound_to 7997
  139.9348  143.6231  152.2520 H   0  0  0  0  0  0  0  0  0  0  0  0  # atno 10167 bound_to 10162
  157.6948  131.0510  150.4177 H   0  0  0  0  0  0  0  0  0  0  0  0  # atno 10718 bound_to 10713
  152.9813  135.5722  154.5015 H   0  0  0  0  0  0  0  0  0  0  0  0  # atno 10763 bound_to 10752
  154.4533  135.2779  155.1767 H   0  0  0  0  0  0  0  0  0  0  0  0  # atno 10764 bound_to 10752
  154.3386  135.6234  153.5639 H   0  0  0  0  0  0  0  0  0  0  0  0  # atno 10765 bound_to 10752
  141.1424  133.6665  156.5829 H   0  0  0  0  0  0  0  0  0  0  0  0  # atno 11005 bound_to 11000
  144.6736  140.1689  143.7416 LP  0  0  0  0  0  0  0  0  0  0  0  0  # atno 17320 bound_to 7965
  145.8781  139.2308  143.1621 LP  0  0  0  0  0  0  0  0  0  0  0  0  # atno 17321 bound_to 7965
  139.6753  144.7659  151.1708 LP  0  0  0  0  0  0  0  0  0  0  0  0  # atno 17342 bound_to 10162
  140.7627  143.5805  150.8900 LP  0  0  0  0  0  0  0  0  0  0  0  0  # atno 17343 bound_to 10162
  156.4555  130.4020  149.6609 LP  0  0  0  0  0  0  0  0  0  0  0  0  # atno 17370 bound_to 10713
  156.3743  130.7546  151.2533 LP  0  0  0  0  0  0  0  0  0  0  0  0  # atno 17371 bound_to 10713
  140.3824  134.7512  157.4669 LP  0  0  0  0  0  0  0  0  0  0  0  0  # atno 17394 bound_to 11000
  140.0628  134.5972  155.8729 LP  0  0  0  0  0  0  0  0  0  0  0  0  # atno 17395 bound_to 11000

$$$$
