AV-unprocessed.smi:1778|AV-procd|sdf|7180|dock4
  -GOLD-   22720 8423D 1   1.00000     0.00000
 Structure written by MMmdl.
 34 35  0  0  0  0  0  0  0  0  1 V2000
  147.2053  141.7117  157.2117 C   0  0  0  0  0  0  0  0  0  0  0  0
  146.8416  140.8942  156.0053 C   0  0  0  0  0  0  0  0  0  0  0  0
  145.7779  140.1103  156.0545 N   0  0  0  0  0  0  0  0  0  0  0  0
  145.7076  139.4795  154.8088 O   0  0  0  0  0  0  0  0  0  0  0  0
  146.7457  139.9130  154.0493 C   0  0  0  0  0  0  0  0  0  0  0  0
  146.8553  139.3469  152.6740 C   0  0  0  0  0  0  0  0  0  0  0  0
  147.5047  140.8124  154.7459 C   0  0  0  0  0  0  0  0  0  0  0  0
  148.7474  141.5351  154.2921 C   0  0  0  0  0  0  0  0  0  0  0  0
  149.9650  140.9755  155.0269 C   0  0  0  0  0  0  0  0  0  0  0  0
  150.6233  140.0650  154.5249 O   0  0  0  0  0  0  0  0  0  0  0  0
  150.2507  141.5283  156.2157 N   0  0  0  0  0  0  0  0  0  0  0  0
  151.3510  141.1287  157.0855 C   0  0  1  0  0  0  0  0  0  0  0  0
  151.1548  141.6217  158.5335 C   0  0  0  0  0  0  0  0  0  0  0  0
  152.1225  140.8593  159.4467 C   0  0  0  0  0  0  0  0  0  0  0  0
  152.3410  139.2050  158.6882 S   0  0  0  0  0  0  0  0  0  0  0  0
  153.7712  138.9862  158.4241 O   0  0  0  0  0  0  0  0  0  0  0  0
  151.5478  138.2135  159.4302 O   0  0  0  0  0  0  0  0  0  0  0  0
  151.4836  139.5998  157.1177 C   0  0  0  0  0  0  0  0  0  0  0  0
  147.7169  141.1005  157.9551 H   0  0  0  0  0  0  0  0  0  0  0  0
  146.3197  142.1388  157.6831 H   0  0  0  0  0  0  0  0  0  0  0  0
  147.8670  142.5372  156.9505 H   0  0  0  0  0  0  0  0  0  0  0  0
  147.7770  138.7746  152.5667 H   0  0  0  0  0  0  0  0  0  0  0  0
  146.8629  140.1423  151.9290 H   0  0  0  0  0  0  0  0  0  0  0  0
  146.0181  138.6848  152.4519 H   0  0  0  0  0  0  0  0  0  0  0  0
  148.9000  141.4228  153.2179 H   0  0  0  0  0  0  0  0  0  0  0  0
  148.6789  142.6082  154.4732 H   0  0  0  0  0  0  0  0  0  0  0  0
  149.6544  142.2733  156.5458 H   0  0  0  0  0  0  0  0  0  0  0  0
  152.2881  141.5392  156.7039 H   0  0  0  0  0  0  0  0  0  0  0  0
  151.2925  142.7001  158.6193 H   0  0  0  0  0  0  0  0  0  0  0  0
  150.1335  141.4057  158.8506 H   0  0  0  0  0  0  0  0  0  0  0  0
  153.0963  141.3491  159.4706 H   0  0  0  0  0  0  0  0  0  0  0  0
  151.7565  140.7617  160.4689 H   0  0  0  0  0  0  0  0  0  0  0  0
  150.5066  139.1160  157.1451 H   0  0  0  0  0  0  0  0  0  0  0  0
  152.0451  139.2023  156.2719 H   0  0  0  0  0  0  0  0  0  0  0  0
  1  2  1  0  0  0  0
  1 19  1  0  0  0  0
  1 20  1  0  0  0  0
  1 21  1  0  0  0  0
  2  7  1  0  0  0  0
  2  3  2  0  0  0  0
  3  4  1  0  0  0  0
  4  5  1  0  0  0  0
  5  6  1  0  0  0  0
  5  7  2  0  0  0  0
  6 22  1  0  0  0  0
  6 23  1  0  0  0  0
  6 24  1  0  0  0  0
  7  8  1  0  0  0  0
  8  9  1  0  0  0  0
  8 25  1  0  0  0  0
  8 26  1  0  0  0  0
  9 10  2  0  0  0  0
  9 11  1  0  0  0  0
 11 12  1  0  0  0  0
 11 27  1  0  0  0  0
 12 18  1  0  0  0  0
 12 13  1  0  0  0  0
 12 28  1  0  0  0  0
 13 14  1  0  0  0  0
 13 29  1  0  0  0  0
 13 30  1  0  0  0  0
 14 15  1  0  0  0  0
 14 31  1  0  0  0  0
 14 32  1  0  0  0  0
 15 16  2  0  0  0  0
 15 17  2  0  0  0  0
 15 18  1  0  0  0  0
 18 33  1  0  0  0  0
 18 34  1  0  0  0  0
M  END
> <s_m_source_file>
AV-unprocessed.smi

> <i_m_source_file_index>
1778

> <i_lp_mmshare_version>
43012

> <i_f3d_flags>
0

> <s_epik_input>
W0NIM11jMW5vYyhbQ0gzXSljMVtDSDJdQyg9TylbTkhdW0NAQEhdKFtDSDJdMilbQ0gyXVtDSDJdUzIoPU8pPU8=

> <s_epik_cmdline>
J2VwaWtfcHl0aG9uJywgJy1waCcsICc3LjAnLCAnLXRuJywgJzgnLCAnLW1hJywgJzIwMCcsICctbWV0YWxfYmluZGluZycsICctaW1hZScsICc8aW5maWxlLm1hZT4nLCAnLW9tYWUnLCAnPG91dGZpbGUubWFlPic=

> <r_lp_tautomer_probability>
1

> <r_epik_Ionization_Penalty>
1.26334e-07

> <r_epik_Ionization_Penalty_Charging>
0

> <r_epik_Ionization_Penalty_Neutral>
1.26334e-07

> <r_epik_State_Penalty>
-0

> <r_epik_Charging_Adjusted_Penalty>
0

> <i_epik_Tot_Q>
0

> <i_epik_Tot_abs_Q>
0

> <r_epik_Metal_State_Penalty>
-0

> <b_epik_Metal_Only>
0

> <s_lp_Force_Field>
OPLS_2005

> <r_lp_Energy>
-2.84578

> <b_lp_Chiralities_Consistent>
1

> <s_lp_Variant>
AV-unprocessed.smi:1778-2

> <Gold.Version>
5.8.1

> <Gold.Id.Protein>
6NUR|6NUR_protein|mol2

> <Gold.PLP.Fitness>
28.3347

> <Gold.PLP.PLP>
-23.7958

> <Gold.PLP.part.hbond>
-2.0000

> <Gold.PLP.part.metal>
0.0000

> <Gold.PLP.part.buried>
-3.5052

> <Gold.PLP.part.nonpolar>
-18.6636

> <Gold.PLP.part.repulsive>
0.2838

> <Gold.PLP.ligand.clash>
0.0000

> <Gold.PLP.ligand.torsion>
0.7316

> <Gold.PLP.Chemscore.Hbond>
2.0000

> <Gold.PLP.Chemscore.CHOScore>
0.0000

> <Gold.PLP.Chemscore.Metal>
0.0000

> <Gold.Chemscore.Hbonds>
donor molecule, donor type, donor heavy atom, donor atom, acceptor molecule, acceptor atom, score
      P1  H  7989  7998       L1    10  1.00
      P1  H  7997  8008       L1    16  1.00

> <Gold.PLP.Chemscore.Internal.Correction>
0.0022

> <Gold.Rescore>
     Score         DG    S(hbond)    S(metal)    S(lipo)     H(rot)  DE(clash)    DE(int)     intcor
     12.29     -14.25       1.92        0.00      52.93       1.51       0.01       1.95       ----

> <Gold.Chemscore.Fitness>
12.2922

> <Gold.Chemscore.DG>
-14.2495

> <Gold.Chemscore.ZeroCoef>
-5.4800

> <Gold.Chemscore.Hbond>
1.9249

> <Gold.Chemscore.Metal>
0.0000

> <Gold.Chemscore.Lipo>
52.9345

> <Gold.Chemscore.Internal_Hbond>
0.0000

> <Gold.Chemscore.DEClash>
0.0112

> <Gold.Chemscore.DEInternal>
1.9462

> <Gold.Chemscore.Rot>
1.5051

> <Gold.Chemscore.Internal.Correction>
   9.000000E+99

> <Gold.Chemscore.Hbonds>
donor molecule, donor type, donor heavy atom, donor atom, acceptor molecule, acceptor atom, score
      P1  H  7989  7998       L1    10  0.40
      P1  H  7997  8008       L1    16  0.94

> <Gold.Chemscore.Hbond.Weighted>
-6.4293

> <Gold.Chemscore.Metal.Weighted>
-0.0000

> <Gold.Chemscore.Lipo.Weighted>
-6.1933

> <Gold.Chemscore.Internal_Hbond.Weighted>
0.0000

> <Gold.Chemscore.DEClash.Weighted>
0.0112

> <Gold.Chemscore.DEInternal.Weighted>
1.9462

> <Gold.Chemscore.Rot.Weighted>
3.8531

> <Gold.Chemscore.Internal.Correction.Weighted>
   9.000000E+99

> <Gold.Protein.RotatedTorsions>
[ 6907 6896 6895 6894 ] final   34.88 input  -60.11 | X-H torsion
[ 7974 7965 7964 7962 ] final  -80.74 input  175.53 | X-H torsion
[ 8008 7997 7996 7995 ] final -117.29 input   59.86 | X-H torsion
[ 10167 10162 10161 10158 ] final -169.87 input  -65.29 | X-H torsion
[ 10718 10713 10712 10709 ] final  -40.85 input   66.30 | X-H torsion
[ 10763 10752 10751 10750 ] final   92.60 input  -60.55 | X-H torsion
[ 11005 11000 10999 10996 ] final  -43.69 input  -57.11 | X-H torsion

> <Gold.Protein.ActiveResidues>
 VAL166  LYS551  ARG553  GLY616  TRP617  ASP618  TYR619  PRO620  LYS621  CYS622 
 ASP623  PHE694  ASN695  SER759  ASP760  ASP761  ALA762  ILE779  LEU786  VAL792 
 PHE793  MET794  SER795  GLU796  ALA797  LYS798  CYS799  TRP800  GLU811  SER814 

> <Gold.Protein.RotatedAtoms>
  152.1085  134.9291  160.0567 H   0  0  0  0  0  0  0  0  0  0  0  0  # atno 6907 bound_to 6896
  152.0478  133.4001  159.4372 H   0  0  0  0  0  0  0  0  0  0  0  0  # atno 6908 bound_to 6896
  150.6842  134.3263  159.4851 H   0  0  0  0  0  0  0  0  0  0  0  0  # atno 6909 bound_to 6896
  145.5559  140.9489  143.1473 H   0  0  0  0  0  0  0  0  0  0  0  0  # atno 7974 bound_to 7965
  155.0813  140.0394  157.2640 H   0  0  0  0  0  0  0  0  0  0  0  0  # atno 8008 bound_to 7997
  154.6904  140.2652  155.6793 H   0  0  0  0  0  0  0  0  0  0  0  0  # atno 8009 bound_to 7997
  156.2727  140.2760  156.1480 H   0  0  0  0  0  0  0  0  0  0  0  0  # atno 8010 bound_to 7997
  139.5896  144.1242  152.1618 H   0  0  0  0  0  0  0  0  0  0  0  0  # atno 10167 bound_to 10162
  156.2768  130.4212  149.8379 H   0  0  0  0  0  0  0  0  0  0  0  0  # atno 10718 bound_to 10713
  153.2209  135.4356  155.0488 H   0  0  0  0  0  0  0  0  0  0  0  0  # atno 10763 bound_to 10752
  154.8249  135.3356  154.6928 H   0  0  0  0  0  0  0  0  0  0  0  0  # atno 10764 bound_to 10752
  153.7360  135.7008  153.5034 H   0  0  0  0  0  0  0  0  0  0  0  0  # atno 10765 bound_to 10752
  141.0401  133.6784  156.2768 H   0  0  0  0  0  0  0  0  0  0  0  0  # atno 11005 bound_to 11000
  144.7506  139.7203  143.7274 LP  0  0  0  0  0  0  0  0  0  0  0  0  # atno 17320 bound_to 7965
  146.1884  139.5112  142.9821 LP  0  0  0  0  0  0  0  0  0  0  0  0  # atno 17321 bound_to 7965
  140.0813  144.5698  150.7120 LP  0  0  0  0  0  0  0  0  0  0  0  0  # atno 17342 bound_to 10162
  140.7162  143.2546  151.4428 LP  0  0  0  0  0  0  0  0  0  0  0  0  # atno 17343 bound_to 10162
  156.5840  130.8478  151.3390 LP  0  0  0  0  0  0  0  0  0  0  0  0  # atno 17370 bound_to 10713
  157.7302  130.9682  150.1821 LP  0  0  0  0  0  0  0  0  0  0  0  0  # atno 17371 bound_to 10713
  140.6251  134.5322  157.5552 LP  0  0  0  0  0  0  0  0  0  0  0  0  # atno 17394 bound_to 11000
  139.9269  134.8038  156.1042 LP  0  0  0  0  0  0  0  0  0  0  0  0  # atno 17395 bound_to 11000

$$$$
