AV-unprocessed.smi:1971|AV-procd|sdf|7964|dock10
  -GOLD-   2272010133D 1   1.00000     0.00000
 Structure written by MMmdl.
 44 45  0  0  0  0  0  0  0  0  2 V2000
  150.8771  141.1687  156.2675 C   0  0  0  0  0  0  0  0  0  0  0  0
  151.1474  139.6840  155.9840 C   0  0  0  0  0  0  0  0  0  0  0  0
  150.9079  139.3399  154.5802 N   0  0  0  0  0  0  0  0  0  0  0  0
  151.6075  138.1166  154.1780 C   0  0  0  0  0  0  0  0  0  0  0  0
  150.9780  136.8555  154.8063 C   0  0  0  0  0  0  0  0  0  0  0  0
  149.5444  136.7532  154.4269 N   0  3  0  0  0  0  0  0  0  0  0  0
  148.8532  135.4931  154.8295 C   0  0  2  0  0  0  0  0  0  0  0  0
  147.3138  135.5945  154.7445 C   0  0  0  0  0  0  0  0  0  0  0  0
  149.3425  135.0231  156.2161 C   0  0  0  0  0  0  0  0  0  0  0  0
  148.7065  135.7700  157.2967 N   0  0  0  0  0  0  0  0  0  0  0  0
  148.4867  135.2871  158.5274 C   0  0  0  0  0  0  0  0  0  0  0  0
  148.7890  134.1432  158.8681 O   0  0  0  0  0  0  0  0  0  0  0  0
  147.9026  136.2054  159.3173 N   0  0  0  0  0  0  0  0  0  0  0  0
  147.5647  136.0911  160.6917 C   0  0  0  0  0  0  0  0  0  0  0  0
  147.3975  137.1318  161.5163 N   0  0  0  0  0  0  0  0  0  0  0  0
  147.0618  136.7270  162.8107 C   0  0  0  0  0  0  0  0  0  0  0  0
  146.9768  135.3645  162.9551 C   0  0  0  0  0  0  0  0  0  0  0  0
  147.3146  134.5309  161.4614 S   0  0  0  0  0  0  0  0  0  0  0  0
  148.8193  137.9868  154.8213 C   0  0  0  0  0  0  0  0  0  0  0  0
  149.4950  139.2277  154.2007 C   0  0  0  0  0  0  0  0  0  0  0  0
  151.1928  141.4254  157.2788 H   0  0  0  0  0  0  0  0  0  0  0  0
  149.8186  141.4153  156.1898 H   0  0  0  0  0  0  0  0  0  0  0  0
  151.4279  141.8104  155.5790 H   0  0  0  0  0  0  0  0  0  0  0  0
  152.1956  139.4863  156.2117 H   0  0  0  0  0  0  0  0  0  0  0  0
  150.5627  139.0594  156.6584 H   0  0  0  0  0  0  0  0  0  0  0  0
  151.5758  138.0379  153.0904 H   0  0  0  0  0  0  0  0  0  0  0  0
  152.6616  138.1897  154.4482 H   0  0  0  0  0  0  0  0  0  0  0  0
  151.5233  135.9810  154.4538 H   0  0  0  0  0  0  0  0  0  0  0  0
  151.0907  136.8761  155.8905 H   0  0  0  0  0  0  0  0  0  0  0  0
  149.1655  134.7238  154.1215 H   0  0  0  0  0  0  0  0  0  0  0  0
  146.8458  134.6213  154.8935 H   0  0  0  0  0  0  0  0  0  0  0  0
  146.9848  135.9556  153.7705 H   0  0  0  0  0  0  0  0  0  0  0  0
  146.9098  136.2633  155.5047 H   0  0  0  0  0  0  0  0  0  0  0  0
  149.1225  133.9636  156.3541 H   0  0  0  0  0  0  0  0  0  0  0  0
  150.4251  135.1328  156.2892 H   0  0  0  0  0  0  0  0  0  0  0  0
  148.4229  136.7181  157.0971 H   0  0  0  0  0  0  0  0  0  0  0  0
  147.6887  137.0957  158.8929 H   0  0  0  0  0  0  0  0  0  0  0  0
  146.9006  137.4779  163.5699 H   0  0  0  0  0  0  0  0  0  0  0  0
  146.7360  134.8037  163.8459 H   0  0  0  0  0  0  0  0  0  0  0  0
  147.7900  137.9332  154.4651 H   0  0  0  0  0  0  0  0  0  0  0  0
  148.7670  138.0738  155.9063 H   0  0  0  0  0  0  0  0  0  0  0  0
  148.9520  140.1320  154.4723 H   0  0  0  0  0  0  0  0  0  0  0  0
  149.4375  139.1622  153.1134 H   0  0  0  0  0  0  0  0  0  0  0  0
  149.5276  136.7529  153.4171 H   0  0  0  0  0  0  0  0  0  0  0  0
  1  2  1  0  0  0  0
  1 21  1  0  0  0  0
  1 22  1  0  0  0  0
  1 23  1  0  0  0  0
  2  3  1  0  0  0  0
  2 24  1  0  0  0  0
  2 25  1  0  0  0  0
  3 20  1  0  0  0  0
  3  4  1  0  0  0  0
  4  5  1  0  0  0  0
  4 26  1  0  0  0  0
  4 27  1  0  0  0  0
  5  6  1  0  0  0  0
  5 28  1  0  0  0  0
  5 29  1  0  0  0  0
  6  7  1  0  0  0  0
  6 19  1  0  0  0  0
  6 44  1  0  0  0  0
  7  8  1  0  0  0  0
  7  9  1  0  0  0  0
  7 30  1  0  0  0  0
  8 31  1  0  0  0  0
  8 32  1  0  0  0  0
  8 33  1  0  0  0  0
  9 10  1  0  0  0  0
  9 34  1  0  0  0  0
  9 35  1  0  0  0  0
 10 11  1  0  0  0  0
 10 36  1  0  0  0  0
 11 12  2  0  0  0  0
 11 13  1  0  0  0  0
 13 14  1  0  0  0  0
 13 37  1  0  0  0  0
 14 18  1  0  0  0  0
 14 15  2  0  0  0  0
 15 16  1  0  0  0  0
 16 17  2  0  0  0  0
 16 38  1  0  0  0  0
 17 18  1  0  0  0  0
 17 39  1  0  0  0  0
 19 20  1  0  0  0  0
 19 40  1  0  0  0  0
 19 41  1  0  0  0  0
 20 42  1  0  0  0  0
 20 43  1  0  0  0  0
M  CHG  1   6   1
M  END
> <s_m_source_file>
AV-unprocessed.smi

> <i_m_source_file_index>
1971

> <i_lp_mmshare_version>
43012

> <i_f3d_flags>
0

> <s_epik_input>
W0NIM11bQ0gyXU4xW0NIMl1bQ0gyXU4oW0NIMl1bQ0gyXTEpW0NASF0oW0NIM10pW0NIMl1bTkhdQyg9TylbTkhdYzJuW2NIXVtjSF1zMg==

> <s_epik_cmdline>
J2VwaWtfcHl0aG9uJywgJy1waCcsICc3LjAnLCAnLXRuJywgJzgnLCAnLW1hJywgJzIwMCcsICctbWV0YWxfYmluZGluZycsICctaW1hZScsICc8aW5maWxlLm1hZT4nLCAnLW9tYWUnLCAnPG91dGZpbGUubWFlPic=

> <r_epik_Ionization_Penalty>
0.150098

> <r_epik_Ionization_Penalty_Charging>
0.148467

> <r_epik_Ionization_Penalty_Neutral>
0.00163072

> <r_epik_State_Penalty>
0.974087

> <r_epik_Charging_Adjusted_Penalty>
1.12255

> <i_epik_Tot_Q>
1

> <i_epik_Tot_abs_Q>
1

> <r_epik_Metal_State_Penalty>
1.00741

> <b_epik_Metal_Only>
0

> <s_lp_Force_Field>
OPLS_2005

> <r_lp_Energy>
20.3005

> <b_lp_Chiralities_Consistent>
1

> <s_lp_Variant>
AV-unprocessed.smi:1971-3

> <Gold.Version>
5.8.1

> <Gold.Id.Protein>
6NUR|6NUR_protein|mol2

> <Gold.PLP.Fitness>
49.5479

> <Gold.PLP.PLP>
-34.3100

> <Gold.PLP.part.hbond>
-5.0000

> <Gold.PLP.part.metal>
0.0000

> <Gold.PLP.part.buried>
-2.5284

> <Gold.PLP.part.nonpolar>
-27.4665

> <Gold.PLP.part.repulsive>
0.3162

> <Gold.PLP.ligand.clash>
0.0000

> <Gold.PLP.ligand.torsion>
1.0927

> <Gold.PLP.Chemscore.Hbond>
5.7680

> <Gold.PLP.Chemscore.CHOScore>
0.0000

> <Gold.PLP.Chemscore.Metal>
0.0000

> <Gold.Chemscore.Hbonds>
donor molecule, donor type, donor heavy atom, donor atom, acceptor molecule, acceptor atom, score
      L1  H     6    44       P1  7948  2.00
      P1  H  6896  6909       L1    12  1.00
      P1  H  6931  6943       L1    15  0.94
      P1  H  6934  6947       L1    15  0.90
      P1  H  7989  7998       L1     3  1.00

> <Gold.PLP.Chemscore.Internal.Correction>
0.1194

> <Gold.Rescore>
     Score         DG    S(hbond)    S(metal)    S(lipo)     H(rot)  DE(clash)    DE(int)     intcor
     17.97     -20.11       3.11        0.00      75.56       1.79       0.29       1.85       ----

> <Gold.Chemscore.Fitness>
17.9654

> <Gold.Chemscore.DG>
-20.1075

> <Gold.Chemscore.ZeroCoef>
-5.4800

> <Gold.Chemscore.Hbond>
3.1074

> <Gold.Chemscore.Metal>
0.0000

> <Gold.Chemscore.Lipo>
75.5608

> <Gold.Chemscore.Internal_Hbond>
0.0000

> <Gold.Chemscore.DEClash>
0.2898

> <Gold.Chemscore.DEInternal>
1.8523

> <Gold.Chemscore.Rot>
1.7937

> <Gold.Chemscore.Internal.Correction>
   9.000000E+99

> <Gold.Chemscore.Hbonds>
donor molecule, donor type, donor heavy atom, donor atom, acceptor molecule, acceptor atom, score
      L1  H     6    44       P1  7948  0.73
      P1  H  6896  6909       L1    12  0.79
      P1  H  6931  6943       L1    15  0.21
      P1  H  6934  6947       L1    15  0.84
      P1  H  7989  7998       L1     3  0.21

> <Gold.Chemscore.Hbond.Weighted>
-10.3788

> <Gold.Chemscore.Metal.Weighted>
-0.0000

> <Gold.Chemscore.Lipo.Weighted>
-8.8406

> <Gold.Chemscore.Internal_Hbond.Weighted>
0.0000

> <Gold.Chemscore.DEClash.Weighted>
0.2898

> <Gold.Chemscore.DEInternal.Weighted>
1.8523

> <Gold.Chemscore.Rot.Weighted>
4.5919

> <Gold.Chemscore.Internal.Correction.Weighted>
   9.000000E+99

> <Gold.Protein.RotatedTorsions>
[ 6907 6896 6895 6894 ] final   12.10 input  -60.11 | X-H torsion
[ 7974 7965 7964 7962 ] final -141.97 input  175.53 | X-H torsion
[ 8008 7997 7996 7995 ] final   23.20 input   59.86 | X-H torsion
[ 10167 10162 10161 10158 ] final -159.75 input  -65.29 | X-H torsion
[ 10718 10713 10712 10709 ] final  -43.51 input   66.30 | X-H torsion
[ 10763 10752 10751 10750 ] final -167.59 input  -60.55 | X-H torsion
[ 11005 11000 10999 10996 ] final  167.28 input  -57.11 | X-H torsion

> <Gold.Protein.ActiveResidues>
 VAL166  LYS551  ARG553  GLY616  TRP617  ASP618  TYR619  PRO620  LYS621  CYS622 
 ASP623  PHE694  ASN695  SER759  ASP760  ASP761  ALA762  ILE779  LEU786  VAL792 
 PHE793  MET794  SER795  GLU796  ALA797  LYS798  CYS799  TRP800  GLU811  SER814 

> <Gold.Protein.RotatedAtoms>
  151.7650  135.0801  160.0350 H   0  0  0  0  0  0  0  0  0  0  0  0  # atno 6907 bound_to 6896
  152.3328  133.5973  159.5830 H   0  0  0  0  0  0  0  0  0  0  0  0  # atno 6908 bound_to 6896
  150.7432  133.9758  159.3602 H   0  0  0  0  0  0  0  0  0  0  0  0  # atno 6909 bound_to 6896
  144.8479  140.6015  143.5409 H   0  0  0  0  0  0  0  0  0  0  0  0  # atno 7974 bound_to 7965
  154.9772  140.3097  155.4962 H   0  0  0  0  0  0  0  0  0  0  0  0  # atno 8008 bound_to 7997
  156.2958  140.2273  156.4808 H   0  0  0  0  0  0  0  0  0  0  0  0  # atno 8009 bound_to 7997
  154.7822  140.0445  157.1124 H   0  0  0  0  0  0  0  0  0  0  0  0  # atno 8010 bound_to 7997
  139.6592  143.9944  152.2214 H   0  0  0  0  0  0  0  0  0  0  0  0  # atno 10167 bound_to 10162
  156.2482  130.4185  149.8680 H   0  0  0  0  0  0  0  0  0  0  0  0  # atno 10718 bound_to 10713
  154.6716  135.2940  154.9734 H   0  0  0  0  0  0  0  0  0  0  0  0  # atno 10763 bound_to 10752
  154.0759  135.6611  153.4835 H   0  0  0  0  0  0  0  0  0  0  0  0  # atno 10764 bound_to 10752
  153.0490  135.5186  154.7715 H   0  0  0  0  0  0  0  0  0  0  0  0  # atno 10765 bound_to 10752
  140.2751  134.7795  157.3710 H   0  0  0  0  0  0  0  0  0  0  0  0  # atno 11005 bound_to 11000
  145.4560  139.1518  143.3892 LP  0  0  0  0  0  0  0  0  0  0  0  0  # atno 17320 bound_to 7965
  146.2760  140.4688  142.8795 LP  0  0  0  0  0  0  0  0  0  0  0  0  # atno 17321 bound_to 7965
  139.9678  144.6514  150.8017 LP  0  0  0  0  0  0  0  0  0  0  0  0  # atno 17342 bound_to 10162
  140.7572  143.3082  151.2910 LP  0  0  0  0  0  0  0  0  0  0  0  0  # atno 17343 bound_to 10162
  156.6238  130.8637  151.3481 LP  0  0  0  0  0  0  0  0  0  0  0  0  # atno 17370 bound_to 10713
  157.7204  130.9551  150.1415 LP  0  0  0  0  0  0  0  0  0  0  0  0  # atno 17371 bound_to 10713
  140.1336  134.5063  155.8086 LP  0  0  0  0  0  0  0  0  0  0  0  0  # atno 17394 bound_to 11000
  141.2171  133.6799  156.7083 LP  0  0  0  0  0  0  0  0  0  0  0  0  # atno 17395 bound_to 11000

$$$$
