AV-unprocessed.smi:740|AV-procd|sdf|3547|dock10
  -GOLD-   22720 0543D 1   1.00000     0.00000
 Structure written by MMmdl.
 44 46  0  0  0  0  0  0  0  0  1 V2000
  152.3446  144.2877  159.7573 C   0  0  0  0  0  0  0  0  0  0  0  0
  151.9878  142.8926  159.2749 C   0  0  0  0  0  0  0  0  0  0  0  0
  150.8561  142.7206  158.4465 C   0  0  0  0  0  0  0  0  0  0  0  0
  150.4919  141.4407  157.9741 C   0  0  0  0  0  0  0  0  0  0  0  0
  149.4411  141.0482  157.1626 N   0  0  0  0  0  0  0  0  0  0  0  0
  149.6415  139.7362  157.0815 C   0  0  0  0  0  0  0  0  0  0  0  0
  150.6978  139.2310  157.7471 N   0  0  0  0  0  0  0  0  0  0  0  0
  151.1098  137.8395  157.7992 C   0  0  0  0  0  0  0  0  0  0  0  0
  150.5183  137.0968  159.0126 C   0  0  1  0  0  0  0  0  0  0  0  0
  151.1021  137.6178  160.1913 O   0  0  0  0  0  0  0  0  0  0  0  0
  148.9876  137.2698  159.0977 C   0  0  0  0  0  0  0  0  0  0  0  0
  148.3502  136.1583  159.8129 N   0  0  0  0  0  0  0  0  0  0  0  0
  148.4993  134.8685  159.4810 C   0  0  0  0  0  0  0  0  0  0  0  0
  149.1626  134.4301  158.5416 O   0  0  0  0  0  0  0  0  0  0  0  0
  147.7335  133.9661  160.4382 C   0  0  0  0  0  0  0  0  0  0  0  0
  147.0966  134.9570  161.4242 C   0  0  1  0  0  0  0  0  0  0  0  0
  147.5108  134.7276  162.8872 C   0  0  0  0  0  0  0  0  0  0  0  0
  147.5830  136.3076  160.9019 C   0  0  0  0  0  0  0  0  0  0  0  0
  147.2889  137.3743  161.4414 O   0  0  0  0  0  0  0  0  0  0  0  0
  151.2961  140.3280  158.3579 C   0  0  0  0  0  0  0  0  0  0  0  0
  152.4241  140.4863  159.1824 C   0  0  0  0  0  0  0  0  0  0  0  0
  152.7751  141.7723  159.6437 C   0  0  0  0  0  0  0  0  0  0  0  0
  153.9975  141.9333  160.5300 C   0  0  0  0  0  0  0  0  0  0  0  0
  151.6189  145.0256  159.4141 H   0  0  0  0  0  0  0  0  0  0  0  0
  153.3247  144.5815  159.3810 H   0  0  0  0  0  0  0  0  0  0  0  0
  152.3664  144.3229  160.8467 H   0  0  0  0  0  0  0  0  0  0  0  0
  150.2568  143.5737  158.1644 H   0  0  0  0  0  0  0  0  0  0  0  0
  148.9834  139.1039  156.5034 H   0  0  0  0  0  0  0  0  0  0  0  0
  150.8204  137.3507  156.8681 H   0  0  0  0  0  0  0  0  0  0  0  0
  152.1996  137.8125  157.8381 H   0  0  0  0  0  0  0  0  0  0  0  0
  150.7743  136.0392  158.9346 H   0  0  0  0  0  0  0  0  0  0  0  0
  152.0417  137.5465  160.1197 H   0  0  0  0  0  0  0  0  0  0  0  0
  148.7310  138.2320  159.5450 H   0  0  0  0  0  0  0  0  0  0  0  0
  148.5691  137.3050  158.0902 H   0  0  0  0  0  0  0  0  0  0  0  0
  146.9807  133.3903  159.8988 H   0  0  0  0  0  0  0  0  0  0  0  0
  148.4181  133.2714  160.9261 H   0  0  0  0  0  0  0  0  0  0  0  0
  146.0099  134.9218  161.3389 H   0  0  0  0  0  0  0  0  0  0  0  0
  147.0457  135.4588  163.5493 H   0  0  0  0  0  0  0  0  0  0  0  0
  148.5917  134.8019  163.0148 H   0  0  0  0  0  0  0  0  0  0  0  0
  147.2045  133.7378  163.2259 H   0  0  0  0  0  0  0  0  0  0  0  0
  153.0161  139.6249  159.4542 H   0  0  0  0  0  0  0  0  0  0  0  0
  154.4958  140.9779  160.6970 H   0  0  0  0  0  0  0  0  0  0  0  0
  153.7138  142.3373  161.5019 H   0  0  0  0  0  0  0  0  0  0  0  0
  154.7177  142.6097  160.0693 H   0  0  0  0  0  0  0  0  0  0  0  0
  1  2  1  0  0  0  0
  1 24  1  0  0  0  0
  1 25  1  0  0  0  0
  1 26  1  0  0  0  0
  2 22  1  0  0  0  0
  2  3  2  0  0  0  0
  3  4  1  0  0  0  0
  3 27  1  0  0  0  0
  4 20  2  0  0  0  0
  4  5  1  0  0  0  0
  5  6  2  0  0  0  0
  6  7  1  0  0  0  0
  6 28  1  0  0  0  0
  7  8  1  0  0  0  0
  7 20  1  0  0  0  0
  8  9  1  0  0  0  0
  8 29  1  0  0  0  0
  8 30  1  0  0  0  0
  9 10  1  0  0  0  0
  9 11  1  0  0  0  0
  9 31  1  0  0  0  0
 10 32  1  0  0  0  0
 11 12  1  0  0  0  0
 11 33  1  0  0  0  0
 11 34  1  0  0  0  0
 12 18  1  0  0  0  0
 12 13  1  0  0  0  0
 13 14  2  0  0  0  0
 13 15  1  0  0  0  0
 15 16  1  0  0  0  0
 15 35  1  0  0  0  0
 15 36  1  0  0  0  0
 16 17  1  0  0  0  0
 16 18  1  0  0  0  0
 16 37  1  0  0  0  0
 17 38  1  0  0  0  0
 17 39  1  0  0  0  0
 17 40  1  0  0  0  0
 18 19  2  0  0  0  0
 20 21  1  0  0  0  0
 21 22  2  0  0  0  0
 21 41  1  0  0  0  0
 22 23  1  0  0  0  0
 23 42  1  0  0  0  0
 23 43  1  0  0  0  0
 23 44  1  0  0  0  0
M  END
> <s_m_source_file>
AV-unprocessed.smi

> <i_m_source_file_index>
740

> <i_lp_mmshare_version>
43012

> <i_f3d_flags>
0

> <s_epik_input>
W0NIM11jKFtjSF0xKWMoW0NIM10pW2NIXWMoYzEyKW4oW2NIXW4yKVtDSDJdW0NASF0oW09IXSlbQ0gyXU4zQyg9TylbQ0gyXVtDQEBIXShbQ0gzXSlDMz1P

> <s_epik_cmdline>
J2VwaWtfcHl0aG9uJywgJy1waCcsICc3LjAnLCAnLXRuJywgJzgnLCAnLW1hJywgJzIwMCcsICctbWV0YWxfYmluZGluZycsICctaW1hZScsICc8aW5maWxlLm1hZT4nLCAnLW9tYWUnLCAnPG91dGZpbGUubWFlPic=

> <r_lp_tautomer_probability>
1

> <r_epik_Ionization_Penalty>
0.104021

> <r_epik_Ionization_Penalty_Charging>
0

> <r_epik_Ionization_Penalty_Neutral>
0.104021

> <r_epik_State_Penalty>
0.0939354

> <r_epik_Charging_Adjusted_Penalty>
0.0939354

> <i_epik_Tot_Q>
0

> <i_epik_Tot_abs_Q>
0

> <r_epik_Metal_State_Penalty>
0.000101783

> <b_epik_Metal_Only>
0

> <s_lp_Force_Field>
OPLS_2005

> <r_lp_Energy>
16.7866

> <b_lp_Chiralities_Consistent>
1

> <s_lp_Variant>
AV-unprocessed.smi:740-2

> <Gold.Version>
5.8.1

> <Gold.Id.Protein>
6NUR|6NUR_protein|mol2

> <Gold.PLP.Fitness>
47.6853

> <Gold.PLP.PLP>
-41.0006

> <Gold.PLP.part.hbond>
-4.0000

> <Gold.PLP.part.metal>
0.0000

> <Gold.PLP.part.buried>
-2.8938

> <Gold.PLP.part.nonpolar>
-34.7795

> <Gold.PLP.part.repulsive>
0.0552

> <Gold.PLP.ligand.clash>
0.0000

> <Gold.PLP.ligand.torsion>
0.7038

> <Gold.PLP.Chemscore.Hbond>
2.6894

> <Gold.PLP.Chemscore.CHOScore>
0.0000

> <Gold.PLP.Chemscore.Metal>
0.0000

> <Gold.Chemscore.Hbonds>
donor molecule, donor type, donor heavy atom, donor atom, acceptor molecule, acceptor atom, score
      P1  H  6896  6908       L1    14  1.00
      P1  H  6931  6943       L1    19  0.78
      P1  H  6934  6947       L1    19  0.94

> <Gold.PLP.Chemscore.Internal.Correction>
0.0242

> <Gold.Rescore>
     Score         DG    S(hbond)    S(metal)    S(lipo)     H(rot)  DE(clash)    DE(int)     intcor
     15.47     -17.81       1.80        0.00     104.74       2.31       1.65       0.69       ----

> <Gold.Chemscore.Fitness>
15.4743

> <Gold.Chemscore.DG>
-17.8145

> <Gold.Chemscore.ZeroCoef>
-5.4800

> <Gold.Chemscore.Hbond>
1.7982

> <Gold.Chemscore.Metal>
0.0000

> <Gold.Chemscore.Lipo>
104.7364

> <Gold.Chemscore.Internal_Hbond>
0.0000

> <Gold.Chemscore.DEClash>
1.6533

> <Gold.Chemscore.DEInternal>
0.6869

> <Gold.Chemscore.Rot>
2.3147

> <Gold.Chemscore.Internal.Correction>
   9.000000E+99

> <Gold.Chemscore.Hbonds>
donor molecule, donor type, donor heavy atom, donor atom, acceptor molecule, acceptor atom, score
      P1  H  6896  6908       L1    14  0.38
      P1  H  6931  6943       L1    19  0.45
      P1  H  6934  6947       L1    19  0.91

> <Gold.Chemscore.Hbond.Weighted>
-6.0059

> <Gold.Chemscore.Metal.Weighted>
-0.0000

> <Gold.Chemscore.Lipo.Weighted>
-12.2542

> <Gold.Chemscore.Internal_Hbond.Weighted>
0.0000

> <Gold.Chemscore.DEClash.Weighted>
1.6533

> <Gold.Chemscore.DEInternal.Weighted>
0.6869

> <Gold.Chemscore.Rot.Weighted>
5.9256

> <Gold.Chemscore.Internal.Correction.Weighted>
   9.000000E+99

> <Gold.Protein.RotatedTorsions>
[ 6907 6896 6895 6894 ] final  128.90 input  -60.11 | X-H torsion
[ 7974 7965 7964 7962 ] final   -6.97 input  175.53 | X-H torsion
[ 8008 7997 7996 7995 ] final   52.24 input   59.86 | X-H torsion
[ 10167 10162 10161 10158 ] final -114.36 input  -65.29 | X-H torsion
[ 10718 10713 10712 10709 ] final  -67.45 input   66.30 | X-H torsion
[ 10763 10752 10751 10750 ] final  -79.47 input  -60.55 | X-H torsion
[ 11005 11000 10999 10996 ] final  -40.42 input  -57.11 | X-H torsion

> <Gold.Protein.ActiveResidues>
 VAL166  LYS551  ARG553  GLY616  TRP617  ASP618  TYR619  PRO620  LYS621  CYS622 
 ASP623  PHE694  ASN695  SER759  ASP760  ASP761  ALA762  ILE779  LEU786  VAL792 
 PHE793  MET794  SER795  GLU796  ALA797  LYS798  CYS799  TRP800  GLU811  SER814 

> <Gold.Protein.RotatedAtoms>
  152.3675  133.6375  159.6061 H   0  0  0  0  0  0  0  0  0  0  0  0  # atno 6907 bound_to 6896
  150.7644  133.9324  159.3440 H   0  0  0  0  0  0  0  0  0  0  0  0  # atno 6908 bound_to 6896
  151.7152  135.0906  160.0326 H   0  0  0  0  0  0  0  0  0  0  0  0  # atno 6909 bound_to 6896
  146.2318  140.2249  142.8338 H   0  0  0  0  0  0  0  0  0  0  0  0  # atno 7974 bound_to 7965
  155.4486  140.3457  155.4298 H   0  0  0  0  0  0  0  0  0  0  0  0  # atno 8008 bound_to 7997
  156.1234  140.1493  156.9201 H   0  0  0  0  0  0  0  0  0  0  0  0  # atno 8009 bound_to 7997
  154.4840  140.0861  156.7424 H   0  0  0  0  0  0  0  0  0  0  0  0  # atno 8010 bound_to 7997
  140.1018  143.4606  152.1807 H   0  0  0  0  0  0  0  0  0  0  0  0  # atno 10167 bound_to 10162
  156.0557  130.4278  150.1857 H   0  0  0  0  0  0  0  0  0  0  0  0  # atno 10718 bound_to 10713
  154.5391  135.5694  153.6823 H   0  0  0  0  0  0  0  0  0  0  0  0  # atno 10763 bound_to 10752
  152.9958  135.6223  154.2527 H   0  0  0  0  0  0  0  0  0  0  0  0  # atno 10764 bound_to 10752
  154.2457  135.2861  155.2816 H   0  0  0  0  0  0  0  0  0  0  0  0  # atno 10765 bound_to 10752
  141.0173  133.6879  156.2319 H   0  0  0  0  0  0  0  0  0  0  0  0  # atno 11005 bound_to 11000
  144.9603  140.8268  143.5518 LP  0  0  0  0  0  0  0  0  0  0  0  0  # atno 17320 bound_to 7965
  145.2219  139.2155  143.5088 LP  0  0  0  0  0  0  0  0  0  0  0  0  # atno 17321 bound_to 7965
  139.5667  144.7439  151.4003 LP  0  0  0  0  0  0  0  0  0  0  0  0  # atno 17342 bound_to 10162
  140.6974  143.7716  150.7347 LP  0  0  0  0  0  0  0  0  0  0  0  0  # atno 17343 bound_to 10162
  156.9933  130.9900  151.3409 LP  0  0  0  0  0  0  0  0  0  0  0  0  # atno 17370 bound_to 10713
  157.5524  130.8191  149.8162 LP  0  0  0  0  0  0  0  0  0  0  0  0  # atno 17371 bound_to 10713
  140.6633  134.4945  157.5584 LP  0  0  0  0  0  0  0  0  0  0  0  0  # atno 17394 bound_to 11000
  139.9125  134.8315  156.1480 LP  0  0  0  0  0  0  0  0  0  0  0  0  # atno 17395 bound_to 11000

$$$$
