AV-unprocessed.smi:54|AV-procd|sdf|533|dock7
  -GOLD-   2262016413D 1   1.00000     0.00000
 Structure written by MMmdl.
 44 46  0  0  0  0  0  0  0  0  1 V2000
  144.9819  131.2010  151.3462 C   0  0  0  0  0  0  0  0  0  0  0  0
  144.2741  132.4678  150.8386 C   0  0  0  0  0  0  0  0  0  0  0  0
  144.6105  132.7425  149.3639 C   0  0  0  0  0  0  0  0  0  0  0  0
  144.6388  133.6752  151.7092 C   0  0  0  0  0  0  0  0  0  0  0  0
  145.2068  134.6645  151.2476 O   0  0  0  0  0  0  0  0  0  0  0  0
  144.2553  133.5766  153.1043 N   0  0  0  0  0  0  0  0  0  0  0  0
  144.4629  134.4944  154.0759 C   0  0  0  0  0  0  0  0  0  0  0  0
  145.3182  135.5005  153.9547 N   0  0  0  0  0  0  0  0  0  0  0  0
  145.4095  136.3072  155.0565 C   0  0  0  0  0  0  0  0  0  0  0  0
  144.7044  136.1644  156.2350 C   0  0  0  0  0  0  0  0  0  0  0  0
  145.0494  137.1706  157.1294 N   0  0  0  0  0  0  0  0  0  0  0  0
  145.9386  137.8724  156.4857 C   0  0  0  0  0  0  0  0  0  0  0  0
  146.2227  137.4121  155.2228 N   0  0  0  0  0  0  0  0  0  0  0  0
  147.1961  137.9870  154.2468 C   0  0  2  0  0  0  0  0  0  0  0  0
  147.9804  138.9257  154.9082 O   0  0  0  0  0  0  0  0  0  0  0  0
  148.3791  139.9072  153.9630 C   0  0  2  0  0  0  0  0  0  0  0  0
  148.9310  141.1655  154.6553 C   0  0  0  0  0  0  0  0  0  0  0  0
  148.6226  142.3125  153.8922 O   0  0  0  0  0  0  0  0  0  0  0  0
  147.1091  140.1026  153.1191 C   0  0  2  0  0  0  0  0  0  0  0  0
  146.2247  141.0329  153.7144 O   0  0  0  0  0  0  0  0  0  0  0  0
  146.4812  138.7087  153.0900 C   0  0  1  0  0  0  0  0  0  0  0  0
  146.7734  138.0930  151.8510 O   0  0  0  0  0  0  0  0  0  0  0  0
  143.7771  135.0799  156.3802 C   0  0  0  0  0  0  0  0  0  0  0  0
  143.0730  134.8038  157.3491 O   0  0  0  0  0  0  0  0  0  0  0  0
  143.7221  134.2755  155.2362 N   0  0  0  0  0  0  0  0  0  0  0  0
  147.8095  137.1440  153.9245 H   0  0  0  0  0  0  0  0  0  0  0  0
  149.1462  139.4719  153.3188 H   0  0  0  0  0  0  0  0  0  0  0  0
  147.3513  140.4764  152.1231 H   0  0  0  0  0  0  0  0  0  0  0  0
  145.4005  138.7331  153.2402 H   0  0  0  0  0  0  0  0  0  0  0  0
  144.7508  131.0104  152.3950 H   0  0  0  0  0  0  0  0  0  0  0  0
  146.0658  131.2815  151.2532 H   0  0  0  0  0  0  0  0  0  0  0  0
  144.6666  130.3254  150.7782 H   0  0  0  0  0  0  0  0  0  0  0  0
  143.1979  132.3057  150.9149 H   0  0  0  0  0  0  0  0  0  0  0  0
  144.1110  133.6430  149.0045 H   0  0  0  0  0  0  0  0  0  0  0  0
  144.2877  131.9158  148.7307 H   0  0  0  0  0  0  0  0  0  0  0  0
  145.6830  132.8733  149.2131 H   0  0  0  0  0  0  0  0  0  0  0  0
  143.7395  132.7491  153.3640 H   0  0  0  0  0  0  0  0  0  0  0  0
  146.4160  138.7398  156.9177 H   0  0  0  0  0  0  0  0  0  0  0  0
  148.4689  141.2923  155.6346 H   0  0  0  0  0  0  0  0  0  0  0  0
  150.0074  141.0968  154.8061 H   0  0  0  0  0  0  0  0  0  0  0  0
  148.7156  143.0744  154.4437 H   0  0  0  0  0  0  0  0  0  0  0  0
  145.3716  140.9350  153.3205 H   0  0  0  0  0  0  0  0  0  0  0  0
  147.5786  137.6067  151.9401 H   0  0  0  0  0  0  0  0  0  0  0  0
  143.0926  133.4875  155.2691 H   0  0  0  0  0  0  0  0  0  0  0  0
  1  2  1  0  0  0  0
  1 30  1  0  0  0  0
  1 31  1  0  0  0  0
  1 32  1  0  0  0  0
  2  3  1  0  0  0  0
  2  4  1  0  0  0  0
  2 33  1  0  0  0  0
  3 34  1  0  0  0  0
  3 35  1  0  0  0  0
  3 36  1  0  0  0  0
  4  5  2  0  0  0  0
  4  6  1  0  0  0  0
  6 37  1  0  0  0  0
  6  7  1  0  0  0  0
  7 25  1  0  0  0  0
  7  8  2  0  0  0  0
  8  9  1  0  0  0  0
  9 13  1  0  0  0  0
  9 10  2  0  0  0  0
 10 11  1  0  0  0  0
 10 23  1  0  0  0  0
 11 12  2  0  0  0  0
 12 13  1  0  0  0  0
 12 38  1  0  0  0  0
 13 14  1  0  0  0  0
 14 26  1  0  0  0  0
 14 21  1  0  0  0  0
 14 15  1  0  0  0  0
 15 16  1  0  0  0  0
 16 27  1  0  0  0  0
 16 17  1  0  0  0  0
 16 19  1  0  0  0  0
 17 18  1  0  0  0  0
 17 39  1  0  0  0  0
 17 40  1  0  0  0  0
 18 41  1  0  0  0  0
 19 28  1  0  0  0  0
 19 20  1  0  0  0  0
 19 21  1  0  0  0  0
 20 42  1  0  0  0  0
 21 29  1  0  0  0  0
 21 22  1  0  0  0  0
 22 43  1  0  0  0  0
 23 24  2  0  0  0  0
 23 25  1  0  0  0  0
 25 44  1  0  0  0  0
M  END
> <s_m_source_file>
AV-unprocessed.smi

> <i_m_source_file_index>
54

> <i_lp_mmshare_version>
43012

> <i_f3d_flags>
0

> <s_epik_input>
W0NIM11bQ0hdKFtDSDNdKUMoPU8pW05IXWMobjEpW25IXWMoPU8pYyhjMTIpbltjSF1uMltDQEBIXTNPW0NASF0oW0NIMl1bT0hdKVtDQEBIXShbT0hdKVtDQEhdM1tPSF0=

> <s_epik_cmdline>
J2VwaWtfcHl0aG9uJywgJy1waCcsICc3LjAnLCAnLXRuJywgJzgnLCAnLW1hJywgJzIwMCcsICctbWV0YWxfYmluZGluZycsICctaW1hZScsICc8aW5maWxlLm1hZT4nLCAnLW9tYWUnLCAnPG91dGZpbGUubWFlPic=

> <r_lp_tautomer_probability>
0.85571

> <r_epik_Ionization_Penalty>
0.0316551

> <r_epik_Ionization_Penalty_Charging>
0.0316043

> <r_epik_Ionization_Penalty_Neutral>
5.07097e-05

> <r_epik_State_Penalty>
3.15494e-07

> <r_epik_Charging_Adjusted_Penalty>
0.0316047

> <i_epik_Tot_Q>
0

> <i_epik_Tot_abs_Q>
0

> <r_epik_Metal_State_Penalty>
0.421206

> <b_epik_Metal_Only>
0

> <s_epik_Chemistry_Notes>
This compound contains an acetal/aminal-like group ( X-CH(R)-Y where X, Y are N, S, or O) that may be acid/base labile, releasing an aldehyde.

> <s_lp_Force_Field>
OPLS_2005

> <r_lp_Energy>
38.1022

> <b_lp_Chiralities_Consistent>
1

> <s_lp_Variant>
AV-unprocessed.smi:54-5

> <Gold.Version>
5.8.1

> <Gold.Id.Protein>
6NUR|6NUR_protein|mol2

> <Gold.PLP.Fitness>
45.3833

> <Gold.PLP.PLP>
-29.1688

> <Gold.PLP.part.hbond>
-7.0000

> <Gold.PLP.part.metal>
0.0000

> <Gold.PLP.part.buried>
-4.3819

> <Gold.PLP.part.nonpolar>
-18.3188

> <Gold.PLP.part.repulsive>
0.3406

> <Gold.PLP.ligand.clash>
0.0000

> <Gold.PLP.ligand.torsion>
0.7448

> <Gold.PLP.Chemscore.Hbond>
5.8891

> <Gold.PLP.Chemscore.CHOScore>
0.0000

> <Gold.PLP.Chemscore.Metal>
0.0000

> <Gold.Chemscore.Hbonds>
donor molecule, donor type, donor heavy atom, donor atom, acceptor molecule, acceptor atom, score
      L1  H     6    37       P1 10957  0.98
      L1  H    18    41       P1  8028  1.00
      L1  H    20    42       P1 10175  1.00
      L1  H    22    43       P1  7948  1.00
      L1  H    25    44       P1 10957  1.00
      P1  H  8011  8017       L1    18  0.26
      P1  H 11000 11005       L1    24  0.55

> <Gold.PLP.Chemscore.Internal.Correction>
0.0368

> <Gold.Rescore>
     Score         DG    S(hbond)    S(metal)    S(lipo)     H(rot)  DE(clash)    DE(int)     intcor
     16.32     -18.36       5.04        0.00      54.72       4.05       0.10       1.95       ----

> <Gold.Chemscore.Fitness>
16.3161

> <Gold.Chemscore.DG>
-18.3617

> <Gold.Chemscore.ZeroCoef>
-5.4800

> <Gold.Chemscore.Hbond>
5.0436

> <Gold.Chemscore.Metal>
0.0000

> <Gold.Chemscore.Lipo>
54.7203

> <Gold.Chemscore.Internal_Hbond>
0.0000

> <Gold.Chemscore.DEClash>
0.0998

> <Gold.Chemscore.DEInternal>
1.9457

> <Gold.Chemscore.Rot>
4.0493

> <Gold.Chemscore.Internal.Correction>
   9.000000E+99

> <Gold.Chemscore.Hbonds>
donor molecule, donor type, donor heavy atom, donor atom, acceptor molecule, acceptor atom, score
      L1  H     6    37       P1 10957  0.44
      L1  H    18    41       P1  8028  0.93
      L1  H    20    42       P1 10175  0.60
      L1  H    22    43       P1  7948  1.00
      L1  H    25    44       P1 10957  0.95
      P1  H  8011  8017       L1    18  0.15
      P1  H 11000 11005       L1    24  0.53

> <Gold.Chemscore.Hbond.Weighted>
-16.8456

> <Gold.Chemscore.Metal.Weighted>
-0.0000

> <Gold.Chemscore.Lipo.Weighted>
-6.4023

> <Gold.Chemscore.Internal_Hbond.Weighted>
0.0000

> <Gold.Chemscore.DEClash.Weighted>
0.0998

> <Gold.Chemscore.DEInternal.Weighted>
1.9457

> <Gold.Chemscore.Rot.Weighted>
10.3662

> <Gold.Chemscore.Internal.Correction.Weighted>
   9.000000E+99

> <Gold.Protein.RotatedTorsions>
[ 6907 6896 6895 6894 ] final  148.49 input  -60.11 | X-H torsion
[ 7974 7965 7964 7962 ] final   -9.39 input  175.53 | X-H torsion
[ 8008 7997 7996 7995 ] final   81.01 input   59.86 | X-H torsion
[ 10167 10162 10161 10158 ] final   -9.17 input  -65.29 | X-H torsion
[ 10718 10713 10712 10709 ] final -178.83 input   66.30 | X-H torsion
[ 10763 10752 10751 10750 ] final  131.11 input  -60.55 | X-H torsion
[ 11005 11000 10999 10996 ] final -105.07 input  -57.11 | X-H torsion

> <Gold.Protein.ActiveResidues>
 VAL166  LYS551  ARG553  GLY616  TRP617  ASP618  TYR619  PRO620  LYS621  CYS622 
 ASP623  PHE694  ASN695  SER759  ASP760  ASP761  ALA762  ILE779  LEU786  VAL792 
 PHE793  MET794  SER795  GLU796  ALA797  LYS798  CYS799  TRP800  GLU811  SER814 

> <Gold.Protein.RotatedAtoms>
  152.1407  133.4462  159.4765 H   0  0  0  0  0  0  0  0  0  0  0  0  # atno 6907 bound_to 6896
  150.6886  134.2308  159.4443 H   0  0  0  0  0  0  0  0  0  0  0  0  # atno 6908 bound_to 6896
  152.0199  134.9828  160.0621 H   0  0  0  0  0  0  0  0  0  0  0  0  # atno 6909 bound_to 6896
  146.2253  140.2609  142.8351 H   0  0  0  0  0  0  0  0  0  0  0  0  # atno 7974 bound_to 7965
  155.8913  140.3438  155.5958 H   0  0  0  0  0  0  0  0  0  0  0  0  # atno 8008 bound_to 7997
  155.7608  140.0832  157.2175 H   0  0  0  0  0  0  0  0  0  0  0  0  # atno 8009 bound_to 7997
  154.4033  140.1536  156.2817 H   0  0  0  0  0  0  0  0  0  0  0  0  # atno 8010 bound_to 7997
  140.7080  143.5887  150.8916 H   0  0  0  0  0  0  0  0  0  0  0  0  # atno 10167 bound_to 10162
  156.8501  130.9716  151.3093 H   0  0  0  0  0  0  0  0  0  0  0  0  # atno 10718 bound_to 10713
  153.7690  135.3185  155.3349 H   0  0  0  0  0  0  0  0  0  0  0  0  # atno 10763 bound_to 10752
  154.8203  135.4608  154.0763 H   0  0  0  0  0  0  0  0  0  0  0  0  # atno 10764 bound_to 10752
  153.2017  135.6923  153.8308 H   0  0  0  0  0  0  0  0  0  0  0  0  # atno 10765 bound_to 10752
  141.1071  133.8776  157.1688 H   0  0  0  0  0  0  0  0  0  0  0  0  # atno 11005 bound_to 11000
  144.9340  140.8006  143.5671 LP  0  0  0  0  0  0  0  0  0  0  0  0  # atno 17320 bound_to 7965
  145.2555  139.2014  143.4919 LP  0  0  0  0  0  0  0  0  0  0  0  0  # atno 17321 bound_to 7965
  139.9613  143.6160  152.3001 LP  0  0  0  0  0  0  0  0  0  0  0  0  # atno 17342 bound_to 10162
  139.6714  144.7660  151.1776 LP  0  0  0  0  0  0  0  0  0  0  0  0  # atno 17343 bound_to 10162
  157.6308  130.8728  149.9270 LP  0  0  0  0  0  0  0  0  0  0  0  0  # atno 17370 bound_to 10713
  156.0833  130.3671  150.0538 LP  0  0  0  0  0  0  0  0  0  0  0  0  # atno 17371 bound_to 10713
  139.9946  135.0051  157.0053 LP  0  0  0  0  0  0  0  0  0  0  0  0  # atno 17394 bound_to 11000
  140.4874  134.1228  155.7227 LP  0  0  0  0  0  0  0  0  0  0  0  0  # atno 17395 bound_to 11000

$$$$
