AV-unprocessed.smi:2762|AV-procd|sdf|10636|dock3
  -GOLD-   2272015 83D 1   1.00000     0.00000
 Structure written by MMmdl.
 39 40  0  0  0  0  0  0  0  0  1 V2000
  150.1734  134.5713  155.8315 O   0  0  0  0  0  0  0  0  0  0  0  0
  149.8690  135.1210  154.7725 C   0  0  0  0  0  0  0  0  0  0  0  0
  150.2902  136.3459  154.4250 N   0  0  0  0  0  0  0  0  0  0  0  0
  151.1966  137.1806  155.2077 C   0  0  0  0  0  0  0  0  0  0  0  0
  151.8002  138.3146  154.3555 C   0  0  0  0  0  0  0  0  0  0  0  0
  151.1913  139.6326  154.5354 N   0  0  0  0  0  0  0  0  0  0  0  0
  151.4589  140.2020  155.8545 C   0  0  0  0  0  0  0  0  0  0  0  0
  150.8036  141.5835  156.0227 C   0  0  0  0  0  0  0  0  0  0  0  0
  149.4025  141.4799  155.7900 O   0  0  0  0  0  0  0  0  0  0  0  0
  149.0980  140.9659  154.4975 C   0  0  0  0  0  0  0  0  0  0  0  0
  149.7490  139.5825  154.3265 C   0  0  0  0  0  0  0  0  0  0  0  0
  149.0846  134.5886  153.8189 N   0  0  0  0  0  0  0  0  0  0  0  0
  148.5024  133.2935  153.7838 C   0  0  0  0  0  0  0  0  0  0  0  0
  149.3147  132.2588  154.2997 C   0  0  0  0  0  0  0  0  0  0  0  0
  148.8290  130.9329  154.3203 C   0  0  0  0  0  0  0  0  0  0  0  0
  149.6714  129.7877  154.8601 C   0  0  0  0  0  0  0  0  0  0  0  0
  149.1150  129.2909  155.9653 F   0  0  0  0  0  0  0  0  0  0  0  0
  149.7407  128.8233  153.9432 F   0  0  0  0  0  0  0  0  0  0  0  0
  150.9090  130.1862  155.1566 F   0  0  0  0  0  0  0  0  0  0  0  0
  147.5383  130.6868  153.8112 C   0  0  0  0  0  0  0  0  0  0  0  0
  146.7959  131.7737  153.3158 C   0  0  0  0  0  0  0  0  0  0  0  0
  147.2605  133.0397  153.3023 N   0  0  0  0  0  0  0  0  0  0  0  0
  149.9860  136.7184  153.5377 H   0  0  0  0  0  0  0  0  0  0  0  0
  150.6109  137.6216  156.0143 H   0  0  0  0  0  0  0  0  0  0  0  0
  151.9667  136.5838  155.6975 H   0  0  0  0  0  0  0  0  0  0  0  0
  152.8629  138.3773  154.5937 H   0  0  0  0  0  0  0  0  0  0  0  0
  151.7506  138.0351  153.3021 H   0  0  0  0  0  0  0  0  0  0  0  0
  151.0889  139.5299  156.6301 H   0  0  0  0  0  0  0  0  0  0  0  0
  152.5309  140.3036  156.0165 H   0  0  0  0  0  0  0  0  0  0  0  0
  150.9713  141.9629  157.0307 H   0  0  0  0  0  0  0  0  0  0  0  0
  151.2426  142.3046  155.3315 H   0  0  0  0  0  0  0  0  0  0  0  0
  148.0160  140.8925  154.3884 H   0  0  0  0  0  0  0  0  0  0  0  0
  149.4522  141.6568  153.7309 H   0  0  0  0  0  0  0  0  0  0  0  0
  149.5326  139.2051  153.3266 H   0  0  0  0  0  0  0  0  0  0  0  0
  149.2969  138.8811  155.0295 H   0  0  0  0  0  0  0  0  0  0  0  0
  148.9047  135.1675  153.0122 H   0  0  0  0  0  0  0  0  0  0  0  0
  150.3026  132.4828  154.6753 H   0  0  0  0  0  0  0  0  0  0  0  0
  147.1258  129.6888  153.7995 H   0  0  0  0  0  0  0  0  0  0  0  0
  145.8027  131.6230  152.9194 H   0  0  0  0  0  0  0  0  0  0  0  0
  1  2  2  0  0  0  0
  2  3  1  0  0  0  0
  2 12  1  0  0  0  0
  3  4  1  0  0  0  0
  3 23  1  0  0  0  0
  4  5  1  0  0  0  0
  4 24  1  0  0  0  0
  4 25  1  0  0  0  0
  5  6  1  0  0  0  0
  5 26  1  0  0  0  0
  5 27  1  0  0  0  0
  6 11  1  0  0  0  0
  6  7  1  0  0  0  0
  7  8  1  0  0  0  0
  7 28  1  0  0  0  0
  7 29  1  0  0  0  0
  8  9  1  0  0  0  0
  8 30  1  0  0  0  0
  8 31  1  0  0  0  0
  9 10  1  0  0  0  0
 10 11  1  0  0  0  0
 10 32  1  0  0  0  0
 10 33  1  0  0  0  0
 11 34  1  0  0  0  0
 11 35  1  0  0  0  0
 12 13  1  0  0  0  0
 12 36  1  0  0  0  0
 13 22  1  0  0  0  0
 13 14  2  0  0  0  0
 14 15  1  0  0  0  0
 14 37  1  0  0  0  0
 15 16  1  0  0  0  0
 15 20  2  0  0  0  0
 16 17  1  0  0  0  0
 16 18  1  0  0  0  0
 16 19  1  0  0  0  0
 20 21  1  0  0  0  0
 20 38  1  0  0  0  0
 21 22  2  0  0  0  0
 21 39  1  0  0  0  0
M  END
> <s_m_source_file>
AV-unprocessed.smi

> <i_m_source_file_index>
2762

> <i_lp_mmshare_version>
43012

> <i_f3d_flags>
0

> <s_epik_input>
bjFbY0hdW2NIXWMoQyhGKShGKUYpW2NIXWMxW05IXUMoPU8pW05IXVtDSDJdW0NIMl1OMltDSDJdW0NIMl1PW0NIMl1bQ0gyXTI=

> <s_epik_cmdline>
J2VwaWtfcHl0aG9uJywgJy1waCcsICc3LjAnLCAnLXRuJywgJzgnLCAnLW1hJywgJzIwMCcsICctbWV0YWxfYmluZGluZycsICctaW1hZScsICc8aW5maWxlLm1hZT4nLCAnLW9tYWUnLCAnPG91dGZpbGUubWFlPic=

> <r_epik_Ionization_Penalty>
0.266026

> <r_epik_Ionization_Penalty_Charging>
0

> <r_epik_Ionization_Penalty_Neutral>
0.266026

> <r_epik_State_Penalty>
0.257924

> <r_epik_Charging_Adjusted_Penalty>
0.257924

> <i_epik_Tot_Q>
0

> <i_epik_Tot_abs_Q>
0

> <r_epik_Metal_State_Penalty>
0.257924

> <b_epik_Metal_Only>
0

> <s_lp_Force_Field>
OPLS_2005

> <r_lp_Energy>
26.9092

> <b_lp_Chiralities_Consistent>
1

> <s_lp_Variant>
AV-unprocessed.smi:2762-1

> <Gold.Version>
5.8.1

> <Gold.Id.Protein>
6NUR|6NUR_protein|mol2

> <Gold.PLP.Fitness>
45.8565

> <Gold.PLP.PLP>
-38.8272

> <Gold.PLP.part.hbond>
-3.7903

> <Gold.PLP.part.metal>
0.0000

> <Gold.PLP.part.buried>
-3.1114

> <Gold.PLP.part.nonpolar>
-32.2114

> <Gold.PLP.part.repulsive>
0.4104

> <Gold.PLP.ligand.clash>
0.0000

> <Gold.PLP.ligand.torsion>
0.8408

> <Gold.PLP.Chemscore.Hbond>
2.8480

> <Gold.PLP.Chemscore.CHOScore>
0.0000

> <Gold.PLP.Chemscore.Metal>
0.0000

> <Gold.Chemscore.Hbonds>
donor molecule, donor type, donor heavy atom, donor atom, acceptor molecule, acceptor atom, score
      L1  H     3    23       P1  7948  0.81
      L1  H    12    36       P1  7948  0.99
      P1  H  7989  7998       L1     6  1.00

> <Gold.PLP.Chemscore.Internal.Correction>
0.1669

> <Gold.Rescore>
     Score         DG    S(hbond)    S(metal)    S(lipo)     H(rot)  DE(clash)    DE(int)     intcor
     12.00     -14.00       1.60        0.00      62.59       1.63       0.05       1.95       ----

> <Gold.Chemscore.Fitness>
12.0024

> <Gold.Chemscore.DG>
-13.9999

> <Gold.Chemscore.ZeroCoef>
-5.4800

> <Gold.Chemscore.Hbond>
1.6049

> <Gold.Chemscore.Metal>
0.0000

> <Gold.Chemscore.Lipo>
62.5928

> <Gold.Chemscore.Internal_Hbond>
0.0000

> <Gold.Chemscore.DEClash>
0.0485

> <Gold.Chemscore.DEInternal>
1.9489

> <Gold.Chemscore.Rot>
1.6265

> <Gold.Chemscore.Internal.Correction>
   9.000000E+99

> <Gold.Chemscore.Hbonds>
donor molecule, donor type, donor heavy atom, donor atom, acceptor molecule, acceptor atom, score
      L1  H     3    23       P1  7948  0.18
      L1  H    12    36       P1  7948  0.28
      P1  H  7989  7998       L1     6  0.13

> <Gold.Chemscore.Hbond.Weighted>
-5.3603

> <Gold.Chemscore.Metal.Weighted>
-0.0000

> <Gold.Chemscore.Lipo.Weighted>
-7.3234

> <Gold.Chemscore.Internal_Hbond.Weighted>
0.0000

> <Gold.Chemscore.DEClash.Weighted>
0.0485

> <Gold.Chemscore.DEInternal.Weighted>
1.9489

> <Gold.Chemscore.Rot.Weighted>
4.1638

> <Gold.Chemscore.Internal.Correction.Weighted>
   9.000000E+99

> <Gold.Protein.RotatedTorsions>
[ 6907 6896 6895 6894 ] final  150.03 input  -60.11 | X-H torsion
[ 7974 7965 7964 7962 ] final  -70.48 input  175.53 | X-H torsion
[ 8008 7997 7996 7995 ] final  -96.39 input   59.86 | X-H torsion
[ 10167 10162 10161 10158 ] final -101.02 input  -65.29 | X-H torsion
[ 10718 10713 10712 10709 ] final  -94.35 input   66.30 | X-H torsion
[ 10763 10752 10751 10750 ] final  112.71 input  -60.55 | X-H torsion
[ 11005 11000 10999 10996 ] final   -3.05 input  -57.11 | X-H torsion

> <Gold.Protein.ActiveResidues>
 VAL166  LYS551  ARG553  GLY616  TRP617  ASP618  TYR619  PRO620  LYS621  CYS622 
 ASP623  PHE694  ASN695  SER759  ASP760  ASP761  ALA762  ILE779  LEU786  VAL792 
 PHE793  MET794  SER795  GLU796  ALA797  LYS798  CYS799  TRP800  GLU811  SER814 

> <Gold.Protein.RotatedAtoms>
  152.1200  133.4348  159.4670 H   0  0  0  0  0  0  0  0  0  0  0  0  # atno 6907 bound_to 6896
  150.6871  134.2547  159.4534 H   0  0  0  0  0  0  0  0  0  0  0  0  # atno 6908 bound_to 6896
  152.0422  134.9704  160.0624 H   0  0  0  0  0  0  0  0  0  0  0  0  # atno 6909 bound_to 6896
  145.6904  140.9155  143.0785 H   0  0  0  0  0  0  0  0  0  0  0  0  # atno 7974 bound_to 7965
  154.7738  140.0472  157.1073 H   0  0  0  0  0  0  0  0  0  0  0  0  # atno 8008 bound_to 7997
  154.9788  140.3099  155.4936 H   0  0  0  0  0  0  0  0  0  0  0  0  # atno 8009 bound_to 7997
  156.2925  140.2240  156.4885 H   0  0  0  0  0  0  0  0  0  0  0  0  # atno 8010 bound_to 7997
  140.2457  143.3507  152.0761 H   0  0  0  0  0  0  0  0  0  0  0  0  # atno 10167 bound_to 10162
  156.0026  130.5064  150.5913 H   0  0  0  0  0  0  0  0  0  0  0  0  # atno 10718 bound_to 10713
  153.4818  135.3678  155.2446 H   0  0  0  0  0  0  0  0  0  0  0  0  # atno 10763 bound_to 10752
  154.8755  135.3956  154.3691 H   0  0  0  0  0  0  0  0  0  0  0  0  # atno 10764 bound_to 10752
  153.4296  135.7082  153.6304 H   0  0  0  0  0  0  0  0  0  0  0  0  # atno 10765 bound_to 10752
  140.6651  133.9286  155.8460 H   0  0  0  0  0  0  0  0  0  0  0  0  # atno 11005 bound_to 11000
  144.6998  139.8814  143.7447 LP  0  0  0  0  0  0  0  0  0  0  0  0  # atno 17320 bound_to 7965
  146.0887  139.3876  143.0419 LP  0  0  0  0  0  0  0  0  0  0  0  0  # atno 17321 bound_to 7965
  139.5062  144.6810  151.6009 LP  0  0  0  0  0  0  0  0  0  0  0  0  # atno 17342 bound_to 10162
  140.6079  143.9490  150.6432 LP  0  0  0  0  0  0  0  0  0  0  0  0  # atno 17343 bound_to 10162
  157.3777  131.0776  151.1503 LP  0  0  0  0  0  0  0  0  0  0  0  0  # atno 17370 bound_to 10713
  157.2236  130.6493  149.5821 LP  0  0  0  0  0  0  0  0  0  0  0  0  # atno 17371 bound_to 10713
  141.0435  134.0587  157.3872 LP  0  0  0  0  0  0  0  0  0  0  0  0  # atno 17394 bound_to 11000
  139.9000  135.0161  156.7221 LP  0  0  0  0  0  0  0  0  0  0  0  0  # atno 17395 bound_to 11000

$$$$
