AV-unprocessed.smi:72|AV-procd|sdf|703|dock1
  -GOLD-   2262017 23D 1   1.00000     0.00000
 Structure written by MMmdl.
 30 31  0  0  0  0  0  0  0  0  2 V2000
  149.5966  144.8654  159.4174 N   0  0  0  0  0  0  0  0  0  0  0  0
  150.2931  143.7505  158.9990 C   0  0  0  0  0  0  0  0  0  0  0  0
  150.0050  143.2455  157.7445 N   0  3  0  0  0  0  0  0  0  0  0  0
  150.5753  142.1606  157.2039 C   0  0  0  0  0  0  0  0  0  0  0  0
  151.4494  141.4733  157.9099 N   0  0  0  0  0  0  0  0  0  0  0  0
  152.1226  140.2700  157.2966 C   0  0  2  0  0  0  0  0  0  0  0  0
  151.6875  140.1945  155.9775 O   0  0  0  0  0  0  0  0  0  0  0  0
  151.4954  138.8310  155.6275 C   0  0  2  0  0  0  0  0  0  0  0  0
  150.5136  138.7237  154.4502 C   0  0  0  0  0  0  0  0  0  0  0  0
  150.2610  140.0050  153.9153 O   0  0  0  0  0  0  0  0  0  0  0  0
  150.9670  138.2130  156.9270 C   0  0  1  0  0  0  0  0  0  0  0  0
  151.2377  136.8262  156.9585 O   0  0  0  0  0  0  0  0  0  0  0  0
  151.7648  138.9438  158.0007 C   0  0  2  0  0  0  0  0  0  0  0  0
  151.0212  139.0905  159.1976 O   0  0  0  0  0  0  0  0  0  0  0  0
  151.8759  141.9668  159.1708 C   0  0  0  0  0  0  0  0  0  0  0  0
  152.7665  141.4018  159.8035 O   0  0  0  0  0  0  0  0  0  0  0  0
  151.2197  143.1084  159.6548 N   0  0  0  0  0  0  0  0  0  0  0  0
  153.1989  140.4385  157.3188 H   0  0  0  0  0  0  0  0  0  0  0  0
  152.4634  138.3909  155.3768 H   0  0  0  0  0  0  0  0  0  0  0  0
  149.8970  138.3997  157.0327 H   0  0  0  0  0  0  0  0  0  0  0  0
  152.6985  138.4204  158.2139 H   0  0  0  0  0  0  0  0  0  0  0  0
  149.7478  145.3078  160.3133 H   0  0  0  0  0  0  0  0  0  0  0  0
  148.8837  145.3248  158.8690 H   0  0  0  0  0  0  0  0  0  0  0  0
  150.3263  141.8738  156.1901 H   0  0  0  0  0  0  0  0  0  0  0  0
  150.9469  138.1179  153.6538 H   0  0  0  0  0  0  0  0  0  0  0  0
  149.5814  138.2451  154.7514 H   0  0  0  0  0  0  0  0  0  0  0  0
  149.8140  139.9042  153.0885 H   0  0  0  0  0  0  0  0  0  0  0  0
  151.2621  136.5026  156.0709 H   0  0  0  0  0  0  0  0  0  0  0  0
  151.4483  139.7356  159.7411 H   0  0  0  0  0  0  0  0  0  0  0  0
  149.3164  143.7384  157.1941 H   0  0  0  0  0  0  0  0  0  0  0  0
  1  2  1  0  0  0  0
  1 22  1  0  0  0  0
  1 23  1  0  0  0  0
  2 17  2  0  0  0  0
  2  3  1  0  0  0  0
  3  4  2  0  0  0  0
  3 30  1  0  0  0  0
  4  5  1  0  0  0  0
  4 24  1  0  0  0  0
  5  6  1  0  0  0  0
  5 15  1  0  0  0  0
  6 18  1  0  0  0  0
  6 13  1  0  0  0  0
  6  7  1  0  0  0  0
  7  8  1  0  0  0  0
  8 19  1  0  0  0  0
  8  9  1  0  0  0  0
  8 11  1  0  0  0  0
  9 10  1  0  0  0  0
  9 25  1  0  0  0  0
  9 26  1  0  0  0  0
 10 27  1  0  0  0  0
 11 20  1  0  0  0  0
 11 12  1  0  0  0  0
 11 13  1  0  0  0  0
 12 28  1  0  0  0  0
 13 21  1  0  0  0  0
 13 14  1  0  0  0  0
 14 29  1  0  0  0  0
 15 16  2  0  0  0  0
 15 17  1  0  0  0  0
M  CHG  1   3   1
M  END
> <s_m_source_file>
AV-unprocessed.smi

> <i_m_source_file_index>
72

> <i_lp_mmshare_version>
43012

> <i_f3d_flags>
0

> <s_epik_input>
W05IMl1jMW5bY0hdbihjKD1PKW4xKVtDQEBIXTJPW0NASF0oW0NIMl1bT0hdKVtDQEBIXShbT0hdKVtDQEhdMltPSF0=

> <s_epik_cmdline>
J2VwaWtfcHl0aG9uJywgJy1waCcsICc3LjAnLCAnLXRuJywgJzgnLCAnLW1hJywgJzIwMCcsICctbWV0YWxfYmluZGluZycsICctaW1hZScsICc8aW5maWxlLm1hZT4nLCAnLW9tYWUnLCAnPG91dGZpbGUubWFlPic=

> <r_lp_tautomer_probability>
4.77166e-05

> <r_epik_Ionization_Penalty>
0.104979

> <r_epik_Ionization_Penalty_Charging>
0.0999619

> <r_epik_Ionization_Penalty_Neutral>
0.00501745

> <r_epik_State_Penalty>
2.51541

> <r_epik_Charging_Adjusted_Penalty>
2.61537

> <i_epik_Tot_Q>
1

> <i_epik_Tot_abs_Q>
1

> <r_epik_Metal_State_Penalty>
3.53763

> <b_epik_Metal_Only>
0

> <s_epik_Chemistry_Notes>
This compound contains an acetal/aminal-like group ( X-CH(R)-Y where X, Y are N, S, or O) that may be acid/base labile, releasing an aldehyde.

> <s_lp_Force_Field>
OPLS_2005

> <r_lp_Energy>
34.5598

> <b_lp_Chiralities_Consistent>
1

> <s_lp_Variant>
AV-unprocessed.smi:72-41

> <Gold.Version>
5.8.1

> <Gold.Id.Protein>
6NUR|6NUR_protein|mol2

> <Gold.PLP.Fitness>
36.5847

> <Gold.PLP.PLP>
-23.3234

> <Gold.PLP.part.hbond>
-4.5587

> <Gold.PLP.part.metal>
0.0000

> <Gold.PLP.part.buried>
-5.1319

> <Gold.PLP.part.nonpolar>
-14.1704

> <Gold.PLP.part.repulsive>
0.2498

> <Gold.PLP.ligand.clash>
0.0000

> <Gold.PLP.ligand.torsion>
0.8730

> <Gold.PLP.Chemscore.Hbond>
4.9600

> <Gold.PLP.Chemscore.CHOScore>
0.0000

> <Gold.PLP.Chemscore.Metal>
0.0000

> <Gold.Chemscore.Hbonds>
donor molecule, donor type, donor heavy atom, donor atom, acceptor molecule, acceptor atom, score
      L1  H     1    23       P1  8029  1.00
      L1  H     3    30       P1  8028  1.98
      L1  H    10    27       P1  7957  1.00
      P1  H  7989  7998       L1    10  0.94

> <Gold.PLP.Chemscore.Internal.Correction>
0.1273

> <Gold.Rescore>
     Score         DG    S(hbond)    S(metal)    S(lipo)     H(rot)  DE(clash)    DE(int)     intcor
      7.45      -8.52       3.34        0.00      19.98       4.08       0.06       1.00       ----

> <Gold.Chemscore.Fitness>
7.4538

> <Gold.Chemscore.DG>
-8.5168

> <Gold.Chemscore.ZeroCoef>
-5.4800

> <Gold.Chemscore.Hbond>
3.3351

> <Gold.Chemscore.Metal>
0.0000

> <Gold.Chemscore.Lipo>
19.9817

> <Gold.Chemscore.Internal_Hbond>
0.0000

> <Gold.Chemscore.DEClash>
0.0619

> <Gold.Chemscore.DEInternal>
1.0010

> <Gold.Chemscore.Rot>
4.0783

> <Gold.Chemscore.Internal.Correction>
   9.000000E+99

> <Gold.Chemscore.Hbonds>
donor molecule, donor type, donor heavy atom, donor atom, acceptor molecule, acceptor atom, score
      L1  H     1    23       P1  8029  0.97
      L1  H     3    30       P1  8028  0.52
      L1  H    10    27       P1  7957  0.97
      P1  H  7989  7998       L1    10  0.29

> <Gold.Chemscore.Hbond.Weighted>
-11.1393

> <Gold.Chemscore.Metal.Weighted>
-0.0000

> <Gold.Chemscore.Lipo.Weighted>
-2.3379

> <Gold.Chemscore.Internal_Hbond.Weighted>
0.0000

> <Gold.Chemscore.DEClash.Weighted>
0.0619

> <Gold.Chemscore.DEInternal.Weighted>
1.0010

> <Gold.Chemscore.Rot.Weighted>
10.4404

> <Gold.Chemscore.Internal.Correction.Weighted>
   9.000000E+99

> <Gold.Protein.RotatedTorsions>
[ 6907 6896 6895 6894 ] final  139.76 input  -60.11 | X-H torsion
[ 7974 7965 7964 7962 ] final  144.90 input  175.53 | X-H torsion
[ 8008 7997 7996 7995 ] final   78.84 input   59.86 | X-H torsion
[ 10167 10162 10161 10158 ] final -152.61 input  -65.29 | X-H torsion
[ 10718 10713 10712 10709 ] final  -36.67 input   66.30 | X-H torsion
[ 10763 10752 10751 10750 ] final  -52.30 input  -60.55 | X-H torsion
[ 11005 11000 10999 10996 ] final   13.63 input  -57.11 | X-H torsion

> <Gold.Protein.ActiveResidues>
 VAL166  LYS551  ARG553  GLY616  TRP617  ASP618  TYR619  PRO620  LYS621  CYS622 
 ASP623  PHE694  ASN695  SER759  ASP760  ASP761  ALA762  ILE779  LEU786  VAL792 
 PHE793  MET794  SER795  GLU796  ALA797  LYS798  CYS799  TRP800  GLU811  SER814 

> <Gold.Protein.RotatedAtoms>
  152.2510  133.5215  159.5325 H   0  0  0  0  0  0  0  0  0  0  0  0  # atno 6907 bound_to 6896
  150.7094  134.0959  159.3957 H   0  0  0  0  0  0  0  0  0  0  0  0  # atno 6908 bound_to 6896
  151.8879  135.0428  160.0546 H   0  0  0  0  0  0  0  0  0  0  0  0  # atno 6909 bound_to 6896
  144.8797  139.5718  143.5848 H   0  0  0  0  0  0  0  0  0  0  0  0  # atno 7974 bound_to 7965
  155.8614  140.3453  155.5759 H   0  0  0  0  0  0  0  0  0  0  0  0  # atno 8008 bound_to 7997
  155.7929  140.0874  157.2018 H   0  0  0  0  0  0  0  0  0  0  0  0  # atno 8009 bound_to 7997
  154.4012  140.1479  156.3172 H   0  0  0  0  0  0  0  0  0  0  0  0  # atno 8010 bound_to 7997
  139.7167  143.9022  152.2488 H   0  0  0  0  0  0  0  0  0  0  0  0  # atno 10167 bound_to 10162
  156.3242  130.4270  149.7932 H   0  0  0  0  0  0  0  0  0  0  0  0  # atno 10718 bound_to 10713
  154.1405  135.6506  153.4941 H   0  0  0  0  0  0  0  0  0  0  0  0  # atno 10763 bound_to 10752
  153.0167  135.5314  154.6910 H   0  0  0  0  0  0  0  0  0  0  0  0  # atno 10764 bound_to 10752
  154.6170  135.2960  155.0340 H   0  0  0  0  0  0  0  0  0  0  0  0  # atno 10765 bound_to 10752
  140.4785  134.0959  155.7746 H   0  0  0  0  0  0  0  0  0  0  0  0  # atno 11005 bound_to 11000
  146.2986  139.7355  142.9108 LP  0  0  0  0  0  0  0  0  0  0  0  0  # atno 17320 bound_to 7965
  145.3977  141.0381  143.3088 LP  0  0  0  0  0  0  0  0  0  0  0  0  # atno 17321 bound_to 7965
  139.8906  144.6967  150.8774 LP  0  0  0  0  0  0  0  0  0  0  0  0  # atno 17342 bound_to 10162
  140.7745  143.3589  151.1866 LP  0  0  0  0  0  0  0  0  0  0  0  0  # atno 17343 bound_to 10162
  156.5229  130.8223  151.3210 LP  0  0  0  0  0  0  0  0  0  0  0  0  # atno 17370 bound_to 10713
  157.7418  130.9877  150.2469 LP  0  0  0  0  0  0  0  0  0  0  0  0  # atno 17371 bound_to 10713
  141.1542  133.8912  157.2019 LP  0  0  0  0  0  0  0  0  0  0  0  0  # atno 17394 bound_to 11000
  139.9841  135.0088  156.9820 LP  0  0  0  0  0  0  0  0  0  0  0  0  # atno 17395 bound_to 11000

$$$$
