AV-unprocessed.smi:2842|AV-procd|sdf|10936|dock1
  -GOLD-   2272015383D 1   1.00000     0.00000
 Structure written by MMmdl.
 35 37  0  0  0  0  0  0  0  0  1 V2000
  151.6627  136.5221  155.9569 O   0  0  0  0  0  0  0  0  0  0  0  0
  150.9463  136.9317  155.0423 C   0  0  0  0  0  0  0  0  0  0  0  0
  151.2438  138.2734  154.3555 C   0  0  0  0  0  0  0  0  0  0  0  0
  151.2170  139.4205  155.2818 N   0  0  0  0  0  0  0  0  0  0  0  0
  152.1936  139.4378  156.2973 C   0  0  0  0  0  0  0  0  0  0  0  0
  152.2598  140.3984  157.1634 N   0  0  0  0  0  0  0  0  0  0  0  0
  151.3398  141.4518  157.1063 C   0  0  0  0  0  0  0  0  0  0  0  0
  151.4402  142.5411  158.1651 C   0  0  0  0  0  0  0  0  0  0  0  0
  151.7004  143.9698  157.6578 C   0  0  0  0  0  0  0  0  0  0  0  0
  152.6204  144.1605  158.8689 C   0  0  0  0  0  0  0  0  0  0  0  0
  152.7896  142.6372  158.8951 C   0  0  0  0  0  0  0  0  0  0  0  0
  150.3777  141.4753  156.1537 C   0  0  0  0  0  0  0  0  0  0  0  0
  150.2839  140.4099  155.1562 C   0  0  0  0  0  0  0  0  0  0  0  0
  149.4287  140.4039  154.2704 O   0  0  0  0  0  0  0  0  0  0  0  0
  149.8903  136.2529  154.5713 N   0  0  0  0  0  0  0  0  0  0  0  0
  149.4289  134.9938  155.0596 C   0  0  0  0  0  0  0  0  0  0  0  0
  150.4268  133.8584  155.1335 C   0  0  0  0  0  0  0  0  0  0  0  0
  149.3568  133.8453  154.0768 C   0  0  0  0  0  0  0  0  0  0  0  0
  152.2073  138.1865  153.8498 H   0  0  0  0  0  0  0  0  0  0  0  0
  150.5200  138.4378  153.5547 H   0  0  0  0  0  0  0  0  0  0  0  0
  152.8810  138.5904  156.3031 H   0  0  0  0  0  0  0  0  0  0  0  0
  150.6026  142.5039  158.8641 H   0  0  0  0  0  0  0  0  0  0  0  0
  152.2475  144.0086  156.7140 H   0  0  0  0  0  0  0  0  0  0  0  0
  150.8228  144.6166  157.6438 H   0  0  0  0  0  0  0  0  0  0  0  0
  153.5339  144.7202  158.6663 H   0  0  0  0  0  0  0  0  0  0  0  0
  152.0947  144.5436  159.7451 H   0  0  0  0  0  0  0  0  0  0  0  0
  152.8035  142.1949  159.8915 H   0  0  0  0  0  0  0  0  0  0  0  0
  153.6346  142.3007  158.2910 H   0  0  0  0  0  0  0  0  0  0  0  0
  149.6665  142.2878  156.1226 H   0  0  0  0  0  0  0  0  0  0  0  0
  149.3653  136.6652  153.8137 H   0  0  0  0  0  0  0  0  0  0  0  0
  148.6629  135.0074  155.8338 H   0  0  0  0  0  0  0  0  0  0  0  0
  151.4477  134.0550  154.8118 H   0  0  0  0  0  0  0  0  0  0  0  0
  150.3264  133.1558  155.9583 H   0  0  0  0  0  0  0  0  0  0  0  0
  148.5405  133.1355  154.1959 H   0  0  0  0  0  0  0  0  0  0  0  0
  149.6628  134.0340  153.0494 H   0  0  0  0  0  0  0  0  0  0  0  0
  1  2  2  0  0  0  0
  2  3  1  0  0  0  0
  2 15  1  0  0  0  0
  3  4  1  0  0  0  0
  3 19  1  0  0  0  0
  3 20  1  0  0  0  0
  4 13  1  0  0  0  0
  4  5  1  0  0  0  0
  5  6  2  0  0  0  0
  5 21  1  0  0  0  0
  6  7  1  0  0  0  0
  7  8  1  0  0  0  0
  7 12  2  0  0  0  0
  8 11  1  0  0  0  0
  8  9  1  0  0  0  0
  8 22  1  0  0  0  0
  9 10  1  0  0  0  0
  9 23  1  0  0  0  0
  9 24  1  0  0  0  0
 10 11  1  0  0  0  0
 10 25  1  0  0  0  0
 10 26  1  0  0  0  0
 11 27  1  0  0  0  0
 11 28  1  0  0  0  0
 12 13  1  0  0  0  0
 12 29  1  0  0  0  0
 13 14  2  0  0  0  0
 15 16  1  0  0  0  0
 15 30  1  0  0  0  0
 16 18  1  0  0  0  0
 16 17  1  0  0  0  0
 16 31  1  0  0  0  0
 17 18  1  0  0  0  0
 17 32  1  0  0  0  0
 17 33  1  0  0  0  0
 18 34  1  0  0  0  0
 18 35  1  0  0  0  0
M  END
> <s_m_source_file>
AV-unprocessed.smi

> <i_m_source_file_index>
2842

> <i_lp_mmshare_version>
43012

> <i_f3d_flags>
0

> <s_epik_input>
W0NIMl0xW0NIMl1bQ0hdMVtOSF1DKD1PKVtDSDJdbjJbY0hdbmMoW2NIXWMyPU8pW0NIXTNbQ0gyXVtDSDJdW0NIMl0z

> <s_epik_cmdline>
J2VwaWtfcHl0aG9uJywgJy1waCcsICc3LjAnLCAnLXRuJywgJzgnLCAnLW1hJywgJzIwMCcsICctbWV0YWxfYmluZGluZycsICctaW1hZScsICc8aW5maWxlLm1hZT4nLCAnLW9tYWUnLCAnPG91dGZpbGUubWFlPic=

> <r_lp_tautomer_probability>
1

> <r_epik_Ionization_Penalty>
7.30946e-06

> <r_epik_Ionization_Penalty_Charging>
8.23701e-09

> <r_epik_Ionization_Penalty_Neutral>
7.30122e-06

> <r_epik_State_Penalty>
-0

> <r_epik_Charging_Adjusted_Penalty>
8.23701e-09

> <i_epik_Tot_Q>
0

> <i_epik_Tot_abs_Q>
0

> <r_epik_Metal_State_Penalty>
-0

> <b_epik_Metal_Only>
0

> <s_lp_Force_Field>
OPLS_2005

> <r_lp_Energy>
30.4853

> <b_lp_Chiralities_Consistent>
1

> <s_lp_Variant>
AV-unprocessed.smi:2842-1

> <Gold.Version>
5.8.1

> <Gold.Id.Protein>
6NUR|6NUR_protein|mol2

> <Gold.PLP.Fitness>
44.3437

> <Gold.PLP.PLP>
-39.9794

> <Gold.PLP.part.hbond>
-3.2566

> <Gold.PLP.part.metal>
0.0000

> <Gold.PLP.part.buried>
-2.8610

> <Gold.PLP.part.nonpolar>
-34.0709

> <Gold.PLP.part.repulsive>
0.1989

> <Gold.PLP.ligand.clash>
0.0000

> <Gold.PLP.ligand.torsion>
0.3033

> <Gold.PLP.Chemscore.Hbond>
1.5200

> <Gold.PLP.Chemscore.CHOScore>
0.0000

> <Gold.PLP.Chemscore.Metal>
0.0000

> <Gold.Chemscore.Hbonds>
donor molecule, donor type, donor heavy atom, donor atom, acceptor molecule, acceptor atom, score
      L1  H    15    30       P1  7948  0.74
      P1  H 10752 10765       L1     1  0.75

> <Gold.PLP.Chemscore.Internal.Correction>
0.4108

> <Gold.Rescore>
     Score         DG    S(hbond)    S(metal)    S(lipo)     H(rot)  DE(clash)    DE(int)     intcor
     12.87     -15.23       1.38        0.00      81.72       1.73       0.06       2.30       ----

> <Gold.Chemscore.Fitness>
12.8748

> <Gold.Chemscore.DG>
-15.2337

> <Gold.Chemscore.ZeroCoef>
-5.4800

> <Gold.Chemscore.Hbond>
1.3840

> <Gold.Chemscore.Metal>
0.0000

> <Gold.Chemscore.Lipo>
81.7189

> <Gold.Chemscore.Internal_Hbond>
0.0000

> <Gold.Chemscore.DEClash>
0.0579

> <Gold.Chemscore.DEInternal>
2.3010

> <Gold.Chemscore.Rot>
1.7305

> <Gold.Chemscore.Internal.Correction>
   9.000000E+99

> <Gold.Chemscore.Hbonds>
donor molecule, donor type, donor heavy atom, donor atom, acceptor molecule, acceptor atom, score
      L1  H    15    30       P1  7948  0.63
      P1  H 10752 10765       L1     1  0.09

> <Gold.Chemscore.Hbond.Weighted>
-4.6226

> <Gold.Chemscore.Metal.Weighted>
-0.0000

> <Gold.Chemscore.Lipo.Weighted>
-9.5611

> <Gold.Chemscore.Internal_Hbond.Weighted>
0.0000

> <Gold.Chemscore.DEClash.Weighted>
0.0579

> <Gold.Chemscore.DEInternal.Weighted>
2.3010

> <Gold.Chemscore.Rot.Weighted>
4.4300

> <Gold.Chemscore.Internal.Correction.Weighted>
   9.000000E+99

> <Gold.Protein.RotatedTorsions>
[ 6907 6896 6895 6894 ] final   42.08 input  -60.11 | X-H torsion
[ 7974 7965 7964 7962 ] final   71.73 input  175.53 | X-H torsion
[ 8008 7997 7996 7995 ] final  -32.65 input   59.86 | X-H torsion
[ 10167 10162 10161 10158 ] final  176.52 input  -65.29 | X-H torsion
[ 10718 10713 10712 10709 ] final  -98.38 input   66.30 | X-H torsion
[ 10763 10752 10751 10750 ] final -171.92 input  -60.55 | X-H torsion
[ 11005 11000 10999 10996 ] final   98.36 input  -57.11 | X-H torsion

> <Gold.Protein.ActiveResidues>
 VAL166  LYS551  ARG553  GLY616  TRP617  ASP618  TYR619  PRO620  LYS621  CYS622 
 ASP623  PHE694  ASN695  SER759  ASP760  ASP761  ALA762  ILE779  LEU786  VAL792 
 PHE793  MET794  SER795  GLU796  ALA797  LYS798  CYS799  TRP800  GLU811  SER814 

> <Gold.Protein.RotatedAtoms>
  152.2034  134.8567  160.0505 H   0  0  0  0  0  0  0  0  0  0  0  0  # atno 6907 bound_to 6896
  151.9413  133.3633  159.3974 H   0  0  0  0  0  0  0  0  0  0  0  0  # atno 6908 bound_to 6896
  150.6959  134.4361  159.5314 H   0  0  0  0  0  0  0  0  0  0  0  0  # atno 6909 bound_to 6896
  145.7622  139.2806  143.1369 H   0  0  0  0  0  0  0  0  0  0  0  0  # atno 7974 bound_to 7965
  154.4173  140.1731  156.1762 H   0  0  0  0  0  0  0  0  0  0  0  0  # atno 8008 bound_to 7997
  155.9720  140.3385  155.6560 H   0  0  0  0  0  0  0  0  0  0  0  0  # atno 8009 bound_to 7997
  155.6613  140.0701  157.2544 H   0  0  0  0  0  0  0  0  0  0  0  0  # atno 8010 bound_to 7997
  139.5217  144.2905  152.0467 H   0  0  0  0  0  0  0  0  0  0  0  0  # atno 10167 bound_to 10162
  156.0106  130.5236  150.6514 H   0  0  0  0  0  0  0  0  0  0  0  0  # atno 10718 bound_to 10713
  154.6251  135.2880  155.0282 H   0  0  0  0  0  0  0  0  0  0  0  0  # atno 10763 bound_to 10752
  154.1463  135.6510  153.4957 H   0  0  0  0  0  0  0  0  0  0  0  0  # atno 10764 bound_to 10752
  153.0253  135.5345  154.7055 H   0  0  0  0  0  0  0  0  0  0  0  0  # atno 10765 bound_to 10752
  139.8772  134.9045  156.4444 H   0  0  0  0  0  0  0  0  0  0  0  0  # atno 11005 bound_to 11000
  146.0253  140.8310  142.9903 LP  0  0  0  0  0  0  0  0  0  0  0  0  # atno 17320 bound_to 7965
  144.6828  140.2688  143.7309 LP  0  0  0  0  0  0  0  0  0  0  0  0  # atno 17321 bound_to 7965
  140.2357  144.4322  150.6281 LP  0  0  0  0  0  0  0  0  0  0  0  0  # atno 17342 bound_to 10162
  140.6325  143.2189  151.6465 LP  0  0  0  0  0  0  0  0  0  0  0  0  # atno 17343 bound_to 10162
  157.4275  131.0845  151.1071 LP  0  0  0  0  0  0  0  0  0  0  0  0  # atno 17370 bound_to 10713
  157.1654  130.6244  149.5624 LP  0  0  0  0  0  0  0  0  0  0  0  0  # atno 17371 bound_to 10713
  140.8976  133.7802  155.9643 LP  0  0  0  0  0  0  0  0  0  0  0  0  # atno 17394 bound_to 11000
  140.8686  134.2754  157.5201 LP  0  0  0  0  0  0  0  0  0  0  0  0  # atno 17395 bound_to 11000

$$$$
