AV-unprocessed.smi:2198|AV-procd|sdf|8917|dock9
  -GOLD-   2272012133D 1   1.00000     0.00000
 Structure written by MMmdl.
 43 44  0  0  0  0  0  0  0  0  1 V2000
  146.2208  137.7126  152.7918 C   0  0  0  0  0  0  0  0  0  0  0  0
  147.1076  138.8152  153.3287 C   0  0  0  0  0  0  0  0  0  0  0  0
  148.4067  138.4094  153.5850 N   0  0  0  0  0  0  0  0  0  0  0  0
  149.2950  139.3510  154.0738 C   0  0  0  0  0  0  0  0  0  0  0  0
  150.6985  138.8252  154.3200 C   0  0  0  0  0  0  0  0  0  0  0  0
  148.9063  140.6314  154.3024 C   0  0  0  0  0  0  0  0  0  0  0  0
  149.8548  141.6999  154.8424 C   0  0  0  0  0  0  0  0  0  0  0  0
  150.0603  141.6819  156.3581 C   0  0  0  0  0  0  0  0  0  0  0  0
  149.8911  140.6387  156.9888 O   0  0  0  0  0  0  0  0  0  0  0  0
  150.4318  142.8390  156.9273 N   0  0  0  0  0  0  0  0  0  0  0  0
  150.7009  143.0333  158.3485 C   0  0  2  0  0  0  0  0  0  0  0  0
  150.9213  144.5268  158.6608 C   0  0  0  0  0  0  0  0  0  0  0  0
  151.2820  144.7399  160.1389 C   0  0  0  0  0  0  0  0  0  0  0  0
  152.5066  143.9035  160.5419 C   0  0  0  0  0  0  0  0  0  0  0  0
  152.2926  142.4076  160.2415 C   0  0  2  0  0  0  0  0  0  0  0  0
  153.5177  141.5735  160.6417 C   0  0  0  0  0  0  0  0  0  0  0  0
  151.9316  142.2026  158.7572 C   0  0  0  0  0  0  0  0  0  0  0  0
  147.4998  141.0034  154.0189 C   0  0  0  0  0  0  0  0  0  0  0  0
  147.0817  142.1429  154.2194 O   0  0  0  0  0  0  0  0  0  0  0  0
  146.6416  140.0126  153.5148 N   0  0  0  0  0  0  0  0  0  0  0  0
  148.7358  137.4670  153.4319 H   0  0  0  0  0  0  0  0  0  0  0  0
  145.2426  138.1025  152.5074 H   0  0  0  0  0  0  0  0  0  0  0  0
  146.0737  136.9421  153.5491 H   0  0  0  0  0  0  0  0  0  0  0  0
  146.6722  137.2535  151.9118 H   0  0  0  0  0  0  0  0  0  0  0  0
  151.4227  139.3697  153.7139 H   0  0  0  0  0  0  0  0  0  0  0  0
  150.7811  137.7675  154.0669 H   0  0  0  0  0  0  0  0  0  0  0  0
  150.9703  138.9392  155.3695 H   0  0  0  0  0  0  0  0  0  0  0  0
  149.5168  142.6964  154.5571 H   0  0  0  0  0  0  0  0  0  0  0  0
  150.8200  141.5874  154.3471 H   0  0  0  0  0  0  0  0  0  0  0  0
  150.5465  143.6444  156.3293 H   0  0  0  0  0  0  0  0  0  0  0  0
  149.8460  142.6749  158.9254 H   0  0  0  0  0  0  0  0  0  0  0  0
  151.7207  144.9227  158.0328 H   0  0  0  0  0  0  0  0  0  0  0  0
  150.0253  145.0994  158.4182 H   0  0  0  0  0  0  0  0  0  0  0  0
  151.4760  145.7966  160.3252 H   0  0  0  0  0  0  0  0  0  0  0  0
  150.4312  144.4670  160.7643 H   0  0  0  0  0  0  0  0  0  0  0  0
  153.3861  144.2660  160.0077 H   0  0  0  0  0  0  0  0  0  0  0  0
  152.7106  144.0452  161.6038 H   0  0  0  0  0  0  0  0  0  0  0  0
  151.4502  142.0618  160.8426 H   0  0  0  0  0  0  0  0  0  0  0  0
  154.4012  141.8680  160.0746 H   0  0  0  0  0  0  0  0  0  0  0  0
  153.3455  140.5118  160.4621 H   0  0  0  0  0  0  0  0  0  0  0  0
  153.7461  141.6948  161.7009 H   0  0  0  0  0  0  0  0  0  0  0  0
  151.7399  141.1455  158.5672 H   0  0  0  0  0  0  0  0  0  0  0  0
  152.7840  142.4776  158.1338 H   0  0  0  0  0  0  0  0  0  0  0  0
  1 22  1  0  0  0  0
  1 23  1  0  0  0  0
  1 24  1  0  0  0  0
  1  2  1  0  0  0  0
  2  3  1  0  0  0  0
  2 20  2  0  0  0  0
  3  4  1  0  0  0  0
  3 21  1  0  0  0  0
  4  6  2  0  0  0  0
  4  5  1  0  0  0  0
  5 25  1  0  0  0  0
  5 26  1  0  0  0  0
  5 27  1  0  0  0  0
  6 18  1  0  0  0  0
  6  7  1  0  0  0  0
  7  8  1  0  0  0  0
  7 28  1  0  0  0  0
  7 29  1  0  0  0  0
  8  9  2  0  0  0  0
  8 10  1  0  0  0  0
 10 11  1  0  0  0  0
 10 30  1  0  0  0  0
 11 17  1  0  0  0  0
 11 12  1  0  0  0  0
 11 31  1  0  0  0  0
 12 13  1  0  0  0  0
 12 32  1  0  0  0  0
 12 33  1  0  0  0  0
 13 14  1  0  0  0  0
 13 34  1  0  0  0  0
 13 35  1  0  0  0  0
 14 15  1  0  0  0  0
 14 36  1  0  0  0  0
 14 37  1  0  0  0  0
 15 16  1  0  0  0  0
 15 17  1  0  0  0  0
 15 38  1  0  0  0  0
 16 39  1  0  0  0  0
 16 40  1  0  0  0  0
 16 41  1  0  0  0  0
 17 42  1  0  0  0  0
 17 43  1  0  0  0  0
 18 19  2  0  0  0  0
 18 20  1  0  0  0  0
M  END
> <s_m_source_file>
AV-unprocessed.smi

> <i_m_source_file_index>
2198

> <i_lp_mmshare_version>
43012

> <i_f3d_flags>
0

> <s_epik_input>
W0NIM11jMW5jKFtDSDNdKWMoYyg9TylbbkhdMSlbQ0gyXUMoPU8pW05IXVtDQEBIXTJbQ0gyXVtDSDJdW0NIMl1bQ0BASF0oW0NIM10pW0NIMl0y

> <s_epik_cmdline>
J2VwaWtfcHl0aG9uJywgJy1waCcsICc3LjAnLCAnLXRuJywgJzgnLCAnLW1hJywgJzIwMCcsICctbWV0YWxfYmluZGluZycsICctaW1hZScsICc8aW5maWxlLm1hZT4nLCAnLW9tYWUnLCAnPG91dGZpbGUubWFlPic=

> <r_lp_tautomer_probability>
0.156392

> <r_epik_Ionization_Penalty>
0.0136514

> <r_epik_Ionization_Penalty_Charging>
0.0135207

> <r_epik_Ionization_Penalty_Neutral>
0.000130657

> <r_epik_State_Penalty>
1.15342

> <r_epik_Charging_Adjusted_Penalty>
1.16694

> <i_epik_Tot_Q>
0

> <i_epik_Tot_abs_Q>
0

> <r_epik_Metal_State_Penalty>
1.31404

> <b_epik_Metal_Only>
0

> <s_lp_Force_Field>
OPLS_2005

> <r_lp_Energy>
14.0485

> <b_lp_Chiralities_Consistent>
1

> <s_lp_Variant>
AV-unprocessed.smi:2198-7

> <Gold.Version>
5.8.1

> <Gold.Id.Protein>
6NUR|6NUR_protein|mol2

> <Gold.PLP.Fitness>
42.4423

> <Gold.PLP.PLP>
-40.1778

> <Gold.PLP.part.hbond>
-2.4486

> <Gold.PLP.part.metal>
0.0000

> <Gold.PLP.part.buried>
-3.4349

> <Gold.PLP.part.nonpolar>
-35.0953

> <Gold.PLP.part.repulsive>
0.4137

> <Gold.PLP.ligand.clash>
0.0000

> <Gold.PLP.ligand.torsion>
0.6943

> <Gold.PLP.Chemscore.Hbond>
1.2160

> <Gold.PLP.Chemscore.CHOScore>
0.0000

> <Gold.PLP.Chemscore.Metal>
0.0000

> <Gold.Chemscore.Hbonds>
donor molecule, donor type, donor heavy atom, donor atom, acceptor molecule, acceptor atom, score
      L1  H     3    21       P1  7948  0.74
      L1  H    10    30       P1  8028  0.39

> <Gold.PLP.Chemscore.Internal.Correction>
0.0051

> <Gold.Rescore>
     Score         DG    S(hbond)    S(metal)    S(lipo)     H(rot)  DE(clash)    DE(int)     intcor
     18.56     -19.30       1.50        0.00     107.57       1.48       0.03       0.71       ----

> <Gold.Chemscore.Fitness>
18.5575

> <Gold.Chemscore.DG>
-19.2991

> <Gold.Chemscore.ZeroCoef>
-5.4800

> <Gold.Chemscore.Hbond>
1.5036

> <Gold.Chemscore.Metal>
0.0000

> <Gold.Chemscore.Lipo>
107.5741

> <Gold.Chemscore.Internal_Hbond>
0.0000

> <Gold.Chemscore.DEClash>
0.0345

> <Gold.Chemscore.DEInternal>
0.7071

> <Gold.Chemscore.Rot>
1.4801

> <Gold.Chemscore.Internal.Correction>
   9.000000E+99

> <Gold.Chemscore.Hbonds>
donor molecule, donor type, donor heavy atom, donor atom, acceptor molecule, acceptor atom, score
      L1  H     3    21       P1  7948  0.70
      L1  H    10    30       P1  8028  0.38

> <Gold.Chemscore.Hbond.Weighted>
-5.0221

> <Gold.Chemscore.Metal.Weighted>
-0.0000

> <Gold.Chemscore.Lipo.Weighted>
-12.5862

> <Gold.Chemscore.Internal_Hbond.Weighted>
0.0000

> <Gold.Chemscore.DEClash.Weighted>
0.0345

> <Gold.Chemscore.DEInternal.Weighted>
0.7071

> <Gold.Chemscore.Rot.Weighted>
3.7891

> <Gold.Chemscore.Internal.Correction.Weighted>
   9.000000E+99

> <Gold.Protein.RotatedTorsions>
[ 6907 6896 6895 6894 ] final  -28.21 input  -60.11 | X-H torsion
[ 7974 7965 7964 7962 ] final  -93.43 input  175.53 | X-H torsion
[ 8008 7997 7996 7995 ] final -168.33 input   59.86 | X-H torsion
[ 10167 10162 10161 10158 ] final -139.47 input  -65.29 | X-H torsion
[ 10718 10713 10712 10709 ] final -131.59 input   66.30 | X-H torsion
[ 10763 10752 10751 10750 ] final -152.30 input  -60.55 | X-H torsion
[ 11005 11000 10999 10996 ] final -131.10 input  -57.11 | X-H torsion

> <Gold.Protein.ActiveResidues>
 VAL166  LYS551  ARG553  GLY616  TRP617  ASP618  TYR619  PRO620  LYS621  CYS622 
 ASP623  PHE694  ASN695  SER759  ASP760  ASP761  ALA762  ILE779  LEU786  VAL792 
 PHE793  MET794  SER795  GLU796  ALA797  LYS798  CYS799  TRP800  GLU811  SER814 

> <Gold.Protein.RotatedAtoms>
  151.1361  135.0155  159.8604 H   0  0  0  0  0  0  0  0  0  0  0  0  # atno 6907 bound_to 6896
  152.5452  134.1554  159.8546 H   0  0  0  0  0  0  0  0  0  0  0  0  # atno 6908 bound_to 6896
  151.1625  133.4790  159.2627 H   0  0  0  0  0  0  0  0  0  0  0  0  # atno 6909 bound_to 6896
  145.3866  140.9523  143.2364 H   0  0  0  0  0  0  0  0  0  0  0  0  # atno 7974 bound_to 7965
  155.8899  140.1023  157.1426 H   0  0  0  0  0  0  0  0  0  0  0  0  # atno 8008 bound_to 7997
  154.4014  140.1313  156.4366 H   0  0  0  0  0  0  0  0  0  0  0  0  # atno 8009 bound_to 7997
  155.7545  140.3464  155.5169 H   0  0  0  0  0  0  0  0  0  0  0  0  # atno 8010 bound_to 7997
  139.8376  143.7364  152.2664 H   0  0  0  0  0  0  0  0  0  0  0  0  # atno 10167 bound_to 10162
  156.2260  130.7008  151.0807 H   0  0  0  0  0  0  0  0  0  0  0  0  # atno 10718 bound_to 10713
  154.8003  135.3239  154.7567 H   0  0  0  0  0  0  0  0  0  0  0  0  # atno 10763 bound_to 10752
  153.8236  135.6885  153.4828 H   0  0  0  0  0  0  0  0  0  0  0  0  # atno 10764 bound_to 10752
  153.1716  135.4621  154.9853 H   0  0  0  0  0  0  0  0  0  0  0  0  # atno 10765 bound_to 10752
  140.9288  134.1346  157.4252 H   0  0  0  0  0  0  0  0  0  0  0  0  # atno 11005 bound_to 11000
  144.8469  139.5382  143.6874 LP  0  0  0  0  0  0  0  0  0  0  0  0  # atno 17320 bound_to 7965
  146.2817  139.6895  142.9224 LP  0  0  0  0  0  0  0  0  0  0  0  0  # atno 17321 bound_to 7965
  139.7591  144.7512  151.0390 LP  0  0  0  0  0  0  0  0  0  0  0  0  # atno 17342 bound_to 10162
  140.7801  143.4771  151.0068 LP  0  0  0  0  0  0  0  0  0  0  0  0  # atno 17343 bound_to 10162
  157.7110  131.0734  150.6499 LP  0  0  0  0  0  0  0  0  0  0  0  0  # atno 17370 bound_to 10713
  156.6564  130.4499  149.5702 LP  0  0  0  0  0  0  0  0  0  0  0  0  # atno 17371 bound_to 10713
  139.8791  134.9998  156.5973 LP  0  0  0  0  0  0  0  0  0  0  0  0  # atno 17394 bound_to 11000
  140.7890  133.8598  155.8630 LP  0  0  0  0  0  0  0  0  0  0  0  0  # atno 17395 bound_to 11000

$$$$
