AV-unprocessed.smi:136|AV-procd|sdf|1173|dock2
  -GOLD-   2262018323D 1   1.00000     0.00000
 Structure written by MMmdl.
 54 58  0  0  0  0  0  0  0  0  1 V2000
  150.9892  137.1914  154.4444 O   0  0  0  0  0  0  0  0  0  0  0  0
  151.1296  137.5700  155.6089 C   0  0  0  0  0  0  0  0  0  0  0  0
  151.4168  136.5403  156.7220 C   0  0  0  0  0  0  0  0  0  0  0  0
  150.2289  135.7517  157.1162 N   0  0  0  0  0  0  0  0  0  0  0  0
  149.9362  134.5607  156.4068 C   0  0  0  0  0  0  0  0  0  0  0  0
  150.6555  134.1725  155.4852 O   0  0  0  0  0  0  0  0  0  0  0  0
  148.7370  133.8508  156.8366 C   0  0  0  0  0  0  0  0  0  0  0  0
  148.3832  132.7101  156.2205 F   0  0  0  0  0  0  0  0  0  0  0  0
  147.9730  134.3214  157.8436 C   0  0  0  0  0  0  0  0  0  0  0  0
  148.2697  135.4873  158.5271 N   0  0  0  0  0  0  0  0  0  0  0  0
  147.3910  136.0123  159.6433 C   0  0  2  0  0  0  0  0  0  0  0  0
  148.2121  136.2170  160.9309 C   0  0  0  0  0  0  0  0  0  0  0  0
  147.4028  135.4647  161.9685 C   0  0  0  0  0  0  0  0  0  0  0  0
  146.7428  134.3818  161.1287 C   0  0  0  0  0  0  0  0  0  0  0  0
  146.3912  135.0793  159.9414 O   0  0  0  0  0  0  0  0  0  0  0  0
  149.4094  136.2371  158.1630 C   0  0  0  0  0  0  0  0  0  0  0  0
  149.6781  137.2918  158.7431 O   0  0  0  0  0  0  0  0  0  0  0  0
  151.0456  138.8753  155.9501 N   0  0  0  0  0  0  0  0  0  0  0  0
  151.3426  139.3373  157.1909 N   0  0  0  0  0  0  0  0  0  0  0  0
  151.3393  140.6190  157.1887 C   0  0  0  0  0  0  0  0  0  0  0  0
  151.6261  141.4599  158.3724 C   0  0  0  0  0  0  0  0  0  0  0  0
  152.3912  140.9265  159.4347 C   0  0  0  0  0  0  0  0  0  0  0  0
  152.6628  141.7254  160.5626 C   0  0  0  0  0  0  0  0  0  0  0  0
  152.1749  143.0460  160.6292 C   0  0  0  0  0  0  0  0  0  0  0  0
  152.5096  144.0190  162.0140 Cl  0  0  0  0  0  0  0  0  0  0  0  0
  151.4141  143.5733  159.5665 C   0  0  0  0  0  0  0  0  0  0  0  0
  151.1361  142.7842  158.4332 C   0  0  0  0  0  0  0  0  0  0  0  0
  151.0128  141.2179  155.8621 C   0  0  0  0  0  0  0  0  0  0  0  0
  150.7634  139.9696  155.0121 C   0  0  2  0  0  0  0  0  0  0  0  0
  149.3800  139.9317  154.4274 C   0  0  0  0  0  0  0  0  0  0  0  0
  148.3745  140.8506  154.2855 C   0  0  0  0  0  0  0  0  0  0  0  0
  147.3046  140.1818  153.6300 C   0  0  0  0  0  0  0  0  0  0  0  0
  147.7368  138.9050  153.4136 C   0  0  0  0  0  0  0  0  0  0  0  0
  149.0000  138.7374  153.8906 O   0  0  0  0  0  0  0  0  0  0  0  0
  152.2273  135.8879  156.3935 H   0  0  0  0  0  0  0  0  0  0  0  0
  151.8292  137.0625  157.5871 H   0  0  0  0  0  0  0  0  0  0  0  0
  147.0968  133.7495  158.1077 H   0  0  0  0  0  0  0  0  0  0  0  0
  146.9325  136.9233  159.2542 H   0  0  0  0  0  0  0  0  0  0  0  0
  149.2018  135.7696  160.8242 H   0  0  0  0  0  0  0  0  0  0  0  0
  148.3247  137.2771  161.1592 H   0  0  0  0  0  0  0  0  0  0  0  0
  148.0129  135.0652  162.7790 H   0  0  0  0  0  0  0  0  0  0  0  0
  146.6433  136.1181  162.3994 H   0  0  0  0  0  0  0  0  0  0  0  0
  147.4487  133.5818  160.9020 H   0  0  0  0  0  0  0  0  0  0  0  0
  145.8685  133.9448  161.6115 H   0  0  0  0  0  0  0  0  0  0  0  0
  152.7738  139.9165  159.4031 H   0  0  0  0  0  0  0  0  0  0  0  0
  153.2460  141.3229  161.3779 H   0  0  0  0  0  0  0  0  0  0  0  0
  151.0418  144.5859  159.6199 H   0  0  0  0  0  0  0  0  0  0  0  0
  150.5518  143.2126  157.6327 H   0  0  0  0  0  0  0  0  0  0  0  0
  150.1312  141.8576  155.9267 H   0  0  0  0  0  0  0  0  0  0  0  0
  151.8462  141.8062  155.4768 H   0  0  0  0  0  0  0  0  0  0  0  0
  151.4964  139.9316  154.2041 H   0  0  0  0  0  0  0  0  0  0  0  0
  148.4046  141.8785  154.6156 H   0  0  0  0  0  0  0  0  0  0  0  0
  146.3421  140.5842  153.3512 H   0  0  0  0  0  0  0  0  0  0  0  0
  147.2962  138.0312  152.9568 H   0  0  0  0  0  0  0  0  0  0  0  0
  1  2  2  0  0  0  0
  2  3  1  0  0  0  0
  2 18  1  0  0  0  0
  3  4  1  0  0  0  0
  3 35  1  0  0  0  0
  3 36  1  0  0  0  0
  4 16  1  0  0  0  0
  4  5  1  0  0  0  0
  5  6  2  0  0  0  0
  5  7  1  0  0  0  0
  7  8  1  0  0  0  0
  7  9  2  0  0  0  0
  9 10  1  0  0  0  0
  9 37  1  0  0  0  0
 10 11  1  0  0  0  0
 10 16  1  0  0  0  0
 11 15  1  0  0  0  0
 11 12  1  0  0  0  0
 11 38  1  0  0  0  0
 12 13  1  0  0  0  0
 12 39  1  0  0  0  0
 12 40  1  0  0  0  0
 13 14  1  0  0  0  0
 13 41  1  0  0  0  0
 13 42  1  0  0  0  0
 14 15  1  0  0  0  0
 14 43  1  0  0  0  0
 14 44  1  0  0  0  0
 16 17  2  0  0  0  0
 18 29  1  0  0  0  0
 18 19  1  0  0  0  0
 19 20  2  0  0  0  0
 20 21  1  0  0  0  0
 20 28  1  0  0  0  0
 21 27  1  0  0  0  0
 21 22  2  0  0  0  0
 22 23  1  0  0  0  0
 22 45  1  0  0  0  0
 23 24  2  0  0  0  0
 23 46  1  0  0  0  0
 24 25  1  0  0  0  0
 24 26  1  0  0  0  0
 26 27  2  0  0  0  0
 26 47  1  0  0  0  0
 27 48  1  0  0  0  0
 28 29  1  0  0  0  0
 28 49  1  0  0  0  0
 28 50  1  0  0  0  0
 29 30  1  0  0  0  0
 29 51  1  0  0  0  0
 30 34  1  0  0  0  0
 30 31  2  0  0  0  0
 31 32  1  0  0  0  0
 31 52  1  0  0  0  0
 32 33  2  0  0  0  0
 32 53  1  0  0  0  0
 33 34  1  0  0  0  0
 33 54  1  0  0  0  0
M  END
> <s_m_source_file>
AV-unprocessed.smi

> <i_m_source_file_index>
136

> <i_lp_mmshare_version>
43012

> <i_f3d_flags>
0

> <s_epik_input>
bzFbY0hdW2NIXVtjSF1jMVtDQEBIXTJbQ0gyXUMoYzNbY0hdW2NIXWMoQ2wpW2NIXVtjSF0zKT1OTjJDKD1PKVtDSDJdbjRjKD1PKWMoRilbY0hdbihjND1PKVtDQEBIXTVbQ0gyXVtDSDJdW0NIMl1PNQ==

> <s_epik_cmdline>
J2VwaWtfcHl0aG9uJywgJy1waCcsICc3LjAnLCAnLXRuJywgJzgnLCAnLW1hJywgJzIwMCcsICctbWV0YWxfYmluZGluZycsICctaW1hZScsICc8aW5maWxlLm1hZT4nLCAnLW9tYWUnLCAnPG91dGZpbGUubWFlPic=

> <r_lp_tautomer_probability>
1

> <r_epik_Ionization_Penalty>
2.55467e-08

> <r_epik_Ionization_Penalty_Charging>
4.85705e-09

> <r_epik_Ionization_Penalty_Neutral>
2.06897e-08

> <r_epik_State_Penalty>
-0

> <r_epik_Charging_Adjusted_Penalty>
4.85705e-09

> <i_epik_Tot_Q>
0

> <i_epik_Tot_abs_Q>
0

> <r_epik_Metal_State_Penalty>
-0

> <b_epik_Metal_Only>
0

> <s_epik_Chemistry_Notes>
This compound has an imine and may undergo hydrolysis. This compound contains an acetal/aminal-like group ( X-CH(R)-Y where X, Y are N, S, or O) that may be acid/base labile, releasing an aldehyde.

> <s_lp_Force_Field>
OPLS_2005

> <r_lp_Energy>
40.0267

> <b_lp_Chiralities_Consistent>
1

> <s_lp_Variant>
AV-unprocessed.smi:136-3

> <Gold.Version>
5.8.1

> <Gold.Id.Protein>
6NUR|6NUR_protein|mol2

> <Gold.PLP.Fitness>
50.4785

> <Gold.PLP.PLP>
-51.0994

> <Gold.PLP.part.hbond>
0.0000

> <Gold.PLP.part.metal>
0.0000

> <Gold.PLP.part.buried>
-5.3469

> <Gold.PLP.part.nonpolar>
-45.5500

> <Gold.PLP.part.repulsive>
0.6373

> <Gold.PLP.ligand.clash>
0.0000

> <Gold.PLP.ligand.torsion>
1.1069

> <Gold.PLP.Chemscore.Hbond>
0.0000

> <Gold.PLP.Chemscore.CHOScore>
0.4957

> <Gold.PLP.Chemscore.Metal>
0.0000

> <Gold.Chemscore.Hbonds>
donor molecule, donor type, donor heavy atom, donor atom, acceptor molecule, acceptor atom, score
      L1  C    33    54       P1  7948  0.49

> <Gold.PLP.Chemscore.Internal.Correction>
0.1058

> <Gold.Rescore>
     Score         DG    S(hbond)    S(metal)    S(lipo)     H(rot)  DE(clash)    DE(int)     intcor
     14.88     -21.22       0.82        0.00     150.71       1.81       1.15       5.19       ----

> <Gold.Chemscore.Fitness>
14.8843

> <Gold.Chemscore.DG>
-21.2195

> <Gold.Chemscore.ZeroCoef>
-5.4800

> <Gold.Chemscore.Hbond>
0.8169

> <Gold.Chemscore.Metal>
0.0000

> <Gold.Chemscore.Lipo>
150.7123

> <Gold.Chemscore.Internal_Hbond>
0.0000

> <Gold.Chemscore.DEClash>
1.1498

> <Gold.Chemscore.DEInternal>
5.1854

> <Gold.Chemscore.Rot>
1.8056

> <Gold.Chemscore.Internal.Correction>
   9.000000E+99

> <Gold.Chemscore.Hbond.Weighted>
-2.7285

> <Gold.Chemscore.Metal.Weighted>
-0.0000

> <Gold.Chemscore.Lipo.Weighted>
-17.6333

> <Gold.Chemscore.Internal_Hbond.Weighted>
0.0000

> <Gold.Chemscore.DEClash.Weighted>
1.1498

> <Gold.Chemscore.DEInternal.Weighted>
5.1854

> <Gold.Chemscore.Rot.Weighted>
4.6223

> <Gold.Chemscore.Internal.Correction.Weighted>
   9.000000E+99

> <Gold.Protein.RotatedTorsions>
[ 6907 6896 6895 6894 ] final   63.12 input  -60.11 | X-H torsion
[ 7974 7965 7964 7962 ] final -137.39 input  175.53 | X-H torsion
[ 8008 7997 7996 7995 ] final  151.27 input   59.86 | X-H torsion
[ 10167 10162 10161 10158 ] final  116.81 input  -65.29 | X-H torsion
[ 10718 10713 10712 10709 ] final  -27.20 input   66.30 | X-H torsion
[ 10763 10752 10751 10750 ] final -167.42 input  -60.55 | X-H torsion
[ 11005 11000 10999 10996 ] final   -5.09 input  -57.11 | X-H torsion

> <Gold.Protein.ActiveResidues>
 VAL166  LYS551  ARG553  GLY616  TRP617  ASP618  TYR619  PRO620  LYS621  CYS622 
 ASP623  PHE694  ASN695  SER759  ASP760  ASP761  ALA762  ILE779  LEU786  VAL792 
 PHE793  MET794  SER795  GLU796  ALA797  LYS798  CYS799  TRP800  GLU811  SER814 

> <Gold.Protein.RotatedAtoms>
  152.4228  134.5924  159.9977 H   0  0  0  0  0  0  0  0  0  0  0  0  # atno 6907 bound_to 6896
  151.6069  133.3345  159.3067 H   0  0  0  0  0  0  0  0  0  0  0  0  # atno 6908 bound_to 6896
  150.8116  134.7312  159.6759 H   0  0  0  0  0  0  0  0  0  0  0  0  # atno 6909 bound_to 6896
  144.8846  140.6556  143.5184 H   0  0  0  0  0  0  0  0  0  0  0  0  # atno 7974 bound_to 7965
  156.2681  140.2052  156.6150 H   0  0  0  0  0  0  0  0  0  0  0  0  # atno 8008 bound_to 7997
  154.6802  140.0541  157.0282 H   0  0  0  0  0  0  0  0  0  0  0  0  # atno 8009 bound_to 7997
  155.1012  140.3206  155.4549 H   0  0  0  0  0  0  0  0  0  0  0  0  # atno 8010 bound_to 7997
  139.6222  144.7103  151.2610 H   0  0  0  0  0  0  0  0  0  0  0  0  # atno 10167 bound_to 10162
  156.4413  130.4465  149.7051 H   0  0  0  0  0  0  0  0  0  0  0  0  # atno 10718 bound_to 10713
  154.6734  135.2943  154.9712 H   0  0  0  0  0  0  0  0  0  0  0  0  # atno 10763 bound_to 10752
  154.0731  135.6615  153.4831 H   0  0  0  0  0  0  0  0  0  0  0  0  # atno 10764 bound_to 10752
  153.0500  135.5179  154.7740 H   0  0  0  0  0  0  0  0  0  0  0  0  # atno 10765 bound_to 10752
  140.6874  133.9101  155.8595 H   0  0  0  0  0  0  0  0  0  0  0  0  # atno 11005 bound_to 11000
  145.3892  139.1620  143.4238 LP  0  0  0  0  0  0  0  0  0  0  0  0  # atno 17320 bound_to 7965
  146.3016  140.3980  142.8702 LP  0  0  0  0  0  0  0  0  0  0  0  0  # atno 17321 bound_to 7965
  140.7389  143.6635  150.8144 LP  0  0  0  0  0  0  0  0  0  0  0  0  # atno 17342 bound_to 10162
  140.0247  143.5505  152.2785 LP  0  0  0  0  0  0  0  0  0  0  0  0  # atno 17343 bound_to 10162
  156.3914  130.7629  151.2630 LP  0  0  0  0  0  0  0  0  0  0  0  0  # atno 17370 bound_to 10713
  157.7506  131.0266  150.3971 LP  0  0  0  0  0  0  0  0  0  0  0  0  # atno 17371 bound_to 10713
  141.0269  134.0811  157.4058 LP  0  0  0  0  0  0  0  0  0  0  0  0  # atno 17394 bound_to 11000
  139.8933  135.0130  156.6894 LP  0  0  0  0  0  0  0  0  0  0  0  0  # atno 17395 bound_to 11000

$$$$
