AV-unprocessed.smi:2100|AV-procd|sdf|8578|dock5
  -GOLD-   2272011313D 1   1.00000     0.00000
 Structure written by MMmdl.
 40 41  0  0  0  0  0  0  0  0  2 V2000
  150.7591  139.2150  154.6904 C   0  0  0  0  0  0  0  0  0  0  0  0
  151.8861  138.1701  154.6044 C   0  0  1  0  0  0  0  0  0  0  0  0
  152.8436  138.2135  155.8085 C   0  0  0  0  0  0  0  0  0  0  0  0
  152.2279  137.6142  157.0081 N   0  0  0  0  0  0  0  0  0  0  0  0
  152.9999  137.8930  158.5378 S   0  0  0  0  0  0  0  0  0  0  0  0
  152.8475  136.6569  159.3224 O   0  0  0  0  0  0  0  0  0  0  0  0
  154.3651  138.3434  158.2202 O   0  0  0  0  0  0  0  0  0  0  0  0
  152.0122  139.0741  159.0400 N   0  5  0  0  0  0  0  0  0  0  0  0
  152.2451  140.4399  158.6038 C   0  0  0  0  0  0  0  0  0  0  0  0
  152.4818  141.3532  159.8290 C   0  0  0  0  0  0  0  0  0  0  0  0
  152.1640  142.8309  159.6064 C   0  0  0  0  0  0  0  0  0  0  0  0
  152.3495  143.7712  160.6462 C   0  0  0  0  0  0  0  0  0  0  0  0
  152.0432  145.1223  160.3985 C   0  0  0  0  0  0  0  0  0  0  0  0
  151.5745  145.4884  159.1224 C   0  0  0  0  0  0  0  0  0  0  0  0
  151.4322  144.4813  158.1473 C   0  0  0  0  0  0  0  0  0  0  0  0
  151.7218  143.1821  158.3740 N   0  0  0  0  0  0  0  0  0  0  0  0
  151.6806  136.2739  156.7544 C   0  0  0  0  0  0  0  0  0  0  0  0
  150.7319  136.2908  155.5424 C   0  0  2  0  0  0  0  0  0  0  0  0
  150.2615  134.8813  155.1672 C   0  0  0  0  0  0  0  0  0  0  0  0
  151.3891  136.8481  154.4095 O   0  0  0  0  0  0  0  0  0  0  0  0
  151.1702  140.2249  154.6958 H   0  0  0  0  0  0  0  0  0  0  0  0
  150.1648  139.1074  155.5974 H   0  0  0  0  0  0  0  0  0  0  0  0
  150.0874  139.1358  153.8357 H   0  0  0  0  0  0  0  0  0  0  0  0
  152.4664  138.4077  153.7122 H   0  0  0  0  0  0  0  0  0  0  0  0
  153.7535  137.6594  155.5756 H   0  0  0  0  0  0  0  0  0  0  0  0
  153.1496  139.2415  156.0009 H   0  0  0  0  0  0  0  0  0  0  0  0
  153.1139  140.4975  157.9477 H   0  0  0  0  0  0  0  0  0  0  0  0
  151.4095  140.8343  158.0247 H   0  0  0  0  0  0  0  0  0  0  0  0
  151.9011  140.9903  160.6785 H   0  0  0  0  0  0  0  0  0  0  0  0
  153.5262  141.2719  160.1328 H   0  0  0  0  0  0  0  0  0  0  0  0
  152.7030  143.4577  161.6176 H   0  0  0  0  0  0  0  0  0  0  0  0
  152.1645  145.8641  161.1740 H   0  0  0  0  0  0  0  0  0  0  0  0
  151.3292  146.5155  158.8968 H   0  0  0  0  0  0  0  0  0  0  0  0
  151.0769  144.7261  157.1575 H   0  0  0  0  0  0  0  0  0  0  0  0
  152.5077  135.5825  156.5881 H   0  0  0  0  0  0  0  0  0  0  0  0
  151.1388  135.9217  157.6320 H   0  0  0  0  0  0  0  0  0  0  0  0
  149.8492  136.8840  155.7815 H   0  0  0  0  0  0  0  0  0  0  0  0
  149.7298  134.4121  155.9953 H   0  0  0  0  0  0  0  0  0  0  0  0
  151.1041  134.2413  154.9041 H   0  0  0  0  0  0  0  0  0  0  0  0
  149.5855  134.9108  154.3126 H   0  0  0  0  0  0  0  0  0  0  0  0
  1  2  1  0  0  0  0
  1 21  1  0  0  0  0
  1 22  1  0  0  0  0
  1 23  1  0  0  0  0
  2 20  1  0  0  0  0
  2  3  1  0  0  0  0
  2 24  1  0  0  0  0
  3  4  1  0  0  0  0
  3 25  1  0  0  0  0
  3 26  1  0  0  0  0
  4  5  1  0  0  0  0
  4 17  1  0  0  0  0
  5  6  2  0  0  0  0
  5  7  2  0  0  0  0
  5  8  1  0  0  0  0
  8  9  1  0  0  0  0
  9 10  1  0  0  0  0
  9 27  1  0  0  0  0
  9 28  1  0  0  0  0
 10 11  1  0  0  0  0
 10 29  1  0  0  0  0
 10 30  1  0  0  0  0
 11 16  1  0  0  0  0
 11 12  2  0  0  0  0
 12 13  1  0  0  0  0
 12 31  1  0  0  0  0
 13 14  2  0  0  0  0
 13 32  1  0  0  0  0
 14 15  1  0  0  0  0
 14 33  1  0  0  0  0
 15 16  2  0  0  0  0
 15 34  1  0  0  0  0
 17 18  1  0  0  0  0
 17 35  1  0  0  0  0
 17 36  1  0  0  0  0
 18 19  1  0  0  0  0
 18 20  1  0  0  0  0
 18 37  1  0  0  0  0
 19 38  1  0  0  0  0
 19 39  1  0  0  0  0
 19 40  1  0  0  0  0
M  CHG  1   8  -1
M  END
> <s_m_source_file>
AV-unprocessed.smi

> <i_m_source_file_index>
2100

> <i_lp_mmshare_version>
43012

> <i_f3d_flags>
0

> <s_epik_input>
W0NIM11bQ0BASF0xW0NIMl1OKFtDSDJdW0NASF0oTzEpW0NIM10pUyg9TykoPU8pW05IXVtDSDJdW0NIMl1jMltjSF1bY0hdW2NIXVtjSF1uMg==

> <s_epik_cmdline>
J2VwaWtfcHl0aG9uJywgJy1waCcsICc3LjAnLCAnLXRuJywgJzgnLCAnLW1hJywgJzIwMCcsICctbWV0YWxfYmluZGluZycsICctaW1hZScsICc8aW5maWxlLm1hZT4nLCAnLW9tYWUnLCAnPG91dGZpbGUubWFlPic=

> <r_epik_Ionization_Penalty>
1.27779

> <r_epik_Ionization_Penalty_Charging>
1.20871

> <r_epik_Ionization_Penalty_Neutral>
0.0690773

> <r_epik_State_Penalty>
1.64557

> <r_epik_Charging_Adjusted_Penalty>
2.85428

> <i_epik_Tot_Q>
-1

> <i_epik_Tot_abs_Q>
1

> <r_epik_Metal_State_Penalty>
0.643506

> <b_epik_Metal_Only>
0

> <s_lp_Force_Field>
OPLS_2005

> <r_lp_Energy>
10.0642

> <b_lp_Chiralities_Consistent>
1

> <s_lp_Variant>
AV-unprocessed.smi:2100-6

> <Gold.Version>
5.8.1

> <Gold.Id.Protein>
6NUR|6NUR_protein|mol2

> <Gold.PLP.Fitness>
52.2387

> <Gold.PLP.PLP>
-40.7979

> <Gold.PLP.part.hbond>
-3.0000

> <Gold.PLP.part.metal>
0.0000

> <Gold.PLP.part.buried>
-5.7336

> <Gold.PLP.part.nonpolar>
-33.6751

> <Gold.PLP.part.repulsive>
0.6517

> <Gold.PLP.ligand.clash>
0.0000

> <Gold.PLP.ligand.torsion>
1.0416

> <Gold.PLP.Chemscore.Hbond>
2.9920

> <Gold.PLP.Chemscore.CHOScore>
1.0000

> <Gold.PLP.Chemscore.Metal>
0.0000

> <Gold.Chemscore.Hbonds>
donor molecule, donor type, donor heavy atom, donor atom, acceptor molecule, acceptor atom, score
      P1  H  6896  6907       L1     6  1.00
      P1  H  7997  8008       L1     7  0.98
      P1  H 10752 10764       L1    20  1.00
      L1  C    15    34       P1  8028  0.79

> <Gold.PLP.Chemscore.Internal.Correction>
1.5480

> <Gold.Rescore>
     Score         DG    S(hbond)    S(metal)    S(lipo)     H(rot)  DE(clash)    DE(int)     intcor
     21.96     -23.04       2.49        0.00     111.30       1.47       0.05       1.03       ----

> <Gold.Chemscore.Fitness>
21.9616

> <Gold.Chemscore.DG>
-23.0404

> <Gold.Chemscore.ZeroCoef>
-5.4800

> <Gold.Chemscore.Hbond>
2.4879

> <Gold.Chemscore.Metal>
0.0000

> <Gold.Chemscore.Lipo>
111.2985

> <Gold.Chemscore.Internal_Hbond>
0.0000

> <Gold.Chemscore.DEClash>
0.0495

> <Gold.Chemscore.DEInternal>
1.0292

> <Gold.Chemscore.Rot>
1.4731

> <Gold.Chemscore.Internal.Correction>
   9.000000E+99

> <Gold.Chemscore.Hbonds>
donor molecule, donor type, donor heavy atom, donor atom, acceptor molecule, acceptor atom, score
      P1  H  6896  6907       L1     6  0.94
      P1  H  7997  8008       L1     7  0.89
      P1  H 10752 10764       L1    20  0.23

> <Gold.Chemscore.Hbond.Weighted>
-8.3096

> <Gold.Chemscore.Metal.Weighted>
-0.0000

> <Gold.Chemscore.Lipo.Weighted>
-13.0219

> <Gold.Chemscore.Internal_Hbond.Weighted>
0.0000

> <Gold.Chemscore.DEClash.Weighted>
0.0495

> <Gold.Chemscore.DEInternal.Weighted>
1.0292

> <Gold.Chemscore.Rot.Weighted>
3.7712

> <Gold.Chemscore.Internal.Correction.Weighted>
   9.000000E+99

> <Gold.Protein.RotatedTorsions>
[ 6907 6896 6895 6894 ] final   35.57 input  -60.11 | X-H torsion
[ 7974 7965 7964 7962 ] final  152.78 input  175.53 | X-H torsion
[ 8008 7997 7996 7995 ] final -118.93 input   59.86 | X-H torsion
[ 10167 10162 10161 10158 ] final -160.65 input  -65.29 | X-H torsion
[ 10718 10713 10712 10709 ] final  -38.08 input   66.30 | X-H torsion
[ 10763 10752 10751 10750 ] final  -83.37 input  -60.55 | X-H torsion
[ 11005 11000 10999 10996 ] final   46.62 input  -57.11 | X-H torsion

> <Gold.Protein.ActiveResidues>
 VAL166  LYS551  ARG553  GLY616  TRP617  ASP618  TYR619  PRO620  LYS621  CYS622 
 ASP623  PHE694  ASN695  SER759  ASP760  ASP761  ALA762  ILE779  LEU786  VAL792 
 PHE793  MET794  SER795  GLU796  ALA797  LYS798  CYS799  TRP800  GLU811  SER814 

> <Gold.Protein.RotatedAtoms>
  152.1179  134.9227  160.0563 H   0  0  0  0  0  0  0  0  0  0  0  0  # atno 6907 bound_to 6896
  152.0379  133.3960  159.4333 H   0  0  0  0  0  0  0  0  0  0  0  0  # atno 6908 bound_to 6896
  150.6847  134.3368  159.4894 H   0  0  0  0  0  0  0  0  0  0  0  0  # atno 6909 bound_to 6896
  144.8199  139.6713  143.6105 H   0  0  0  0  0  0  0  0  0  0  0  0  # atno 7974 bound_to 7965
  155.1075  140.0397  157.2715 H   0  0  0  0  0  0  0  0  0  0  0  0  # atno 8008 bound_to 7997
  154.6710  140.2612  155.6981 H   0  0  0  0  0  0  0  0  0  0  0  0  # atno 8009 bound_to 7997
  156.2658  140.2797  156.1219 H   0  0  0  0  0  0  0  0  0  0  0  0  # atno 8010 bound_to 7997
  139.6523  144.0061  152.2170 H   0  0  0  0  0  0  0  0  0  0  0  0  # atno 10167 bound_to 10162
  156.3078  130.4248  149.8080 H   0  0  0  0  0  0  0  0  0  0  0  0  # atno 10718 bound_to 10713
  154.5869  135.5558  153.7240 H   0  0  0  0  0  0  0  0  0  0  0  0  # atno 10763 bound_to 10752
  153.0102  135.6333  154.1904 H   0  0  0  0  0  0  0  0  0  0  0  0  # atno 10764 bound_to 10752
  154.1845  135.2885  155.3021 H   0  0  0  0  0  0  0  0  0  0  0  0  # atno 10765 bound_to 10752
  140.1352  134.4654  155.8491 H   0  0  0  0  0  0  0  0  0  0  0  0  # atno 11005 bound_to 11000
  146.2504  139.6187  142.9431 LP  0  0  0  0  0  0  0  0  0  0  0  0  # atno 17320 bound_to 7965
  145.5129  141.0435  143.2478 LP  0  0  0  0  0  0  0  0  0  0  0  0  # atno 17321 bound_to 7965
  139.9778  144.6449  150.7929 LP  0  0  0  0  0  0  0  0  0  0  0  0  # atno 17342 bound_to 10162
  140.7543  143.3025  151.3044 LP  0  0  0  0  0  0  0  0  0  0  0  0  # atno 17343 bound_to 10162
  156.5434  130.8310  151.3276 LP  0  0  0  0  0  0  0  0  0  0  0  0  # atno 17370 bound_to 10713
  157.7384  130.9812  150.2248 LP  0  0  0  0  0  0  0  0  0  0  0  0  # atno 17371 bound_to 10713
  141.2177  133.6811  156.7144 LP  0  0  0  0  0  0  0  0  0  0  0  0  # atno 17394 bound_to 11000
  140.2791  134.8331  157.3917 LP  0  0  0  0  0  0  0  0  0  0  0  0  # atno 17395 bound_to 11000

$$$$
