#       Name:                AV-unprocessed.smi:2409
#       Creating user name   scv26
#       Creation time:       Fri Mar 27 13:15:40 2020


#       File generated by GOLD software.
#

@<TRIPOS>MOLECULE
AV-unprocessed.smi:2409
    40    41     1
SMALL
NO_CHARGES


@<TRIPOS>ATOM
      1 ****        -1.7674  -2.5144   0.9257 C.3            1 S1                 0.0000
      2 ****        -2.0668  -2.1406  -0.4083 O.3            1 S1                 0.0000
      3 ****        -2.2619  -0.8139  -0.5650 C.2            1 S1                 0.0000
      4 ****        -1.3954   0.2437  -0.5800 C.2            1 S1                 0.0000
      5 ****         0.0138   0.2702  -0.4261 N.am           1 S1                 0.0000
      6 ****         0.8957  -0.6787  -0.7911 C.2            1 S1                 0.0000
      7 ****         0.5869  -1.7487  -1.3109 O.2            1 S1                 0.0000
      8 ****         2.1804  -0.3727  -0.5369 N.am           1 S1                 0.0000
      9 ****         3.3467  -1.1627  -0.8031 C.3            1 S1                 0.0000
     10 ****         4.6079  -0.8061  -0.0462 C.3            1 S1                 0.0000
     11 ****         4.5202  -0.5231  -1.5227 C.3            1 S1                 0.0000
     12 ****         4.4716   0.9032  -2.0345 C.3            1 S1                 0.0000
     13 ****        -2.2194   1.3939  -0.7237 C.2            1 S1                 0.0000
     14 ****        -1.8281   2.8429  -0.7693 C.3            1 S1                 0.0000
     15 ****        -3.4990   1.0557  -0.8382 N.2            1 S1                 0.0000
     16 ****        -3.5268  -0.2967  -0.7502 N.pl3          1 S1                 0.0000
     17 ****        -4.7936  -0.9950  -0.8240 C.3            1 S1                 0.0000
     18 ****        -1.6321  -3.5944   0.9805 H              1 S1                 0.0000
     19 ****        -2.5810  -2.2420   1.5995 H              1 S1                 0.0000
     20 ****        -0.8499  -2.0432   1.2799 H              1 S1                 0.0000
     21 ****         0.4035   1.1382  -0.0891 H              1 S1                 0.0000
     22 ****         2.3468   0.5077  -0.0709 H              1 S1                 0.0000
     23 ****         3.2042  -2.2299  -0.9667 H              1 S1                 0.0000
     24 ****         4.5691   0.0415   0.6359 H              1 S1                 0.0000
     25 ****         5.2523  -1.6243   0.2688 H              1 S1                 0.0000
     26 ****         5.0847  -1.1905  -2.1712 H              1 S1                 0.0000
     27 ****         3.9797   1.5628  -1.3189 H              1 S1                 0.0000
     28 ****         3.9259   0.9430  -2.9774 H              1 S1                 0.0000
     29 ****         5.4833   1.2728  -2.2023 H              1 S1                 0.0000
     30 ****        -0.7481   2.9615  -0.8562 H              1 S1                 0.0000
     31 ****        -2.1465   3.3613   0.1351 H              1 S1                 0.0000
     32 ****        -2.2839   3.3473  -1.6216 H              1 S1                 0.0000
     33 ****        -4.6486  -1.9826  -1.2627 H              1 S1                 0.0000
     34 ****        -5.4984  -0.4367  -1.4416 H              1 S1                 0.0000
     35 ****        -5.2067  -1.1079   0.1785 H              1 S1                 0.0000
     36 ****        -2.8982  -2.6185  -0.6919 LP             1 S1                 0.0000
     37 ****        -1.3056  -2.4199  -0.9937 LP             1 S1                 0.0000
     38 ****        -0.3744  -1.9595  -1.4880 LP             1 S1                 0.0000
     39 ****         1.2970  -2.4085  -1.5566 LP             1 S1                 0.0000
     40 ****        -4.2782   1.6699  -0.9631 LP             1 S1                 0.0000
@<TRIPOS>BOND
    1    1    2 1     
    2    1   18 1     
    3    1   19 1     
    4    1   20 1     
    5    2    3 1     
    6    3   16 1     
    7    3    4 2     
    8    4    5 1     
    9    4   13 1     
   10    5    6 am    
   11    5   21 1     
   12    6    7 2     
   13    6    8 am    
   14    8    9 1     
   15    8   22 1     
   16    9   11 1     
   17    9   10 1     
   18    9   23 1     
   19   10   11 1     
   20   10   24 1     
   21   10   25 1     
   22   11   12 1     
   23   11   26 1     
   24   12   27 1     
   25   12   28 1     
   26   12   29 1     
   27   13   14 1     
   28   13   15 2     
   29   14   30 1     
   30   14   31 1     
   31   14   32 1     
   32   15   16 1     
   33   16   17 1     
   34   17   33 1     
   35   17   34 1     
   36   17   35 1     
   37    2   36 1     
   38    2   37 1     
   39    7   38 1     
   40    7   39 1     
   41   15   40 1     
@<TRIPOS>SUBSTRUCTURE
      1 S1             1
@<TRIPOS>SET
LONE_PAIRS      STATIC     ATOMS    <user>   **** ""
5 36 37 38 39 40
DONOR_HYDROGENS      STATIC     ATOMS    <user>   **** ""
2 21 22
ATOM$BLUE        STATIC     ATOMS    COLORGROUP SYSTEM
5 36 37 38 39 40
ATOM$RED        STATIC     ATOMS    COLORGROUP SYSTEM
2 21 22
