AV-unprocessed.smi:1169|AV-procd|sdf|4940|dock10
  -GOLD-   22720 3523D 1   1.00000     0.00000
 Structure written by MMmdl.
 29 30  0  0  0  0  0  0  0  0  1 V2000
  152.4043  138.1951  158.6454 O   0  0  0  0  0  0  0  0  0  0  0  0
  152.5198  139.4202  158.6397 C   0  0  0  0  0  0  0  0  0  0  0  0
  153.5997  140.0845  159.5023 C   0  0  0  0  0  0  0  0  0  0  0  0
  153.1905  141.3857  160.0063 N   0  0  0  0  0  0  0  0  0  0  0  0
  153.2615  141.8651  161.2967 C   0  0  0  0  0  0  0  0  0  0  0  0
  152.7499  143.1305  161.2879 C   0  0  0  0  0  0  0  0  0  0  0  0
  152.3876  143.3492  159.9268 C   0  0  0  0  0  0  0  0  0  0  0  0
  151.7683  144.5755  159.3101 C   0  0  0  0  0  0  0  0  0  0  0  0
  150.5459  144.2981  158.8568 F   0  0  0  0  0  0  0  0  0  0  0  0
  151.6784  145.5461  160.2191 F   0  0  0  0  0  0  0  0  0  0  0  0
  152.5162  145.0001  158.2919 F   0  0  0  0  0  0  0  0  0  0  0  0
  152.6579  142.2978  159.1648 N   0  0  0  0  0  0  0  0  0  0  0  0
  151.7222  140.2292  157.9233 N   0  0  0  0  0  0  0  0  0  0  0  0
  150.6292  139.7888  157.0675 C   0  0  0  0  0  0  0  0  0  0  0  0
  150.7330  140.2411  155.6239 C   0  0  0  0  0  0  0  0  0  0  0  0
  149.7671  141.2608  155.0682 C   0  0  0  0  0  0  0  0  0  0  0  0
  149.6999  139.8255  154.6033 C   0  0  0  0  0  0  0  0  0  0  0  0
  153.8332  139.4361  160.3474 H   0  0  0  0  0  0  0  0  0  0  0  0
  154.5187  140.2020  158.9255 H   0  0  0  0  0  0  0  0  0  0  0  0
  153.6615  141.2710  162.1053 H   0  0  0  0  0  0  0  0  0  0  0  0
  152.6487  143.8010  162.1283 H   0  0  0  0  0  0  0  0  0  0  0  0
  151.8862  141.2240  157.9762 H   0  0  0  0  0  0  0  0  0  0  0  0
  150.5952  138.6992  157.0998 H   0  0  0  0  0  0  0  0  0  0  0  0
  149.6780  140.1345  157.4756 H   0  0  0  0  0  0  0  0  0  0  0  0
  151.7565  140.3240  155.2631 H   0  0  0  0  0  0  0  0  0  0  0  0
  148.9709  141.6145  155.7203 H   0  0  0  0  0  0  0  0  0  0  0  0
  150.1606  141.9975  154.3708 H   0  0  0  0  0  0  0  0  0  0  0  0
  150.0507  139.6045  153.5973 H   0  0  0  0  0  0  0  0  0  0  0  0
  148.8601  139.2244  154.9464 H   0  0  0  0  0  0  0  0  0  0  0  0
  1  2  2  0  0  0  0
  2  3  1  0  0  0  0
  2 13  1  0  0  0  0
  3  4  1  0  0  0  0
  3 18  1  0  0  0  0
  3 19  1  0  0  0  0
  4 12  1  0  0  0  0
  4  5  1  0  0  0  0
  5  6  2  0  0  0  0
  5 20  1  0  0  0  0
  6  7  1  0  0  0  0
  6 21  1  0  0  0  0
  7  8  1  0  0  0  0
  7 12  2  0  0  0  0
  8  9  1  0  0  0  0
  8 10  1  0  0  0  0
  8 11  1  0  0  0  0
 13 14  1  0  0  0  0
 13 22  1  0  0  0  0
 14 15  1  0  0  0  0
 14 23  1  0  0  0  0
 14 24  1  0  0  0  0
 15 17  1  0  0  0  0
 15 16  1  0  0  0  0
 15 25  1  0  0  0  0
 16 17  1  0  0  0  0
 16 26  1  0  0  0  0
 16 27  1  0  0  0  0
 17 28  1  0  0  0  0
 17 29  1  0  0  0  0
M  END
> <s_m_source_file>
AV-unprocessed.smi

> <i_m_source_file_index>
1169

> <i_lp_mmshare_version>
43012

> <i_f3d_flags>
0

> <s_epik_input>
W0NIMl0xW0NIMl1bQ0hdMVtDSDJdW05IXUMoPU8pW0NIMl1uMltjSF1bY0hdYyhuMilDKEYpKEYpRg==

> <s_epik_cmdline>
J2VwaWtfcHl0aG9uJywgJy1waCcsICc3LjAnLCAnLXRuJywgJzgnLCAnLW1hJywgJzIwMCcsICctbWV0YWxfYmluZGluZycsICctaW1hZScsICc8aW5maWxlLm1hZT4nLCAnLW9tYWUnLCAnPG91dGZpbGUubWFlPic=

> <r_lp_tautomer_probability>
1

> <r_epik_Ionization_Penalty>
8.05593e-08

> <r_epik_Ionization_Penalty_Charging>
0

> <r_epik_Ionization_Penalty_Neutral>
8.05593e-08

> <r_epik_State_Penalty>
-0

> <r_epik_Charging_Adjusted_Penalty>
0

> <i_epik_Tot_Q>
0

> <i_epik_Tot_abs_Q>
0

> <r_epik_Metal_State_Penalty>
-0

> <b_epik_Metal_Only>
0

> <s_lp_Force_Field>
OPLS_2005

> <r_lp_Energy>
14.9907

> <b_lp_Chiralities_Consistent>
1

> <s_lp_Variant>
AV-unprocessed.smi:1169-1

> <Gold.Version>
5.8.1

> <Gold.Id.Protein>
6NUR|6NUR_protein|mol2

> <Gold.PLP.Fitness>
43.4303

> <Gold.PLP.PLP>
-44.7184

> <Gold.PLP.part.hbond>
0.0000

> <Gold.PLP.part.metal>
0.0000

> <Gold.PLP.part.buried>
-5.3517

> <Gold.PLP.part.nonpolar>
-38.9139

> <Gold.PLP.part.repulsive>
0.0787

> <Gold.PLP.ligand.clash>
0.0000

> <Gold.PLP.ligand.torsion>
0.9148

> <Gold.PLP.Chemscore.Hbond>
0.0000

> <Gold.PLP.Chemscore.CHOScore>
0.0000

> <Gold.PLP.Chemscore.Metal>
0.0000

> <Gold.PLP.Chemscore.Internal.Correction>
0.5416

> <Gold.Rescore>
     Score         DG    S(hbond)    S(metal)    S(lipo)     H(rot)  DE(clash)    DE(int)     intcor
      9.52     -10.29       0.00        0.00      81.27       1.84       0.04       0.72       ----

> <Gold.Chemscore.Fitness>
9.5227

> <Gold.Chemscore.DG>
-10.2891

> <Gold.Chemscore.ZeroCoef>
-5.4800

> <Gold.Chemscore.Hbond>
0.0000

> <Gold.Chemscore.Metal>
0.0000

> <Gold.Chemscore.Lipo>
81.2746

> <Gold.Chemscore.Internal_Hbond>
0.0000

> <Gold.Chemscore.DEClash>
0.0416

> <Gold.Chemscore.DEInternal>
0.7249

> <Gold.Chemscore.Rot>
1.8359

> <Gold.Chemscore.Internal.Correction>
   9.000000E+99

> <Gold.Chemscore.Hbond.Weighted>
-0.0000

> <Gold.Chemscore.Metal.Weighted>
-0.0000

> <Gold.Chemscore.Lipo.Weighted>
-9.5091

> <Gold.Chemscore.Internal_Hbond.Weighted>
0.0000

> <Gold.Chemscore.DEClash.Weighted>
0.0416

> <Gold.Chemscore.DEInternal.Weighted>
0.7249

> <Gold.Chemscore.Rot.Weighted>
4.7000

> <Gold.Chemscore.Internal.Correction.Weighted>
   9.000000E+99

> <Gold.Protein.RotatedTorsions>
[ 6907 6896 6895 6894 ] final   95.21 input  -60.11 | X-H torsion
[ 7974 7965 7964 7962 ] final   42.03 input  175.53 | X-H torsion
[ 8008 7997 7996 7995 ] final -139.31 input   59.86 | X-H torsion
[ 10167 10162 10161 10158 ] final  -69.34 input  -65.29 | X-H torsion
[ 10718 10713 10712 10709 ] final  -39.57 input   66.30 | X-H torsion
[ 10763 10752 10751 10750 ] final   41.17 input  -60.55 | X-H torsion
[ 11005 11000 10999 10996 ] final  -50.25 input  -57.11 | X-H torsion

> <Gold.Protein.ActiveResidues>
 VAL166  LYS551  ARG553  GLY616  TRP617  ASP618  TYR619  PRO620  LYS621  CYS622 
 ASP623  PHE694  ASN695  SER759  ASP760  ASP761  ALA762  ILE779  LEU786  VAL792 
 PHE793  MET794  SER795  GLU796  ALA797  LYS798  CYS799  TRP800  GLU811  SER814 

> <Gold.Protein.RotatedAtoms>
  152.5445  134.1075  159.8343 H   0  0  0  0  0  0  0  0  0  0  0  0  # atno 6907 bound_to 6896
  151.1145  133.5141  159.2612 H   0  0  0  0  0  0  0  0  0  0  0  0  # atno 6908 bound_to 6896
  151.1847  135.0386  159.8862 H   0  0  0  0  0  0  0  0  0  0  0  0  # atno 6909 bound_to 6896
  146.0774  139.5347  142.9558 H   0  0  0  0  0  0  0  0  0  0  0  0  # atno 7974 bound_to 7965
  155.4427  140.0533  157.3009 H   0  0  0  0  0  0  0  0  0  0  0  0  # atno 8008 bound_to 7997
  154.4811  140.2082  155.9718 H   0  0  0  0  0  0  0  0  0  0  0  0  # atno 8009 bound_to 7997
  156.1207  140.3189  155.8209 H   0  0  0  0  0  0  0  0  0  0  0  0  # atno 8010 bound_to 7997
  140.5438  143.2314  151.7039 H   0  0  0  0  0  0  0  0  0  0  0  0  # atno 10167 bound_to 10162
  156.2909  130.4228  149.8239 H   0  0  0  0  0  0  0  0  0  0  0  0  # atno 10718 bound_to 10713
  152.9915  135.6169  154.2744 H   0  0  0  0  0  0  0  0  0  0  0  0  # atno 10763 bound_to 10752
  154.2476  135.2786  155.2831 H   0  0  0  0  0  0  0  0  0  0  0  0  # atno 10764 bound_to 10752
  154.5316  135.5786  153.6821 H   0  0  0  0  0  0  0  0  0  0  0  0  # atno 10765 bound_to 10752
  141.0805  133.6654  156.3704 H   0  0  0  0  0  0  0  0  0  0  0  0  # atno 11005 bound_to 11000
  145.6280  141.0310  143.1879 LP  0  0  0  0  0  0  0  0  0  0  0  0  # atno 17320 bound_to 7965
  144.7271  139.7842  143.7361 LP  0  0  0  0  0  0  0  0  0  0  0  0  # atno 17321 bound_to 7965
  139.4999  144.3926  152.0264 LP  0  0  0  0  0  0  0  0  0  0  0  0  # atno 17342 bound_to 10162
  140.3037  144.3617  150.6053 LP  0  0  0  0  0  0  0  0  0  0  0  0  # atno 17343 bound_to 10162
  156.5652  130.8401  151.3340 LP  0  0  0  0  0  0  0  0  0  0  0  0  # atno 17370 bound_to 10713
  157.7342  130.9742  150.2017 LP  0  0  0  0  0  0  0  0  0  0  0  0  # atno 17371 bound_to 10713
  140.5478  134.6057  157.5399 LP  0  0  0  0  0  0  0  0  0  0  0  0  # atno 17394 bound_to 11000
  139.9619  134.7438  156.0219 LP  0  0  0  0  0  0  0  0  0  0  0  0  # atno 17395 bound_to 11000

$$$$
