AV-unprocessed.smi:1406|AV-procd|sdf|5721|dock4
  -GOLD-   22720 5353D 1   1.00000     0.00000
 Structure written by MMmdl.
 41 43  0  0  0  0  0  0  0  0  2 V2000
  149.9913  129.1598  154.4417 C   0  0  0  0  0  0  0  0  0  0  0  0
  150.6900  130.0993  155.4450 C   0  0  2  0  0  0  0  0  0  0  0  0
  150.2791  131.5710  155.2741 C   0  0  0  0  0  0  0  0  0  0  0  0
  150.6971  132.4376  156.0430 O   0  0  0  0  0  0  0  0  0  0  0  0
  149.4602  131.8449  154.2459 N   0  0  0  0  0  0  0  0  0  0  0  0
  148.9419  133.1717  153.9251 C   0  0  2  0  0  0  0  0  0  0  0  0
  148.2018  133.8286  155.0832 C   0  0  0  0  0  0  0  0  0  0  0  0
  147.3787  134.9217  154.3928 C   0  0  0  0  0  0  0  0  0  0  0  0
  147.1527  134.4733  152.9962 N   0  3  2  0  0  0  0  0  0  0  0  0
  145.7211  134.4443  152.5917 C   0  0  0  0  0  0  0  0  0  0  0  0
  145.5235  133.5963  151.3266 C   0  0  0  0  0  0  0  0  0  0  0  0
  145.9313  132.1297  151.5627 C   0  0  0  0  0  0  0  0  0  0  0  0
  146.9597  131.9797  152.7005 C   0  0  0  0  0  0  0  0  0  0  0  0
  147.9046  133.2037  152.7865 C   0  0  2  0  0  0  0  0  0  0  0  0
  152.1406  129.9633  155.3955 N   0  0  0  0  0  0  0  0  0  0  0  0
  152.9021  129.1509  154.6596 C   0  0  0  0  0  0  0  0  0  0  0  0
  154.2013  129.2722  154.8927 N   0  0  0  0  0  0  0  0  0  0  0  0
  154.1708  130.2407  155.8556 C   0  0  0  0  0  0  0  0  0  0  0  0
  152.9617  130.6828  156.2007 N   0  0  0  0  0  0  0  0  0  0  0  0
  148.9063  129.2288  154.5268 H   0  0  0  0  0  0  0  0  0  0  0  0
  150.2665  128.1212  154.6276 H   0  0  0  0  0  0  0  0  0  0  0  0
  150.2578  129.3908  153.4094 H   0  0  0  0  0  0  0  0  0  0  0  0
  150.3739  129.7944  156.4441 H   0  0  0  0  0  0  0  0  0  0  0  0
  149.1634  131.0803  153.6571 H   0  0  0  0  0  0  0  0  0  0  0  0
  149.7783  133.8210  153.6562 H   0  0  0  0  0  0  0  0  0  0  0  0
  147.5342  133.1103  155.5618 H   0  0  0  0  0  0  0  0  0  0  0  0
  148.8724  134.2249  155.8464 H   0  0  0  0  0  0  0  0  0  0  0  0
  146.4538  135.1264  154.9337 H   0  0  0  0  0  0  0  0  0  0  0  0
  147.9459  135.8524  154.3577 H   0  0  0  0  0  0  0  0  0  0  0  0
  145.1096  134.0312  153.3960 H   0  0  0  0  0  0  0  0  0  0  0  0
  145.3784  135.4664  152.4276 H   0  0  0  0  0  0  0  0  0  0  0  0
  144.4876  133.6455  150.9894 H   0  0  0  0  0  0  0  0  0  0  0  0
  146.1263  134.0167  150.5203 H   0  0  0  0  0  0  0  0  0  0  0  0
  145.0521  131.5297  151.8000 H   0  0  0  0  0  0  0  0  0  0  0  0
  146.3359  131.7209  150.6361 H   0  0  0  0  0  0  0  0  0  0  0  0
  146.4334  131.8645  153.6490 H   0  0  0  0  0  0  0  0  0  0  0  0
  147.5205  131.0567  152.5514 H   0  0  0  0  0  0  0  0  0  0  0  0
  148.4313  133.2779  151.8337 H   0  0  0  0  0  0  0  0  0  0  0  0
  152.4979  128.4553  153.9388 H   0  0  0  0  0  0  0  0  0  0  0  0
  155.0662  130.6276  156.3196 H   0  0  0  0  0  0  0  0  0  0  0  0
  147.6046  135.1565  152.4050 H   0  0  0  0  0  0  0  0  0  0  0  0
  1  2  1  0  0  0  0
  1 20  1  0  0  0  0
  1 21  1  0  0  0  0
  1 22  1  0  0  0  0
  2  3  1  0  0  0  0
  2 15  1  0  0  0  0
  2 23  1  0  0  0  0
  3  4  2  0  0  0  0
  3  5  1  0  0  0  0
  5  6  1  0  0  0  0
  5 24  1  0  0  0  0
  6 14  1  0  0  0  0
  6  7  1  0  0  0  0
  6 25  1  0  0  0  0
  7  8  1  0  0  0  0
  7 26  1  0  0  0  0
  7 27  1  0  0  0  0
  8  9  1  0  0  0  0
  8 28  1  0  0  0  0
  8 29  1  0  0  0  0
  9 14  1  0  0  0  0
  9 10  1  0  0  0  0
  9 41  1  0  0  0  0
 10 11  1  0  0  0  0
 10 30  1  0  0  0  0
 10 31  1  0  0  0  0
 11 12  1  0  0  0  0
 11 32  1  0  0  0  0
 11 33  1  0  0  0  0
 12 13  1  0  0  0  0
 12 34  1  0  0  0  0
 12 35  1  0  0  0  0
 13 14  1  0  0  0  0
 13 36  1  0  0  0  0
 13 37  1  0  0  0  0
 14 38  1  0  0  0  0
 15 19  1  0  0  0  0
 15 16  1  0  0  0  0
 16 17  2  0  0  0  0
 16 39  1  0  0  0  0
 17 18  1  0  0  0  0
 18 19  2  0  0  0  0
 18 40  1  0  0  0  0
M  CHG  1   9   1
M  END
> <s_m_source_file>
AV-unprocessed.smi

> <i_m_source_file_index>
1406

> <i_lp_mmshare_version>
43012

> <i_f3d_flags>
0

> <s_epik_input>
bjFbY0hdbltjSF1uMVtDQEhdKFtDSDNdKUMoPU8pW05IXVtDQEhdKFtDSDJdW0NIMl0yKVtDQEBIXShOMjMpW0NIMl1bQ0gyXVtDSDJdW0NIMl0z

> <s_epik_cmdline>
J2VwaWtfcHl0aG9uJywgJy1waCcsICc3LjAnLCAnLXRuJywgJzgnLCAnLW1hJywgJzIwMCcsICctbWV0YWxfYmluZGluZycsICctaW1hZScsICc8aW5maWxlLm1hZT4nLCAnLW9tYWUnLCAnPG91dGZpbGUubWFlPic=

> <r_lp_tautomer_probability>
1

> <r_epik_Ionization_Penalty>
0.00197066

> <r_epik_Ionization_Penalty_Charging>
0.00196223

> <r_epik_Ionization_Penalty_Neutral>
8.43107e-06

> <r_epik_State_Penalty>
0.00133866

> <r_epik_Charging_Adjusted_Penalty>
0.00330089

> <i_epik_Tot_Q>
1

> <i_epik_Tot_abs_Q>
1

> <r_epik_Metal_State_Penalty>
-0

> <b_epik_Metal_Only>
0

> <s_lp_Force_Field>
OPLS_2005

> <r_lp_Energy>
46.3739

> <b_lp_Chiralities_Consistent>
1

> <s_lp_Variant>
AV-unprocessed.smi:1406-13

> <Gold.Version>
5.8.1

> <Gold.Id.Protein>
6NUR|6NUR_protein|mol2

> <Gold.PLP.Fitness>
38.4093

> <Gold.PLP.PLP>
-29.7348

> <Gold.PLP.part.hbond>
-1.0000

> <Gold.PLP.part.metal>
0.0000

> <Gold.PLP.part.buried>
-3.4949

> <Gold.PLP.part.nonpolar>
-25.4142

> <Gold.PLP.part.repulsive>
0.0428

> <Gold.PLP.ligand.clash>
0.2107

> <Gold.PLP.ligand.torsion>
0.1053

> <Gold.PLP.Chemscore.Hbond>
2.0000

> <Gold.PLP.Chemscore.CHOScore>
1.0000

> <Gold.PLP.Chemscore.Metal>
0.0000

> <Gold.Chemscore.Hbonds>
donor molecule, donor type, donor heavy atom, donor atom, acceptor molecule, acceptor atom, score
      L1  H     9    41       P1  7948  2.00
      L1  C    16    39       P1 10737  1.00

> <Gold.PLP.Chemscore.Internal.Correction>
0.0959

> <Gold.Rescore>
     Score         DG    S(hbond)    S(metal)    S(lipo)     H(rot)  DE(clash)    DE(int)     intcor
      8.64     -10.02       0.97        0.00      52.53       1.89       0.11       1.27       ----

> <Gold.Chemscore.Fitness>
8.6390

> <Gold.Chemscore.DG>
-10.0201

> <Gold.Chemscore.ZeroCoef>
-5.4800

> <Gold.Chemscore.Hbond>
0.9651

> <Gold.Chemscore.Metal>
0.0000

> <Gold.Chemscore.Lipo>
52.5321

> <Gold.Chemscore.Internal_Hbond>
0.0000

> <Gold.Chemscore.DEClash>
0.1143

> <Gold.Chemscore.DEInternal>
1.2668

> <Gold.Chemscore.Rot>
1.8865

> <Gold.Chemscore.Internal.Correction>
   9.000000E+99

> <Gold.Chemscore.Hbonds>
donor molecule, donor type, donor heavy atom, donor atom, acceptor molecule, acceptor atom, score
      L1  H     9    41       P1  7948  0.98

> <Gold.Chemscore.Hbond.Weighted>
-3.2234

> <Gold.Chemscore.Metal.Weighted>
-0.0000

> <Gold.Chemscore.Lipo.Weighted>
-6.1463

> <Gold.Chemscore.Internal_Hbond.Weighted>
0.0000

> <Gold.Chemscore.DEClash.Weighted>
0.1143

> <Gold.Chemscore.DEInternal.Weighted>
1.2668

> <Gold.Chemscore.Rot.Weighted>
4.8295

> <Gold.Chemscore.Internal.Correction.Weighted>
   9.000000E+99

> <Gold.Protein.RotatedTorsions>
[ 6907 6896 6895 6894 ] final  -85.47 input  -60.11 | X-H torsion
[ 7974 7965 7964 7962 ] final  -30.20 input  175.53 | X-H torsion
[ 8008 7997 7996 7995 ] final  128.46 input   59.86 | X-H torsion
[ 10167 10162 10161 10158 ] final   43.92 input  -65.29 | X-H torsion
[ 10718 10713 10712 10709 ] final  120.75 input   66.30 | X-H torsion
[ 10763 10752 10751 10750 ] final  -52.31 input  -60.55 | X-H torsion
[ 11005 11000 10999 10996 ] final  -37.36 input  -57.11 | X-H torsion

> <Gold.Protein.ActiveResidues>
 VAL166  LYS551  ARG553  GLY616  TRP617  ASP618  TYR619  PRO620  LYS621  CYS622 
 ASP623  PHE694  ASN695  SER759  ASP760  ASP761  ALA762  ILE779  LEU786  VAL792 
 PHE793  MET794  SER795  GLU796  ALA797  LYS798  CYS799  TRP800  GLU811  SER814 

> <Gold.Protein.RotatedAtoms>
  150.6870  134.3200  159.4782 H   0  0  0  0  0  0  0  0  0  0  0  0  # atno 6907 bound_to 6896
  152.1077  134.9294  160.0577 H   0  0  0  0  0  0  0  0  0  0  0  0  # atno 6908 bound_to 6896
  152.0549  133.4001  159.4430 H   0  0  0  0  0  0  0  0  0  0  0  0  # atno 6909 bound_to 6896
  146.1160  140.5510  142.8756 H   0  0  0  0  0  0  0  0  0  0  0  0  # atno 7974 bound_to 7965
  156.2915  140.2644  156.2439 H   0  0  0  0  0  0  0  0  0  0  0  0  # atno 8008 bound_to 7997
  154.9950  140.0388  157.2354 H   0  0  0  0  0  0  0  0  0  0  0  0  # atno 8009 bound_to 7997
  154.7652  140.2768  155.6187 H   0  0  0  0  0  0  0  0  0  0  0  0  # atno 8010 bound_to 7997
  140.3395  144.2488  150.6157 H   0  0  0  0  0  0  0  0  0  0  0  0  # atno 10167 bound_to 10162
  157.5868  131.1069  150.8078 H   0  0  0  0  0  0  0  0  0  0  0  0  # atno 10718 bound_to 10713
  154.1406  135.6505  153.4941 H   0  0  0  0  0  0  0  0  0  0  0  0  # atno 10763 bound_to 10752
  153.0167  135.5314  154.6908 H   0  0  0  0  0  0  0  0  0  0  0  0  # atno 10764 bound_to 10752
  154.6169  135.2960  155.0341 H   0  0  0  0  0  0  0  0  0  0  0  0  # atno 10765 bound_to 10752
  140.9946  133.6987  156.1911 H   0  0  0  0  0  0  0  0  0  0  0  0  # atno 11005 bound_to 11000
  144.7554  140.5293  143.6773 LP  0  0  0  0  0  0  0  0  0  0  0  0  # atno 17320 bound_to 7965
  145.5565  139.1478  143.3365 LP  0  0  0  0  0  0  0  0  0  0  0  0  # atno 17321 bound_to 7965
  140.5322  143.2241  151.8220 LP  0  0  0  0  0  0  0  0  0  0  0  0  # atno 17342 bound_to 10162
  139.4843  144.4705  151.9430 LP  0  0  0  0  0  0  0  0  0  0  0  0  # atno 17343 bound_to 10162
  156.8510  130.5080  149.5312 LP  0  0  0  0  0  0  0  0  0  0  0  0  # atno 17370 bound_to 10713
  156.0918  130.5902  150.9746 LP  0  0  0  0  0  0  0  0  0  0  0  0  # atno 17371 bound_to 10713
  140.6986  134.4588  157.5587 LP  0  0  0  0  0  0  0  0  0  0  0  0  # atno 17394 bound_to 11000
  139.9008  134.8560  156.1903 LP  0  0  0  0  0  0  0  0  0  0  0  0  # atno 17395 bound_to 11000

$$$$
