AV-unprocessed.smi:1701|AV-procd|sdf|6842|dock8
  -GOLD-   22720 8 23D 1   1.00000     0.00000
 Structure written by MMmdl.
 54 56  0  0  0  0  0  0  0  0  4 V2000
  150.7114  145.2738  159.3947 C   0  0  0  0  0  0  0  0  0  0  0  0
  151.6076  144.6920  158.2934 C   0  0  0  0  0  0  0  0  0  0  0  0
  151.8696  143.2670  158.4889 N   0  0  0  0  0  0  0  0  0  0  0  0
  151.3365  142.3099  157.5231 C   0  0  0  0  0  0  0  0  0  0  0  0
  150.4446  141.2539  158.1887 C   0  0  0  0  0  0  0  0  0  0  0  0
  152.5885  142.8199  159.6220 C   0  0  0  0  0  0  0  0  0  0  0  0
  152.3133  143.2564  160.9420 C   0  0  0  0  0  0  0  0  0  0  0  0
  153.0804  142.7673  162.0190 C   0  0  0  0  0  0  0  0  0  0  0  0
  154.1109  141.8361  161.7798 C   0  0  0  0  0  0  0  0  0  0  0  0
  154.8774  141.3924  162.8907 N   0  0  0  0  0  0  0  0  0  0  0  0
  155.6707  140.2984  163.0044 C   0  0  0  0  0  0  0  0  0  0  0  0
  155.7049  139.4891  162.0793 O   0  0  0  0  0  0  0  0  0  0  0  0
  156.3911  140.0962  164.1489 N   0  5  0  0  0  0  0  0  0  0  0  0
  155.9963  140.3236  165.5463 C   0  0  1  0  0  0  0  0  0  0  0  0
  156.9339  139.5970  166.5284 C   0  0  0  0  0  0  0  0  0  0  0  0
  157.0682  140.5370  167.7425 C   0  0  0  0  0  0  0  0  0  0  0  0
  156.2566  141.7253  167.4145 N   0  3  1  0  0  0  0  0  0  0  0  0
  156.6549  143.0105  168.0298 C   0  0  0  0  0  0  0  0  0  0  0  0
  155.6219  144.0933  167.6570 C   0  0  0  0  0  0  0  0  0  0  0  0
  155.4054  144.1801  166.1318 C   0  0  0  0  0  0  0  0  0  0  0  0
  155.0783  142.7970  165.5345 C   0  0  0  0  0  0  0  0  0  0  0  0
  156.1747  141.7927  165.9466 C   0  0  2  0  0  0  0  0  0  0  0  0
  154.3562  141.4375  160.4454 C   0  0  0  0  0  0  0  0  0  0  0  0
  153.5979  141.9325  159.4439 N   0  3  0  0  0  0  0  0  0  0  0  0
  150.5179  146.3312  159.2145 H   0  0  0  0  0  0  0  0  0  0  0  0
  151.1783  145.1856  160.3760 H   0  0  0  0  0  0  0  0  0  0  0  0
  149.7489  144.7632  159.4347 H   0  0  0  0  0  0  0  0  0  0  0  0
  151.1180  144.8245  157.3282 H   0  0  0  0  0  0  0  0  0  0  0  0
  152.5410  145.2518  158.2267 H   0  0  0  0  0  0  0  0  0  0  0  0
  150.8006  142.8210  156.7237 H   0  0  0  0  0  0  0  0  0  0  0  0
  152.1732  141.8088  157.0350 H   0  0  0  0  0  0  0  0  0  0  0  0
  150.0704  140.5436  157.4511 H   0  0  0  0  0  0  0  0  0  0  0  0
  149.5826  141.7092  158.6766 H   0  0  0  0  0  0  0  0  0  0  0  0
  150.9951  140.6892  158.9416 H   0  0  0  0  0  0  0  0  0  0  0  0
  151.5201  143.9572  161.1530 H   0  0  0  0  0  0  0  0  0  0  0  0
  152.8716  143.1033  163.0242 H   0  0  0  0  0  0  0  0  0  0  0  0
  154.7987  141.9566  163.7241 H   0  0  0  0  0  0  0  0  0  0  0  0
  154.9664  140.0298  165.7571 H   0  0  0  0  0  0  0  0  0  0  0  0
  156.5359  138.6211  166.8080 H   0  0  0  0  0  0  0  0  0  0  0  0
  157.9202  139.4324  166.0909 H   0  0  0  0  0  0  0  0  0  0  0  0
  156.7115  140.0775  168.6651 H   0  0  0  0  0  0  0  0  0  0  0  0
  158.1134  140.8164  167.8884 H   0  0  0  0  0  0  0  0  0  0  0  0
  156.7080  142.8974  169.1130 H   0  0  0  0  0  0  0  0  0  0  0  0
  157.6500  143.2950  167.6846 H   0  0  0  0  0  0  0  0  0  0  0  0
  154.6715  143.8641  168.1406 H   0  0  0  0  0  0  0  0  0  0  0  0
  155.9387  145.0616  168.0456 H   0  0  0  0  0  0  0  0  0  0  0  0
  154.6056  144.8855  165.9049 H   0  0  0  0  0  0  0  0  0  0  0  0
  156.3070  144.5732  165.6603 H   0  0  0  0  0  0  0  0  0  0  0  0
  154.0970  142.4731  165.8879 H   0  0  0  0  0  0  0  0  0  0  0  0
  155.0110  142.8740  164.4478 H   0  0  0  0  0  0  0  0  0  0  0  0
  157.1384  142.1459  165.5710 H   0  0  0  0  0  0  0  0  0  0  0  0
  155.1348  140.7568  160.1345 H   0  0  0  0  0  0  0  0  0  0  0  0
  155.3199  141.5192  167.7302 H   0  0  0  0  0  0  0  0  0  0  0  0
  153.8034  141.6229  158.4941 H   0  0  0  0  0  0  0  0  0  0  0  0
  1  2  1  0  0  0  0
  1 25  1  0  0  0  0
  1 26  1  0  0  0  0
  1 27  1  0  0  0  0
  2  3  1  0  0  0  0
  2 28  1  0  0  0  0
  2 29  1  0  0  0  0
  3  4  1  0  0  0  0
  3  6  1  0  0  0  0
  4  5  1  0  0  0  0
  4 30  1  0  0  0  0
  4 31  1  0  0  0  0
  5 32  1  0  0  0  0
  5 33  1  0  0  0  0
  5 34  1  0  0  0  0
  6 24  1  0  0  0  0
  6  7  2  0  0  0  0
  7  8  1  0  0  0  0
  7 35  1  0  0  0  0
  8  9  2  0  0  0  0
  8 36  1  0  0  0  0
  9 10  1  0  0  0  0
  9 23  1  0  0  0  0
 10 11  1  0  0  0  0
 10 37  1  0  0  0  0
 11 12  2  0  0  0  0
 11 13  1  0  0  0  0
 13 14  1  0  0  0  0
 14 22  1  0  0  0  0
 14 15  1  0  0  0  0
 14 38  1  0  0  0  0
 15 16  1  0  0  0  0
 15 39  1  0  0  0  0
 15 40  1  0  0  0  0
 16 17  1  0  0  0  0
 16 41  1  0  0  0  0
 16 42  1  0  0  0  0
 17 22  1  0  0  0  0
 17 18  1  0  0  0  0
 17 53  1  0  0  0  0
 18 19  1  0  0  0  0
 18 43  1  0  0  0  0
 18 44  1  0  0  0  0
 19 20  1  0  0  0  0
 19 45  1  0  0  0  0
 19 46  1  0  0  0  0
 20 21  1  0  0  0  0
 20 47  1  0  0  0  0
 20 48  1  0  0  0  0
 21 22  1  0  0  0  0
 21 49  1  0  0  0  0
 21 50  1  0  0  0  0
 22 51  1  0  0  0  0
 23 24  2  0  0  0  0
 23 52  1  0  0  0  0
 24 54  1  0  0  0  0
M  CHG  1  13  -1
M  CHG  1  17   1
M  CHG  1  24   1
M  END
> <s_m_source_file>
AV-unprocessed.smi

> <i_m_source_file_index>
1701

> <i_lp_mmshare_version>
43012

> <i_f3d_flags>
0

> <s_epik_input>
W0NIM11bQ0gyXU4oW0NIMl1bQ0gzXSljMVtjSF1bY0hdYyhbY0hdbjEpW05IXUMoPU8pW05IXVtDQEhdKFtDSDJdW0NIMl0yKVtDQEBIXShOMjMpW0NIMl1bQ0gyXVtDSDJdW0NIMl0z

> <s_epik_cmdline>
J2VwaWtfcHl0aG9uJywgJy1waCcsICc3LjAnLCAnLXRuJywgJzgnLCAnLW1hJywgJzIwMCcsICctbWV0YWxfYmluZGluZycsICctaW1hZScsICc8aW5maWxlLm1hZT4nLCAnLW9tYWUnLCAnPG91dGZpbGUubWFlPic=

> <r_lp_tautomer_probability>
0.999994

> <r_epik_Ionization_Penalty>
7.37095

> <r_epik_Ionization_Penalty_Charging>
7.37095

> <r_epik_Ionization_Penalty_Neutral>
3.78969e-06

> <r_epik_State_Penalty>
6.83842

> <r_epik_Charging_Adjusted_Penalty>
14.2094

> <i_epik_Tot_Q>
1

> <i_epik_Tot_abs_Q>
3

> <r_epik_Metal_State_Penalty>
2.78552

> <b_epik_Metal_Only>
1

> <s_lp_Force_Field>
OPLS_2005

> <r_lp_Energy>
47.735

> <b_lp_Chiralities_Consistent>
1

> <s_lp_Variant>
AV-unprocessed.smi:1701-22

> <Gold.Version>
5.8.1

> <Gold.Id.Protein>
6NUR|6NUR_protein|mol2

> <Gold.PLP.Fitness>
49.7018

> <Gold.PLP.PLP>
-52.6878

> <Gold.PLP.part.hbond>
-1.0000

> <Gold.PLP.part.metal>
0.0000

> <Gold.PLP.part.buried>
-5.9021

> <Gold.PLP.part.nonpolar>
-44.7833

> <Gold.PLP.part.repulsive>
0.1118

> <Gold.PLP.ligand.clash>
0.0000

> <Gold.PLP.ligand.torsion>
1.5572

> <Gold.PLP.Chemscore.Hbond>
0.0000

> <Gold.PLP.Chemscore.CHOScore>
0.0000

> <Gold.PLP.Chemscore.Metal>
0.0000

> <Gold.PLP.Chemscore.Internal.Correction>
0.1285

> <Gold.Rescore>
     Score         DG    S(hbond)    S(metal)    S(lipo)     H(rot)  DE(clash)    DE(int)     intcor
     11.94     -16.29       0.00        0.00     120.47       1.28       0.11       4.24       ----

> <Gold.Chemscore.Fitness>
11.9444

> <Gold.Chemscore.DG>
-16.2890

> <Gold.Chemscore.ZeroCoef>
-5.4800

> <Gold.Chemscore.Hbond>
0.0000

> <Gold.Chemscore.Metal>
0.0000

> <Gold.Chemscore.Lipo>
120.4748

> <Gold.Chemscore.Internal_Hbond>
0.0000

> <Gold.Chemscore.DEClash>
0.1066

> <Gold.Chemscore.DEInternal>
4.2379

> <Gold.Chemscore.Rot>
1.2838

> <Gold.Chemscore.Internal.Correction>
   9.000000E+99

> <Gold.Chemscore.Hbond.Weighted>
-0.0000

> <Gold.Chemscore.Metal.Weighted>
-0.0000

> <Gold.Chemscore.Lipo.Weighted>
-14.0955

> <Gold.Chemscore.Internal_Hbond.Weighted>
0.0000

> <Gold.Chemscore.DEClash.Weighted>
0.1066

> <Gold.Chemscore.DEInternal.Weighted>
4.2379

> <Gold.Chemscore.Rot.Weighted>
3.2865

> <Gold.Chemscore.Internal.Correction.Weighted>
   9.000000E+99

> <Gold.Protein.RotatedTorsions>
[ 6907 6896 6895 6894 ] final  146.16 input  -60.11 | X-H torsion
[ 7974 7965 7964 7962 ] final   36.15 input  175.53 | X-H torsion
[ 8008 7997 7996 7995 ] final -133.91 input   59.86 | X-H torsion
[ 10167 10162 10161 10158 ] final   17.76 input  -65.29 | X-H torsion
[ 10718 10713 10712 10709 ] final -136.54 input   66.30 | X-H torsion
[ 10763 10752 10751 10750 ] final -157.39 input  -60.55 | X-H torsion
[ 11005 11000 10999 10996 ] final   16.03 input  -57.11 | X-H torsion

> <Gold.Protein.ActiveResidues>
 VAL166  LYS551  ARG553  GLY616  TRP617  ASP618  TYR619  PRO620  LYS621  CYS622 
 ASP623  PHE694  ASN695  SER759  ASP760  ASP761  ALA762  ILE779  LEU786  VAL792 
 PHE793  MET794  SER795  GLU796  ALA797  LYS798  CYS799  TRP800  GLU811  SER814 

> <Gold.Protein.RotatedAtoms>
  152.1715  133.4646  159.4911 H   0  0  0  0  0  0  0  0  0  0  0  0  # atno 6907 bound_to 6896
  150.6920  134.1947  159.4308 H   0  0  0  0  0  0  0  0  0  0  0  0  # atno 6908 bound_to 6896
  151.9854  135.0006  160.0610 H   0  0  0  0  0  0  0  0  0  0  0  0  # atno 6909 bound_to 6896
  146.1232  139.6054  142.9276 H   0  0  0  0  0  0  0  0  0  0  0  0  # atno 7974 bound_to 7965
  155.3533  140.0478  157.3046 H   0  0  0  0  0  0  0  0  0  0  0  0  # atno 8008 bound_to 7997
  154.5216  140.2227  155.8930 H   0  0  0  0  0  0  0  0  0  0  0  0  # atno 8009 bound_to 7997
  156.1695  140.3099  155.8954 H   0  0  0  0  0  0  0  0  0  0  0  0  # atno 8010 bound_to 7997
  140.5703  143.9174  150.6708 H   0  0  0  0  0  0  0  0  0  0  0  0  # atno 10167 bound_to 10162
  156.2782  130.7305  151.1294 H   0  0  0  0  0  0  0  0  0  0  0  0  # atno 10718 bound_to 10713
  154.7639  135.3125  154.8324 H   0  0  0  0  0  0  0  0  0  0  0  0  # atno 10763 bound_to 10752
  153.9077  135.6809  153.4756 H   0  0  0  0  0  0  0  0  0  0  0  0  # atno 10764 bound_to 10752
  153.1243  135.4808  154.9179 H   0  0  0  0  0  0  0  0  0  0  0  0  # atno 10765 bound_to 10752
  140.4517  134.1217  155.7703 H   0  0  0  0  0  0  0  0  0  0  0  0  # atno 11005 bound_to 11000
  145.5421  141.0420  143.2325 LP  0  0  0  0  0  0  0  0  0  0  0  0  # atno 17320 bound_to 7965
  144.7617  139.6941  143.7231 LP  0  0  0  0  0  0  0  0  0  0  0  0  # atno 17321 bound_to 7965
  140.2647  143.3498  152.1291 LP  0  0  0  0  0  0  0  0  0  0  0  0  # atno 17342 bound_to 10162
  139.5114  144.6900  151.5786 LP  0  0  0  0  0  0  0  0  0  0  0  0  # atno 17343 bound_to 10162
  157.7306  131.0615  150.5719 LP  0  0  0  0  0  0  0  0  0  0  0  0  # atno 17370 bound_to 10713
  156.5822  130.4307  149.5972 LP  0  0  0  0  0  0  0  0  0  0  0  0  # atno 17371 bound_to 10713
  141.1661  133.8700  157.1710 LP  0  0  0  0  0  0  0  0  0  0  0  0  # atno 17394 bound_to 11000
  140.0002  135.0030  157.0174 LP  0  0  0  0  0  0  0  0  0  0  0  0  # atno 17395 bound_to 11000

$$$$
