AV-unprocessed.smi:668|AV-procd|sdf|3259|dock7
  -GOLD-   22720 0213D 1   1.00000     0.00000
 Structure written by MMmdl.
 38 39  0  0  0  0  0  0  0  0  1 V2000
  151.2435  142.2820  157.7445 C   0  0  0  0  0  0  0  0  0  0  0  0
  151.0140  142.1371  156.3473 O   0  0  0  0  0  0  0  0  0  0  0  0
  150.6825  140.8880  155.8638 C   0  0  0  0  0  0  0  0  0  0  0  0
  150.8787  139.7689  156.6972 C   0  0  0  0  0  0  0  0  0  0  0  0
  150.5349  138.4916  156.2152 C   0  0  0  0  0  0  0  0  0  0  0  0
  149.9977  138.3749  154.9113 C   0  0  0  0  0  0  0  0  0  0  0  0
  149.6254  137.1426  154.3109 N   0  0  0  0  0  0  0  0  0  0  0  0
  149.3582  135.9726  154.9154 C   0  0  0  0  0  0  0  0  0  0  0  0
  149.4015  135.7726  156.1292 O   0  0  0  0  0  0  0  0  0  0  0  0
  149.0111  135.0344  154.0236 N   0  0  0  0  0  0  0  0  0  0  0  0
  148.6235  133.6656  154.3562 C   0  0  2  0  0  0  0  0  0  0  0  0
  149.6737  132.9575  155.2264 C   0  0  0  0  0  0  0  0  0  0  0  0
  149.5937  131.4913  154.8140 C   0  0  0  0  0  0  0  0  0  0  0  0
  149.3304  131.5445  153.3107 C   0  0  0  0  0  0  0  0  0  0  0  0
  148.4691  132.8024  153.0763 C   0  0  1  0  0  0  0  0  0  0  0  0
  146.9992  132.4598  152.7829 C   0  0  0  0  0  0  0  0  0  0  0  0
  146.7523  131.7027  151.7108 N   0  0  0  0  0  0  0  0  0  0  0  0
  146.0996  132.8680  153.5150 O   0  0  0  0  0  0  0  0  0  0  0  0
  149.8602  139.5537  154.1498 C   0  0  0  0  0  0  0  0  0  0  0  0
  150.1845  140.7813  154.6070 N   0  0  0  0  0  0  0  0  0  0  0  0
  151.4985  143.3191  157.9622 H   0  0  0  0  0  0  0  0  0  0  0  0
  152.0762  141.6605  158.0769 H   0  0  0  0  0  0  0  0  0  0  0  0
  150.3547  142.0311  158.3254 H   0  0  0  0  0  0  0  0  0  0  0  0
  151.2876  139.8877  157.6897 H   0  0  0  0  0  0  0  0  0  0  0  0
  150.7003  137.6319  156.8459 H   0  0  0  0  0  0  0  0  0  0  0  0
  149.4670  137.1758  153.3145 H   0  0  0  0  0  0  0  0  0  0  0  0
  149.0013  135.2858  153.0462 H   0  0  0  0  0  0  0  0  0  0  0  0
  147.6823  133.6906  154.9104 H   0  0  0  0  0  0  0  0  0  0  0  0
  150.6720  133.3370  155.0021 H   0  0  0  0  0  0  0  0  0  0  0  0
  149.4979  133.1023  156.2928 H   0  0  0  0  0  0  0  0  0  0  0  0
  150.4967  130.9335  155.0639 H   0  0  0  0  0  0  0  0  0  0  0  0
  148.7539  131.0123  155.3193 H   0  0  0  0  0  0  0  0  0  0  0  0
  150.2774  131.6519  152.7799 H   0  0  0  0  0  0  0  0  0  0  0  0
  148.8684  130.6240  152.9501 H   0  0  0  0  0  0  0  0  0  0  0  0
  148.8777  133.3278  152.2105 H   0  0  0  0  0  0  0  0  0  0  0  0
  145.8028  131.4522  151.4762 H   0  0  0  0  0  0  0  0  0  0  0  0
  147.5196  131.3843  151.1369 H   0  0  0  0  0  0  0  0  0  0  0  0
  149.4690  139.5136  153.1436 H   0  0  0  0  0  0  0  0  0  0  0  0
  1  2  1  0  0  0  0
  1 21  1  0  0  0  0
  1 22  1  0  0  0  0
  1 23  1  0  0  0  0
  2  3  1  0  0  0  0
  3 20  1  0  0  0  0
  3  4  2  0  0  0  0
  4  5  1  0  0  0  0
  4 24  1  0  0  0  0
  5  6  2  0  0  0  0
  5 25  1  0  0  0  0
  6  7  1  0  0  0  0
  6 19  1  0  0  0  0
  7  8  1  0  0  0  0
  7 26  1  0  0  0  0
  8  9  2  0  0  0  0
  8 10  1  0  0  0  0
 10 11  1  0  0  0  0
 10 27  1  0  0  0  0
 11 15  1  0  0  0  0
 11 12  1  0  0  0  0
 11 28  1  0  0  0  0
 12 13  1  0  0  0  0
 12 29  1  0  0  0  0
 12 30  1  0  0  0  0
 13 14  1  0  0  0  0
 13 31  1  0  0  0  0
 13 32  1  0  0  0  0
 14 15  1  0  0  0  0
 14 33  1  0  0  0  0
 14 34  1  0  0  0  0
 15 16  1  0  0  0  0
 15 35  1  0  0  0  0
 16 17  1  0  0  0  0
 16 18  2  0  0  0  0
 17 36  1  0  0  0  0
 17 37  1  0  0  0  0
 19 20  2  0  0  0  0
 19 38  1  0  0  0  0
M  END
> <s_m_source_file>
AV-unprocessed.smi

> <i_m_source_file_index>
668

> <i_lp_mmshare_version>
43012

> <i_f3d_flags>
0

> <s_epik_input>
W0NIM11PYzFbY0hdW2NIXWMoW2NIXW4xKVtOSF1DKD1PKVtOSF1bQ0BASF0yW0NIMl1bQ0gyXVtDSDJdW0NASF0yQyg9TylbTkgyXQ==

> <s_epik_cmdline>
J2VwaWtfcHl0aG9uJywgJy1waCcsICc3LjAnLCAnLXRuJywgJzgnLCAnLW1hJywgJzIwMCcsICctbWV0YWxfYmluZGluZycsICctaW1hZScsICc8aW5maWxlLm1hZT4nLCAnLW9tYWUnLCAnPG91dGZpbGUubWFlPic=

> <r_lp_tautomer_probability>
1

> <r_epik_Ionization_Penalty>
9.0916e-05

> <r_epik_Ionization_Penalty_Charging>
0

> <r_epik_Ionization_Penalty_Neutral>
9.0916e-05

> <r_epik_State_Penalty>
-0

> <r_epik_Charging_Adjusted_Penalty>
0

> <i_epik_Tot_Q>
0

> <i_epik_Tot_abs_Q>
0

> <r_epik_Metal_State_Penalty>
-0

> <b_epik_Metal_Only>
0

> <s_lp_Force_Field>
OPLS_2005

> <r_lp_Energy>
16.4016

> <b_lp_Chiralities_Consistent>
1

> <s_lp_Variant>
AV-unprocessed.smi:668-1

> <Gold.Version>
5.8.1

> <Gold.Id.Protein>
6NUR|6NUR_protein|mol2

> <Gold.PLP.Fitness>
42.1980

> <Gold.PLP.PLP>
-28.4566

> <Gold.PLP.part.hbond>
-4.0000

> <Gold.PLP.part.metal>
0.0000

> <Gold.PLP.part.buried>
-3.8802

> <Gold.PLP.part.nonpolar>
-20.8387

> <Gold.PLP.part.repulsive>
0.3510

> <Gold.PLP.ligand.clash>
0.1099

> <Gold.PLP.ligand.torsion>
0.2944

> <Gold.PLP.Chemscore.Hbond>
3.8120

> <Gold.PLP.Chemscore.CHOScore>
1.0000

> <Gold.PLP.Chemscore.Metal>
0.0000

> <Gold.Chemscore.Hbonds>
donor molecule, donor type, donor heavy atom, donor atom, acceptor molecule, acceptor atom, score
      L1  H     7    26       P1  7948  0.91
      L1  H    10    27       P1  7948  0.88
      L1  H    17    37       P1 10747  1.00
      P1  H  7989  7998       L1    20  0.47
      L1  C    19    38       P1  7957  1.00

> <Gold.PLP.Chemscore.Internal.Correction>
0.0042

> <Gold.Rescore>
     Score         DG    S(hbond)    S(metal)    S(lipo)     H(rot)  DE(clash)    DE(int)     intcor
     12.52     -15.13       2.48        0.00      52.65       1.86       0.00       2.61       ----

> <Gold.Chemscore.Fitness>
12.5228

> <Gold.Chemscore.DG>
-15.1342

> <Gold.Chemscore.ZeroCoef>
-5.4800

> <Gold.Chemscore.Hbond>
2.4753

> <Gold.Chemscore.Metal>
0.0000

> <Gold.Chemscore.Lipo>
52.6540

> <Gold.Chemscore.Internal_Hbond>
0.0000

> <Gold.Chemscore.DEClash>
0.0000

> <Gold.Chemscore.DEInternal>
2.6114

> <Gold.Chemscore.Rot>
1.8648

> <Gold.Chemscore.Internal.Correction>
   9.000000E+99

> <Gold.Chemscore.Hbonds>
donor molecule, donor type, donor heavy atom, donor atom, acceptor molecule, acceptor atom, score
      L1  H     7    26       P1  7948  0.79
      L1  H    10    27       P1  7948  0.25
      L1  H    17    37       P1 10747  1.00
      P1  H  7989  7998       L1    20  0.02

> <Gold.Chemscore.Hbond.Weighted>
-8.2676

> <Gold.Chemscore.Metal.Weighted>
-0.0000

> <Gold.Chemscore.Lipo.Weighted>
-6.1605

> <Gold.Chemscore.Internal_Hbond.Weighted>
0.0000

> <Gold.Chemscore.DEClash.Weighted>
0.0000

> <Gold.Chemscore.DEInternal.Weighted>
2.6114

> <Gold.Chemscore.Rot.Weighted>
4.7739

> <Gold.Chemscore.Internal.Correction.Weighted>
   9.000000E+99

> <Gold.Protein.RotatedTorsions>
[ 6907 6896 6895 6894 ] final  -48.84 input  -60.11 | X-H torsion
[ 7974 7965 7964 7962 ] final  -89.66 input  175.53 | X-H torsion
[ 8008 7997 7996 7995 ] final -139.84 input   59.86 | X-H torsion
[ 10167 10162 10161 10158 ] final    3.49 input  -65.29 | X-H torsion
[ 10718 10713 10712 10709 ] final -166.17 input   66.30 | X-H torsion
[ 10763 10752 10751 10750 ] final  154.87 input  -60.55 | X-H torsion
[ 11005 11000 10999 10996 ] final   63.49 input  -57.11 | X-H torsion

> <Gold.Protein.ActiveResidues>
 VAL166  LYS551  ARG553  GLY616  TRP617  ASP618  TYR619  PRO620  LYS621  CYS622 
 ASP623  PHE694  ASN695  SER759  ASP760  ASP761  ALA762  ILE779  LEU786  VAL792 
 PHE793  MET794  SER795  GLU796  ALA797  LYS798  CYS799  TRP800  GLU811  SER814 

> <Gold.Protein.RotatedAtoms>
  150.8865  134.8263  159.7262 H   0  0  0  0  0  0  0  0  0  0  0  0  # atno 6907 bound_to 6896
  152.4810  134.4715  159.9647 H   0  0  0  0  0  0  0  0  0  0  0  0  # atno 6908 bound_to 6896
  151.4783  133.3514  159.2869 H   0  0  0  0  0  0  0  0  0  0  0  0  # atno 6909 bound_to 6896
  145.4368  140.9558  143.2097 H   0  0  0  0  0  0  0  0  0  0  0  0  # atno 7974 bound_to 7965
  155.4516  140.0539  157.3000 H   0  0  0  0  0  0  0  0  0  0  0  0  # atno 8008 bound_to 7997
  154.4775  140.2067  155.9799 H   0  0  0  0  0  0  0  0  0  0  0  0  # atno 8009 bound_to 7997
  156.1154  140.3197  155.8137 H   0  0  0  0  0  0  0  0  0  0  0  0  # atno 8010 bound_to 7997
  140.6583  143.7370  150.7693 H   0  0  0  0  0  0  0  0  0  0  0  0  # atno 10167 bound_to 10162
  156.6640  130.9057  151.3033 H   0  0  0  0  0  0  0  0  0  0  0  0  # atno 10718 bound_to 10713
  154.1593  135.2810  155.3113 H   0  0  0  0  0  0  0  0  0  0  0  0  # atno 10763 bound_to 10752
  154.6159  135.5483  153.7526 H   0  0  0  0  0  0  0  0  0  0  0  0  # atno 10764 bound_to 10752
  153.0197  135.6427  154.1735 H   0  0  0  0  0  0  0  0  0  0  0  0  # atno 10765 bound_to 10752
  140.0021  134.6426  155.9914 H   0  0  0  0  0  0  0  0  0  0  0  0  # atno 11005 bound_to 11000
  144.8147  139.5899  143.7014 LP  0  0  0  0  0  0  0  0  0  0  0  0  # atno 17320 bound_to 7965
  146.2577  139.6340  142.9383 LP  0  0  0  0  0  0  0  0  0  0  0  0  # atno 17321 bound_to 7965
  140.1034  143.4766  152.2412 LP  0  0  0  0  0  0  0  0  0  0  0  0  # atno 17342 bound_to 10162
  139.5811  144.7510  151.3639 LP  0  0  0  0  0  0  0  0  0  0  0  0  # atno 17343 bound_to 10162
  157.7100  130.9429  150.1057 LP  0  0  0  0  0  0  0  0  0  0  0  0  # atno 17370 bound_to 10713
  156.1989  130.3659  149.8813 LP  0  0  0  0  0  0  0  0  0  0  0  0  # atno 17371 bound_to 10713
  141.1649  133.6537  156.4447 LP  0  0  0  0  0  0  0  0  0  0  0  0  # atno 17394 bound_to 11000
  140.4709  134.6754  157.5128 LP  0  0  0  0  0  0  0  0  0  0  0  0  # atno 17395 bound_to 11000

$$$$
