AV-unprocessed.smi:2881|AV-procd|sdf|11069|dock7
  -GOLD-   2272015543D 1   1.00000     0.00000
 Structure written by MMmdl.
 40 42  0  0  0  0  0  0  0  0  1 V2000
  147.4624  135.1317  162.7198 C   0  0  0  0  0  0  0  0  0  0  0  0
  147.7384  135.6111  161.3252 C   0  0  0  0  0  0  0  0  0  0  0  0
  147.6594  134.8724  160.1083 C   0  0  0  0  0  0  0  0  0  0  0  0
  148.0002  135.7761  159.1407 C   0  0  0  0  0  0  0  0  0  0  0  0
  148.1080  135.6391  157.6548 C   0  0  0  0  0  0  0  0  0  0  0  0
  149.5523  135.7997  157.1699 C   0  0  0  0  0  0  0  0  0  0  0  0
  150.4539  135.1122  157.6505 O   0  0  0  0  0  0  0  0  0  0  0  0
  149.7615  136.7234  156.2195 N   0  0  0  0  0  0  0  0  0  0  0  0
  151.0634  137.0370  155.6287 C   0  0  2  0  0  0  0  0  0  0  0  0
  152.1275  137.4698  156.6712 C   0  0  2  0  0  0  0  0  0  0  0  0
  151.5842  138.5756  157.6009 C   0  0  0  0  0  0  0  0  0  0  0  0
  151.5003  139.7917  156.6612 C   0  0  0  0  0  0  0  0  0  0  0  0
  152.0327  139.2339  155.3243 C   0  0  1  0  0  0  0  0  0  0  0  0
  153.1050  138.2681  155.8145 C   0  0  0  0  0  0  0  0  0  0  0  0
  151.0346  138.2532  154.6604 C   0  0  2  0  0  0  0  0  0  0  0  0
  149.6498  138.8346  154.2963 C   0  0  0  0  0  0  0  0  0  0  0  0
  149.7996  140.0549  153.6023 O   0  0  0  0  0  0  0  0  0  0  0  0
  148.2628  136.9578  159.7966 N   0  0  0  0  0  0  0  0  0  0  0  0
  148.1045  136.8692  161.1303 N   0  0  0  0  0  0  0  0  0  0  0  0
  148.5438  137.8208  159.3535 H   0  0  0  0  0  0  0  0  0  0  0  0
  147.2476  134.0630  162.7336 H   0  0  0  0  0  0  0  0  0  0  0  0
  146.6036  135.6483  163.1492 H   0  0  0  0  0  0  0  0  0  0  0  0
  148.3180  135.3058  163.3726 H   0  0  0  0  0  0  0  0  0  0  0  0
  147.3879  133.8366  159.9673 H   0  0  0  0  0  0  0  0  0  0  0  0
  147.4944  136.3973  157.1679 H   0  0  0  0  0  0  0  0  0  0  0  0
  147.7134  134.6708  157.3429 H   0  0  0  0  0  0  0  0  0  0  0  0
  148.9687  137.2518  155.8857 H   0  0  0  0  0  0  0  0  0  0  0  0
  151.4195  136.1624  155.0803 H   0  0  0  0  0  0  0  0  0  0  0  0
  152.5737  136.6333  157.2102 H   0  0  0  0  0  0  0  0  0  0  0  0
  150.6268  138.3320  158.0613 H   0  0  0  0  0  0  0  0  0  0  0  0
  152.2887  138.7719  158.4102 H   0  0  0  0  0  0  0  0  0  0  0  0
  150.4937  140.2005  156.5894 H   0  0  0  0  0  0  0  0  0  0  0  0
  152.1471  140.5913  157.0244 H   0  0  0  0  0  0  0  0  0  0  0  0
  152.3984  140.0061  154.6468 H   0  0  0  0  0  0  0  0  0  0  0  0
  153.8943  138.7523  156.3925 H   0  0  0  0  0  0  0  0  0  0  0  0
  153.5603  137.6801  155.0155 H   0  0  0  0  0  0  0  0  0  0  0  0
  151.4850  137.9230  153.7222 H   0  0  0  0  0  0  0  0  0  0  0  0
  149.1126  138.1413  153.6486 H   0  0  0  0  0  0  0  0  0  0  0  0
  149.0244  138.9954  155.1736 H   0  0  0  0  0  0  0  0  0  0  0  0
  149.5276  139.9272  152.7065 H   0  0  0  0  0  0  0  0  0  0  0  0
  1 21  1  0  0  0  0
  1 22  1  0  0  0  0
  1 23  1  0  0  0  0
  1  2  1  0  0  0  0
  2 19  2  0  0  0  0
  2  3  1  0  0  0  0
  3  4  2  0  0  0  0
  3 24  1  0  0  0  0
  4 18  1  0  0  0  0
  4  5  1  0  0  0  0
  5  6  1  0  0  0  0
  5 25  1  0  0  0  0
  5 26  1  0  0  0  0
  6  7  2  0  0  0  0
  6  8  1  0  0  0  0
  8  9  1  0  0  0  0
  8 27  1  0  0  0  0
  9 15  1  0  0  0  0
  9 10  1  0  0  0  0
  9 28  1  0  0  0  0
 10 14  1  0  0  0  0
 10 11  1  0  0  0  0
 10 29  1  0  0  0  0
 11 12  1  0  0  0  0
 11 30  1  0  0  0  0
 11 31  1  0  0  0  0
 12 13  1  0  0  0  0
 12 32  1  0  0  0  0
 12 33  1  0  0  0  0
 13 14  1  0  0  0  0
 13 15  1  0  0  0  0
 13 34  1  0  0  0  0
 14 35  1  0  0  0  0
 14 36  1  0  0  0  0
 15 16  1  0  0  0  0
 15 37  1  0  0  0  0
 16 17  1  0  0  0  0
 16 38  1  0  0  0  0
 16 39  1  0  0  0  0
 17 40  1  0  0  0  0
 18 19  1  0  0  0  0
 18 20  1  0  0  0  0
M  END
> <s_m_source_file>
AV-unprocessed.smi

> <i_m_source_file_index>
2881

> <i_lp_mmshare_version>
43012

> <i_f3d_flags>
0

> <s_epik_input>
W0NIM11jMVtjSF1jKG5bbkhdMSlbQ0gyXUMoPU8pW05IXVtDQEhdKFtDQEBIXTIzKVtDQEhdKFtDSDJdW09IXSlbQ0BASF0oW0NIMl0zKVtDSDJdW0NIMl0y

> <s_epik_cmdline>
J2VwaWtfcHl0aG9uJywgJy1waCcsICc3LjAnLCAnLXRuJywgJzgnLCAnLW1hJywgJzIwMCcsICctbWV0YWxfYmluZGluZycsICctaW1hZScsICc8aW5maWxlLm1hZT4nLCAnLW9tYWUnLCAnPG91dGZpbGUubWFlPic=

> <r_lp_tautomer_probability>
0.5

> <r_epik_Ionization_Penalty>
0.00013396

> <r_epik_Ionization_Penalty_Charging>
0

> <r_epik_Ionization_Penalty_Neutral>
0.00013396

> <r_epik_State_Penalty>
0.41068

> <r_epik_Charging_Adjusted_Penalty>
0.41068

> <i_epik_Tot_Q>
0

> <i_epik_Tot_abs_Q>
0

> <r_epik_Metal_State_Penalty>
0.41066

> <b_epik_Metal_Only>
0

> <s_lp_Force_Field>
OPLS_2005

> <r_lp_Energy>
50.1234

> <b_lp_Chiralities_Consistent>
1

> <s_lp_Variant>
AV-unprocessed.smi:2881-15

> <Gold.Version>
5.8.1

> <Gold.Id.Protein>
6NUR|6NUR_protein|mol2

> <Gold.PLP.Fitness>
41.0836

> <Gold.PLP.PLP>
-31.0976

> <Gold.PLP.part.hbond>
-4.6462

> <Gold.PLP.part.metal>
0.0000

> <Gold.PLP.part.buried>
-4.2451

> <Gold.PLP.part.nonpolar>
-23.3059

> <Gold.PLP.part.repulsive>
0.3700

> <Gold.PLP.ligand.clash>
0.0000

> <Gold.PLP.ligand.torsion>
0.1522

> <Gold.PLP.Chemscore.Hbond>
3.4260

> <Gold.PLP.Chemscore.CHOScore>
0.0000

> <Gold.PLP.Chemscore.Metal>
0.0000

> <Gold.Chemscore.Hbonds>
donor molecule, donor type, donor heavy atom, donor atom, acceptor molecule, acceptor atom, score
      L1  H    17    40       P1  7957  1.00
      P1  H  6896  6907       L1     7  0.58
      P1  H  6931  6943       L1    19  1.00
      P1  H  6934  6947       L1    19  0.03
      P1  H  7989  7998       L1    17  0.67

> <Gold.PLP.Chemscore.Internal.Correction>
0.0123

> <Gold.Rescore>
     Score         DG    S(hbond)    S(metal)    S(lipo)     H(rot)  DE(clash)    DE(int)     intcor
     18.33     -18.65       3.06        0.00      74.91       2.28       0.26       0.06       ----

> <Gold.Chemscore.Fitness>
18.3313

> <Gold.Chemscore.DG>
-18.6547

> <Gold.Chemscore.ZeroCoef>
-5.4800

> <Gold.Chemscore.Hbond>
3.0645

> <Gold.Chemscore.Metal>
0.0000

> <Gold.Chemscore.Lipo>
74.9115

> <Gold.Chemscore.Internal_Hbond>
0.0000

> <Gold.Chemscore.DEClash>
0.2638

> <Gold.Chemscore.DEInternal>
0.0596

> <Gold.Chemscore.Rot>
2.2755

> <Gold.Chemscore.Internal.Correction>
   9.000000E+99

> <Gold.Chemscore.Hbonds>
donor molecule, donor type, donor heavy atom, donor atom, acceptor molecule, acceptor atom, score
      L1  H    17    40       P1  7957  0.94
      P1  H  6896  6907       L1     7  0.58
      P1  H  6931  6943       L1    19  0.65
      P1  H  7989  7998       L1    17  0.29

> <Gold.Chemscore.Hbond.Weighted>
-10.2353

> <Gold.Chemscore.Metal.Weighted>
-0.0000

> <Gold.Chemscore.Lipo.Weighted>
-8.7646

> <Gold.Chemscore.Internal_Hbond.Weighted>
0.0000

> <Gold.Chemscore.DEClash.Weighted>
0.2638

> <Gold.Chemscore.DEInternal.Weighted>
0.0596

> <Gold.Chemscore.Rot.Weighted>
5.8252

> <Gold.Chemscore.Internal.Correction.Weighted>
   9.000000E+99

> <Gold.Protein.RotatedTorsions>
[ 6907 6896 6895 6894 ] final  -84.01 input  -60.11 | X-H torsion
[ 7974 7965 7964 7962 ] final -146.37 input  175.53 | X-H torsion
[ 8008 7997 7996 7995 ] final  -31.70 input   59.86 | X-H torsion
[ 10167 10162 10161 10158 ] final  -58.94 input  -65.29 | X-H torsion
[ 10718 10713 10712 10709 ] final   70.51 input   66.30 | X-H torsion
[ 10763 10752 10751 10750 ] final   47.88 input  -60.55 | X-H torsion
[ 11005 11000 10999 10996 ] final -135.86 input  -57.11 | X-H torsion

> <Gold.Protein.ActiveResidues>
 VAL166  LYS551  ARG553  GLY616  TRP617  ASP618  TYR619  PRO620  LYS621  CYS622 
 ASP623  PHE694  ASN695  SER759  ASP760  ASP761  ALA762  ILE779  LEU786  VAL792 
 PHE793  MET794  SER795  GLU796  ALA797  LYS798  CYS799  TRP800  GLU811  SER814 

> <Gold.Protein.RotatedAtoms>
  150.6880  134.3423  159.4873 H   0  0  0  0  0  0  0  0  0  0  0  0  # atno 6907 bound_to 6896
  152.1275  134.9157  160.0569 H   0  0  0  0  0  0  0  0  0  0  0  0  # atno 6908 bound_to 6896
  152.0339  133.3914  159.4346 H   0  0  0  0  0  0  0  0  0  0  0  0  # atno 6909 bound_to 6896
  144.8164  140.5464  143.5608 H   0  0  0  0  0  0  0  0  0  0  0  0  # atno 7974 bound_to 7965
  154.4204  140.1757  156.1609 H   0  0  0  0  0  0  0  0  0  0  0  0  # atno 8008 bound_to 7997
  155.9838  140.3375  155.6664 H   0  0  0  0  0  0  0  0  0  0  0  0  # atno 8009 bound_to 7997
  155.6464  140.0685  157.2592 H   0  0  0  0  0  0  0  0  0  0  0  0  # atno 8010 bound_to 7997
  140.6166  143.2404  151.5582 H   0  0  0  0  0  0  0  0  0  0  0  0  # atno 10167 bound_to 10162
  157.6404  130.9481  150.0661 H   0  0  0  0  0  0  0  0  0  0  0  0  # atno 10718 bound_to 10713
  152.9796  135.5962  154.3835 H   0  0  0  0  0  0  0  0  0  0  0  0  # atno 10763 bound_to 10752
  154.3498  135.2767  155.2380 H   0  0  0  0  0  0  0  0  0  0  0  0  # atno 10764 bound_to 10752
  154.4425  135.6010  153.6193 H   0  0  0  0  0  0  0  0  0  0  0  0  # atno 10765 bound_to 10752
  140.8859  134.1873  157.4560 H   0  0  0  0  0  0  0  0  0  0  0  0  # atno 11005 bound_to 11000
  145.5205  139.1477  143.3555 LP  0  0  0  0  0  0  0  0  0  0  0  0  # atno 17320 bound_to 7965
  146.2467  140.5346  142.8911 LP  0  0  0  0  0  0  0  0  0  0  0  0  # atno 17321 bound_to 7965
  139.5404  144.2665  152.1338 LP  0  0  0  0  0  0  0  0  0  0  0  0  # atno 17342 bound_to 10162
  140.1875  144.4784  150.6496 LP  0  0  0  0  0  0  0  0  0  0  0  0  # atno 17343 bound_to 10162
  156.1679  130.3645  149.9206 LP  0  0  0  0  0  0  0  0  0  0  0  0  # atno 17370 bound_to 10713
  156.7188  130.8999  151.3616 LP  0  0  0  0  0  0  0  0  0  0  0  0  # atno 17371 bound_to 10713
  139.8724  134.9837  156.5211 LP  0  0  0  0  0  0  0  0  0  0  0  0  # atno 17394 bound_to 11000
  140.8405  133.8208  155.9071 LP  0  0  0  0  0  0  0  0  0  0  0  0  # atno 17395 bound_to 11000

$$$$
