AV-unprocessed.smi:3231|AV-procd|sdf|12338|dock1
  -GOLD-   2272018193D 1   1.00000     0.00000
 Structure written by MMmdl.
 40 41  0  0  0  0  0  0  0  0  1 V2000
  146.1526  138.5600  154.1084 O   0  0  0  0  0  0  0  0  0  0  0  0
  147.1301  138.8853  153.1396 C   0  0  1  0  0  0  0  0  0  0  0  0
  146.3997  139.0217  151.7913 C   0  0  0  0  0  0  0  0  0  0  0  0
  145.3220  138.0433  151.6693 N   0  0  0  0  0  0  0  0  0  0  0  0
  145.7963  136.6645  151.6162 C   0  0  0  0  0  0  0  0  0  0  0  0
  144.6209  135.6779  151.5876 C   0  0  0  0  0  0  0  0  0  0  0  0
  145.0236  134.3838  151.0721 N   0  0  0  0  0  0  0  0  0  0  0  0
  144.3844  133.5965  150.1379 C   0  0  0  0  0  0  0  0  0  0  0  0
  145.1400  132.4715  149.9698 C   0  0  0  0  0  0  0  0  0  0  0  0
  146.2364  132.6651  150.8559 C   0  0  0  0  0  0  0  0  0  0  0  0
  146.1639  133.8107  151.5144 N   0  0  0  0  0  0  0  0  0  0  0  0
  147.8118  140.2058  153.5618 C   0  0  0  0  0  0  0  0  0  0  0  0
  148.8818  140.0705  154.5516 N   0  0  0  0  0  0  0  0  0  0  0  0
  149.5038  141.3493  154.8880 C   0  0  0  0  0  0  0  0  0  0  0  0
  150.6469  141.1840  155.9050 C   0  0  0  0  0  0  0  0  0  0  0  0
  151.6107  140.2658  155.3998 O   0  0  0  0  0  0  0  0  0  0  0  0
  151.0507  138.9902  155.1066 C   0  0  0  0  0  0  0  0  0  0  0  0
  149.9138  139.1514  154.0827 C   0  0  0  0  0  0  0  0  0  0  0  0
  145.5754  139.3019  154.2072 H   0  0  0  0  0  0  0  0  0  0  0  0
  147.8735  138.0889  153.0765 H   0  0  0  0  0  0  0  0  0  0  0  0
  146.0210  140.0363  151.6605 H   0  0  0  0  0  0  0  0  0  0  0  0
  147.1116  138.8533  150.9824 H   0  0  0  0  0  0  0  0  0  0  0  0
  144.6740  138.1518  152.4433 H   0  0  0  0  0  0  0  0  0  0  0  0
  146.4195  136.5188  150.7331 H   0  0  0  0  0  0  0  0  0  0  0  0
  146.4254  136.4548  152.4824 H   0  0  0  0  0  0  0  0  0  0  0  0
  144.2079  135.5419  152.5883 H   0  0  0  0  0  0  0  0  0  0  0  0
  143.8150  136.0639  150.9616 H   0  0  0  0  0  0  0  0  0  0  0  0
  143.4562  133.8988  149.6753 H   0  0  0  0  0  0  0  0  0  0  0  0
  144.9404  131.6371  149.3140 H   0  0  0  0  0  0  0  0  0  0  0  0
  147.0770  132.0119  151.0386 H   0  0  0  0  0  0  0  0  0  0  0  0
  148.2542  140.6456  152.6673 H   0  0  0  0  0  0  0  0  0  0  0  0
  147.0677  140.9301  153.8982 H   0  0  0  0  0  0  0  0  0  0  0  0
  149.8897  141.8223  153.9838 H   0  0  0  0  0  0  0  0  0  0  0  0
  148.7632  142.0303  155.3065 H   0  0  0  0  0  0  0  0  0  0  0  0
  151.1308  142.1429  156.0907 H   0  0  0  0  0  0  0  0  0  0  0  0
  150.2631  140.8280  156.8624 H   0  0  0  0  0  0  0  0  0  0  0  0
  151.8306  138.3410  154.7082 H   0  0  0  0  0  0  0  0  0  0  0  0
  150.6834  138.5262  156.0231 H   0  0  0  0  0  0  0  0  0  0  0  0
  149.4746  138.1743  153.8778 H   0  0  0  0  0  0  0  0  0  0  0  0
  150.3284  139.5109  153.1395 H   0  0  0  0  0  0  0  0  0  0  0  0
  1  2  1  0  0  0  0
  1 19  1  0  0  0  0
  2  3  1  0  0  0  0
  2 12  1  0  0  0  0
  2 20  1  0  0  0  0
  3  4  1  0  0  0  0
  3 21  1  0  0  0  0
  3 22  1  0  0  0  0
  4  5  1  0  0  0  0
  4 23  1  0  0  0  0
  5  6  1  0  0  0  0
  5 24  1  0  0  0  0
  5 25  1  0  0  0  0
  6  7  1  0  0  0  0
  6 26  1  0  0  0  0
  6 27  1  0  0  0  0
  7 11  1  0  0  0  0
  7  8  1  0  0  0  0
  8  9  2  0  0  0  0
  8 28  1  0  0  0  0
  9 10  1  0  0  0  0
  9 29  1  0  0  0  0
 10 11  2  0  0  0  0
 10 30  1  0  0  0  0
 12 13  1  0  0  0  0
 12 31  1  0  0  0  0
 12 32  1  0  0  0  0
 13 18  1  0  0  0  0
 13 14  1  0  0  0  0
 14 15  1  0  0  0  0
 14 33  1  0  0  0  0
 14 34  1  0  0  0  0
 15 16  1  0  0  0  0
 15 35  1  0  0  0  0
 15 36  1  0  0  0  0
 16 17  1  0  0  0  0
 17 18  1  0  0  0  0
 17 37  1  0  0  0  0
 17 38  1  0  0  0  0
 18 39  1  0  0  0  0
 18 40  1  0  0  0  0
M  END
> <s_m_source_file>
AV-unprocessed.smi

> <i_m_source_file_index>
3231

> <i_lp_mmshare_version>
43012

> <i_f3d_flags>
0

> <s_epik_input>
W0NIMl0xW0NIMl1PW0NIMl1bQ0gyXU4xW0NIMl1bQ0BIXShbT0hdKVtDSDJdW05IXVtDSDJdW0NIMl1uMltjSF1bY0hdW2NIXW4y

> <s_epik_cmdline>
J2VwaWtfcHl0aG9uJywgJy1waCcsICc3LjAnLCAnLXRuJywgJzgnLCAnLW1hJywgJzIwMCcsICctbWV0YWxfYmluZGluZycsICctaW1hZScsICc8aW5maWxlLm1hZT4nLCAnLW9tYWUnLCAnPG91dGZpbGUubWFlPic=

> <r_lp_tautomer_probability>
1

> <r_epik_Ionization_Penalty>
2.37071

> <r_epik_Ionization_Penalty_Charging>
0

> <r_epik_Ionization_Penalty_Neutral>
2.37071

> <r_epik_State_Penalty>
1.72455

> <r_epik_Charging_Adjusted_Penalty>
1.72455

> <i_epik_Tot_Q>
0

> <i_epik_Tot_abs_Q>
0

> <r_epik_Metal_State_Penalty>
1.72366

> <b_epik_Metal_Only>
0

> <s_lp_Force_Field>
OPLS_2005

> <r_lp_Energy>
35.5688

> <b_lp_Chiralities_Consistent>
1

> <s_lp_Variant>
AV-unprocessed.smi:3231-8

> <Gold.Version>
5.8.1

> <Gold.Id.Protein>
6NUR|6NUR_protein|mol2

> <Gold.PLP.Fitness>
42.0238

> <Gold.PLP.PLP>
-35.4210

> <Gold.PLP.part.hbond>
-2.5966

> <Gold.PLP.part.metal>
0.0000

> <Gold.PLP.part.buried>
-1.0243

> <Gold.PLP.part.nonpolar>
-33.3299

> <Gold.PLP.part.repulsive>
0.2738

> <Gold.PLP.ligand.clash>
0.0000

> <Gold.PLP.ligand.torsion>
0.7484

> <Gold.PLP.Chemscore.Hbond>
0.6451

> <Gold.PLP.Chemscore.CHOScore>
2.0000

> <Gold.PLP.Chemscore.Metal>
0.0000

> <Gold.Chemscore.Hbonds>
donor molecule, donor type, donor heavy atom, donor atom, acceptor molecule, acceptor atom, score
      P1  H  7989  7998       L1    16  0.64
      L1  C     8    28       P1 10186  1.00
      L1  C    10    30       P1 10747  1.00

> <Gold.PLP.Chemscore.Internal.Correction>
0.1643

> <Gold.Rescore>
     Score         DG    S(hbond)    S(metal)    S(lipo)     H(rot)  DE(clash)    DE(int)     intcor
      8.47      -9.29       0.02        0.00      91.55       2.72       0.14       0.67       ----

> <Gold.Chemscore.Fitness>
8.4729

> <Gold.Chemscore.DG>
-9.2879

> <Gold.Chemscore.ZeroCoef>
-5.4800

> <Gold.Chemscore.Hbond>
0.0164

> <Gold.Chemscore.Metal>
0.0000

> <Gold.Chemscore.Lipo>
91.5547

> <Gold.Chemscore.Internal_Hbond>
0.0000

> <Gold.Chemscore.DEClash>
0.1432

> <Gold.Chemscore.DEInternal>
0.6718

> <Gold.Chemscore.Rot>
2.7183

> <Gold.Chemscore.Internal.Correction>
   9.000000E+99

> <Gold.Chemscore.Hbonds>
donor molecule, donor type, donor heavy atom, donor atom, acceptor molecule, acceptor atom, score
      P1  H  7989  7998       L1    16  0.02

> <Gold.Chemscore.Hbond.Weighted>
-0.0548

> <Gold.Chemscore.Metal.Weighted>
-0.0000

> <Gold.Chemscore.Lipo.Weighted>
-10.7119

> <Gold.Chemscore.Internal_Hbond.Weighted>
0.0000

> <Gold.Chemscore.DEClash.Weighted>
0.1432

> <Gold.Chemscore.DEInternal.Weighted>
0.6718

> <Gold.Chemscore.Rot.Weighted>
6.9589

> <Gold.Chemscore.Internal.Correction.Weighted>
   9.000000E+99

> <Gold.Protein.RotatedTorsions>
[ 6907 6896 6895 6894 ] final   47.58 input  -60.11 | X-H torsion
[ 7974 7965 7964 7962 ] final  135.11 input  175.53 | X-H torsion
[ 8008 7997 7996 7995 ] final  -41.78 input   59.86 | X-H torsion
[ 10167 10162 10161 10158 ] final   48.19 input  -65.29 | X-H torsion
[ 10718 10713 10712 10709 ] final -100.84 input   66.30 | X-H torsion
[ 10763 10752 10751 10750 ] final   77.95 input  -60.55 | X-H torsion
[ 11005 11000 10999 10996 ] final   -4.84 input  -57.11 | X-H torsion

> <Gold.Protein.ActiveResidues>
 VAL166  LYS551  ARG553  GLY616  TRP617  ASP618  TYR619  PRO620  LYS621  CYS622 
 ASP623  PHE694  ASN695  SER759  ASP760  ASP761  ALA762  ILE779  LEU786  VAL792 
 PHE793  MET794  SER795  GLU796  ALA797  LYS798  CYS799  TRP800  GLU811  SER814 

> <Gold.Protein.RotatedAtoms>
  152.2697  134.7946  160.0416 H   0  0  0  0  0  0  0  0  0  0  0  0  # atno 6907 bound_to 6896
  151.8563  133.3443  159.3697 H   0  0  0  0  0  0  0  0  0  0  0  0  # atno 6908 bound_to 6896
  150.7147  134.5178  159.5683 H   0  0  0  0  0  0  0  0  0  0  0  0  # atno 6909 bound_to 6896
  144.9696  139.4620  143.5439 H   0  0  0  0  0  0  0  0  0  0  0  0  # atno 7974 bound_to 7965
  154.4002  140.1490  156.3248 H   0  0  0  0  0  0  0  0  0  0  0  0  # atno 8008 bound_to 7997
  155.8497  140.3458  155.5664 H   0  0  0  0  0  0  0  0  0  0  0  0  # atno 8009 bound_to 7997
  155.7997  140.0868  157.1954 H   0  0  0  0  0  0  0  0  0  0  0  0  # atno 8010 bound_to 7997
  140.2959  144.2991  150.6230 H   0  0  0  0  0  0  0  0  0  0  0  0  # atno 10167 bound_to 10162
  156.0176  130.5346  150.6876 H   0  0  0  0  0  0  0  0  0  0  0  0  # atno 10718 bound_to 10713
  153.0837  135.4895  154.8555 H   0  0  0  0  0  0  0  0  0  0  0  0  # atno 10763 bound_to 10752
  154.7184  135.3034  154.9089 H   0  0  0  0  0  0  0  0  0  0  0  0  # atno 10764 bound_to 10752
  153.9761  135.6795  153.4801 H   0  0  0  0  0  0  0  0  0  0  0  0  # atno 10765 bound_to 10752
  140.6846  133.9124  155.8577 H   0  0  0  0  0  0  0  0  0  0  0  0  # atno 11005 bound_to 11000
  146.3378  139.8900  142.8810 LP  0  0  0  0  0  0  0  0  0  0  0  0  # atno 17320 bound_to 7965
  145.2578  141.0066  143.3844 LP  0  0  0  0  0  0  0  0  0  0  0  0  # atno 17321 bound_to 7965
  140.5693  143.2182  151.7628 LP  0  0  0  0  0  0  0  0  0  0  0  0  # atno 17342 bound_to 10162
  139.4926  144.4240  151.9946 LP  0  0  0  0  0  0  0  0  0  0  0  0  # atno 17343 bound_to 10162
  157.4565  131.0878  151.0791 LP  0  0  0  0  0  0  0  0  0  0  0  0  # atno 17370 bound_to 10713
  157.1291  130.6094  149.5525 LP  0  0  0  0  0  0  0  0  0  0  0  0  # atno 17371 bound_to 10713
  141.0290  134.0782  157.4035 LP  0  0  0  0  0  0  0  0  0  0  0  0  # atno 17394 bound_to 11000
  139.8941  135.0134  156.6935 LP  0  0  0  0  0  0  0  0  0  0  0  0  # atno 17395 bound_to 11000

$$$$
