#       Name:                AV-unprocessed.smi:276
#       Creating user name   scv26
#       Creation time:       Thu Mar 26 21:35:34 2020


#       File generated by GOLD software.
#

@<TRIPOS>MOLECULE
AV-unprocessed.smi:276
    67    71     1
SMALL
NO_CHARGES


@<TRIPOS>ATOM
      1 ****        -4.4904   1.3497   4.0581 C.3            1 S1                 0.0000
      2 ****        -3.3413   0.7391   3.4975 O.3            1 S1                 0.0000
      3 ****        -3.6241  -0.5088   2.8795 C.3            1 S1                 0.0000
      4 ****        -4.1122  -0.3519   1.4321 C.3            1 S1                 0.0000
      5 ****        -2.6520  -0.4704   0.9511 C.3            1 S1                 0.0000
      6 ****        -2.0362   0.8500   0.7620 N.3            1 S1                 0.0000
      7 ****        -2.6401   1.7214  -0.2427 C.3            1 S1                 0.0000
      8 ****        -0.6860   0.9016   0.6945 C.ar           1 S1                 0.0000
      9 ****        -0.0807   1.9417   1.3206 N.ar           1 S1                 0.0000
     10 ****         1.2499   2.0574   1.2944 C.ar           1 S1                 0.0000
     11 ****         2.1450   1.2655   0.7011 N.ar           1 S1                 0.0000
     12 ****         1.5395   0.2283   0.0551 C.ar           1 S1                 0.0000
     13 ****         0.1404  -0.0296   0.0005 C.ar           1 S1                 0.0000
     14 ****        -0.0969  -1.1780  -0.7460 N.2            1 S1                 0.0000
     15 ****         1.0916  -1.5816  -1.1010 C.2            1 S1                 0.0000
     16 ****         2.1309  -0.7813  -0.6843 N.pl3          1 S1                 0.0000
     17 ****         3.5448  -0.9898  -0.9432 C.3            1 S1                 0.0000
     18 ****         4.2109   0.1364  -1.7694 C.3            1 S1                 0.0000
     19 ****         5.5966  -0.1406  -1.7353 O.3            1 S1                 0.0000
     20 ****         3.7976   0.2107  -3.2581 C.3            1 S1                 0.0000
     21 ****         2.3098   0.4526  -3.5360 C.3            1 S1                 0.0000
     22 ****         2.2856   1.1692  -4.8772 C.3            1 S1                 0.0000
     23 ****         3.7429   1.5662  -5.1072 C.3            1 S1                 0.0000
     24 ****         4.3655   1.3724  -3.8469 O.3            1 S1                 0.0000
     25 ****        -2.3518  -1.1597   2.3089 C.3            1 S1                 0.0000
     26 ****        -2.2315  -2.6925   2.3654 C.3            1 S1                 0.0000
     27 ****        -1.3255  -2.5263   3.5876 C.3            1 S1                 0.0000
     28 ****        -1.0154  -1.1176   3.0790 C.3            1 S1                 0.0000
     29 ****        -4.2128   2.3004   4.5128 H              1 S1                 0.0000
     30 ****        -4.9288   0.7210   4.8340 H              1 S1                 0.0000
     31 ****        -5.2491   1.5496   3.3010 H              1 S1                 0.0000
     32 ****        -4.2238  -1.1798   3.4966 H              1 S1                 0.0000
     33 ****        -4.7200  -1.1992   1.1105 H              1 S1                 0.0000
     34 ****        -4.6168   0.5894   1.2144 H              1 S1                 0.0000
     35 ****        -2.5605  -1.1325   0.0902 H              1 S1                 0.0000
     36 ****        -1.9019   2.2678  -0.8331 H              1 S1                 0.0000
     37 ****        -3.2809   2.4546   0.2473 H              1 S1                 0.0000
     38 ****        -3.2542   1.1462  -0.9365 H              1 S1                 0.0000
     39 ****         1.6554   2.9071   1.8237 H              1 S1                 0.0000
     40 ****         1.2414  -2.4707  -1.6959 H              1 S1                 0.0000
     41 ****         4.0356  -1.0779   0.0273 H              1 S1                 0.0000
     42 ****         3.6734  -1.9516  -1.4419 H              1 S1                 0.0000
     43 ****         4.0471   1.1014  -1.2891 H              1 S1                 0.0000
     44 ****         5.7507  -0.9624  -2.1755 H              1 S1                 0.0000
     45 ****         4.1343  -0.6755  -3.8001 H              1 S1                 0.0000
     46 ****         1.7321  -0.4709  -3.5554 H              1 S1                 0.0000
     47 ****         1.8827   1.1058  -2.7739 H              1 S1                 0.0000
     48 ****         1.9274   0.5219  -5.6781 H              1 S1                 0.0000
     49 ****         1.6348   2.0431  -4.8338 H              1 S1                 0.0000
     50 ****         4.2101   0.9106  -5.8437 H              1 S1                 0.0000
     51 ****         3.8504   2.5960  -5.4487 H              1 S1                 0.0000
     52 ****        -3.1639  -3.2247   2.5558 H              1 S1                 0.0000
     53 ****        -1.7032  -3.1052   1.5040 H              1 S1                 0.0000
     54 ****        -1.8784  -2.5247   4.5284 H              1 S1                 0.0000
     55 ****        -0.4696  -3.2009   3.6187 H              1 S1                 0.0000
     56 ****        -0.1313  -1.1171   2.4430 H              1 S1                 0.0000
     57 ****        -0.9491  -0.3559   3.8561 H              1 S1                 0.0000
     58 ****        -2.6718   0.5903   4.2253 LP             1 S1                 0.0000
     59 ****        -2.9555   1.3551   2.8107 LP             1 S1                 0.0000
     60 ****        -2.2780   1.2359   1.6523 LP             1 S1                 0.0000
     61 ****        -0.6315   2.6230   1.8027 LP             1 S1                 0.0000
     62 ****         3.1337   1.4137   0.7269 LP             1 S1                 0.0000
     63 ****        -0.9780  -1.5988  -0.9617 LP             1 S1                 0.0000
     64 ****         5.9042  -0.2041  -0.7859 LP             1 S1                 0.0000
     65 ****         6.0977   0.5896  -2.1998 LP             1 S1                 0.0000
     66 ****         5.3499   1.2456  -3.9693 LP             1 S1                 0.0000
     67 ****         4.2020   2.1659  -3.2607 LP             1 S1                 0.0000
@<TRIPOS>BOND
    1    1    2 1     
    2    1   29 1     
    3    1   30 1     
    4    1   31 1     
    5    2    3 1     
    6    3   25 1     
    7    3    4 1     
    8    3   32 1     
    9    4    5 1     
   10    4   33 1     
   11    4   34 1     
   12    5    6 1     
   13    5   25 1     
   14    5   35 1     
   15    6    7 1     
   16    6    8 1     
   17    7   36 1     
   18    7   37 1     
   19    7   38 1     
   20    8   13 ar    
   21    8    9 ar    
   22    9   10 ar    
   23   10   11 ar    
   24   10   39 1     
   25   11   12 ar    
   26   12   16 1     
   27   12   13 ar    
   28   13   14 1     
   29   14   15 2     
   30   15   16 1     
   31   15   40 1     
   32   16   17 1     
   33   17   18 1     
   34   17   41 1     
   35   17   42 1     
   36   18   19 1     
   37   18   20 1     
   38   18   43 1     
   39   19   44 1     
   40   20   24 1     
   41   20   21 1     
   42   20   45 1     
   43   21   22 1     
   44   21   46 1     
   45   21   47 1     
   46   22   23 1     
   47   22   48 1     
   48   22   49 1     
   49   23   24 1     
   50   23   50 1     
   51   23   51 1     
   52   25   28 1     
   53   25   26 1     
   54   26   27 1     
   55   26   52 1     
   56   26   53 1     
   57   27   28 1     
   58   27   54 1     
   59   27   55 1     
   60   28   56 1     
   61   28   57 1     
   62    2   58 1     
   63    2   59 1     
   64    6   60 1     
   65    9   61 1     
   66   11   62 1     
   67   14   63 1     
   68   19   64 1     
   69   19   65 1     
   70   24   66 1     
   71   24   67 1     
@<TRIPOS>SUBSTRUCTURE
      1 S1             1
@<TRIPOS>SET
LONE_PAIRS      STATIC     ATOMS    <user>   **** ""
10 58 59 60 61 62 63 64 65 66 67
DONOR_HYDROGENS      STATIC     ATOMS    <user>   **** ""
1 44
ATOM$BLUE        STATIC     ATOMS    COLORGROUP SYSTEM
10 58 59 60 61 62 63 64 65 66 67
ATOM$RED        STATIC     ATOMS    COLORGROUP SYSTEM
1 44
