AV-unprocessed.smi:1144|AV-procd|sdf|4876|dock7
  -GOLD-   22720 3453D 1   1.00000     0.00000
 Structure written by MMmdl.
 35 36  0  0  0  0  0  0  0  0  2 V2000
  143.5521  132.8777  149.3512 C   0  0  0  0  0  0  0  0  0  0  0  0
  144.7036  133.6037  149.9277 N   0  3  1  0  0  0  0  0  0  0  0  0
  144.3078  134.5358  151.0077 C   0  0  0  0  0  0  0  0  0  0  0  0
  145.5395  135.2835  151.5431 C   0  0  0  0  0  0  0  0  0  0  0  0
  146.5116  134.3425  151.9824 O   0  0  0  0  0  0  0  0  0  0  0  0
  146.9758  133.5053  150.9268 C   0  0  1  0  0  0  0  0  0  0  0  0
  148.0707  132.5886  151.4887 C   0  0  0  0  0  0  0  0  0  0  0  0
  149.1865  133.3506  152.0289 N   0  0  0  0  0  0  0  0  0  0  0  0
  150.2278  132.7947  152.7469 C   0  0  0  0  0  0  0  0  0  0  0  0
  151.0772  133.6185  153.3712 N   0  0  0  0  0  0  0  0  0  0  0  0
  152.0881  133.0483  154.0615 C   0  0  0  0  0  0  0  0  0  0  0  0
  152.2462  131.6498  154.1269 C   0  0  0  0  0  0  0  0  0  0  0  0
  151.2896  130.8779  153.4300 C   0  0  0  0  0  0  0  0  0  0  0  0
  151.3345  129.3573  153.4117 C   0  0  0  0  0  0  0  0  0  0  0  0
  152.4443  128.9071  152.8248 F   0  0  0  0  0  0  0  0  0  0  0  0
  151.2973  128.8914  154.6603 F   0  0  0  0  0  0  0  0  0  0  0  0
  150.2819  128.8844  152.7441 F   0  0  0  0  0  0  0  0  0  0  0  0
  150.2807  131.4614  152.7412 N   0  0  0  0  0  0  0  0  0  0  0  0
  145.7816  132.6964  150.3835 C   0  0  0  0  0  0  0  0  0  0  0  0
  143.0726  132.2451  150.0996 H   0  0  0  0  0  0  0  0  0  0  0  0
  143.8727  132.2451  148.5228 H   0  0  0  0  0  0  0  0  0  0  0  0
  142.8092  133.5776  148.9673 H   0  0  0  0  0  0  0  0  0  0  0  0
  143.5734  135.2489  150.6311 H   0  0  0  0  0  0  0  0  0  0  0  0
  143.8304  133.9790  151.8158 H   0  0  0  0  0  0  0  0  0  0  0  0
  145.9648  135.9356  150.7786 H   0  0  0  0  0  0  0  0  0  0  0  0
  145.2577  135.9190  152.3828 H   0  0  0  0  0  0  0  0  0  0  0  0
  147.3945  134.1177  150.1255 H   0  0  0  0  0  0  0  0  0  0  0  0
  147.6585  131.9389  152.2618 H   0  0  0  0  0  0  0  0  0  0  0  0
  148.4529  131.9428  150.6973 H   0  0  0  0  0  0  0  0  0  0  0  0
  149.1898  134.3534  151.9104 H   0  0  0  0  0  0  0  0  0  0  0  0
  152.7756  133.7121  154.5647 H   0  0  0  0  0  0  0  0  0  0  0  0
  153.0576  131.2027  154.6817 H   0  0  0  0  0  0  0  0  0  0  0  0
  145.3947  132.0297  151.1562 H   0  0  0  0  0  0  0  0  0  0  0  0
  146.1054  132.0688  149.5520 H   0  0  0  0  0  0  0  0  0  0  0  0
  145.0926  134.1675  149.1852 H   0  0  0  0  0  0  0  0  0  0  0  0
  1  2  1  0  0  0  0
  1 20  1  0  0  0  0
  1 21  1  0  0  0  0
  1 22  1  0  0  0  0
  2 19  1  0  0  0  0
  2  3  1  0  0  0  0
  2 35  1  0  0  0  0
  3  4  1  0  0  0  0
  3 23  1  0  0  0  0
  3 24  1  0  0  0  0
  4  5  1  0  0  0  0
  4 25  1  0  0  0  0
  4 26  1  0  0  0  0
  5  6  1  0  0  0  0
  6  7  1  0  0  0  0
  6 19  1  0  0  0  0
  6 27  1  0  0  0  0
  7  8  1  0  0  0  0
  7 28  1  0  0  0  0
  7 29  1  0  0  0  0
  8  9  1  0  0  0  0
  8 30  1  0  0  0  0
  9 18  1  0  0  0  0
  9 10  2  0  0  0  0
 10 11  1  0  0  0  0
 11 12  2  0  0  0  0
 11 31  1  0  0  0  0
 12 13  1  0  0  0  0
 12 32  1  0  0  0  0
 13 14  1  0  0  0  0
 13 18  2  0  0  0  0
 14 15  1  0  0  0  0
 14 16  1  0  0  0  0
 14 17  1  0  0  0  0
 19 33  1  0  0  0  0
 19 34  1  0  0  0  0
M  CHG  1   2   1
M  END
> <s_m_source_file>
AV-unprocessed.smi

> <i_m_source_file_index>
1144

> <i_lp_mmshare_version>
43012

> <i_f3d_flags>
0

> <s_epik_input>
W0NIM11OMVtDSDJdW0NIMl1PW0NASF0oW0NIMl0xKVtDSDJdW05IXWMybltjSF1bY0hdYyhuMilDKEYpKEYpRg==

> <s_epik_cmdline>
J2VwaWtfcHl0aG9uJywgJy1waCcsICc3LjAnLCAnLXRuJywgJzgnLCAnLW1hJywgJzIwMCcsICctbWV0YWxfYmluZGluZycsICctaW1hZScsICc8aW5maWxlLm1hZT4nLCAnLW9tYWUnLCAnPG91dGZpbGUubWFlPic=

> <r_lp_tautomer_probability>
1

> <r_epik_Ionization_Penalty>
0.178506

> <r_epik_Ionization_Penalty_Charging>
0.178504

> <r_epik_Ionization_Penalty_Neutral>
2.47225e-06

> <r_epik_State_Penalty>
0.167974

> <r_epik_Charging_Adjusted_Penalty>
0.346478

> <i_epik_Tot_Q>
1

> <i_epik_Tot_abs_Q>
1

> <r_epik_Metal_State_Penalty>
0.167974

> <b_epik_Metal_Only>
0

> <s_lp_Force_Field>
OPLS_2005

> <r_lp_Energy>
9.30015

> <b_lp_Chiralities_Consistent>
1

> <s_lp_Variant>
AV-unprocessed.smi:1144-1

> <Gold.Version>
5.8.1

> <Gold.Id.Protein>
6NUR|6NUR_protein|mol2

> <Gold.PLP.Fitness>
39.7313

> <Gold.PLP.PLP>
-34.2150

> <Gold.PLP.part.hbond>
-2.0000

> <Gold.PLP.part.metal>
0.0000

> <Gold.PLP.part.buried>
-3.2977

> <Gold.PLP.part.nonpolar>
-28.3732

> <Gold.PLP.part.repulsive>
0.3424

> <Gold.PLP.ligand.clash>
0.0000

> <Gold.PLP.ligand.torsion>
0.0890

> <Gold.PLP.Chemscore.Hbond>
1.8960

> <Gold.PLP.Chemscore.CHOScore>
0.0000

> <Gold.PLP.Chemscore.Metal>
0.0000

> <Gold.Chemscore.Hbonds>
donor molecule, donor type, donor heavy atom, donor atom, acceptor molecule, acceptor atom, score
      L1  H     2    35       P1  7921  1.00

> <Gold.PLP.Chemscore.Internal.Correction>
0.0062

> <Gold.Rescore>
     Score         DG    S(hbond)    S(metal)    S(lipo)     H(rot)  DE(clash)    DE(int)     intcor
     13.72     -14.46       1.53        0.00      62.43       1.34       0.26       0.49       ----

> <Gold.Chemscore.Fitness>
13.7170

> <Gold.Chemscore.DG>
-14.4649

> <Gold.Chemscore.ZeroCoef>
-5.4800

> <Gold.Chemscore.Hbond>
1.5288

> <Gold.Chemscore.Metal>
0.0000

> <Gold.Chemscore.Lipo>
62.4250

> <Gold.Chemscore.Internal_Hbond>
0.0000

> <Gold.Chemscore.DEClash>
0.2616

> <Gold.Chemscore.DEInternal>
0.4863

> <Gold.Chemscore.Rot>
1.3379

> <Gold.Chemscore.Internal.Correction>
   9.000000E+99

> <Gold.Chemscore.Hbonds>
donor molecule, donor type, donor heavy atom, donor atom, acceptor molecule, acceptor atom, score
      L1  H     2    35       P1  7921  0.97

> <Gold.Chemscore.Hbond.Weighted>
-5.1061

> <Gold.Chemscore.Metal.Weighted>
-0.0000

> <Gold.Chemscore.Lipo.Weighted>
-7.3037

> <Gold.Chemscore.Internal_Hbond.Weighted>
0.0000

> <Gold.Chemscore.DEClash.Weighted>
0.2616

> <Gold.Chemscore.DEInternal.Weighted>
0.4863

> <Gold.Chemscore.Rot.Weighted>
3.4250

> <Gold.Chemscore.Internal.Correction.Weighted>
   9.000000E+99

> <Gold.Protein.RotatedTorsions>
[ 6907 6896 6895 6894 ] final   66.10 input  -60.11 | X-H torsion
[ 7974 7965 7964 7962 ] final -159.90 input  175.53 | X-H torsion
[ 8008 7997 7996 7995 ] final  166.90 input   59.86 | X-H torsion
[ 10167 10162 10161 10158 ] final   98.63 input  -65.29 | X-H torsion
[ 10718 10713 10712 10709 ] final -103.66 input   66.30 | X-H torsion
[ 10763 10752 10751 10750 ] final  103.50 input  -60.55 | X-H torsion
[ 11005 11000 10999 10996 ] final -117.21 input  -57.11 | X-H torsion

> <Gold.Protein.ActiveResidues>
 VAL166  LYS551  ARG553  GLY616  TRP617  ASP618  TYR619  PRO620  LYS621  CYS622 
 ASP623  PHE694  ASN695  SER759  ASP760  ASP761  ALA762  ILE779  LEU786  VAL792 
 PHE793  MET794  SER795  GLU796  ALA797  LYS798  CYS799  TRP800  GLU811  SER814 

> <Gold.Protein.RotatedAtoms>
  152.4456  134.5501  159.9863 H   0  0  0  0  0  0  0  0  0  0  0  0  # atno 6907 bound_to 6896
  151.5586  133.3401  159.2975 H   0  0  0  0  0  0  0  0  0  0  0  0  # atno 6908 bound_to 6896
  150.8372  134.7682  159.6966 H   0  0  0  0  0  0  0  0  0  0  0  0  # atno 6909 bound_to 6896
  144.7447  140.3619  143.6094 H   0  0  0  0  0  0  0  0  0  0  0  0  # atno 7974 bound_to 7965
  156.1680  140.1631  156.8498 H   0  0  0  0  0  0  0  0  0  0  0  0  # atno 8008 bound_to 7997
  154.5227  140.0774  156.8236 H   0  0  0  0  0  0  0  0  0  0  0  0  # atno 8009 bound_to 7997
  155.3572  140.3393  155.4242 H   0  0  0  0  0  0  0  0  0  0  0  0  # atno 8010 bound_to 7997
  139.7691  144.6928  151.0181 H   0  0  0  0  0  0  0  0  0  0  0  0  # atno 10167 bound_to 10162
  156.0274  130.5478  150.7284 H   0  0  0  0  0  0  0  0  0  0  0  0  # atno 10718 bound_to 10713
  153.3535  135.3974  155.1664 H   0  0  0  0  0  0  0  0  0  0  0  0  # atno 10763 bound_to 10752
  154.8666  135.3662  154.5192 H   0  0  0  0  0  0  0  0  0  0  0  0  # atno 10764 bound_to 10752
  153.5645  135.7080  153.5592 H   0  0  0  0  0  0  0  0  0  0  0  0  # atno 10765 bound_to 10752
  141.0370  133.9894  157.3055 H   0  0  0  0  0  0  0  0  0  0  0  0  # atno 11005 bound_to 11000
  145.7169  139.1699  143.2507 LP  0  0  0  0  0  0  0  0  0  0  0  0  # atno 17320 bound_to 7965
  146.1306  140.7190  142.9414 LP  0  0  0  0  0  0  0  0  0  0  0  0  # atno 17321 bound_to 7965
  140.7813  143.4609  151.0280 LP  0  0  0  0  0  0  0  0  0  0  0  0  # atno 17342 bound_to 10162
  139.8293  143.7713  152.3179 LP  0  0  0  0  0  0  0  0  0  0  0  0  # atno 17343 bound_to 10162
  157.4883  131.0908  151.0457 LP  0  0  0  0  0  0  0  0  0  0  0  0  # atno 17370 bound_to 10713
  157.0871  130.5927  149.5432 LP  0  0  0  0  0  0  0  0  0  0  0  0  # atno 17371 bound_to 10713
  139.9248  135.0201  156.8194 LP  0  0  0  0  0  0  0  0  0  0  0  0  # atno 17394 bound_to 11000
  140.6304  133.9911  155.7659 LP  0  0  0  0  0  0  0  0  0  0  0  0  # atno 17395 bound_to 11000

$$$$
