AV-unprocessed.smi:1317|AV-procd|sdf|5456|dock4
  -GOLD-   22720 5 23D 1   1.00000     0.00000
 Structure written by MMmdl.
 31 32  0  0  0  0  0  0  0  0  1 V2000
  151.6053  145.5947  160.1130 C   0  0  0  0  0  0  0  0  0  0  0  0
  151.9147  144.1571  159.8709 C   0  0  0  0  0  0  0  0  0  0  0  0
  151.4916  143.4793  158.8008 N   0  0  0  0  0  0  0  0  0  0  0  0
  151.9093  142.1446  158.8090 C   0  0  0  0  0  0  0  0  0  0  0  0
  151.5213  141.2299  157.6870 C   0  0  0  0  0  0  0  0  0  0  0  0
  150.0391  140.8258  157.7535 C   0  0  0  0  0  0  0  0  0  0  0  0
  149.3545  141.0753  156.4901 N   0  0  0  0  0  0  0  0  0  0  0  0
  149.8479  140.7965  155.2746 C   0  0  0  0  0  0  0  0  0  0  0  0
  150.9576  140.2925  155.0963 O   0  0  0  0  0  0  0  0  0  0  0  0
  148.9417  141.1453  154.0864 C   0  0  0  0  0  0  0  0  0  0  0  0
  147.6960  141.9684  154.4578 C   0  0  0  0  0  0  0  0  0  0  0  0
  146.8720  141.0597  153.5408 C   0  0  0  0  0  0  0  0  0  0  0  0
  147.9904  140.0186  153.6449 C   0  0  0  0  0  0  0  0  0  0  0  0
  152.6621  141.8205  159.9103 C   0  0  0  0  0  0  0  0  0  0  0  0
  152.8723  143.1810  160.9777 S   0  0  0  0  0  0  0  0  0  0  0  0
  151.2205  146.0629  159.2064 H   0  0  0  0  0  0  0  0  0  0  0  0
  152.5064  146.1238  160.4232 H   0  0  0  0  0  0  0  0  0  0  0  0
  150.8563  145.6860  160.8997 H   0  0  0  0  0  0  0  0  0  0  0  0
  151.7301  141.7109  156.7304 H   0  0  0  0  0  0  0  0  0  0  0  0
  152.1418  140.3331  157.7108 H   0  0  0  0  0  0  0  0  0  0  0  0
  149.9560  139.7610  157.9730 H   0  0  0  0  0  0  0  0  0  0  0  0
  149.5329  141.3509  158.5654 H   0  0  0  0  0  0  0  0  0  0  0  0
  148.4354  141.4897  156.5441 H   0  0  0  0  0  0  0  0  0  0  0  0
  149.4796  141.5787  153.2409 H   0  0  0  0  0  0  0  0  0  0  0  0
  147.4013  141.8883  155.5057 H   0  0  0  0  0  0  0  0  0  0  0  0
  147.7327  143.0090  154.1342 H   0  0  0  0  0  0  0  0  0  0  0  0
  145.9149  140.7423  153.9554 H   0  0  0  0  0  0  0  0  0  0  0  0
  146.7643  141.4637  152.5330 H   0  0  0  0  0  0  0  0  0  0  0  0
  148.2539  139.5562  152.6933 H   0  0  0  0  0  0  0  0  0  0  0  0
  147.7941  139.2662  154.4105 H   0  0  0  0  0  0  0  0  0  0  0  0
  153.1030  140.8663  160.1583 H   0  0  0  0  0  0  0  0  0  0  0  0
  1  2  1  0  0  0  0
  1 16  1  0  0  0  0
  1 17  1  0  0  0  0
  1 18  1  0  0  0  0
  2 15  1  0  0  0  0
  2  3  2  0  0  0  0
  3  4  1  0  0  0  0
  4  5  1  0  0  0  0
  4 14  2  0  0  0  0
  5  6  1  0  0  0  0
  5 19  1  0  0  0  0
  5 20  1  0  0  0  0
  6  7  1  0  0  0  0
  6 21  1  0  0  0  0
  6 22  1  0  0  0  0
  7  8  1  0  0  0  0
  7 23  1  0  0  0  0
  8  9  2  0  0  0  0
  8 10  1  0  0  0  0
 10 13  1  0  0  0  0
 10 11  1  0  0  0  0
 10 24  1  0  0  0  0
 11 12  1  0  0  0  0
 11 25  1  0  0  0  0
 11 26  1  0  0  0  0
 12 13  1  0  0  0  0
 12 27  1  0  0  0  0
 12 28  1  0  0  0  0
 13 29  1  0  0  0  0
 13 30  1  0  0  0  0
 14 15  1  0  0  0  0
 14 31  1  0  0  0  0
M  END
> <s_m_source_file>
AV-unprocessed.smi

> <i_m_source_file_index>
1317

> <i_lp_mmshare_version>
43012

> <i_f3d_flags>
0

> <s_epik_input>
W0NIM11jMW5jKFtjSF1zMSlbQ0gyXVtDSDJdW05IXUMoPU8pW0NIXTJbQ0gyXVtDSDJdW0NIMl0y

> <s_epik_cmdline>
J2VwaWtfcHl0aG9uJywgJy1waCcsICc3LjAnLCAnLXRuJywgJzgnLCAnLW1hJywgJzIwMCcsICctbWV0YWxfYmluZGluZycsICctaW1hZScsICc8aW5maWxlLm1hZT4nLCAnLW9tYWUnLCAnPG91dGZpbGUubWFlPic=

> <r_epik_Ionization_Penalty>
0.00109666

> <r_epik_Ionization_Penalty_Charging>
0

> <r_epik_Ionization_Penalty_Neutral>
0.00109666

> <r_epik_State_Penalty>
0.000719322

> <r_epik_Charging_Adjusted_Penalty>
0.000719322

> <i_epik_Tot_Q>
0

> <i_epik_Tot_abs_Q>
0

> <r_epik_Metal_State_Penalty>
-0

> <b_epik_Metal_Only>
0

> <s_lp_Force_Field>
OPLS_2005

> <r_lp_Energy>
5.86325

> <b_lp_Chiralities_Consistent>
1

> <s_lp_Variant>
AV-unprocessed.smi:1317-1

> <Gold.Version>
5.8.1

> <Gold.Id.Protein>
6NUR|6NUR_protein|mol2

> <Gold.PLP.Fitness>
35.7772

> <Gold.PLP.PLP>
-34.5520

> <Gold.PLP.part.hbond>
-1.0000

> <Gold.PLP.part.metal>
0.0000

> <Gold.PLP.part.buried>
-2.3799

> <Gold.PLP.part.nonpolar>
-30.9871

> <Gold.PLP.part.repulsive>
0.1111

> <Gold.PLP.ligand.clash>
0.0000

> <Gold.PLP.ligand.torsion>
1.0886

> <Gold.PLP.Chemscore.Hbond>
1.0000

> <Gold.PLP.Chemscore.CHOScore>
0.0000

> <Gold.PLP.Chemscore.Metal>
0.0000

> <Gold.Chemscore.Hbonds>
donor molecule, donor type, donor heavy atom, donor atom, acceptor molecule, acceptor atom, score
      P1  H  7989  7998       L1     9  1.00

> <Gold.PLP.Chemscore.Internal.Correction>
0.4024

> <Gold.Rescore>
     Score         DG    S(hbond)    S(metal)    S(lipo)     H(rot)  DE(clash)    DE(int)     intcor
     13.87     -16.43       0.96        0.00      97.83       1.44       0.11       2.45       ----

> <Gold.Chemscore.Fitness>
13.8737

> <Gold.Chemscore.DG>
-16.4343

> <Gold.Chemscore.ZeroCoef>
-5.4800

> <Gold.Chemscore.Hbond>
0.9551

> <Gold.Chemscore.Metal>
0.0000

> <Gold.Chemscore.Lipo>
97.8309

> <Gold.Chemscore.Internal_Hbond>
0.0000

> <Gold.Chemscore.DEClash>
0.1075

> <Gold.Chemscore.DEInternal>
2.4532

> <Gold.Chemscore.Rot>
1.4383

> <Gold.Chemscore.Internal.Correction>
   9.000000E+99

> <Gold.Chemscore.Hbonds>
donor molecule, donor type, donor heavy atom, donor atom, acceptor molecule, acceptor atom, score
      P1  H  7989  7998       L1     9  0.69

> <Gold.Chemscore.Hbond.Weighted>
-3.1901

> <Gold.Chemscore.Metal.Weighted>
-0.0000

> <Gold.Chemscore.Lipo.Weighted>
-11.4462

> <Gold.Chemscore.Internal_Hbond.Weighted>
0.0000

> <Gold.Chemscore.DEClash.Weighted>
0.1075

> <Gold.Chemscore.DEInternal.Weighted>
2.4532

> <Gold.Chemscore.Rot.Weighted>
3.6820

> <Gold.Chemscore.Internal.Correction.Weighted>
   9.000000E+99

> <Gold.Protein.RotatedTorsions>
[ 6907 6896 6895 6894 ] final   78.00 input  -60.11 | X-H torsion
[ 7974 7965 7964 7962 ] final -117.44 input  175.53 | X-H torsion
[ 8008 7997 7996 7995 ] final  115.33 input   59.86 | X-H torsion
[ 10167 10162 10161 10158 ] final  122.27 input  -65.29 | X-H torsion
[ 10718 10713 10712 10709 ] final  101.47 input   66.30 | X-H torsion
[ 10763 10752 10751 10750 ] final   21.83 input  -60.55 | X-H torsion
[ 11005 11000 10999 10996 ] final  125.02 input  -57.11 | X-H torsion

> <Gold.Protein.ActiveResidues>
 VAL166  LYS551  ARG553  GLY616  TRP617  ASP618  TYR619  PRO620  LYS621  CYS622 
 ASP623  PHE694  ASN695  SER759  ASP760  ASP761  ALA762  ILE779  LEU786  VAL792 
 PHE793  MET794  SER795  GLU796  ALA797  LYS798  CYS799  TRP800  GLU811  SER814 

> <Gold.Protein.RotatedAtoms>
  152.5141  134.3731  159.9324 H   0  0  0  0  0  0  0  0  0  0  0  0  # atno 6907 bound_to 6896
  151.3685  133.3857  159.2705 H   0  0  0  0  0  0  0  0  0  0  0  0  # atno 6908 bound_to 6896
  150.9596  134.9005  159.7780 H   0  0  0  0  0  0  0  0  0  0  0  0  # atno 6909 bound_to 6896
  145.0852  140.8453  143.4015 H   0  0  0  0  0  0  0  0  0  0  0  0  # atno 7974 bound_to 7965
  156.2375  140.2941  156.0352 H   0  0  0  0  0  0  0  0  0  0  0  0  # atno 8008 bound_to 7997
  155.2049  140.0411  157.2941 H   0  0  0  0  0  0  0  0  0  0  0  0  # atno 8009 bound_to 7997
  154.6106  140.2450  155.7682 H   0  0  0  0  0  0  0  0  0  0  0  0  # atno 8010 bound_to 7997
  139.5869  144.7010  151.3387 H   0  0  0  0  0  0  0  0  0  0  0  0  # atno 10167 bound_to 10162
  157.6828  131.0727  150.5258 H   0  0  0  0  0  0  0  0  0  0  0  0  # atno 10718 bound_to 10713
  153.0964  135.6661  153.9756 H   0  0  0  0  0  0  0  0  0  0  0  0  # atno 10763 bound_to 10752
  153.9338  135.3001  155.3446 H   0  0  0  0  0  0  0  0  0  0  0  0  # atno 10764 bound_to 10752
  154.7382  135.5091  153.9152 H   0  0  0  0  0  0  0  0  0  0  0  0  # atno 10765 bound_to 10752
  139.9386  134.9637  156.8496 H   0  0  0  0  0  0  0  0  0  0  0  0  # atno 11005 bound_to 11000
  145.1131  139.2744  143.5627 LP  0  0  0  0  0  0  0  0  0  0  0  0  # atno 17320 bound_to 7965
  146.3531  140.0732  142.8622 LP  0  0  0  0  0  0  0  0  0  0  0  0  # atno 17321 bound_to 7965
  140.7139  143.7318  150.7618 LP  0  0  0  0  0  0  0  0  0  0  0  0  # atno 17342 bound_to 10162
  140.0865  143.4919  152.2502 LP  0  0  0  0  0  0  0  0  0  0  0  0  # atno 17343 bound_to 10162
  156.5569  130.4246  149.6081 LP  0  0  0  0  0  0  0  0  0  0  0  0  # atno 17370 bound_to 10713
  156.2854  130.7094  151.1929 LP  0  0  0  0  0  0  0  0  0  0  0  0  # atno 17371 bound_to 10713
  140.6010  134.0172  155.7537 LP  0  0  0  0  0  0  0  0  0  0  0  0  # atno 17394 bound_to 11000
  141.1011  133.9766  157.3077 LP  0  0  0  0  0  0  0  0  0  0  0  0  # atno 17395 bound_to 11000

$$$$
