#       Name:                AV-unprocessed.smi:993
#       Creating user name   scv26
#       Creation time:       Fri Mar 27 02:23:50 2020


#       File generated by GOLD software.
#

@<TRIPOS>MOLECULE
AV-unprocessed.smi:993
    38    39     1
SMALL
NO_CHARGES


@<TRIPOS>ATOM
      1 ****         2.4858   1.6003   1.2071 C.3            1 S1                 0.0000
      2 ****         1.6915   0.5169   0.4988 C.2            1 S1                 0.0000
      3 ****         0.2955   0.6423   0.5594 N.2            1 S1                 0.0000
      4 ****        -0.4635  -0.2450  -0.0081 C.2            1 S1                 0.0000
      5 ****        -1.8548  -0.1470   0.0364 N.pl3          1 S1                 0.0000
      6 ****        -2.5849   0.8983   0.7433 C.3            1 S1                 0.0000
      7 ****        -4.0484   0.4577   0.7710 C.3            1 S1                 0.0000
      8 ****        -4.1783  -0.3811  -0.4932 C.3            1 S1                 0.0000
      9 ****        -2.8059  -1.0451  -0.6124 C.3            1 S1                 0.0000
     10 ****         0.0477  -1.3393  -0.6879 N.pl3          1 S1                -1.0000
     11 ****         1.3954  -1.5174  -0.7983 C.2            1 S1                 0.0000
     12 ****         1.8754  -2.4710  -1.4105 O.2            1 S1                 0.0000
     13 ****         2.2769  -0.5259  -0.1556 C.2            1 S1                 0.0000
     14 ****         3.7948  -0.7167  -0.2344 C.3            1 S1                 0.0000
     15 ****         4.5018   0.0970  -1.3259 C.2            1 S1                 0.0000
     16 ****         5.7513   0.0460  -1.3329 O.co2          1 S1                 0.0000
     17 ****         3.8055   0.7557  -2.1302 O.co2          1 S1                -1.0000
     18 ****         3.0418   1.1793   2.0447 H              1 S1                 0.0000
     19 ****         1.8303   2.3799   1.5967 H              1 S1                 0.0000
     20 ****         3.1911   2.0698   0.5213 H              1 S1                 0.0000
     21 ****        -2.1975   1.0512   1.7514 H              1 S1                 0.0000
     22 ****        -2.4761   1.8334   0.1927 H              1 S1                 0.0000
     23 ****        -4.2286  -0.1677   1.6465 H              1 S1                 0.0000
     24 ****        -4.7445   1.2961   0.8037 H              1 S1                 0.0000
     25 ****        -4.9957  -1.1011  -0.4486 H              1 S1                 0.0000
     26 ****        -4.3473   0.2717  -1.3505 H              1 S1                 0.0000
     27 ****        -2.5448  -1.2264  -1.6556 H              1 S1                 0.0000
     28 ****        -2.7960  -2.0022  -0.0894 H              1 S1                 0.0000
     29 ****         4.2329  -0.4408   0.7247 H              1 S1                 0.0000
     30 ****         4.0477  -1.7691  -0.3653 H              1 S1                 0.0000
     31 ****        -0.1156   1.4165   1.0406 LP             1 S1                 0.0000
     32 ****        -0.5761  -2.0031  -1.1004 LP             1 S1                 0.0000
     33 ****         1.2730  -3.1413  -1.8438 LP             1 S1                 0.0000
     34 ****         2.8679  -2.5755  -1.4746 LP             1 S1                 0.0000
     35 ****         6.2688   0.5576  -2.0188 LP             1 S1                 0.0000
     36 ****         6.2330  -0.5063  -0.6525 LP             1 S1                 0.0000
     37 ****         4.2462   1.2953  -2.8476 LP             1 S1                 0.0000
     38 ****         2.8084   0.7426  -2.0555 LP             1 S1                 0.0000
@<TRIPOS>BOND
    1    1    2 1     
    2    1   18 1     
    3    1   19 1     
    4    1   20 1     
    5    2   13 2     
    6    2    3 1     
    7    3    4 2     
    8    4    5 1     
    9    4   10 1     
   10    5    9 1     
   11    5    6 1     
   12    6    7 1     
   13    6   21 1     
   14    6   22 1     
   15    7    8 1     
   16    7   23 1     
   17    7   24 1     
   18    8    9 1     
   19    8   25 1     
   20    8   26 1     
   21    9   27 1     
   22    9   28 1     
   23   10   11 1     
   24   11   12 2     
   25   11   13 1     
   26   13   14 1     
   27   14   15 1     
   28   14   29 1     
   29   14   30 1     
   30   15   16 ar    
   31   15   17 ar    
   32    3   31 1     
   33   10   32 1     
   34   12   33 1     
   35   12   34 1     
   36   16   35 1     
   37   16   36 1     
   38   17   37 1     
   39   17   38 1     
@<TRIPOS>SUBSTRUCTURE
      1 S1             1
@<TRIPOS>SET
LONE_PAIRS      STATIC     ATOMS    <user>   **** ""
8 31 32 33 34 35 36 37 38
ATOM$BLUE        STATIC     ATOMS    COLORGROUP SYSTEM
8 31 32 33 34 35 36 37 38
