AV-unprocessed.smi:148|AV-procd|sdf|1215|dock1
  -GOLD-   2262018393D 1   1.00000     0.00000
 Structure written by MMmdl.
 63 67  0  0  0  0  0  0  0  0  1 V2000
  149.4951  144.9265  159.9663 O   0  0  0  0  0  0  0  0  0  0  0  0
  150.6059  144.6947  159.1252 C   0  0  0  0  0  0  0  0  0  0  0  0
  150.6402  143.2197  158.6611 C   0  0  1  0  0  0  0  0  0  0  0  0
  150.8773  143.1416  157.1320 C   0  0  0  0  0  0  0  0  0  0  0  0
  150.1315  142.0763  156.4853 N   0  0  0  0  0  0  0  0  0  0  0  0
  148.7707  141.8742  156.5314 C   0  0  0  0  0  0  0  0  0  0  0  0
  148.3394  140.8443  155.8561 N   0  0  0  0  0  0  0  0  0  0  0  0
  149.4911  140.2866  155.3135 C   0  0  0  0  0  0  0  0  0  0  0  0
  149.7592  139.1626  154.4806 C   0  0  0  0  0  0  0  0  0  0  0  0
  148.8232  138.3186  153.9881 N   0  0  0  0  0  0  0  0  0  0  0  0
  147.6060  139.0726  153.6837 C   0  0  0  0  0  0  0  0  0  0  0  0
  146.5895  138.2213  152.9124 C   0  0  0  0  0  0  0  0  0  0  0  0
  146.2840  136.9315  153.6799 C   0  0  0  0  0  0  0  0  0  0  0  0
  147.5870  136.1677  153.9471 C   0  0  0  0  0  0  0  0  0  0  0  0
  148.6199  137.0458  154.7051 C   0  0  1  0  0  0  0  0  0  0  0  0
  149.9497  136.2894  155.0223 C   0  0  1  0  0  0  0  0  0  0  0  0
  149.7537  135.0517  155.9244 C   0  0  0  0  0  0  0  0  0  0  0  0
  150.1570  133.8409  155.0819 C   0  0  0  0  0  0  0  0  0  0  0  0
  151.2420  134.3844  154.1589 C   0  0  0  0  0  0  0  0  0  0  0  0
  150.7434  135.7841  153.7907 C   0  0  2  0  0  0  0  0  0  0  0  0
  151.8303  136.6271  153.4690 O   0  0  0  0  0  0  0  0  0  0  0  0
  151.0459  138.9321  154.1199 N   0  0  0  0  0  0  0  0  0  0  0  0
  152.0192  139.7329  154.5645 C   0  0  0  0  0  0  0  0  0  0  0  0
  151.9233  140.8052  155.3534 N   0  0  0  0  0  0  0  0  0  0  0  0
  150.6276  141.0499  155.7019 C   0  0  0  0  0  0  0  0  0  0  0  0
  151.6379  142.3403  159.4661 C   0  0  2  0  0  0  0  0  0  0  0  0
  152.9380  143.0275  159.8871 C   0  0  0  0  0  0  0  0  0  0  0  0
  154.0311  142.0274  159.5071 C   0  0  0  0  0  0  0  0  0  0  0  0
  153.3511  140.7865  159.4020 O   0  0  0  0  0  0  0  0  0  0  0  0
  152.1110  141.0575  158.7719 C   0  0  0  0  0  0  0  0  0  0  0  0
  148.7153  144.9612  159.4333 H   0  0  0  0  0  0  0  0  0  0  0  0
  150.5489  145.3739  158.2743 H   0  0  0  0  0  0  0  0  0  0  0  0
  151.5012  144.9630  159.6841 H   0  0  0  0  0  0  0  0  0  0  0  0
  149.6516  142.8006  158.8561 H   0  0  0  0  0  0  0  0  0  0  0  0
  150.5956  144.0797  156.6525 H   0  0  0  0  0  0  0  0  0  0  0  0
  151.9379  142.9957  156.9230 H   0  0  0  0  0  0  0  0  0  0  0  0
  148.1022  142.5243  157.0770 H   0  0  0  0  0  0  0  0  0  0  0  0
  147.1586  139.4241  154.6150 H   0  0  0  0  0  0  0  0  0  0  0  0
  147.8514  139.9592  153.0967 H   0  0  0  0  0  0  0  0  0  0  0  0
  145.6728  138.7891  152.7511 H   0  0  0  0  0  0  0  0  0  0  0  0
  146.9858  137.9798  151.9252 H   0  0  0  0  0  0  0  0  0  0  0  0
  145.7920  137.1680  154.6242 H   0  0  0  0  0  0  0  0  0  0  0  0
  145.5919  136.3096  153.1115 H   0  0  0  0  0  0  0  0  0  0  0  0
  147.3539  135.2650  154.5102 H   0  0  0  0  0  0  0  0  0  0  0  0
  147.9872  135.8333  152.9912 H   0  0  0  0  0  0  0  0  0  0  0  0
  148.1609  137.2949  155.6619 H   0  0  0  0  0  0  0  0  0  0  0  0
  150.5962  136.9536  155.5971 H   0  0  0  0  0  0  0  0  0  0  0  0
  150.4251  135.1243  156.7813 H   0  0  0  0  0  0  0  0  0  0  0  0
  148.7468  134.9577  156.3308 H   0  0  0  0  0  0  0  0  0  0  0  0
  150.5017  133.0031  155.6889 H   0  0  0  0  0  0  0  0  0  0  0  0
  149.3060  133.4994  154.4910 H   0  0  0  0  0  0  0  0  0  0  0  0
  152.1827  134.4462  154.7092 H   0  0  0  0  0  0  0  0  0  0  0  0
  151.4083  133.7542  153.2849 H   0  0  0  0  0  0  0  0  0  0  0  0
  150.1066  135.7096  152.9115 H   0  0  0  0  0  0  0  0  0  0  0  0
  151.6177  137.1021  152.6793 H   0  0  0  0  0  0  0  0  0  0  0  0
  153.0177  139.4796  154.2398 H   0  0  0  0  0  0  0  0  0  0  0  0
  151.1626  142.0368  160.3993 H   0  0  0  0  0  0  0  0  0  0  0  0
  153.1023  143.9954  159.4144 H   0  0  0  0  0  0  0  0  0  0  0  0
  152.9346  143.1958  160.9650 H   0  0  0  0  0  0  0  0  0  0  0  0
  154.4654  142.2822  158.5390 H   0  0  0  0  0  0  0  0  0  0  0  0
  154.8356  141.9835  160.2416 H   0  0  0  0  0  0  0  0  0  0  0  0
  151.4108  140.2311  158.8955 H   0  0  0  0  0  0  0  0  0  0  0  0
  152.2843  141.2006  157.7052 H   0  0  0  0  0  0  0  0  0  0  0  0
  1  2  1  0  0  0  0
  1 31  1  0  0  0  0
  2  3  1  0  0  0  0
  2 32  1  0  0  0  0
  2 33  1  0  0  0  0
  3  4  1  0  0  0  0
  3 26  1  0  0  0  0
  3 34  1  0  0  0  0
  4  5  1  0  0  0  0
  4 35  1  0  0  0  0
  4 36  1  0  0  0  0
  5 25  1  0  0  0  0
  5  6  1  0  0  0  0
  6  7  2  0  0  0  0
  6 37  1  0  0  0  0
  7  8  1  0  0  0  0
  8 25  2  0  0  0  0
  8  9  1  0  0  0  0
  9 10  1  0  0  0  0
  9 22  2  0  0  0  0
 10 15  1  0  0  0  0
 10 11  1  0  0  0  0
 11 12  1  0  0  0  0
 11 38  1  0  0  0  0
 11 39  1  0  0  0  0
 12 13  1  0  0  0  0
 12 40  1  0  0  0  0
 12 41  1  0  0  0  0
 13 14  1  0  0  0  0
 13 42  1  0  0  0  0
 13 43  1  0  0  0  0
 14 15  1  0  0  0  0
 14 44  1  0  0  0  0
 14 45  1  0  0  0  0
 15 16  1  0  0  0  0
 15 46  1  0  0  0  0
 16 20  1  0  0  0  0
 16 17  1  0  0  0  0
 16 47  1  0  0  0  0
 17 18  1  0  0  0  0
 17 48  1  0  0  0  0
 17 49  1  0  0  0  0
 18 19  1  0  0  0  0
 18 50  1  0  0  0  0
 18 51  1  0  0  0  0
 19 20  1  0  0  0  0
 19 52  1  0  0  0  0
 19 53  1  0  0  0  0
 20 21  1  0  0  0  0
 20 54  1  0  0  0  0
 21 55  1  0  0  0  0
 22 23  1  0  0  0  0
 23 24  2  0  0  0  0
 23 56  1  0  0  0  0
 24 25  1  0  0  0  0
 26 30  1  0  0  0  0
 26 27  1  0  0  0  0
 26 57  1  0  0  0  0
 27 28  1  0  0  0  0
 27 58  1  0  0  0  0
 27 59  1  0  0  0  0
 28 29  1  0  0  0  0
 28 60  1  0  0  0  0
 28 61  1  0  0  0  0
 29 30  1  0  0  0  0
 30 62  1  0  0  0  0
 30 63  1  0  0  0  0
M  END
> <s_m_source_file>
AV-unprocessed.smi

> <i_m_source_file_index>
148

> <i_lp_mmshare_version>
43012

> <i_f3d_flags>
0

> <s_epik_input>
W0NIMl0xT1tDSDJdW0NIMl1bQ0BIXTFbQ0BIXShbQ0gyXVtPSF0pW0NIMl1uKFtjSF1uMiljKGMyMyluW2NIXW5jM040W0NIMl1bQ0gyXVtDSDJdW0NIMl1bQ0BIXTRbQ0BASF01W0NIMl1bQ0gyXVtDSDJdW0NASF01W09IXQ==

> <s_epik_cmdline>
J2VwaWtfcHl0aG9uJywgJy1waCcsICc3LjAnLCAnLXRuJywgJzgnLCAnLW1hJywgJzIwMCcsICctbWV0YWxfYmluZGluZycsICctaW1hZScsICc8aW5maWxlLm1hZT4nLCAnLW9tYWUnLCAnPG91dGZpbGUubWFlPic=

> <r_lp_tautomer_probability>
1

> <r_epik_Ionization_Penalty>
0.00556303

> <r_epik_Ionization_Penalty_Charging>
0

> <r_epik_Ionization_Penalty_Neutral>
0.00556303

> <r_epik_State_Penalty>
0.00401767

> <r_epik_Charging_Adjusted_Penalty>
0.00401767

> <i_epik_Tot_Q>
0

> <i_epik_Tot_abs_Q>
0

> <r_epik_Metal_State_Penalty>
-0

> <b_epik_Metal_Only>
0

> <s_lp_Force_Field>
OPLS_2005

> <r_lp_Energy>
68.8828

> <b_lp_Chiralities_Consistent>
1

> <s_lp_Variant>
AV-unprocessed.smi:148-14

> <Gold.Version>
5.8.1

> <Gold.Id.Protein>
6NUR|6NUR_protein|mol2

> <Gold.PLP.Fitness>
49.3758

> <Gold.PLP.PLP>
-41.8161

> <Gold.PLP.part.hbond>
-4.6256

> <Gold.PLP.part.metal>
0.0000

> <Gold.PLP.part.buried>
0.1284

> <Gold.PLP.part.nonpolar>
-38.5700

> <Gold.PLP.part.repulsive>
0.7604

> <Gold.PLP.ligand.clash>
0.0000

> <Gold.PLP.ligand.torsion>
2.3380

> <Gold.PLP.Chemscore.Hbond>
2.9913

> <Gold.PLP.Chemscore.CHOScore>
0.7780

> <Gold.PLP.Chemscore.Metal>
0.0000

> <Gold.Chemscore.Hbonds>
donor molecule, donor type, donor heavy atom, donor atom, acceptor molecule, acceptor atom, score
      L1  H    21    55       P1  7949  0.18
      P1  H 10752 10765       L1    21  0.24
      L1  C     6    37       P1  8028  0.15

> <Gold.PLP.Chemscore.Internal.Correction>
0.9280

> <Gold.Rescore>
     Score         DG    S(hbond)    S(metal)    S(lipo)     H(rot)  DE(clash)    DE(int)     intcor
      7.30     -17.56       2.15        0.00     114.51       3.32       2.98       7.27       ----

> <Gold.Chemscore.Fitness>
7.3046

> <Gold.Chemscore.DG>
-17.5586

> <Gold.Chemscore.ZeroCoef>
-5.4800

> <Gold.Chemscore.Hbond>
2.1499

> <Gold.Chemscore.Metal>
0.0000

> <Gold.Chemscore.Lipo>
114.5122

> <Gold.Chemscore.Internal_Hbond>
0.0000

> <Gold.Chemscore.DEClash>
2.9797

> <Gold.Chemscore.DEInternal>
7.2743

> <Gold.Chemscore.Rot>
3.3203

> <Gold.Chemscore.Internal.Correction>
   9.000000E+99

> <Gold.Chemscore.Hbonds>
donor molecule, donor type, donor heavy atom, donor atom, acceptor molecule, acceptor atom, score
      L1  H     1    31       P1  8029  0.01
      L1  H    21    55       P1  7949  0.18
      P1  H 10752 10765       L1    21  0.01

> <Gold.Chemscore.Hbond.Weighted>
-7.1807

> <Gold.Chemscore.Metal.Weighted>
-0.0000

> <Gold.Chemscore.Lipo.Weighted>
-13.3979

> <Gold.Chemscore.Internal_Hbond.Weighted>
0.0000

> <Gold.Chemscore.DEClash.Weighted>
2.9797

> <Gold.Chemscore.DEInternal.Weighted>
7.2743

> <Gold.Chemscore.Rot.Weighted>
8.5000

> <Gold.Chemscore.Internal.Correction.Weighted>
   9.000000E+99

> <Gold.Protein.RotatedTorsions>
[ 6907 6896 6895 6894 ] final  103.47 input  -60.11 | X-H torsion
[ 7974 7965 7964 7962 ] final -169.51 input  175.53 | X-H torsion
[ 8008 7997 7996 7995 ] final   18.45 input   59.86 | X-H torsion
[ 10167 10162 10161 10158 ] final  -50.63 input  -65.29 | X-H torsion
[ 10718 10713 10712 10709 ] final  118.54 input   66.30 | X-H torsion
[ 10763 10752 10751 10750 ] final -176.52 input  -60.55 | X-H torsion
[ 11005 11000 10999 10996 ] final   13.43 input  -57.11 | X-H torsion

> <Gold.Protein.ActiveResidues>
 VAL166  LYS551  ARG553  GLY616  TRP617  ASP618  TYR619  PRO620  LYS621  CYS622 
 ASP623  PHE694  ASN695  SER759  ASP760  ASP761  ALA762  ILE779  LEU786  VAL792 
 PHE793  MET794  SER795  GLU796  ALA797  LYS798  CYS799  TRP800  GLU811  SER814 

> <Gold.Protein.RotatedAtoms>
  152.5294  133.9820  159.7810 H   0  0  0  0  0  0  0  0  0  0  0  0  # atno 6907 bound_to 6896
  151.0072  133.5991  159.2694 H   0  0  0  0  0  0  0  0  0  0  0  0  # atno 6908 bound_to 6896
  151.3079  135.0793  159.9315 H   0  0  0  0  0  0  0  0  0  0  0  0  # atno 6909 bound_to 6896
  144.7184  140.2211  143.6316 H   0  0  0  0  0  0  0  0  0  0  0  0  # atno 7974 bound_to 7965
  154.9062  140.3007  155.5291 H   0  0  0  0  0  0  0  0  0  0  0  0  # atno 8008 bound_to 7997
  156.3017  140.2397  156.4031 H   0  0  0  0  0  0  0  0  0  0  0  0  # atno 8009 bound_to 7997
  154.8472  140.0411  157.1569 H   0  0  0  0  0  0  0  0  0  0  0  0  # atno 8010 bound_to 7997
  140.6628  143.2650  151.4388 H   0  0  0  0  0  0  0  0  0  0  0  0  # atno 10167 bound_to 10162
  157.6023  131.1049  150.7770 H   0  0  0  0  0  0  0  0  0  0  0  0  # atno 10718 bound_to 10713
  154.5713  135.2828  155.0824 H   0  0  0  0  0  0  0  0  0  0  0  0  # atno 10763 bound_to 10752
  154.2195  135.6393  153.5144 H   0  0  0  0  0  0  0  0  0  0  0  0  # atno 10764 bound_to 10752
  153.0058  135.5511  154.6338 H   0  0  0  0  0  0  0  0  0  0  0  0  # atno 10765 bound_to 10752
  140.4809  134.0937  155.7751 H   0  0  0  0  0  0  0  0  0  0  0  0  # atno 11005 bound_to 11000
  145.8500  139.2171  143.1777 LP  0  0  0  0  0  0  0  0  0  0  0  0  # atno 17320 bound_to 7965
  146.0269  140.8295  142.9895 LP  0  0  0  0  0  0  0  0  0  0  0  0  # atno 17321 bound_to 7965
  139.5867  144.1589  152.2037 LP  0  0  0  0  0  0  0  0  0  0  0  0  # atno 17342 bound_to 10162
  140.0931  144.5604  150.7041 LP  0  0  0  0  0  0  0  0  0  0  0  0  # atno 17343 bound_to 10162
  156.8166  130.4970  149.5348 LP  0  0  0  0  0  0  0  0  0  0  0  0  # atno 17370 bound_to 10713
  156.1100  130.6033  151.0031 LP  0  0  0  0  0  0  0  0  0  0  0  0  # atno 17371 bound_to 10713
  141.1532  133.8931  157.2045 LP  0  0  0  0  0  0  0  0  0  0  0  0  # atno 17394 bound_to 11000
  139.9827  135.0092  156.9789 LP  0  0  0  0  0  0  0  0  0  0  0  0  # atno 17395 bound_to 11000

$$$$
