AV-unprocessed.smi:3301|AV-procd|sdf|12655|dock8
  -GOLD-   2272018593D 1   1.00000     0.00000
 Structure written by MMmdl.
 36 37  0  0  0  0  0  0  0  0  1 V2000
  152.0312  138.6165  158.1743 C   0  0  0  0  0  0  0  0  0  0  0  0
  150.6679  139.2707  158.4548 C   0  0  1  0  0  0  0  0  0  0  0  0
  150.3437  140.4419  157.5064 C   0  0  0  0  0  0  0  0  0  0  0  0
  150.8844  141.7063  157.9683 N   0  0  0  0  0  0  0  0  0  0  0  0
  150.6173  142.9673  157.4521 C   0  0  0  0  0  0  0  0  0  0  0  0
  151.3537  143.8607  158.1968 C   0  0  0  0  0  0  0  0  0  0  0  0
  152.0792  143.1753  159.1687 N   0  0  0  0  0  0  0  0  0  0  0  0
  151.7526  141.9048  158.9700 C   0  0  0  0  0  0  0  0  0  0  0  0
  149.6143  138.2645  158.3476 N   0  0  0  0  0  0  0  0  0  0  0  0
  149.4696  137.1851  159.1318 C   0  0  0  0  0  0  0  0  0  0  0  0
  150.2479  136.8972  160.0423 O   0  0  0  0  0  0  0  0  0  0  0  0
  148.2646  136.2893  158.8155 C   0  0  0  0  0  0  0  0  0  0  0  0
  147.8921  135.4089  159.9237 N   0  0  0  0  0  0  0  0  0  0  0  0
  147.9425  133.9639  159.7729 C   0  0  0  0  0  0  0  0  0  0  0  0
  147.3119  133.4053  161.0566 C   0  0  0  0  0  0  0  0  0  0  0  0
  147.2309  134.5852  162.0312 C   0  0  0  0  0  0  0  0  0  0  0  0
  147.5123  135.7900  161.1498 C   0  0  0  0  0  0  0  0  0  0  0  0
  147.3985  136.9489  161.5463 O   0  0  0  0  0  0  0  0  0  0  0  0
  152.8500  139.3212  158.3206 H   0  0  0  0  0  0  0  0  0  0  0  0
  152.0901  138.2444  157.1510 H   0  0  0  0  0  0  0  0  0  0  0  0
  152.2066  137.7751  158.8456 H   0  0  0  0  0  0  0  0  0  0  0  0
  150.7009  139.6667  159.4712 H   0  0  0  0  0  0  0  0  0  0  0  0
  150.7333  140.2416  156.5071 H   0  0  0  0  0  0  0  0  0  0  0  0
  149.2636  140.5548  157.4033 H   0  0  0  0  0  0  0  0  0  0  0  0
  149.9439  143.1196  156.6215 H   0  0  0  0  0  0  0  0  0  0  0  0
  151.4181  144.9352  158.1075 H   0  0  0  0  0  0  0  0  0  0  0  0
  152.1521  141.1001  159.5698 H   0  0  0  0  0  0  0  0  0  0  0  0
  148.9276  138.4084  157.6214 H   0  0  0  0  0  0  0  0  0  0  0  0
  147.4082  136.9103  158.5465 H   0  0  0  0  0  0  0  0  0  0  0  0
  148.5003  135.6901  157.9353 H   0  0  0  0  0  0  0  0  0  0  0  0
  147.4025  133.6361  158.8838 H   0  0  0  0  0  0  0  0  0  0  0  0
  148.9826  133.6489  159.6778 H   0  0  0  0  0  0  0  0  0  0  0  0
  146.3100  133.0278  160.8479 H   0  0  0  0  0  0  0  0  0  0  0  0
  147.8946  132.5790  161.4648 H   0  0  0  0  0  0  0  0  0  0  0  0
  146.2536  134.6597  162.5091 H   0  0  0  0  0  0  0  0  0  0  0  0
  147.9962  134.5160  162.8046 H   0  0  0  0  0  0  0  0  0  0  0  0
  1  2  1  0  0  0  0
  1 19  1  0  0  0  0
  1 20  1  0  0  0  0
  1 21  1  0  0  0  0
  2  3  1  0  0  0  0
  2  9  1  0  0  0  0
  2 22  1  0  0  0  0
  3  4  1  0  0  0  0
  3 23  1  0  0  0  0
  3 24  1  0  0  0  0
  4  8  1  0  0  0  0
  4  5  1  0  0  0  0
  5  6  2  0  0  0  0
  5 25  1  0  0  0  0
  6  7  1  0  0  0  0
  6 26  1  0  0  0  0
  7  8  2  0  0  0  0
  8 27  1  0  0  0  0
  9 10  1  0  0  0  0
  9 28  1  0  0  0  0
 10 11  2  0  0  0  0
 10 12  1  0  0  0  0
 12 13  1  0  0  0  0
 12 29  1  0  0  0  0
 12 30  1  0  0  0  0
 13 17  1  0  0  0  0
 13 14  1  0  0  0  0
 14 15  1  0  0  0  0
 14 31  1  0  0  0  0
 14 32  1  0  0  0  0
 15 16  1  0  0  0  0
 15 33  1  0  0  0  0
 15 34  1  0  0  0  0
 16 17  1  0  0  0  0
 16 35  1  0  0  0  0
 16 36  1  0  0  0  0
 17 18  2  0  0  0  0
M  END
> <s_m_source_file>
AV-unprocessed.smi

> <i_m_source_file_index>
3301

> <i_lp_mmshare_version>
43012

> <i_f3d_flags>
0

> <s_epik_input>
W2NIXTFuW2NIXVtjSF1uMVtDSDJdW0NAQEhdKFtDSDNdKVtOSF1DKD1PKVtDSDJdTjJbQ0gyXVtDSDJdW0NIMl1DMj1P

> <s_epik_cmdline>
J2VwaWtfcHl0aG9uJywgJy1waCcsICc3LjAnLCAnLXRuJywgJzgnLCAnLW1hJywgJzIwMCcsICctbWV0YWxfYmluZGluZycsICctaW1hZScsICc8aW5maWxlLm1hZT4nLCAnLW9tYWUnLCAnPG91dGZpbGUubWFlPic=

> <r_lp_tautomer_probability>
1

> <r_epik_Ionization_Penalty>
0.623868

> <r_epik_Ionization_Penalty_Charging>
0.623868

> <r_epik_Ionization_Penalty_Neutral>
4.45089e-08

> <r_epik_State_Penalty>
0.640129

> <r_epik_Charging_Adjusted_Penalty>
1.264

> <i_epik_Tot_Q>
0

> <i_epik_Tot_abs_Q>
0

> <r_epik_Metal_State_Penalty>
0.307431

> <b_epik_Metal_Only>
0

> <s_lp_Force_Field>
OPLS_2005

> <r_lp_Energy>
14.8621

> <b_lp_Chiralities_Consistent>
1

> <s_lp_Variant>
AV-unprocessed.smi:3301-4

> <Gold.Version>
5.8.1

> <Gold.Id.Protein>
6NUR|6NUR_protein|mol2

> <Gold.PLP.Fitness>
42.8088

> <Gold.PLP.PLP>
-32.8978

> <Gold.PLP.part.hbond>
-3.9265

> <Gold.PLP.part.metal>
0.0000

> <Gold.PLP.part.buried>
-4.2249

> <Gold.PLP.part.nonpolar>
-25.8071

> <Gold.PLP.part.repulsive>
0.1466

> <Gold.PLP.ligand.clash>
0.0000

> <Gold.PLP.ligand.torsion>
0.7313

> <Gold.PLP.Chemscore.Hbond>
2.7760

> <Gold.PLP.Chemscore.CHOScore>
1.0000

> <Gold.PLP.Chemscore.Metal>
0.0000

> <Gold.Chemscore.Hbonds>
donor molecule, donor type, donor heavy atom, donor atom, acceptor molecule, acceptor atom, score
      P1  H  6896  6907       L1    11  1.00
      P1  H  6931  6943       L1    18  0.78
      P1  H  6934  6947       L1    18  0.59
      L1  C     5    25       P1  8028  1.00

> <Gold.PLP.Chemscore.Internal.Correction>
0.0456

> <Gold.Rescore>
     Score         DG    S(hbond)    S(metal)    S(lipo)     H(rot)  DE(clash)    DE(int)     intcor
     14.35     -15.27       2.74        0.00      55.07       2.26       0.01       0.92       ----

> <Gold.Chemscore.Fitness>
14.3455

> <Gold.Chemscore.DG>
-15.2722

> <Gold.Chemscore.ZeroCoef>
-5.4800

> <Gold.Chemscore.Hbond>
2.7386

> <Gold.Chemscore.Metal>
0.0000

> <Gold.Chemscore.Lipo>
55.0665

> <Gold.Chemscore.Internal_Hbond>
0.0000

> <Gold.Chemscore.DEClash>
0.0111

> <Gold.Chemscore.DEInternal>
0.9156

> <Gold.Chemscore.Rot>
2.2647

> <Gold.Chemscore.Internal.Correction>
   9.000000E+99

> <Gold.Chemscore.Hbonds>
donor molecule, donor type, donor heavy atom, donor atom, acceptor molecule, acceptor atom, score
      P1  H  6896  6907       L1    11  0.89
      P1  H  6931  6943       L1    18  0.73
      P1  H  6934  6947       L1    18  0.58

> <Gold.Chemscore.Hbond.Weighted>
-9.1470

> <Gold.Chemscore.Metal.Weighted>
-0.0000

> <Gold.Chemscore.Lipo.Weighted>
-6.4428

> <Gold.Chemscore.Internal_Hbond.Weighted>
0.0000

> <Gold.Chemscore.DEClash.Weighted>
0.0111

> <Gold.Chemscore.DEInternal.Weighted>
0.9156

> <Gold.Chemscore.Rot.Weighted>
5.7975

> <Gold.Chemscore.Internal.Correction.Weighted>
   9.000000E+99

> <Gold.Protein.RotatedTorsions>
[ 6907 6896 6895 6894 ] final  -18.86 input  -60.11 | X-H torsion
[ 7974 7965 7964 7962 ] final  152.14 input  175.53 | X-H torsion
[ 8008 7997 7996 7995 ] final   70.18 input   59.86 | X-H torsion
[ 10167 10162 10161 10158 ] final  145.73 input  -65.29 | X-H torsion
[ 10718 10713 10712 10709 ] final -175.72 input   66.30 | X-H torsion
[ 10763 10752 10751 10750 ] final  -80.97 input  -60.55 | X-H torsion
[ 11005 11000 10999 10996 ] final  100.15 input  -57.11 | X-H torsion

> <Gold.Protein.ActiveResidues>
 VAL166  LYS551  ARG553  GLY616  TRP617  ASP618  TYR619  PRO620  LYS621  CYS622 
 ASP623  PHE694  ASN695  SER759  ASP760  ASP761  ALA762  ILE779  LEU786  VAL792 
 PHE793  MET794  SER795  GLU796  ALA797  LYS798  CYS799  TRP800  GLU811  SER814 

> <Gold.Protein.RotatedAtoms>
  151.2719  135.0687  159.9136 H   0  0  0  0  0  0  0  0  0  0  0  0  # atno 6907 bound_to 6896
  152.5349  134.0122  159.7954 H   0  0  0  0  0  0  0  0  0  0  0  0  # atno 6908 bound_to 6896
  151.0361  133.5697  159.2686 H   0  0  0  0  0  0  0  0  0  0  0  0  # atno 6909 bound_to 6896
  144.8243  139.6629  143.6087 H   0  0  0  0  0  0  0  0  0  0  0  0  # atno 7974 bound_to 7965
  155.7350  140.3491  155.5077 H   0  0  0  0  0  0  0  0  0  0  0  0  # atno 8008 bound_to 7997
  155.9147  140.1056  157.1274 H   0  0  0  0  0  0  0  0  0  0  0  0  # atno 8009 bound_to 7997
  154.4061  140.1261  156.4590 H   0  0  0  0  0  0  0  0  0  0  0  0  # atno 8010 bound_to 7997
  139.4920  144.5880  151.6738 H   0  0  0  0  0  0  0  0  0  0  0  0  # atno 10167 bound_to 10162
  156.8040  130.9562  151.3118 H   0  0  0  0  0  0  0  0  0  0  0  0  # atno 10718 bound_to 10713
  154.5578  135.5642  153.6979 H   0  0  0  0  0  0  0  0  0  0  0  0  # atno 10763 bound_to 10752
  153.0008  135.6266  154.2287 H   0  0  0  0  0  0  0  0  0  0  0  0  # atno 10764 bound_to 10752
  154.2223  135.2869  155.2900 H   0  0  0  0  0  0  0  0  0  0  0  0  # atno 10765 bound_to 10752
  139.8771  134.9127  156.4713 H   0  0  0  0  0  0  0  0  0  0  0  0  # atno 11005 bound_to 11000
  146.2549  139.6279  142.9402 LP  0  0  0  0  0  0  0  0  0  0  0  0  # atno 17320 bound_to 7965
  145.5035  141.0437  143.2527 LP  0  0  0  0  0  0  0  0  0  0  0  0  # atno 17321 bound_to 7965
  140.5501  144.0440  150.6123 LP  0  0  0  0  0  0  0  0  0  0  0  0  # atno 17342 bound_to 10162
  140.3491  143.2974  152.0507 LP  0  0  0  0  0  0  0  0  0  0  0  0  # atno 17343 bound_to 10162
  157.6539  130.8908  149.9689 LP  0  0  0  0  0  0  0  0  0  0  0  0  # atno 17370 bound_to 10713
  156.1084  130.3651  150.0093 LP  0  0  0  0  0  0  0  0  0  0  0  0  # atno 17371 bound_to 10713
  140.8793  133.7929  155.9449 LP  0  0  0  0  0  0  0  0  0  0  0  0  # atno 17394 bound_to 11000
  140.8870  134.2541  157.5114 LP  0  0  0  0  0  0  0  0  0  0  0  0  # atno 17395 bound_to 11000

$$$$
