AV-unprocessed.smi:2990|AV-procd|sdf|11394|dock6
  -GOLD-   2272016313D 1   1.00000     0.00000
 Structure written by MMmdl.
 39 41  0  0  0  0  0  0  0  0  1 V2000
  151.7736  139.2448  155.9638 C   0  0  0  0  0  0  0  0  0  0  0  0
  152.0762  140.1114  157.1448 C   0  0  0  0  0  0  0  0  0  0  0  0
  153.1047  139.8690  157.9581 N   0  0  0  0  0  0  0  0  0  0  0  0
  153.0047  140.8888  158.8849 C   0  0  0  0  0  0  0  0  0  0  0  0
  153.8050  141.1893  160.0104 C   0  0  0  0  0  0  0  0  0  0  0  0
  153.5037  142.3012  160.8241 C   0  0  0  0  0  0  0  0  0  0  0  0
  152.4001  143.1264  160.5255 C   0  0  0  0  0  0  0  0  0  0  0  0
  151.5898  142.8448  159.4088 C   0  0  0  0  0  0  0  0  0  0  0  0
  151.8954  141.7343  158.5995 C   0  0  0  0  0  0  0  0  0  0  0  0
  151.3185  141.1921  157.4559 N   0  0  0  0  0  0  0  0  0  0  0  0
  150.1429  141.7011  156.7631 C   0  0  0  0  0  0  0  0  0  0  0  0
  148.8813  141.6802  157.6500 C   0  0  1  0  0  0  0  0  0  0  0  0
  148.2681  142.9524  157.7150 O   0  0  0  0  0  0  0  0  0  0  0  0
  147.8410  140.6341  157.2165 C   0  0  0  0  0  0  0  0  0  0  0  0
  147.6180  140.7234  155.8145 O   0  0  0  0  0  0  0  0  0  0  0  0
  146.7696  141.7035  155.3469 C   0  0  0  0  0  0  0  0  0  0  0  0
  145.7417  142.1259  156.2155 C   0  0  0  0  0  0  0  0  0  0  0  0
  144.8305  143.1249  155.8226 C   0  0  0  0  0  0  0  0  0  0  0  0
  144.9383  143.7134  154.5492 C   0  0  0  0  0  0  0  0  0  0  0  0
  145.9580  143.3005  153.6714 C   0  0  0  0  0  0  0  0  0  0  0  0
  146.8704  142.3019  154.0651 C   0  0  0  0  0  0  0  0  0  0  0  0
  152.5494  138.4896  155.8344 H   0  0  0  0  0  0  0  0  0  0  0  0
  151.7246  139.8435  155.0539 H   0  0  0  0  0  0  0  0  0  0  0  0
  150.8196  138.7368  156.1051 H   0  0  0  0  0  0  0  0  0  0  0  0
  154.6520  140.5631  160.2479 H   0  0  0  0  0  0  0  0  0  0  0  0
  154.1225  142.5220  161.6814 H   0  0  0  0  0  0  0  0  0  0  0  0
  152.1764  143.9757  161.1542 H   0  0  0  0  0  0  0  0  0  0  0  0
  150.7441  143.4747  159.1760 H   0  0  0  0  0  0  0  0  0  0  0  0
  150.3447  142.7084  156.3991 H   0  0  0  0  0  0  0  0  0  0  0  0
  149.9817  141.0866  155.8767 H   0  0  0  0  0  0  0  0  0  0  0  0
  149.1803  141.4406  158.6710 H   0  0  0  0  0  0  0  0  0  0  0  0
  148.7269  143.5375  157.1319 H   0  0  0  0  0  0  0  0  0  0  0  0
  148.2272  139.6412  157.4528 H   0  0  0  0  0  0  0  0  0  0  0  0
  146.9110  140.7693  157.7719 H   0  0  0  0  0  0  0  0  0  0  0  0
  145.6511  141.6789  157.1948 H   0  0  0  0  0  0  0  0  0  0  0  0
  144.0490  143.4392  156.4989 H   0  0  0  0  0  0  0  0  0  0  0  0
  144.2400  144.4796  154.2462 H   0  0  0  0  0  0  0  0  0  0  0  0
  146.0414  143.7512  152.6935 H   0  0  0  0  0  0  0  0  0  0  0  0
  147.6385  142.0121  153.3644 H   0  0  0  0  0  0  0  0  0  0  0  0
  1  2  1  0  0  0  0
  1 22  1  0  0  0  0
  1 23  1  0  0  0  0
  1 24  1  0  0  0  0
  2 10  1  0  0  0  0
  2  3  2  0  0  0  0
  3  4  1  0  0  0  0
  4  9  2  0  0  0  0
  4  5  1  0  0  0  0
  5  6  2  0  0  0  0
  5 25  1  0  0  0  0
  6  7  1  0  0  0  0
  6 26  1  0  0  0  0
  7  8  2  0  0  0  0
  7 27  1  0  0  0  0
  8  9  1  0  0  0  0
  8 28  1  0  0  0  0
  9 10  1  0  0  0  0
 10 11  1  0  0  0  0
 11 12  1  0  0  0  0
 11 29  1  0  0  0  0
 11 30  1  0  0  0  0
 12 13  1  0  0  0  0
 12 14  1  0  0  0  0
 12 31  1  0  0  0  0
 13 32  1  0  0  0  0
 14 15  1  0  0  0  0
 14 33  1  0  0  0  0
 14 34  1  0  0  0  0
 15 16  1  0  0  0  0
 16 21  1  0  0  0  0
 16 17  2  0  0  0  0
 17 18  1  0  0  0  0
 17 35  1  0  0  0  0
 18 19  2  0  0  0  0
 18 36  1  0  0  0  0
 19 20  1  0  0  0  0
 19 37  1  0  0  0  0
 20 21  2  0  0  0  0
 20 38  1  0  0  0  0
 21 39  1  0  0  0  0
M  END
> <s_m_source_file>
AV-unprocessed.smi

> <i_m_source_file_index>
2990

> <i_lp_mmshare_version>
43012

> <i_f3d_flags>
0

> <s_epik_input>
W2NIXTFbY0hdW2NIXVtjSF1jKGMxMiluKGMobjIpW0NIM10pW0NIMl1bQ0BIXShbT0hdKVtDSDJdT2MzW2NIXVtjSF1bY0hdW2NIXVtjSF0z

> <s_epik_cmdline>
J2VwaWtfcHl0aG9uJywgJy1waCcsICc3LjAnLCAnLXRuJywgJzgnLCAnLW1hJywgJzIwMCcsICctbWV0YWxfYmluZGluZycsICctaW1hZScsICc8aW5maWxlLm1hZT4nLCAnLW9tYWUnLCAnPG91dGZpbGUubWFlPic=

> <r_lp_tautomer_probability>
1

> <r_epik_Ionization_Penalty>
0.119634

> <r_epik_Ionization_Penalty_Charging>
0

> <r_epik_Ionization_Penalty_Neutral>
0.119634

> <r_epik_State_Penalty>
0.10919

> <r_epik_Charging_Adjusted_Penalty>
0.10919

> <i_epik_Tot_Q>
0

> <i_epik_Tot_abs_Q>
0

> <r_epik_Metal_State_Penalty>
0.000119887

> <b_epik_Metal_Only>
0

> <s_lp_Force_Field>
OPLS_2005

> <r_lp_Energy>
16.8637

> <b_lp_Chiralities_Consistent>
1

> <s_lp_Variant>
AV-unprocessed.smi:2990-2

> <Gold.Version>
5.8.1

> <Gold.Id.Protein>
6NUR|6NUR_protein|mol2

> <Gold.PLP.Fitness>
46.6271

> <Gold.PLP.PLP>
-43.1652

> <Gold.PLP.part.hbond>
-3.0000

> <Gold.PLP.part.metal>
0.0000

> <Gold.PLP.part.buried>
-4.7709

> <Gold.PLP.part.nonpolar>
-35.2912

> <Gold.PLP.part.repulsive>
0.0420

> <Gold.PLP.ligand.clash>
0.0000

> <Gold.PLP.ligand.torsion>
1.3007

> <Gold.PLP.Chemscore.Hbond>
2.0000

> <Gold.PLP.Chemscore.CHOScore>
0.0000

> <Gold.PLP.Chemscore.Metal>
0.0000

> <Gold.Chemscore.Hbonds>
donor molecule, donor type, donor heavy atom, donor atom, acceptor molecule, acceptor atom, score
      L1  H    13    32       P1  8028  1.00
      P1  H  7997  8009       L1     3  0.95

> <Gold.PLP.Chemscore.Internal.Correction>
0.0634

> <Gold.Rescore>
     Score         DG    S(hbond)    S(metal)    S(lipo)     H(rot)  DE(clash)    DE(int)     intcor
     14.13     -15.83       0.92        0.00     106.75       2.04       0.31       1.38       ----

> <Gold.Chemscore.Fitness>
14.1341

> <Gold.Chemscore.DG>
-15.8305

> <Gold.Chemscore.ZeroCoef>
-5.4800

> <Gold.Chemscore.Hbond>
0.9199

> <Gold.Chemscore.Metal>
0.0000

> <Gold.Chemscore.Lipo>
106.7547

> <Gold.Chemscore.Internal_Hbond>
0.0000

> <Gold.Chemscore.DEClash>
0.3125

> <Gold.Chemscore.DEInternal>
1.3839

> <Gold.Chemscore.Rot>
2.0361

> <Gold.Chemscore.Internal.Correction>
   9.000000E+99

> <Gold.Chemscore.Hbonds>
donor molecule, donor type, donor heavy atom, donor atom, acceptor molecule, acceptor atom, score
      L1  H    13    32       P1  8028  0.25
      P1  H  7997  8009       L1     3  0.19

> <Gold.Chemscore.Hbond.Weighted>
-3.0726

> <Gold.Chemscore.Metal.Weighted>
-0.0000

> <Gold.Chemscore.Lipo.Weighted>
-12.4903

> <Gold.Chemscore.Internal_Hbond.Weighted>
0.0000

> <Gold.Chemscore.DEClash.Weighted>
0.3125

> <Gold.Chemscore.DEInternal.Weighted>
1.3839

> <Gold.Chemscore.Rot.Weighted>
5.2124

> <Gold.Chemscore.Internal.Correction.Weighted>
   9.000000E+99

> <Gold.Protein.RotatedTorsions>
[ 6907 6896 6895 6894 ] final   32.48 input  -60.11 | X-H torsion
[ 7974 7965 7964 7962 ] final   39.94 input  175.53 | X-H torsion
[ 8008 7997 7996 7995 ] final  171.03 input   59.86 | X-H torsion
[ 10167 10162 10161 10158 ] final  173.63 input  -65.29 | X-H torsion
[ 10718 10713 10712 10709 ] final  165.66 input   66.30 | X-H torsion
[ 10763 10752 10751 10750 ] final   42.75 input  -60.55 | X-H torsion
[ 11005 11000 10999 10996 ] final  160.50 input  -57.11 | X-H torsion

> <Gold.Protein.ActiveResidues>
 VAL166  LYS551  ARG553  GLY616  TRP617  ASP618  TYR619  PRO620  LYS621  CYS622 
 ASP623  PHE694  ASN695  SER759  ASP760  ASP761  ALA762  ILE779  LEU786  VAL792 
 PHE793  MET794  SER795  GLU796  ALA797  LYS798  CYS799  TRP800  GLU811  SER814 

> <Gold.Protein.RotatedAtoms>
  152.0750  134.9509  160.0573 H   0  0  0  0  0  0  0  0  0  0  0  0  # atno 6907 bound_to 6896
  152.0820  133.4152  159.4513 H   0  0  0  0  0  0  0  0  0  0  0  0  # atno 6908 bound_to 6896
  150.6836  134.2891  159.4702 H   0  0  0  0  0  0  0  0  0  0  0  0  # atno 6909 bound_to 6896
  146.0944  139.5591  142.9455 H   0  0  0  0  0  0  0  0  0  0  0  0  # atno 7974 bound_to 7965
  156.1310  140.1522  156.9066 H   0  0  0  0  0  0  0  0  0  0  0  0  # atno 8008 bound_to 7997
  154.4909  140.0851  156.7631 H   0  0  0  0  0  0  0  0  0  0  0  0  # atno 8009 bound_to 7997
  155.4257  140.3425  155.4277 H   0  0  0  0  0  0  0  0  0  0  0  0  # atno 8010 bound_to 7997
  139.5115  144.3239  152.0176 H   0  0  0  0  0  0  0  0  0  0  0  0  # atno 10167 bound_to 10162
  157.0769  131.0381  151.2590 H   0  0  0  0  0  0  0  0  0  0  0  0  # atno 10718 bound_to 10713
  152.9876  135.6122  154.2999 H   0  0  0  0  0  0  0  0  0  0  0  0  # atno 10763 bound_to 10752
  154.2720  135.2779  155.2736 H   0  0  0  0  0  0  0  0  0  0  0  0  # atno 10764 bound_to 10752
  154.5114  135.5840  153.6664 H   0  0  0  0  0  0  0  0  0  0  0  0  # atno 10765 bound_to 10752
  140.2065  134.8299  157.3075 H   0  0  0  0  0  0  0  0  0  0  0  0  # atno 11005 bound_to 11000
  145.5976  141.0360  143.2036 LP  0  0  0  0  0  0  0  0  0  0  0  0  # atno 17320 bound_to 7965
  144.7384  139.7518  143.7320 LP  0  0  0  0  0  0  0  0  0  0  0  0  # atno 17321 bound_to 7965
  140.2680  144.3995  150.6161 LP  0  0  0  0  0  0  0  0  0  0  0  0  # atno 17342 bound_to 10162
  140.6109  143.2169  151.6888 LP  0  0  0  0  0  0  0  0  0  0  0  0  # atno 17343 bound_to 10162
  157.4832  130.7777  149.7434 LP  0  0  0  0  0  0  0  0  0  0  0  0  # atno 17370 bound_to 10713
  155.9934  130.3924  150.2900 LP  0  0  0  0  0  0  0  0  0  0  0  0  # atno 17371 bound_to 10713
  140.1997  134.4270  155.7670 LP  0  0  0  0  0  0  0  0  0  0  0  0  # atno 17394 bound_to 11000
  141.2227  133.7066  156.8163 LP  0  0  0  0  0  0  0  0  0  0  0  0  # atno 17395 bound_to 11000

$$$$
