AV-unprocessed.smi:1560|AV-procd|sdf|6280|dock6
  -GOLD-   22720 6473D 1   1.00000     0.00000
 Structure written by MMmdl.
 46 47  0  0  0  0  0  0  0  0  2 V2000
  149.3405  141.3778  155.2026 C   0  0  0  0  0  0  0  0  0  0  0  0
  149.4553  140.3436  156.3371 C   0  0  0  0  0  0  0  0  0  0  0  0
  150.8530  140.2458  157.0290 C   0  0  2  0  0  0  0  0  0  0  0  0
  151.8958  140.1197  155.8855 C   0  0  0  0  0  0  0  0  0  0  0  0
  150.9063  138.9354  157.8814 C   0  0  0  0  0  0  0  0  0  0  0  0
  149.6022  138.5126  158.3897 N   0  0  0  0  0  0  0  0  0  0  0  0
  149.2633  137.2621  158.7372 C   0  0  0  0  0  0  0  0  0  0  0  0
  150.0100  136.2923  158.6024 O   0  0  0  0  0  0  0  0  0  0  0  0
  147.8611  137.0795  159.3274 C   0  0  0  0  0  0  0  0  0  0  0  0
  147.6341  135.6935  159.7642 N   0  0  0  0  0  0  0  0  0  0  0  0
  147.3317  135.4732  161.1194 C   0  0  0  0  0  0  0  0  0  0  0  0
  147.0940  134.2386  161.6020 C   0  0  0  0  0  0  0  0  0  0  0  0
  147.1565  133.1122  160.6785 C   0  0  0  0  0  0  0  0  0  0  0  0
  146.9447  131.9776  161.1020 O   0  0  0  0  0  0  0  0  0  0  0  0
  147.4511  133.3779  159.3723 N   0  5  0  0  0  0  0  0  0  0  0  0
  147.6879  134.6388  158.8948 C   0  0  0  0  0  0  0  0  0  0  0  0
  147.9470  134.8567  157.7104 O   0  0  0  0  0  0  0  0  0  0  0  0
  151.1243  141.4581  157.8529 N   0  0  0  0  0  0  0  0  0  0  0  0
  151.2687  142.7091  157.0992 C   0  0  0  0  0  0  0  0  0  0  0  0
  151.4010  143.9291  158.0270 C   0  0  0  0  0  0  0  0  0  0  0  0
  152.5011  143.7452  158.9100 O   0  0  0  0  0  0  0  0  0  0  0  0
  152.3719  142.5696  159.7008 C   0  0  0  0  0  0  0  0  0  0  0  0
  152.2534  141.3407  158.7838 C   0  0  0  0  0  0  0  0  0  0  0  0
  148.3324  141.3743  154.7878 H   0  0  0  0  0  0  0  0  0  0  0  0
  150.0264  141.1581  154.3849 H   0  0  0  0  0  0  0  0  0  0  0  0
  149.5442  142.3902  155.5507 H   0  0  0  0  0  0  0  0  0  0  0  0
  148.6806  140.5442  157.0772 H   0  0  0  0  0  0  0  0  0  0  0  0
  149.1807  139.3776  155.9132 H   0  0  0  0  0  0  0  0  0  0  0  0
  151.5926  139.3906  155.1329 H   0  0  0  0  0  0  0  0  0  0  0  0
  152.8686  139.7937  156.2538 H   0  0  0  0  0  0  0  0  0  0  0  0
  152.0449  141.0684  155.3694 H   0  0  0  0  0  0  0  0  0  0  0  0
  151.2747  138.1042  157.2817 H   0  0  0  0  0  0  0  0  0  0  0  0
  151.6085  139.0355  158.7092 H   0  0  0  0  0  0  0  0  0  0  0  0
  148.9196  139.2407  158.5429 H   0  0  0  0  0  0  0  0  0  0  0  0
  147.7029  137.7693  160.1590 H   0  0  0  0  0  0  0  0  0  0  0  0
  147.1309  137.3696  158.5707 H   0  0  0  0  0  0  0  0  0  0  0  0
  147.2972  136.3610  161.7336 H   0  0  0  0  0  0  0  0  0  0  0  0
  146.8592  134.0865  162.6452 H   0  0  0  0  0  0  0  0  0  0  0  0
  152.1475  142.6651  156.4561 H   0  0  0  0  0  0  0  0  0  0  0  0
  150.4098  142.8754  156.4515 H   0  0  0  0  0  0  0  0  0  0  0  0
  151.5632  144.8341  157.4411 H   0  0  0  0  0  0  0  0  0  0  0  0
  150.4851  144.0788  158.6008 H   0  0  0  0  0  0  0  0  0  0  0  0
  153.2448  142.4773  160.3470 H   0  0  0  0  0  0  0  0  0  0  0  0
  151.4991  142.6522  160.3507 H   0  0  0  0  0  0  0  0  0  0  0  0
  152.1495  140.4619  159.4171 H   0  0  0  0  0  0  0  0  0  0  0  0
  153.1872  141.2253  158.2342 H   0  0  0  0  0  0  0  0  0  0  0  0
  1  2  1  0  0  0  0
  1 24  1  0  0  0  0
  1 25  1  0  0  0  0
  1 26  1  0  0  0  0
  2  3  1  0  0  0  0
  2 27  1  0  0  0  0
  2 28  1  0  0  0  0
  3  4  1  0  0  0  0
  3  5  1  0  0  0  0
  3 18  1  0  0  0  0
  4 29  1  0  0  0  0
  4 30  1  0  0  0  0
  4 31  1  0  0  0  0
  5  6  1  0  0  0  0
  5 32  1  0  0  0  0
  5 33  1  0  0  0  0
  6  7  1  0  0  0  0
  6 34  1  0  0  0  0
  7  8  2  0  0  0  0
  7  9  1  0  0  0  0
  9 10  1  0  0  0  0
  9 35  1  0  0  0  0
  9 36  1  0  0  0  0
 10 16  1  0  0  0  0
 10 11  1  0  0  0  0
 11 12  2  0  0  0  0
 11 37  1  0  0  0  0
 12 13  1  0  0  0  0
 12 38  1  0  0  0  0
 13 14  2  0  0  0  0
 13 15  1  0  0  0  0
 15 16  1  0  0  0  0
 16 17  2  0  0  0  0
 18 23  1  0  0  0  0
 18 19  1  0  0  0  0
 19 20  1  0  0  0  0
 19 39  1  0  0  0  0
 19 40  1  0  0  0  0
 20 21  1  0  0  0  0
 20 41  1  0  0  0  0
 20 42  1  0  0  0  0
 21 22  1  0  0  0  0
 22 23  1  0  0  0  0
 22 43  1  0  0  0  0
 22 44  1  0  0  0  0
 23 45  1  0  0  0  0
 23 46  1  0  0  0  0
M  CHG  1  15  -1
M  END
> <s_m_source_file>
AV-unprocessed.smi

> <i_m_source_file_index>
1560

> <i_lp_mmshare_version>
43012

> <i_f3d_flags>
0

> <s_epik_input>
W0NIMl0xW0NIMl1PW0NIMl1bQ0gyXU4xW0NAQF0oW0NIM10pKFtDSDJdW0NIM10pW0NIMl1bTkhdQyg9TylbQ0gyXW4yW2NIXVtjSF1jKD1PKVtuSF1jMj1P

> <s_epik_cmdline>
J2VwaWtfcHl0aG9uJywgJy1waCcsICc3LjAnLCAnLXRuJywgJzgnLCAnLW1hJywgJzIwMCcsICctbWV0YWxfYmluZGluZycsICctaW1hZScsICc8aW5maWxlLm1hZT4nLCAnLW9tYWUnLCAnPG91dGZpbGUubWFlPic=

> <r_lp_tautomer_probability>
0.999537

> <r_epik_Ionization_Penalty>
3.35108

> <r_epik_Ionization_Penalty_Charging>
2.65778e-08

> <r_epik_Ionization_Penalty_Neutral>
3.35108

> <r_epik_State_Penalty>
3.36199

> <r_epik_Charging_Adjusted_Penalty>
3.36199

> <i_epik_Tot_Q>
-1

> <i_epik_Tot_abs_Q>
1

> <r_epik_Metal_State_Penalty>
0.748914

> <b_epik_Metal_Only>
1

> <s_lp_Force_Field>
OPLS_2005

> <r_lp_Energy>
50.983

> <b_lp_Chiralities_Consistent>
1

> <s_lp_Variant>
AV-unprocessed.smi:1560-6

> <Gold.Version>
5.8.1

> <Gold.Id.Protein>
6NUR|6NUR_protein|mol2

> <Gold.PLP.Fitness>
38.3808

> <Gold.PLP.PLP>
-37.5784

> <Gold.PLP.part.hbond>
-1.0000

> <Gold.PLP.part.metal>
0.0000

> <Gold.PLP.part.buried>
-6.2954

> <Gold.PLP.part.nonpolar>
-30.7644

> <Gold.PLP.part.repulsive>
0.2168

> <Gold.PLP.ligand.clash>
0.0000

> <Gold.PLP.ligand.torsion>
1.1631

> <Gold.PLP.Chemscore.Hbond>
1.0000

> <Gold.PLP.Chemscore.CHOScore>
0.0000

> <Gold.PLP.Chemscore.Metal>
0.0000

> <Gold.Chemscore.Hbonds>
donor molecule, donor type, donor heavy atom, donor atom, acceptor molecule, acceptor atom, score
      P1  H  6896  6909       L1     8  1.00

> <Gold.PLP.Chemscore.Internal.Correction>
0.1285

> <Gold.Rescore>
     Score         DG    S(hbond)    S(metal)    S(lipo)     H(rot)  DE(clash)    DE(int)     intcor
     11.18     -12.67       1.00        0.00      85.86       2.42       0.01       1.48       ----

> <Gold.Chemscore.Fitness>
11.1829

> <Gold.Chemscore.DG>
-12.6703

> <Gold.Chemscore.ZeroCoef>
-5.4800

> <Gold.Chemscore.Hbond>
0.9997

> <Gold.Chemscore.Metal>
0.0000

> <Gold.Chemscore.Lipo>
85.8618

> <Gold.Chemscore.Internal_Hbond>
0.0000

> <Gold.Chemscore.DEClash>
0.0106

> <Gold.Chemscore.DEInternal>
1.4768

> <Gold.Chemscore.Rot>
2.4197

> <Gold.Chemscore.Internal.Correction>
   9.000000E+99

> <Gold.Chemscore.Hbonds>
donor molecule, donor type, donor heavy atom, donor atom, acceptor molecule, acceptor atom, score
      P1  H  6896  6909       L1     8  0.97

> <Gold.Chemscore.Hbond.Weighted>
-3.3389

> <Gold.Chemscore.Metal.Weighted>
-0.0000

> <Gold.Chemscore.Lipo.Weighted>
-10.0458

> <Gold.Chemscore.Internal_Hbond.Weighted>
0.0000

> <Gold.Chemscore.DEClash.Weighted>
0.0106

> <Gold.Chemscore.DEInternal.Weighted>
1.4768

> <Gold.Chemscore.Rot.Weighted>
6.1943

> <Gold.Chemscore.Internal.Correction.Weighted>
   9.000000E+99

> <Gold.Protein.RotatedTorsions>
[ 6907 6896 6895 6894 ] final   68.73 input  -60.11 | X-H torsion
[ 7974 7965 7964 7962 ] final  -95.44 input  175.53 | X-H torsion
[ 8008 7997 7996 7995 ] final  152.50 input   59.86 | X-H torsion
[ 10167 10162 10161 10158 ] final    3.14 input  -65.29 | X-H torsion
[ 10718 10713 10712 10709 ] final  159.32 input   66.30 | X-H torsion
[ 10763 10752 10751 10750 ] final   -3.11 input  -60.55 | X-H torsion
[ 11005 11000 10999 10996 ] final   90.94 input  -57.11 | X-H torsion

> <Gold.Protein.ActiveResidues>
 VAL166  LYS551  ARG553  GLY616  TRP617  ASP618  TYR619  PRO620  LYS621  CYS622 
 ASP623  PHE694  ASN695  SER759  ASP760  ASP761  ALA762  ILE779  LEU786  VAL792 
 PHE793  MET794  SER795  GLU796  ALA797  LYS798  CYS799  TRP800  GLU811  SER814 

> <Gold.Protein.RotatedAtoms>
  152.4640  134.5119  159.9756 H   0  0  0  0  0  0  0  0  0  0  0  0  # atno 6907 bound_to 6896
  151.5161  133.3469  159.2901 H   0  0  0  0  0  0  0  0  0  0  0  0  # atno 6908 bound_to 6896
  150.8615  134.7997  159.7148 H   0  0  0  0  0  0  0  0  0  0  0  0  # atno 6909 bound_to 6896
  145.3600  140.9490  143.2506 H   0  0  0  0  0  0  0  0  0  0  0  0  # atno 7974 bound_to 7965
  156.2626  140.2019  156.6343 H   0  0  0  0  0  0  0  0  0  0  0  0  # atno 8008 bound_to 7997
  154.6658  140.0555  157.0137 H   0  0  0  0  0  0  0  0  0  0  0  0  # atno 8009 bound_to 7997
  155.1209  140.3224  155.4500 H   0  0  0  0  0  0  0  0  0  0  0  0  # atno 8010 bound_to 7997
  140.6600  143.7328  150.7722 H   0  0  0  0  0  0  0  0  0  0  0  0  # atno 10167 bound_to 10162
  157.1659  131.0598  151.2208 H   0  0  0  0  0  0  0  0  0  0  0  0  # atno 10718 bound_to 10713
  153.3670  135.6993  153.6667 H   0  0  0  0  0  0  0  0  0  0  0  0  # atno 10763 bound_to 10752
  153.5333  135.3588  155.2686 H   0  0  0  0  0  0  0  0  0  0  0  0  # atno 10764 bound_to 10752
  154.8676  135.4186  154.2940 H   0  0  0  0  0  0  0  0  0  0  0  0  # atno 10765 bound_to 10752
  139.8847  134.8644  156.3356 H   0  0  0  0  0  0  0  0  0  0  0  0  # atno 11005 bound_to 11000
  144.8653  139.5117  143.6793 LP  0  0  0  0  0  0  0  0  0  0  0  0  # atno 17320 bound_to 7965
  146.2931  139.7198  142.9146 LP  0  0  0  0  0  0  0  0  0  0  0  0  # atno 17321 bound_to 7965
  140.0995  143.4801  152.2433 LP  0  0  0  0  0  0  0  0  0  0  0  0  # atno 17342 bound_to 10162
  139.5832  144.7519  151.3587 LP  0  0  0  0  0  0  0  0  0  0  0  0  # atno 17343 bound_to 10162
  157.4089  130.7374  149.6824 LP  0  0  0  0  0  0  0  0  0  0  0  0  # atno 17370 bound_to 10713
  155.9746  130.4100  150.3910 LP  0  0  0  0  0  0  0  0  0  0  0  0  # atno 17371 bound_to 10713
  140.9693  133.7337  156.0512 LP  0  0  0  0  0  0  0  0  0  0  0  0  # atno 17394 bound_to 11000
  140.7891  134.3638  157.5469 LP  0  0  0  0  0  0  0  0  0  0  0  0  # atno 17395 bound_to 11000

$$$$
