#       Name:                AV-unprocessed.smi:560
#       Creating user name   scv26
#       Creation time:       Thu Mar 26 23:42:02 2020


#       File generated by GOLD software.
#

@<TRIPOS>MOLECULE
AV-unprocessed.smi:560
    47    48     1
SMALL
NO_CHARGES


@<TRIPOS>ATOM
      1 ****        -3.4291  -3.4925  -0.3902 C.3            1 S1                 0.0000
      2 ****        -2.9266  -2.0514  -0.6150 C.3            1 S1                 0.0000
      3 ****        -1.4151  -1.9030  -0.3772 C.2            1 S1                 0.0000
      4 ****        -0.6653  -2.8769  -0.4571 O.2            1 S1                 0.0000
      5 ****        -0.9822  -0.6680  -0.0772 N.am           1 S1                 0.0000
      6 ****         0.4048  -0.3014   0.1893 C.3            1 S1                 0.0000
      7 ****         0.7803  -0.6033   1.6491 C.3            1 S1                 0.0000
      8 ****         2.1923  -0.0878   1.9763 C.3            1 S1                 0.0000
      9 ****         2.2867   1.3552   1.7319 N.3            1 S1                 0.0000
     10 ****         3.6124   1.8400   2.1794 C.3            1 S1                 0.0000
     11 ****         3.7970   3.3601   2.0937 C.2            1 S1                 0.0000
     12 ****         4.8345   3.8098   1.3836 N.am           1 S1                 0.0000
     13 ****         3.0097   4.1176   2.6571 O.2            1 S1                 0.0000
     14 ****         2.0259   1.6485   0.3148 C.3            1 S1                 0.0000
     15 ****         0.6081   1.1964  -0.0779 C.3            1 S1                 0.0000
     16 ****        -3.2864  -1.5385  -1.9322 N.pl3          1 S1                 0.0000
     17 ****        -3.7976  -0.2953  -2.2467 C.2            1 S1                 0.0000
     18 ****        -3.9456  -0.2422  -3.6029 C.2            1 S1                 0.0000
     19 ****        -3.4791  -1.5117  -4.0432 C.2            1 S1                 0.0000
     20 ****        -3.0774  -2.2807  -3.0447 N.2            1 S1                 0.0000
     21 ****        -3.2054  -3.8325   0.6217 H              1 S1                 0.0000
     22 ****        -2.9733  -4.2005  -1.0837 H              1 S1                 0.0000
     23 ****        -4.5099  -3.5517  -0.5216 H              1 S1                 0.0000
     24 ****        -3.4298  -1.4214   0.1205 H              1 S1                 0.0000
     25 ****        -1.6651   0.0743  -0.0311 H              1 S1                 0.0000
     26 ****         1.0636  -0.8628  -0.4761 H              1 S1                 0.0000
     27 ****         0.0598  -0.1382   2.3239 H              1 S1                 0.0000
     28 ****         0.7301  -1.6765   1.8365 H              1 S1                 0.0000
     29 ****         2.4081  -0.3005   3.0242 H              1 S1                 0.0000
     30 ****         2.9365  -0.6237   1.3844 H              1 S1                 0.0000
     31 ****         3.7644   1.5626   3.2234 H              1 S1                 0.0000
     32 ****         4.3976   1.3394   1.6095 H              1 S1                 0.0000
     33 ****         4.9964   4.8028   1.2993 H              1 S1                 0.0000
     34 ****         5.4544   3.1525   0.9331 H              1 S1                 0.0000
     35 ****         2.1045   2.7173   0.1167 H              1 S1                 0.0000
     36 ****         2.7690   1.1556  -0.3145 H              1 S1                 0.0000
     37 ****         0.4315   1.4145  -1.1318 H              1 S1                 0.0000
     38 ****        -0.1234   1.7789   0.4848 H              1 S1                 0.0000
     39 ****        -4.0118   0.4411  -1.4861 H              1 S1                 0.0000
     40 ****        -4.3245   0.5800  -4.1915 H              1 S1                 0.0000
     41 ****        -3.4166  -1.8934  -5.0516 H              1 S1                 0.0000
     42 ****        -1.0380  -3.7779  -0.6791 LP             1 S1                 0.0000
     43 ****         0.3161  -2.7665  -0.3001 LP             1 S1                 0.0000
     44 ****         1.5904   1.8422   2.2591 LP             1 S1                 0.0000
     45 ****         2.2412   3.7440   3.1766 LP             1 S1                 0.0000
     46 ****         3.1376   5.1075   2.5959 LP             1 S1                 0.0000
     47 ****        -2.7022  -3.2060  -3.0996 LP             1 S1                 0.0000
@<TRIPOS>BOND
    1    1    2 1     
    2    1   21 1     
    3    1   22 1     
    4    1   23 1     
    5    2    3 1     
    6    2   16 1     
    7    2   24 1     
    8    3    4 2     
    9    3    5 am    
   10    5    6 1     
   11    5   25 1     
   12    6   15 1     
   13    6    7 1     
   14    6   26 1     
   15    7    8 1     
   16    7   27 1     
   17    7   28 1     
   18    8    9 1     
   19    8   29 1     
   20    8   30 1     
   21    9   10 1     
   22    9   14 1     
   23   10   11 1     
   24   10   31 1     
   25   10   32 1     
   26   11   12 am    
   27   11   13 2     
   28   12   33 1     
   29   12   34 1     
   30   14   15 1     
   31   14   35 1     
   32   14   36 1     
   33   15   37 1     
   34   15   38 1     
   35   16   20 1     
   36   16   17 1     
   37   17   18 2     
   38   17   39 1     
   39   18   19 1     
   40   18   40 1     
   41   19   20 2     
   42   19   41 1     
   43    4   42 1     
   44    4   43 1     
   45    9   44 1     
   46   13   45 1     
   47   13   46 1     
   48   20   47 1     
@<TRIPOS>SUBSTRUCTURE
      1 S1             1
@<TRIPOS>SET
LONE_PAIRS      STATIC     ATOMS    <user>   **** ""
6 42 43 44 45 46 47
DONOR_HYDROGENS      STATIC     ATOMS    <user>   **** ""
3 25 33 34
ATOM$BLUE        STATIC     ATOMS    COLORGROUP SYSTEM
6 42 43 44 45 46 47
ATOM$RED        STATIC     ATOMS    COLORGROUP SYSTEM
3 25 33 34
