AV-unprocessed.smi:67|AV-procd|sdf|634|dock4
  -GOLD-   2262016533D 1   1.00000     0.00000
 Structure written by MMmdl.
 48 50  0  0  0  0  0  0  0  0  2 V2000
  145.8226  140.1156  153.7925 O   0  0  0  0  0  0  0  0  0  0  0  0
  147.0887  139.9021  153.1942 C   0  0  2  0  0  0  0  0  0  0  0  0
  148.0308  140.9724  153.7979 C   0  0  0  0  0  0  0  0  0  0  0  0
  148.8553  140.5357  154.9278 N   0  0  0  0  0  0  0  0  0  0  0  0
  148.9032  141.5545  155.9789 C   0  0  0  0  0  0  0  0  0  0  0  0
  149.6528  141.0763  157.2339 C   0  0  0  0  0  0  0  0  0  0  0  0
  151.0680  140.5840  156.8609 C   0  0  0  0  0  0  0  0  0  0  0  0
  151.8652  140.1559  157.9681 O   0  0  0  0  0  0  0  0  0  0  0  0
  152.3215  141.0150  158.9500 C   0  0  0  0  0  0  0  0  0  0  0  0
  153.2227  140.6844  159.9927 C   0  0  0  0  0  0  0  0  0  0  0  0
  153.6160  141.6555  160.9328 C   0  0  0  0  0  0  0  0  0  0  0  0
  153.1148  142.9670  160.8510 C   0  0  0  0  0  0  0  0  0  0  0  0
  152.2112  143.3137  159.8255 C   0  0  0  0  0  0  0  0  0  0  0  0
  151.6593  144.7269  159.7145 C   0  0  0  0  0  0  0  0  0  0  0  0
  150.3263  144.7015  159.7032 F   0  0  0  0  0  0  0  0  0  0  0  0
  152.0535  145.4886  160.7356 F   0  0  0  0  0  0  0  0  0  0  0  0
  152.0880  145.2777  158.5794 F   0  0  0  0  0  0  0  0  0  0  0  0
  151.8299  142.3355  158.8829 C   0  0  0  0  0  0  0  0  0  0  0  0
  151.0736  139.6305  155.6465 C   0  0  0  0  0  0  0  0  0  0  0  0
  150.2271  140.2227  154.5082 C   0  0  0  0  0  0  0  0  0  0  0  0
  146.9067  139.8828  151.6720 C   0  0  0  0  0  0  0  0  0  0  0  0
  146.3504  138.4838  151.3996 C   0  0  0  0  0  0  0  0  0  0  0  0
  146.9189  137.6095  152.4447 N   0  3  0  0  0  0  0  0  0  0  0  0
  147.5085  138.4561  153.5030 C   0  0  0  0  0  0  0  0  0  0  0  0
  145.1579  140.0521  153.1231 H   0  0  0  0  0  0  0  0  0  0  0  0
  148.6723  141.3890  153.0190 H   0  0  0  0  0  0  0  0  0  0  0  0
  147.3963  141.8040  154.1095 H   0  0  0  0  0  0  0  0  0  0  0  0
  149.3707  142.4624  155.5943 H   0  0  0  0  0  0  0  0  0  0  0  0
  147.8893  141.8309  156.2711 H   0  0  0  0  0  0  0  0  0  0  0  0
  149.7257  141.8925  157.9529 H   0  0  0  0  0  0  0  0  0  0  0  0
  149.0603  140.3048  157.7187 H   0  0  0  0  0  0  0  0  0  0  0  0
  151.5937  141.4764  156.5186 H   0  0  0  0  0  0  0  0  0  0  0  0
  153.6362  139.6975  160.1061 H   0  0  0  0  0  0  0  0  0  0  0  0
  154.3061  141.3924  161.7207 H   0  0  0  0  0  0  0  0  0  0  0  0
  153.4295  143.7009  161.5784 H   0  0  0  0  0  0  0  0  0  0  0  0
  151.1445  142.6012  158.0913 H   0  0  0  0  0  0  0  0  0  0  0  0
  152.0974  139.4800  155.3030 H   0  0  0  0  0  0  0  0  0  0  0  0
  150.6925  138.6420  155.8880 H   0  0  0  0  0  0  0  0  0  0  0  0
  150.2290  139.5279  153.6707 H   0  0  0  0  0  0  0  0  0  0  0  0
  150.7112  141.1281  154.1379 H   0  0  0  0  0  0  0  0  0  0  0  0
  146.2686  140.6826  151.2942 H   0  0  0  0  0  0  0  0  0  0  0  0
  147.8700  139.9536  151.1681 H   0  0  0  0  0  0  0  0  0  0  0  0
  145.2645  138.4834  151.5017 H   0  0  0  0  0  0  0  0  0  0  0  0
  146.5935  138.1234  150.3996 H   0  0  0  0  0  0  0  0  0  0  0  0
  146.1863  137.0320  152.8323 H   0  0  0  0  0  0  0  0  0  0  0  0
  148.5921  138.3522  153.4348 H   0  0  0  0  0  0  0  0  0  0  0  0
  147.2110  138.1239  154.4986 H   0  0  0  0  0  0  0  0  0  0  0  0
  147.6411  137.0241  152.0499 H   0  0  0  0  0  0  0  0  0  0  0  0
  1  2  1  0  0  0  0
  1 25  1  0  0  0  0
  2 24  1  0  0  0  0
  2  3  1  0  0  0  0
  2 21  1  0  0  0  0
  3  4  1  0  0  0  0
  3 26  1  0  0  0  0
  3 27  1  0  0  0  0
  4 20  1  0  0  0  0
  4  5  1  0  0  0  0
  5  6  1  0  0  0  0
  5 28  1  0  0  0  0
  5 29  1  0  0  0  0
  6  7  1  0  0  0  0
  6 30  1  0  0  0  0
  6 31  1  0  0  0  0
  7  8  1  0  0  0  0
  7 19  1  0  0  0  0
  7 32  1  0  0  0  0
  8  9  1  0  0  0  0
  9 18  1  0  0  0  0
  9 10  2  0  0  0  0
 10 11  1  0  0  0  0
 10 33  1  0  0  0  0
 11 12  2  0  0  0  0
 11 34  1  0  0  0  0
 12 13  1  0  0  0  0
 12 35  1  0  0  0  0
 13 14  1  0  0  0  0
 13 18  2  0  0  0  0
 14 15  1  0  0  0  0
 14 16  1  0  0  0  0
 14 17  1  0  0  0  0
 18 36  1  0  0  0  0
 19 20  1  0  0  0  0
 19 37  1  0  0  0  0
 19 38  1  0  0  0  0
 20 39  1  0  0  0  0
 20 40  1  0  0  0  0
 21 22  1  0  0  0  0
 21 41  1  0  0  0  0
 21 42  1  0  0  0  0
 22 23  1  0  0  0  0
 22 43  1  0  0  0  0
 22 44  1  0  0  0  0
 23 24  1  0  0  0  0
 23 45  1  0  0  0  0
 23 48  1  0  0  0  0
 24 46  1  0  0  0  0
 24 47  1  0  0  0  0
M  CHG  1  23   1
M  END
> <s_m_source_file>
AV-unprocessed.smi

> <i_m_source_file_index>
67

> <i_lp_mmshare_version>
43012

> <i_f3d_flags>
0

> <s_epik_input>
W0NIMl0xW05IXVtDSDJdW0NIMl1bQ0BAXTEoW09IXSlbQ0gyXU4yW0NIMl1bQ0gyXVtDSF0oW0NIMl1bQ0gyXTIpT2MzW2NIXVtjSF1bY0hdYyhDKEYpKEYpRilbY0hdMw==

> <s_epik_cmdline>
J2VwaWtfcHl0aG9uJywgJy1waCcsICc3LjAnLCAnLXRuJywgJzgnLCAnLW1hJywgJzIwMCcsICctbWV0YWxfYmluZGluZycsICctaW1hZScsICc8aW5maWxlLm1hZT4nLCAnLW9tYWUnLCAnPG91dGZpbGUubWFlPic=

> <r_lp_tautomer_probability>
1

> <r_epik_Ionization_Penalty>
1.18002

> <r_epik_Ionization_Penalty_Charging>
0.00399663

> <r_epik_Ionization_Penalty_Neutral>
1.17602

> <r_epik_State_Penalty>
1.25421

> <r_epik_Charging_Adjusted_Penalty>
1.25821

> <i_epik_Tot_Q>
1

> <i_epik_Tot_abs_Q>
1

> <r_epik_Metal_State_Penalty>
1.25387

> <b_epik_Metal_Only>
0

> <s_lp_Force_Field>
OPLS_2005

> <r_lp_Energy>
62.5676

> <b_lp_Chiralities_Consistent>
1

> <s_lp_Variant>
AV-unprocessed.smi:67-6

> <Gold.Version>
5.8.1

> <Gold.Id.Protein>
6NUR|6NUR_protein|mol2

> <Gold.PLP.Fitness>
56.8587

> <Gold.PLP.PLP>
-50.6791

> <Gold.PLP.part.hbond>
-2.0000

> <Gold.PLP.part.metal>
0.0000

> <Gold.PLP.part.buried>
3.0315

> <Gold.PLP.part.nonpolar>
-52.1089

> <Gold.PLP.part.repulsive>
0.1475

> <Gold.PLP.ligand.clash>
0.4265

> <Gold.PLP.ligand.torsion>
1.5942

> <Gold.PLP.Chemscore.Hbond>
3.0000

> <Gold.PLP.Chemscore.CHOScore>
0.0000

> <Gold.PLP.Chemscore.Metal>
0.0000

> <Gold.Chemscore.Hbonds>
donor molecule, donor type, donor heavy atom, donor atom, acceptor molecule, acceptor atom, score
      L1  H     1    25       P1 10175  1.00
      L1  H    23    48       P1  7948  1.98

> <Gold.PLP.Chemscore.Internal.Correction>
0.7944

> <Gold.Rescore>
     Score         DG    S(hbond)    S(metal)    S(lipo)     H(rot)  DE(clash)    DE(int)     intcor
     18.25     -22.15       1.96        0.00     134.44       2.19       1.35       2.55       ----

> <Gold.Chemscore.Fitness>
18.2488

> <Gold.Chemscore.DG>
-22.1493

> <Gold.Chemscore.ZeroCoef>
-5.4800

> <Gold.Chemscore.Hbond>
1.9588

> <Gold.Chemscore.Metal>
0.0000

> <Gold.Chemscore.Lipo>
134.4444

> <Gold.Chemscore.Internal_Hbond>
0.0000

> <Gold.Chemscore.DEClash>
1.3532

> <Gold.Chemscore.DEInternal>
2.5474

> <Gold.Chemscore.Rot>
2.1887

> <Gold.Chemscore.Internal.Correction>
   9.000000E+99

> <Gold.Chemscore.Hbonds>
donor molecule, donor type, donor heavy atom, donor atom, acceptor molecule, acceptor atom, score
      L1  H     1    25       P1 10175  0.96
      L1  H    23    48       P1  7948  0.92

> <Gold.Chemscore.Hbond.Weighted>
-6.5425

> <Gold.Chemscore.Metal.Weighted>
-0.0000

> <Gold.Chemscore.Lipo.Weighted>
-15.7300

> <Gold.Chemscore.Internal_Hbond.Weighted>
0.0000

> <Gold.Chemscore.DEClash.Weighted>
1.3532

> <Gold.Chemscore.DEInternal.Weighted>
2.5474

> <Gold.Chemscore.Rot.Weighted>
5.6032

> <Gold.Chemscore.Internal.Correction.Weighted>
   9.000000E+99

> <Gold.Protein.RotatedTorsions>
[ 6907 6896 6895 6894 ] final  -56.25 input  -60.11 | X-H torsion
[ 7974 7965 7964 7962 ] final  100.11 input  175.53 | X-H torsion
[ 8008 7997 7996 7995 ] final   53.10 input   59.86 | X-H torsion
[ 10167 10162 10161 10158 ] final -152.72 input  -65.29 | X-H torsion
[ 10718 10713 10712 10709 ] final -134.24 input   66.30 | X-H torsion
[ 10763 10752 10751 10750 ] final  -28.68 input  -60.55 | X-H torsion
[ 11005 11000 10999 10996 ] final  -33.92 input  -57.11 | X-H torsion

> <Gold.Protein.ActiveResidues>
 VAL166  LYS551  ARG553  GLY616  TRP617  ASP618  TYR619  PRO620  LYS621  CYS622 
 ASP623  PHE694  ASN695  SER759  ASP760  ASP761  ALA762  ILE779  LEU786  VAL792 
 PHE793  MET794  SER795  GLU796  ALA797  LYS798  CYS799  TRP800  GLU811  SER814 

> <Gold.Protein.RotatedAtoms>
  150.8183  134.7378  159.6749 H   0  0  0  0  0  0  0  0  0  0  0  0  # atno 6907 bound_to 6896
  152.4301  134.5791  159.9952 H   0  0  0  0  0  0  0  0  0  0  0  0  # atno 6908 bound_to 6896
  151.5982  133.3322  159.3078 H   0  0  0  0  0  0  0  0  0  0  0  0  # atno 6909 bound_to 6896
  145.3900  139.2364  143.3357 H   0  0  0  0  0  0  0  0  0  0  0  0  # atno 7974 bound_to 7965
  155.4627  140.3462  155.4315 H   0  0  0  0  0  0  0  0  0  0  0  0  # atno 8008 bound_to 7997
  156.1150  140.1471  156.9314 H   0  0  0  0  0  0  0  0  0  0  0  0  # atno 8009 bound_to 7997
  154.4783  140.0878  156.7295 H   0  0  0  0  0  0  0  0  0  0  0  0  # atno 8010 bound_to 7997
  139.7157  143.9037  152.2485 H   0  0  0  0  0  0  0  0  0  0  0  0  # atno 10167 bound_to 10162
  156.2534  130.7166  151.1074 H   0  0  0  0  0  0  0  0  0  0  0  0  # atno 10718 bound_to 10713
  153.7523  135.6925  153.4943 H   0  0  0  0  0  0  0  0  0  0  0  0  # atno 10763 bound_to 10752
  153.1994  135.4442  155.0247 H   0  0  0  0  0  0  0  0  0  0  0  0  # atno 10764 bound_to 10752
  154.8183  135.3409  154.7043 H   0  0  0  0  0  0  0  0  0  0  0  0  # atno 10765 bound_to 10752
  140.9674  133.7129  156.1468 H   0  0  0  0  0  0  0  0  0  0  0  0  # atno 11005 bound_to 11000
  146.2802  140.4581  142.8779 LP  0  0  0  0  0  0  0  0  0  0  0  0  # atno 17320 bound_to 7965
  144.8447  140.6911  143.6207 LP  0  0  0  0  0  0  0  0  0  0  0  0  # atno 17321 bound_to 7965
  139.8919  144.6961  150.8761 LP  0  0  0  0  0  0  0  0  0  0  0  0  # atno 17342 bound_to 10162
  140.7743  143.3580  151.1883 LP  0  0  0  0  0  0  0  0  0  0  0  0  # atno 17343 bound_to 10162
  157.7223  131.0673  150.6083 LP  0  0  0  0  0  0  0  0  0  0  0  0  # atno 17370 bound_to 10713
  156.6164  130.4394  149.5839 LP  0  0  0  0  0  0  0  0  0  0  0  0  # atno 17371 bound_to 10713
  140.7378  134.4183  157.5558 LP  0  0  0  0  0  0  0  0  0  0  0  0  # atno 17394 bound_to 11000
  139.8900  134.8817  156.2394 LP  0  0  0  0  0  0  0  0  0  0  0  0  # atno 17395 bound_to 11000

$$$$
