AV-unprocessed.smi:783|AV-procd|sdf|3717|dock9
  -GOLD-   22720 1143D 1   1.00000     0.00000
 Structure written by MMmdl.
 45 46  0  0  0  0  0  0  0  0  1 V2000
  144.3925  136.1061  151.6494 C   0  0  0  0  0  0  0  0  0  0  0  0
  145.5624  135.1302  151.8908 C   0  0  1  0  0  0  0  0  0  0  0  0
  145.8526  134.9117  153.3837 C   0  0  0  0  0  0  0  0  0  0  0  0
  144.9620  134.5423  154.1499 O   0  0  0  0  0  0  0  0  0  0  0  0
  147.1123  135.1516  153.7812 N   0  0  0  0  0  0  0  0  0  0  0  0
  147.6186  135.0339  155.1488 C   0  0  0  0  0  0  0  0  0  0  0  0
  148.7121  133.9334  155.3133 C   0  0  0  0  0  0  0  0  0  0  0  0
  149.8309  134.3712  156.3205 C   0  0  0  0  0  0  0  0  0  0  0  0
  149.9017  133.7715  157.3964 O   0  0  0  0  0  0  0  0  0  0  0  0
  150.7083  135.3771  156.0548 N   0  0  0  0  0  0  0  0  0  0  0  0
  150.5786  136.1340  154.8047 C   0  0  0  0  0  0  0  0  0  0  0  0
  151.8330  135.8370  156.8741 C   0  0  0  0  0  0  0  0  0  0  0  0
  148.0304  132.6178  155.7844 C   0  0  0  0  0  0  0  0  0  0  0  0
  148.9619  131.4650  155.3956 C   0  0  0  0  0  0  0  0  0  0  0  0
  149.7686  131.9846  154.2037 C   0  0  0  0  0  0  0  0  0  0  0  0
  149.2877  133.4226  153.9672 C   0  0  0  0  0  0  0  0  0  0  0  0
  145.3673  133.8493  151.2213 N   0  0  0  0  0  0  0  0  0  0  0  0
  144.2600  133.4226  150.5163 C   0  0  0  0  0  0  0  0  0  0  0  0
  144.5369  132.1778  150.0283 C   0  0  0  0  0  0  0  0  0  0  0  0
  145.8618  131.9255  150.4798 C   0  0  0  0  0  0  0  0  0  0  0  0
  146.3593  132.9289  151.1837 N   0  0  0  0  0  0  0  0  0  0  0  0
  144.5834  137.0710  152.1205 H   0  0  0  0  0  0  0  0  0  0  0  0
  143.4502  135.7267  152.0466 H   0  0  0  0  0  0  0  0  0  0  0  0
  144.2524  136.2863  150.5832 H   0  0  0  0  0  0  0  0  0  0  0  0
  146.4514  135.5868  151.4520 H   0  0  0  0  0  0  0  0  0  0  0  0
  147.7738  135.4522  153.0803 H   0  0  0  0  0  0  0  0  0  0  0  0
  148.0024  135.9975  155.4880 H   0  0  0  0  0  0  0  0  0  0  0  0
  146.7570  134.8532  155.7848 H   0  0  0  0  0  0  0  0  0  0  0  0
  149.5780  136.5589  154.7100 H   0  0  0  0  0  0  0  0  0  0  0  0
  150.7581  135.4872  153.9448 H   0  0  0  0  0  0  0  0  0  0  0  0
  151.2839  136.9641  154.7431 H   0  0  0  0  0  0  0  0  0  0  0  0
  152.1067  135.1879  157.6977 H   0  0  0  0  0  0  0  0  0  0  0  0
  151.6033  136.8168  157.2938 H   0  0  0  0  0  0  0  0  0  0  0  0
  152.7283  135.9420  156.2601 H   0  0  0  0  0  0  0  0  0  0  0  0
  147.7727  132.5972  156.8441 H   0  0  0  0  0  0  0  0  0  0  0  0
  147.0880  132.4835  155.2511 H   0  0  0  0  0  0  0  0  0  0  0  0
  149.6315  131.2211  156.2213 H   0  0  0  0  0  0  0  0  0  0  0  0
  148.4011  130.5624  155.1509 H   0  0  0  0  0  0  0  0  0  0  0  0
  150.8323  131.9755  154.4454 H   0  0  0  0  0  0  0  0  0  0  0  0
  149.6296  131.3683  153.3149 H   0  0  0  0  0  0  0  0  0  0  0  0
  148.4930  133.4089  153.2199 H   0  0  0  0  0  0  0  0  0  0  0  0
  150.0900  134.0183  153.5407 H   0  0  0  0  0  0  0  0  0  0  0  0
  143.3754  134.0349  150.4210 H   0  0  0  0  0  0  0  0  0  0  0  0
  143.8934  131.5458  149.4345 H   0  0  0  0  0  0  0  0  0  0  0  0
  146.4747  131.0518  150.3143 H   0  0  0  0  0  0  0  0  0  0  0  0
  1  2  1  0  0  0  0
  1 22  1  0  0  0  0
  1 23  1  0  0  0  0
  1 24  1  0  0  0  0
  2  3  1  0  0  0  0
  2 17  1  0  0  0  0
  2 25  1  0  0  0  0
  3  4  2  0  0  0  0
  3  5  1  0  0  0  0
  5  6  1  0  0  0  0
  5 26  1  0  0  0  0
  6  7  1  0  0  0  0
  6 27  1  0  0  0  0
  6 28  1  0  0  0  0
  7 16  1  0  0  0  0
  7  8  1  0  0  0  0
  7 13  1  0  0  0  0
  8  9  2  0  0  0  0
  8 10  1  0  0  0  0
 10 11  1  0  0  0  0
 10 12  1  0  0  0  0
 11 29  1  0  0  0  0
 11 30  1  0  0  0  0
 11 31  1  0  0  0  0
 12 32  1  0  0  0  0
 12 33  1  0  0  0  0
 12 34  1  0  0  0  0
 13 14  1  0  0  0  0
 13 35  1  0  0  0  0
 13 36  1  0  0  0  0
 14 15  1  0  0  0  0
 14 37  1  0  0  0  0
 14 38  1  0  0  0  0
 15 16  1  0  0  0  0
 15 39  1  0  0  0  0
 15 40  1  0  0  0  0
 16 41  1  0  0  0  0
 16 42  1  0  0  0  0
 17 21  1  0  0  0  0
 17 18  1  0  0  0  0
 18 19  2  0  0  0  0
 18 43  1  0  0  0  0
 19 20  1  0  0  0  0
 19 44  1  0  0  0  0
 20 21  2  0  0  0  0
 20 45  1  0  0  0  0
M  END
> <s_m_source_file>
AV-unprocessed.smi

> <i_m_source_file_index>
783

> <i_lp_mmshare_version>
43012

> <i_f3d_flags>
0

> <s_epik_input>
bjFbY0hdW2NIXVtjSF1uMVtDQEhdKFtDSDNdKUMoPU8pW05IXVtDSDJdQzIoQyg9TylOKFtDSDNdKVtDSDNdKVtDSDJdW0NIMl1bQ0gyXVtDSDJdMg==

> <s_epik_cmdline>
J2VwaWtfcHl0aG9uJywgJy1waCcsICc3LjAnLCAnLXRuJywgJzgnLCAnLW1hJywgJzIwMCcsICctbWV0YWxfYmluZGluZycsICctaW1hZScsICc8aW5maWxlLm1hZT4nLCAnLW9tYWUnLCAnPG91dGZpbGUubWFlPic=

> <r_lp_tautomer_probability>
1

> <r_epik_Ionization_Penalty>
3.31274e-05

> <r_epik_Ionization_Penalty_Charging>
0

> <r_epik_Ionization_Penalty_Neutral>
3.31274e-05

> <r_epik_State_Penalty>
-0

> <r_epik_Charging_Adjusted_Penalty>
0

> <i_epik_Tot_Q>
0

> <i_epik_Tot_abs_Q>
0

> <r_epik_Metal_State_Penalty>
-0

> <b_epik_Metal_Only>
0

> <s_lp_Force_Field>
OPLS_2005

> <r_lp_Energy>
40.1786

> <b_lp_Chiralities_Consistent>
1

> <s_lp_Variant>
AV-unprocessed.smi:783-2

> <Gold.Version>
5.8.1

> <Gold.Id.Protein>
6NUR|6NUR_protein|mol2

> <Gold.PLP.Fitness>
39.7033

> <Gold.PLP.PLP>
-30.1049

> <Gold.PLP.part.hbond>
-2.0000

> <Gold.PLP.part.metal>
0.0000

> <Gold.PLP.part.buried>
-3.7482

> <Gold.PLP.part.nonpolar>
-23.8291

> <Gold.PLP.part.repulsive>
0.2421

> <Gold.PLP.ligand.clash>
0.0000

> <Gold.PLP.ligand.torsion>
1.1839

> <Gold.PLP.Chemscore.Hbond>
1.9263

> <Gold.PLP.Chemscore.CHOScore>
1.9619

> <Gold.PLP.Chemscore.Metal>
0.0000

> <Gold.Chemscore.Hbonds>
donor molecule, donor type, donor heavy atom, donor atom, acceptor molecule, acceptor atom, score
      L1  H     5    26       P1  7948  1.00
      P1  H  6896  6908       L1     9  0.93
      L1  C    18    43       P1 10186  0.95
      L1  C    20    45       P1 10747  0.99

> <Gold.PLP.Chemscore.Internal.Correction>
0.3018

> <Gold.Rescore>
     Score         DG    S(hbond)    S(metal)    S(lipo)     H(rot)  DE(clash)    DE(int)     intcor
     14.57     -15.75       1.95        0.00      72.46       1.84       0.07       1.11       ----

> <Gold.Chemscore.Fitness>
14.5734

> <Gold.Chemscore.DG>
-15.7538

> <Gold.Chemscore.ZeroCoef>
-5.4800

> <Gold.Chemscore.Hbond>
1.9518

> <Gold.Chemscore.Metal>
0.0000

> <Gold.Chemscore.Lipo>
72.4594

> <Gold.Chemscore.Internal_Hbond>
0.0000

> <Gold.Chemscore.DEClash>
0.0659

> <Gold.Chemscore.DEInternal>
1.1145

> <Gold.Chemscore.Rot>
1.8449

> <Gold.Chemscore.Internal.Correction>
   9.000000E+99

> <Gold.Chemscore.Hbonds>
donor molecule, donor type, donor heavy atom, donor atom, acceptor molecule, acceptor atom, score
      L1  H     5    26       P1  7948  1.00
      P1  H  6896  6908       L1     9  0.86

> <Gold.Chemscore.Hbond.Weighted>
-6.5190

> <Gold.Chemscore.Metal.Weighted>
-0.0000

> <Gold.Chemscore.Lipo.Weighted>
-8.4777

> <Gold.Chemscore.Internal_Hbond.Weighted>
0.0000

> <Gold.Chemscore.DEClash.Weighted>
0.0659

> <Gold.Chemscore.DEInternal.Weighted>
1.1145

> <Gold.Chemscore.Rot.Weighted>
4.7229

> <Gold.Chemscore.Internal.Correction.Weighted>
   9.000000E+99

> <Gold.Protein.RotatedTorsions>
[ 6907 6896 6895 6894 ] final  118.32 input  -60.11 | X-H torsion
[ 7974 7965 7964 7962 ] final   22.69 input  175.53 | X-H torsion
[ 8008 7997 7996 7995 ] final -125.13 input   59.86 | X-H torsion
[ 10167 10162 10161 10158 ] final  102.21 input  -65.29 | X-H torsion
[ 10718 10713 10712 10709 ] final  -29.35 input   66.30 | X-H torsion
[ 10763 10752 10751 10750 ] final  -58.35 input  -60.55 | X-H torsion
[ 11005 11000 10999 10996 ] final -172.61 input  -57.11 | X-H torsion

> <Gold.Protein.ActiveResidues>
 VAL166  LYS551  ARG553  GLY616  TRP617  ASP618  TYR619  PRO620  LYS621  CYS622 
 ASP623  PHE694  ASN695  SER759  ASP760  ASP761  ALA762  ILE779  LEU786  VAL792 
 PHE793  MET794  SER795  GLU796  ALA797  LYS798  CYS799  TRP800  GLU811  SER814 

> <Gold.Protein.RotatedAtoms>
  152.4551  133.7707  159.6797 H   0  0  0  0  0  0  0  0  0  0  0  0  # atno 6907 bound_to 6896
  150.8475  133.7828  159.3044 H   0  0  0  0  0  0  0  0  0  0  0  0  # atno 6908 bound_to 6896
  151.5434  135.1071  159.9984 H   0  0  0  0  0  0  0  0  0  0  0  0  # atno 6909 bound_to 6896
  146.2017  139.7849  142.8756 H   0  0  0  0  0  0  0  0  0  0  0  0  # atno 7974 bound_to 7965
  155.2082  140.0418  157.2929 H   0  0  0  0  0  0  0  0  0  0  0  0  # atno 8008 bound_to 7997
  154.6029  140.2457  155.7740 H   0  0  0  0  0  0  0  0  0  0  0  0  # atno 8009 bound_to 7997
  156.2332  140.2931  156.0253 H   0  0  0  0  0  0  0  0  0  0  0  0  # atno 8010 bound_to 7997
  139.7370  144.7021  151.0634 H   0  0  0  0  0  0  0  0  0  0  0  0  # atno 10167 bound_to 10162
  156.4136  130.4413  149.7234 H   0  0  0  0  0  0  0  0  0  0  0  0  # atno 10718 bound_to 10713
  154.2368  135.6351  153.5193 H   0  0  0  0  0  0  0  0  0  0  0  0  # atno 10763 bound_to 10752
  152.9938  135.5532  154.5953 H   0  0  0  0  0  0  0  0  0  0  0  0  # atno 10764 bound_to 10752
  154.5449  135.2897  155.1036 H   0  0  0  0  0  0  0  0  0  0  0  0  # atno 10765 bound_to 10752
  140.4951  134.5947  157.4968 H   0  0  0  0  0  0  0  0  0  0  0  0  # atno 11005 bound_to 11000
  145.3459  141.0297  143.3366 LP  0  0  0  0  0  0  0  0  0  0  0  0  # atno 17320 bound_to 7965
  144.8699  139.5053  143.6772 LP  0  0  0  0  0  0  0  0  0  0  0  0  # atno 17321 bound_to 7965
  140.7780  143.4972  150.9818 LP  0  0  0  0  0  0  0  0  0  0  0  0  # atno 17342 bound_to 10162
  139.8660  143.7253  152.3170 LP  0  0  0  0  0  0  0  0  0  0  0  0  # atno 17343 bound_to 10162
  156.4203  130.7765  151.2782 LP  0  0  0  0  0  0  0  0  0  0  0  0  # atno 17370 bound_to 10713
  157.7507  131.0185  150.3627 LP  0  0  0  0  0  0  0  0  0  0  0  0  # atno 17371 bound_to 10713
  139.9746  134.7236  155.9974 LP  0  0  0  0  0  0  0  0  0  0  0  0  # atno 17394 bound_to 11000
  141.1464  133.6555  156.3881 LP  0  0  0  0  0  0  0  0  0  0  0  0  # atno 17395 bound_to 11000

$$$$
