AV-unprocessed.smi:3165|AV-procd|sdf|12086|dock6
  -GOLD-   2272017513D 1   1.00000     0.00000
 Structure written by MMmdl.
 38 39  0  0  0  0  0  0  0  0  2 V2000
  147.1248  141.6563  155.8558 C   0  0  0  0  0  0  0  0  0  0  0  0
  148.5483  141.0651  155.8808 C   0  0  1  0  0  0  0  0  0  0  0  0
  149.0066  140.5823  154.4883 C   0  0  0  0  0  0  0  0  0  0  0  0
  150.1342  139.6689  154.5417 N   0  0  0  0  0  0  0  0  0  0  0  0
  150.1816  138.3400  154.1751 C   0  0  0  0  0  0  0  0  0  0  0  0
  151.4572  137.9042  154.3923 C   0  0  0  0  0  0  0  0  0  0  0  0
  152.1275  139.0553  154.8926 C   0  0  0  0  0  0  0  0  0  0  0  0
  151.3339  140.1111  154.9765 N   0  0  0  0  0  0  0  0  0  0  0  0
  149.5279  142.0446  156.4020 N   0  3  0  0  0  0  0  0  0  0  0  0
  149.6973  142.0584  157.8707 C   0  0  0  0  0  0  0  0  0  0  0  0
  150.1704  143.4365  158.3541 C   0  0  2  0  0  0  0  0  0  0  0  0
  151.6548  143.6830  158.0219 C   0  0  0  0  0  0  0  0  0  0  0  0
  152.1225  145.0241  158.5990 C   0  0  0  0  0  0  0  0  0  0  0  0
  151.7951  145.0863  160.0945 C   0  0  0  0  0  0  0  0  0  0  0  0
  150.3115  144.7628  160.3301 C   0  0  0  0  0  0  0  0  0  0  0  0
  149.9968  143.4916  159.7691 O   0  0  0  0  0  0  0  0  0  0  0  0
  146.3981  140.9302  155.4910 H   0  0  0  0  0  0  0  0  0  0  0  0
  147.0712  142.5316  155.2077 H   0  0  0  0  0  0  0  0  0  0  0  0
  146.7919  141.9563  156.8490 H   0  0  0  0  0  0  0  0  0  0  0  0
  148.5538  140.2039  156.5507 H   0  0  0  0  0  0  0  0  0  0  0  0
  148.1845  140.0826  153.9735 H   0  0  0  0  0  0  0  0  0  0  0  0
  149.2912  141.4327  153.8668 H   0  0  0  0  0  0  0  0  0  0  0  0
  149.3141  137.8196  153.7964 H   0  0  0  0  0  0  0  0  0  0  0  0
  151.8526  136.9147  154.2180 H   0  0  0  0  0  0  0  0  0  0  0  0
  153.1601  139.1548  155.1931 H   0  0  0  0  0  0  0  0  0  0  0  0
  150.4268  141.8184  156.0007 H   0  0  0  0  0  0  0  0  0  0  0  0
  148.7628  141.7935  158.3651 H   0  0  0  0  0  0  0  0  0  0  0  0
  150.4336  141.3021  158.1456 H   0  0  0  0  0  0  0  0  0  0  0  0
  149.5605  144.2092  157.8821 H   0  0  0  0  0  0  0  0  0  0  0  0
  152.2638  142.8774  158.4347 H   0  0  0  0  0  0  0  0  0  0  0  0
  151.8093  143.6694  156.9426 H   0  0  0  0  0  0  0  0  0  0  0  0
  153.1928  145.1560  158.4378 H   0  0  0  0  0  0  0  0  0  0  0  0
  151.6233  145.8426  158.0788 H   0  0  0  0  0  0  0  0  0  0  0  0
  152.4137  144.3697  160.6362 H   0  0  0  0  0  0  0  0  0  0  0  0
  152.0360  146.0721  160.4935 H   0  0  0  0  0  0  0  0  0  0  0  0
  150.0994  144.7383  161.3991 H   0  0  0  0  0  0  0  0  0  0  0  0
  149.6711  145.5327  159.8966 H   0  0  0  0  0  0  0  0  0  0  0  0
  149.2651  142.9697  156.0925 H   0  0  0  0  0  0  0  0  0  0  0  0
  1  2  1  0  0  0  0
  1 17  1  0  0  0  0
  1 18  1  0  0  0  0
  1 19  1  0  0  0  0
  2  3  1  0  0  0  0
  2  9  1  0  0  0  0
  2 20  1  0  0  0  0
  3  4  1  0  0  0  0
  3 21  1  0  0  0  0
  3 22  1  0  0  0  0
  4  8  1  0  0  0  0
  4  5  1  0  0  0  0
  5  6  2  0  0  0  0
  5 23  1  0  0  0  0
  6  7  1  0  0  0  0
  6 24  1  0  0  0  0
  7  8  2  0  0  0  0
  7 25  1  0  0  0  0
  9 10  1  0  0  0  0
  9 26  1  0  0  0  0
  9 38  1  0  0  0  0
 10 11  1  0  0  0  0
 10 27  1  0  0  0  0
 10 28  1  0  0  0  0
 11 16  1  0  0  0  0
 11 12  1  0  0  0  0
 11 29  1  0  0  0  0
 12 13  1  0  0  0  0
 12 30  1  0  0  0  0
 12 31  1  0  0  0  0
 13 14  1  0  0  0  0
 13 32  1  0  0  0  0
 13 33  1  0  0  0  0
 14 15  1  0  0  0  0
 14 34  1  0  0  0  0
 14 35  1  0  0  0  0
 15 16  1  0  0  0  0
 15 36  1  0  0  0  0
 15 37  1  0  0  0  0
M  CHG  1   9   1
M  END
> <s_m_source_file>
AV-unprocessed.smi

> <i_m_source_file_index>
3165

> <i_lp_mmshare_version>
43012

> <i_f3d_flags>
0

> <s_epik_input>
bjFbY0hdW2NIXVtjSF1uMVtDSDJdW0NAQEhdKFtDSDNdKVtOSF1bQ0gyXVtDQEBIXTJbQ0gyXVtDSDJdW0NIMl1bQ0gyXU8y

> <s_epik_cmdline>
J2VwaWtfcHl0aG9uJywgJy1waCcsICc3LjAnLCAnLXRuJywgJzgnLCAnLW1hJywgJzIwMCcsICctbWV0YWxfYmluZGluZycsICctaW1hZScsICc8aW5maWxlLm1hZT4nLCAnLW9tYWUnLCAnPG91dGZpbGUubWFlPic=

> <r_lp_tautomer_probability>
1

> <r_epik_Ionization_Penalty>
0.00849196

> <r_epik_Ionization_Penalty_Charging>
0.00848754

> <r_epik_Ionization_Penalty_Neutral>
4.42049e-06

> <r_epik_State_Penalty>
0.00639836

> <r_epik_Charging_Adjusted_Penalty>
0.0148859

> <i_epik_Tot_Q>
1

> <i_epik_Tot_abs_Q>
1

> <r_epik_Metal_State_Penalty>
0.00639878

> <b_epik_Metal_Only>
0

> <s_lp_Force_Field>
OPLS_2005

> <r_lp_Energy>
12.7684

> <b_lp_Chiralities_Consistent>
1

> <s_lp_Variant>
AV-unprocessed.smi:3165-2

> <Gold.Version>
5.8.1

> <Gold.Id.Protein>
6NUR|6NUR_protein|mol2

> <Gold.PLP.Fitness>
48.4384

> <Gold.PLP.PLP>
-38.9602

> <Gold.PLP.part.hbond>
-3.0000

> <Gold.PLP.part.metal>
0.0000

> <Gold.PLP.part.buried>
-4.8214

> <Gold.PLP.part.nonpolar>
-32.4771

> <Gold.PLP.part.repulsive>
0.2156

> <Gold.PLP.ligand.clash>
0.0000

> <Gold.PLP.ligand.torsion>
0.7743

> <Gold.PLP.Chemscore.Hbond>
2.6500

> <Gold.PLP.Chemscore.CHOScore>
0.9994

> <Gold.PLP.Chemscore.Metal>
0.0000

> <Gold.Chemscore.Hbonds>
donor molecule, donor type, donor heavy atom, donor atom, acceptor molecule, acceptor atom, score
      L1  H     9    38       P1  8028  2.00
      P1  H  7989  7998       L1     8  0.60
      L1  C     5    23       P1  7948  1.00

> <Gold.PLP.Chemscore.Internal.Correction>
0.0785

> <Gold.Rescore>
     Score         DG    S(hbond)    S(metal)    S(lipo)     H(rot)  DE(clash)    DE(int)     intcor
     17.55     -18.44       1.67        0.00      99.12       1.64       0.00       0.89       ----

> <Gold.Chemscore.Fitness>
17.5496

> <Gold.Chemscore.DG>
-18.4425

> <Gold.Chemscore.ZeroCoef>
-5.4800

> <Gold.Chemscore.Hbond>
1.6693

> <Gold.Chemscore.Metal>
0.0000

> <Gold.Chemscore.Lipo>
99.1186

> <Gold.Chemscore.Internal_Hbond>
0.0000

> <Gold.Chemscore.DEClash>
0.0019

> <Gold.Chemscore.DEInternal>
0.8910

> <Gold.Chemscore.Rot>
1.6444

> <Gold.Chemscore.Internal.Correction>
   9.000000E+99

> <Gold.Chemscore.Hbonds>
donor molecule, donor type, donor heavy atom, donor atom, acceptor molecule, acceptor atom, score
      L1  H     9    38       P1  8028  1.00
      P1  H  7989  7998       L1     8  0.01

> <Gold.Chemscore.Hbond.Weighted>
-5.5753

> <Gold.Chemscore.Metal.Weighted>
-0.0000

> <Gold.Chemscore.Lipo.Weighted>
-11.5969

> <Gold.Chemscore.Internal_Hbond.Weighted>
0.0000

> <Gold.Chemscore.DEClash.Weighted>
0.0019

> <Gold.Chemscore.DEInternal.Weighted>
0.8910

> <Gold.Chemscore.Rot.Weighted>
4.2097

> <Gold.Chemscore.Internal.Correction.Weighted>
   9.000000E+99

> <Gold.Protein.RotatedTorsions>
[ 6907 6896 6895 6894 ] final  -39.81 input  -60.11 | X-H torsion
[ 7974 7965 7964 7962 ] final -142.67 input  175.53 | X-H torsion
[ 8008 7997 7996 7995 ] final -136.16 input   59.86 | X-H torsion
[ 10167 10162 10161 10158 ] final   46.22 input  -65.29 | X-H torsion
[ 10718 10713 10712 10709 ] final -147.47 input   66.30 | X-H torsion
[ 10763 10752 10751 10750 ] final   74.23 input  -60.55 | X-H torsion
[ 11005 11000 10999 10996 ] final -102.14 input  -57.11 | X-H torsion

> <Gold.Protein.ActiveResidues>
 VAL166  LYS551  ARG553  GLY616  TRP617  ASP618  TYR619  PRO620  LYS621  CYS622 
 ASP623  PHE694  ASN695  SER759  ASP760  ASP761  ALA762  ILE779  LEU786  VAL792 
 PHE793  MET794  SER795  GLU796  ALA797  LYS798  CYS799  TRP800  GLU811  SER814 

> <Gold.Protein.RotatedAtoms>
  150.9859  134.9205  159.7871 H   0  0  0  0  0  0  0  0  0  0  0  0  # atno 6907 bound_to 6896
  152.5236  134.3347  159.9205 H   0  0  0  0  0  0  0  0  0  0  0  0  # atno 6908 bound_to 6896
  151.3353  133.3943  159.2701 H   0  0  0  0  0  0  0  0  0  0  0  0  # atno 6909 bound_to 6896
  144.8426  140.5929  143.5442 H   0  0  0  0  0  0  0  0  0  0  0  0  # atno 7974 bound_to 7965
  155.3906  140.0499  157.3041 H   0  0  0  0  0  0  0  0  0  0  0  0  # atno 8008 bound_to 7997
  154.5038  140.2166  155.9254 H   0  0  0  0  0  0  0  0  0  0  0  0  # atno 8009 bound_to 7997
  156.1500  140.3138  155.8638 H   0  0  0  0  0  0  0  0  0  0  0  0  # atno 8010 bound_to 7997
  140.3161  144.2762  150.6191 H   0  0  0  0  0  0  0  0  0  0  0  0  # atno 10167 bound_to 10162
  156.4080  130.7967  151.2183 H   0  0  0  0  0  0  0  0  0  0  0  0  # atno 10718 bound_to 10713
  153.0573  135.5033  154.8011 H   0  0  0  0  0  0  0  0  0  0  0  0  # atno 10763 bound_to 10752
  154.6827  135.2971  154.9593 H   0  0  0  0  0  0  0  0  0  0  0  0  # atno 10764 bound_to 10752
  154.0374  135.6721  153.4839 H   0  0  0  0  0  0  0  0  0  0  0  0  # atno 10765 bound_to 10752
  141.1201  133.8535  157.1322 H   0  0  0  0  0  0  0  0  0  0  0  0  # atno 11005 bound_to 11000
  145.4662  139.1508  143.3839 LP  0  0  0  0  0  0  0  0  0  0  0  0  # atno 17320 bound_to 7965
  146.2716  140.4794  142.8812 LP  0  0  0  0  0  0  0  0  0  0  0  0  # atno 17321 bound_to 7965
  140.5525  143.2204  151.7903 LP  0  0  0  0  0  0  0  0  0  0  0  0  # atno 17342 bound_to 10162
  139.4883  144.4457  151.9712 LP  0  0  0  0  0  0  0  0  0  0  0  0  # atno 17343 bound_to 10162
  157.7506  131.0266  150.3970 LP  0  0  0  0  0  0  0  0  0  0  0  0  # atno 17370 bound_to 10713
  156.4263  130.3963  149.6790 LP  0  0  0  0  0  0  0  0  0  0  0  0  # atno 17371 bound_to 10713
  140.0152  134.9970  157.0479 LP  0  0  0  0  0  0  0  0  0  0  0  0  # atno 17394 bound_to 11000
  140.4531  134.1561  155.7183 LP  0  0  0  0  0  0  0  0  0  0  0  0  # atno 17395 bound_to 11000

$$$$
