AV-unprocessed.smi:37|AV-procd|sdf|331|dock1
  -GOLD-   2262016163D 1   1.00000     0.00000
 Structure written by MMmdl.
 43 44  0  0  0  0  0  0  0  0  2 V2000
  143.3374  139.5427  157.2725 C   0  0  0  0  0  0  0  0  0  0  0  0
  144.3434  140.2309  158.2047 C   0  0  0  0  0  0  0  0  0  0  0  0
  145.3013  139.2343  158.8534 C   0  0  0  0  0  0  0  0  0  0  0  0
  146.1827  139.6044  159.6296 O   0  0  0  0  0  0  0  0  0  0  0  0
  145.0591  137.9668  158.4824 O   0  0  0  0  0  0  0  0  0  0  0  0
  145.8716  136.9215  158.9902 C   0  0  0  0  0  0  0  0  0  0  0  0
  147.3314  137.1580  158.5670 C   0  0  2  0  0  0  0  0  0  0  0  0
  147.3750  137.1029  157.1363 O   0  0  0  0  0  0  0  0  0  0  0  0
  148.3383  136.1933  156.6907 C   0  0  1  0  0  0  0  0  0  0  0  0
  149.6437  136.9121  156.3902 N   0  0  0  0  0  0  0  0  0  0  0  0
  149.7238  138.2954  156.3363 C   0  0  0  0  0  0  0  0  0  0  0  0
  150.8871  138.9207  156.0630 C   0  0  0  0  0  0  0  0  0  0  0  0
  150.9308  140.2636  156.0204 F   0  0  0  0  0  0  0  0  0  0  0  0
  152.0908  138.1324  155.8096 C   0  0  0  0  0  0  0  0  0  0  0  0
  153.1517  138.7087  155.5750 O   0  0  0  0  0  0  0  0  0  0  0  0
  151.9798  136.7732  155.8426 N   0  5  0  0  0  0  0  0  0  0  0  0
  150.8036  136.1356  156.1137 C   0  0  0  0  0  0  0  0  0  0  0  0
  150.6940  134.9093  156.1317 O   0  0  0  0  0  0  0  0  0  0  0  0
  148.5184  135.1926  157.8326 C   0  0  2  0  0  0  0  0  0  0  0  0
  147.0867  133.8069  157.7171 Br  0  0  0  0  0  0  0  0  0  0  0  0
  148.3274  136.0868  159.0494 C   0  0  2  0  0  0  0  0  0  0  0  0
  147.8958  135.3742  160.2029 O   0  0  0  0  0  0  0  0  0  0  0  0
  147.6321  136.0275  161.3489 C   0  0  0  0  0  0  0  0  0  0  0  0
  147.6972  137.2449  161.5192 O   0  0  0  0  0  0  0  0  0  0  0  0
  147.2242  135.0863  162.4796 C   0  0  0  0  0  0  0  0  0  0  0  0
  147.1703  133.6222  162.0214 C   0  0  0  0  0  0  0  0  0  0  0  0
  142.6805  140.2780  156.8077 H   0  0  0  0  0  0  0  0  0  0  0  0
  142.7086  138.8351  157.8142 H   0  0  0  0  0  0  0  0  0  0  0  0
  143.8446  139.0008  156.4734 H   0  0  0  0  0  0  0  0  0  0  0  0
  144.9236  140.9665  157.6468 H   0  0  0  0  0  0  0  0  0  0  0  0
  143.8150  140.7735  158.9889 H   0  0  0  0  0  0  0  0  0  0  0  0
  145.7871  136.9241  160.0774 H   0  0  0  0  0  0  0  0  0  0  0  0
  145.5177  135.9537  158.6336 H   0  0  0  0  0  0  0  0  0  0  0  0
  147.6568  138.1363  158.9221 H   0  0  0  0  0  0  0  0  0  0  0  0
  148.0381  135.7463  155.7415 H   0  0  0  0  0  0  0  0  0  0  0  0
  148.8507  138.9044  156.5083 H   0  0  0  0  0  0  0  0  0  0  0  0
  149.4831  134.6859  157.8090 H   0  0  0  0  0  0  0  0  0  0  0  0
  149.2710  136.5946  159.2563 H   0  0  0  0  0  0  0  0  0  0  0  0
  147.9360  135.1913  163.2990 H   0  0  0  0  0  0  0  0  0  0  0  0
  146.2514  135.3951  162.8629 H   0  0  0  0  0  0  0  0  0  0  0  0
  146.9255  132.9674  162.8576 H   0  0  0  0  0  0  0  0  0  0  0  0
  148.1296  133.2977  161.6160 H   0  0  0  0  0  0  0  0  0  0  0  0
  146.4121  133.4709  161.2520 H   0  0  0  0  0  0  0  0  0  0  0  0
  1  2  1  0  0  0  0
  1 27  1  0  0  0  0
  1 28  1  0  0  0  0
  1 29  1  0  0  0  0
  2  3  1  0  0  0  0
  2 30  1  0  0  0  0
  2 31  1  0  0  0  0
  3  4  2  0  0  0  0
  3  5  1  0  0  0  0
  5  6  1  0  0  0  0
  6  7  1  0  0  0  0
  6 32  1  0  0  0  0
  6 33  1  0  0  0  0
  7 21  1  0  0  0  0
  7  8  1  0  0  0  0
  7 34  1  0  0  0  0
  8  9  1  0  0  0  0
  9 10  1  0  0  0  0
  9 19  1  0  0  0  0
  9 35  1  0  0  0  0
 10 17  1  0  0  0  0
 10 11  1  0  0  0  0
 11 12  2  0  0  0  0
 11 36  1  0  0  0  0
 12 13  1  0  0  0  0
 12 14  1  0  0  0  0
 14 15  2  0  0  0  0
 14 16  1  0  0  0  0
 16 17  1  0  0  0  0
 17 18  2  0  0  0  0
 19 20  1  0  0  0  0
 19 21  1  0  0  0  0
 19 37  1  0  0  0  0
 21 22  1  0  0  0  0
 21 38  1  0  0  0  0
 22 23  1  0  0  0  0
 23 24  2  0  0  0  0
 23 25  1  0  0  0  0
 25 26  1  0  0  0  0
 25 39  1  0  0  0  0
 25 40  1  0  0  0  0
 26 41  1  0  0  0  0
 26 42  1  0  0  0  0
 26 43  1  0  0  0  0
M  CHG  1  16  -1
M  END
> <s_m_source_file>
AV-unprocessed.smi

> <i_m_source_file_index>
37

> <i_lp_mmshare_version>
43012

> <i_f3d_flags>
0

> <s_epik_input>
W0NIM11bQ0gyXUMoPU8pT1tDSDJdW0NAQEhdMU9bQ0BASF0objJbY0hdYyhGKWMoPU8pW25IXWMyPU8pW0NAQEhdKEJyKVtDQEhdMU9DKD1PKVtDSDJdW0NIM10=

> <s_epik_cmdline>
J2VwaWtfcHl0aG9uJywgJy1waCcsICc3LjAnLCAnLXRuJywgJzgnLCAnLW1hJywgJzIwMCcsICctbWV0YWxfYmluZGluZycsICctaW1hZScsICc8aW5maWxlLm1hZT4nLCAnLW9tYWUnLCAnPG91dGZpbGUubWFlPic=

> <r_epik_Ionization_Penalty>
1.08158

> <r_epik_Ionization_Penalty_Charging>
9.05154e-09

> <r_epik_Ionization_Penalty_Neutral>
1.08158

> <r_epik_State_Penalty>
1.13706

> <r_epik_Charging_Adjusted_Penalty>
1.13706

> <i_epik_Tot_Q>
-1

> <i_epik_Tot_abs_Q>
1

> <r_epik_Metal_State_Penalty>
0.00343535

> <b_epik_Metal_Only>
0

> <s_epik_Chemistry_Notes>
This compound has an ester and may undergo hydrolysis at high or low pH. This compound contains an acetal/aminal-like group ( X-CH(R)-Y where X, Y are N, S, or O) that may be acid/base labile, releasing an aldehyde.

> <s_lp_Force_Field>
OPLS_2005

> <r_lp_Energy>
34.8108

> <b_lp_Chiralities_Consistent>
1

> <s_lp_Variant>
AV-unprocessed.smi:37-29

> <Gold.Version>
5.8.1

> <Gold.Id.Protein>
6NUR|6NUR_protein|mol2

> <Gold.PLP.Fitness>
41.2052

> <Gold.PLP.PLP>
-26.9101

> <Gold.PLP.part.hbond>
-5.0000

> <Gold.PLP.part.metal>
0.0000

> <Gold.PLP.part.buried>
-5.4249

> <Gold.PLP.part.nonpolar>
-17.3490

> <Gold.PLP.part.repulsive>
0.0166

> <Gold.PLP.ligand.clash>
0.0000

> <Gold.PLP.ligand.torsion>
0.1564

> <Gold.PLP.Chemscore.Hbond>
4.8400

> <Gold.PLP.Chemscore.CHOScore>
0.0000

> <Gold.PLP.Chemscore.Metal>
0.0000

> <Gold.Chemscore.Hbonds>
donor molecule, donor type, donor heavy atom, donor atom, acceptor molecule, acceptor atom, score
      P1  H  6931  6943       L1    24  0.98
      P1  H  6934  6947       L1    24  0.75
      P1  H  7997  8009       L1    15  1.00
      P1  H 10752 10763       L1    16  1.92

> <Gold.PLP.Chemscore.Internal.Correction>
0.0879

> <Gold.Rescore>
     Score         DG    S(hbond)    S(metal)    S(lipo)     H(rot)  DE(clash)    DE(int)     intcor
      9.09     -11.80       3.28        0.00      31.86       3.27       0.00       2.71       ----

> <Gold.Chemscore.Fitness>
9.0869

> <Gold.Chemscore.DG>
-11.7991

> <Gold.Chemscore.ZeroCoef>
-5.4800

> <Gold.Chemscore.Hbond>
3.2798

> <Gold.Chemscore.Metal>
0.0000

> <Gold.Chemscore.Lipo>
31.8620

> <Gold.Chemscore.Internal_Hbond>
0.0000

> <Gold.Chemscore.DEClash>
0.0048

> <Gold.Chemscore.DEInternal>
2.7074

> <Gold.Chemscore.Rot>
3.2669

> <Gold.Chemscore.Internal.Correction>
   9.000000E+99

> <Gold.Chemscore.Hbonds>
donor molecule, donor type, donor heavy atom, donor atom, acceptor molecule, acceptor atom, score
      P1  H  6931  6943       L1    24  0.93
      P1  H  6934  6947       L1    24  0.75
      P1  H  7997  8009       L1    15  0.93
      P1  H 10752 10763       L1    16  0.60

> <Gold.Chemscore.Hbond.Weighted>
-10.9546

> <Gold.Chemscore.Metal.Weighted>
-0.0000

> <Gold.Chemscore.Lipo.Weighted>
-3.7279

> <Gold.Chemscore.Internal_Hbond.Weighted>
0.0000

> <Gold.Chemscore.DEClash.Weighted>
0.0048

> <Gold.Chemscore.DEInternal.Weighted>
2.7074

> <Gold.Chemscore.Rot.Weighted>
8.3634

> <Gold.Chemscore.Internal.Correction.Weighted>
   9.000000E+99

> <Gold.Protein.RotatedTorsions>
[ 6907 6896 6895 6894 ] final  131.73 input  -60.11 | X-H torsion
[ 7974 7965 7964 7962 ] final    0.55 input  175.53 | X-H torsion
[ 8008 7997 7996 7995 ] final -140.44 input   59.86 | X-H torsion
[ 10167 10162 10161 10158 ] final   36.56 input  -65.29 | X-H torsion
[ 10718 10713 10712 10709 ] final -136.05 input   66.30 | X-H torsion
[ 10763 10752 10751 10750 ] final   96.36 input  -60.55 | X-H torsion
[ 11005 11000 10999 10996 ] final  113.55 input  -57.11 | X-H torsion

> <Gold.Protein.ActiveResidues>
 VAL166  LYS551  ARG553  GLY616  TRP617  ASP618  TYR619  PRO620  LYS621  CYS622 
 ASP623  PHE694  ASN695  SER759  ASP760  ASP761  ALA762  ILE779  LEU786  VAL792 
 PHE793  MET794  SER795  GLU796  ALA797  LYS798  CYS799  TRP800  GLU811  SER814 

> <Gold.Protein.RotatedAtoms>
  152.3397  133.6052  159.5867 H   0  0  0  0  0  0  0  0  0  0  0  0  # atno 6907 bound_to 6896
  150.7471  133.9742  159.3564 H   0  0  0  0  0  0  0  0  0  0  0  0  # atno 6908 bound_to 6896
  151.7607  135.0811  160.0396 H   0  0  0  0  0  0  0  0  0  0  0  0  # atno 6909 bound_to 6896
  146.2435  140.1121  142.8343 H   0  0  0  0  0  0  0  0  0  0  0  0  # atno 7974 bound_to 7965
  155.4613  140.0546  157.2990 H   0  0  0  0  0  0  0  0  0  0  0  0  # atno 8008 bound_to 7997
  154.4736  140.2051  155.9888 H   0  0  0  0  0  0  0  0  0  0  0  0  # atno 8009 bound_to 7997
  156.1096  140.3206  155.8058 H   0  0  0  0  0  0  0  0  0  0  0  0  # atno 8010 bound_to 7997
  140.4116  144.1584  150.6140 H   0  0  0  0  0  0  0  0  0  0  0  0  # atno 10167 bound_to 10162
  156.2728  130.7275  151.1248 H   0  0  0  0  0  0  0  0  0  0  0  0  # atno 10718 bound_to 10713
  153.2641  135.4221  155.0923 H   0  0  0  0  0  0  0  0  0  0  0  0  # atno 10763 bound_to 10752
  154.8431  135.3456  154.6336 H   0  0  0  0  0  0  0  0  0  0  0  0  # atno 10764 bound_to 10752
  153.6756  135.7041  153.5191 H   0  0  0  0  0  0  0  0  0  0  0  0  # atno 10765 bound_to 10752
  139.8956  134.9552  156.6756 H   0  0  0  0  0  0  0  0  0  0  0  0  # atno 11005 bound_to 11000
  145.0478  140.8995  143.5013 LP  0  0  0  0  0  0  0  0  0  0  0  0  # atno 17320 bound_to 7965
  145.1213  139.2692  143.5587 LP  0  0  0  0  0  0  0  0  0  0  0  0  # atno 17321 bound_to 7965
  140.4631  143.2441  151.9192 LP  0  0  0  0  0  0  0  0  0  0  0  0  # atno 17342 bound_to 10162
  139.4782  144.5447  151.8476 LP  0  0  0  0  0  0  0  0  0  0  0  0  # atno 17343 bound_to 10162
  157.7289  131.0628  150.5797 LP  0  0  0  0  0  0  0  0  0  0  0  0  # atno 17370 bound_to 10713
  156.5895  130.4325  149.5943 LP  0  0  0  0  0  0  0  0  0  0  0  0  # atno 17371 bound_to 10713
  140.7339  133.9035  155.8230 LP  0  0  0  0  0  0  0  0  0  0  0  0  # atno 17394 bound_to 11000
  141.0131  134.0992  157.4200 LP  0  0  0  0  0  0  0  0  0  0  0  0  # atno 17395 bound_to 11000

$$$$
