AV-unprocessed.smi:1992|AV-procd|sdf|8069|dock3
  -GOLD-   2272010273D 1   1.00000     0.00000
 Structure written by MMmdl.
 46 47  0  0  0  0  0  0  0  0  2 V2000
  152.3638  140.5833  158.9893 C   0  0  0  0  0  0  0  0  0  0  0  0
  152.7787  140.1549  157.6968 O   0  0  0  0  0  0  0  0  0  0  0  0
  151.9048  139.3945  156.9472 C   0  0  0  0  0  0  0  0  0  0  0  0
  152.3041  138.9795  155.6613 C   0  0  0  0  0  0  0  0  0  0  0  0
  151.4151  138.2055  154.8925 C   0  0  0  0  0  0  0  0  0  0  0  0
  150.1602  137.8589  155.4320 C   0  0  0  0  0  0  0  0  0  0  0  0
  149.2759  137.0932  154.6256 N   0  0  0  0  0  0  0  0  0  0  0  0
  148.0427  136.6519  154.9265 C   0  0  0  0  0  0  0  0  0  0  0  0
  147.4672  136.8225  156.0004 O   0  0  0  0  0  0  0  0  0  0  0  0
  147.5128  135.9663  153.9040 N   0  0  0  0  0  0  0  0  0  0  0  0
  146.1901  135.3416  153.8939 C   0  0  0  0  0  0  0  0  0  0  0  0
  145.8079  134.7179  152.5138 C   0  0  0  0  0  0  0  0  0  0  0  0
  146.9915  133.9669  151.9591 N   0  3  0  0  0  0  0  0  0  0  0  0
  146.7273  133.2808  150.6684 C   0  0  0  0  0  0  0  0  0  0  0  0
  147.7064  133.0636  152.8960 C   0  0  0  0  0  0  0  0  0  0  0  0
  144.5263  133.8571  152.6635 C   0  0  0  0  0  0  0  0  0  0  0  0
  143.3651  134.8540  152.7389 C   0  0  0  0  0  0  0  0  0  0  0  0
  143.8404  136.0985  151.9764 C   0  0  0  0  0  0  0  0  0  0  0  0
  145.2942  135.8220  151.5650 C   0  0  0  0  0  0  0  0  0  0  0  0
  149.8473  138.3334  156.7295 C   0  0  0  0  0  0  0  0  0  0  0  0
  150.6946  139.0787  157.4706 N   0  0  0  0  0  0  0  0  0  0  0  0
  153.1590  141.1716  159.4470 H   0  0  0  0  0  0  0  0  0  0  0  0
  152.1612  139.7348  159.6447 H   0  0  0  0  0  0  0  0  0  0  0  0
  151.4753  141.2142  158.9346 H   0  0  0  0  0  0  0  0  0  0  0  0
  153.2735  139.2524  155.2712 H   0  0  0  0  0  0  0  0  0  0  0  0
  151.6984  137.8802  153.9021 H   0  0  0  0  0  0  0  0  0  0  0  0
  149.6482  136.8042  153.7331 H   0  0  0  0  0  0  0  0  0  0  0  0
  148.0567  135.8918  153.0568 H   0  0  0  0  0  0  0  0  0  0  0  0
  146.1106  134.6122  154.7009 H   0  0  0  0  0  0  0  0  0  0  0  0
  145.4767  136.1186  154.1664 H   0  0  0  0  0  0  0  0  0  0  0  0
  146.0435  132.4412  150.7961 H   0  0  0  0  0  0  0  0  0  0  0  0
  147.6548  132.8904  150.2483 H   0  0  0  0  0  0  0  0  0  0  0  0
  146.3076  133.9543  149.9230 H   0  0  0  0  0  0  0  0  0  0  0  0
  147.0342  132.3299  153.3414 H   0  0  0  0  0  0  0  0  0  0  0  0
  148.1984  133.6247  153.6901 H   0  0  0  0  0  0  0  0  0  0  0  0
  148.4966  132.5179  152.3794 H   0  0  0  0  0  0  0  0  0  0  0  0
  144.3334  133.2518  151.7795 H   0  0  0  0  0  0  0  0  0  0  0  0
  144.5507  133.1742  153.5115 H   0  0  0  0  0  0  0  0  0  0  0  0
  142.4499  134.4392  152.3152 H   0  0  0  0  0  0  0  0  0  0  0  0
  143.1521  135.1096  153.7777 H   0  0  0  0  0  0  0  0  0  0  0  0
  143.2175  136.3019  151.1046 H   0  0  0  0  0  0  0  0  0  0  0  0
  143.7860  136.9738  152.6247 H   0  0  0  0  0  0  0  0  0  0  0  0
  145.9025  136.7268  151.5911 H   0  0  0  0  0  0  0  0  0  0  0  0
  145.2982  135.4670  150.5338 H   0  0  0  0  0  0  0  0  0  0  0  0
  148.8932  138.1411  157.1945 H   0  0  0  0  0  0  0  0  0  0  0  0
  147.6679  134.6852  151.7438 H   0  0  0  0  0  0  0  0  0  0  0  0
  1  2  1  0  0  0  0
  1 22  1  0  0  0  0
  1 23  1  0  0  0  0
  1 24  1  0  0  0  0
  2  3  1  0  0  0  0
  3 21  1  0  0  0  0
  3  4  2  0  0  0  0
  4  5  1  0  0  0  0
  4 25  1  0  0  0  0
  5  6  2  0  0  0  0
  5 26  1  0  0  0  0
  6  7  1  0  0  0  0
  6 20  1  0  0  0  0
  7  8  1  0  0  0  0
  7 27  1  0  0  0  0
  8  9  2  0  0  0  0
  8 10  1  0  0  0  0
 10 11  1  0  0  0  0
 10 28  1  0  0  0  0
 11 12  1  0  0  0  0
 11 29  1  0  0  0  0
 11 30  1  0  0  0  0
 12 19  1  0  0  0  0
 12 13  1  0  0  0  0
 12 16  1  0  0  0  0
 13 14  1  0  0  0  0
 13 15  1  0  0  0  0
 13 46  1  0  0  0  0
 14 31  1  0  0  0  0
 14 32  1  0  0  0  0
 14 33  1  0  0  0  0
 15 34  1  0  0  0  0
 15 35  1  0  0  0  0
 15 36  1  0  0  0  0
 16 17  1  0  0  0  0
 16 37  1  0  0  0  0
 16 38  1  0  0  0  0
 17 18  1  0  0  0  0
 17 39  1  0  0  0  0
 17 40  1  0  0  0  0
 18 19  1  0  0  0  0
 18 41  1  0  0  0  0
 18 42  1  0  0  0  0
 19 43  1  0  0  0  0
 19 44  1  0  0  0  0
 20 21  2  0  0  0  0
 20 45  1  0  0  0  0
M  CHG  1  13   1
M  END
> <s_m_source_file>
AV-unprocessed.smi

> <i_m_source_file_index>
1992

> <i_lp_mmshare_version>
43012

> <i_f3d_flags>
0

> <s_epik_input>
W0NIM11PYzFbY0hdW2NIXWMoW2NIXW4xKVtOSF1DKD1PKVtOSF1bQ0gyXUMyKE4oW0NIM10pW0NIM10pW0NIMl1bQ0gyXVtDSDJdW0NIMl0y

> <s_epik_cmdline>
J2VwaWtfcHl0aG9uJywgJy1waCcsICc3LjAnLCAnLXRuJywgJzgnLCAnLW1hJywgJzIwMCcsICctbWV0YWxfYmluZGluZycsICctaW1hZScsICc8aW5maWxlLm1hZT4nLCAnLW9tYWUnLCAnPG91dGZpbGUubWFlPic=

> <r_lp_tautomer_probability>
1

> <r_epik_Ionization_Penalty>
0.00219675

> <r_epik_Ionization_Penalty_Charging>
0.00211816

> <r_epik_Ionization_Penalty_Neutral>
7.85887e-05

> <r_epik_State_Penalty>
0.00145254

> <r_epik_Charging_Adjusted_Penalty>
0.0035707

> <i_epik_Tot_Q>
1

> <i_epik_Tot_abs_Q>
1

> <r_epik_Metal_State_Penalty>
-0

> <b_epik_Metal_Only>
0

> <s_lp_Force_Field>
OPLS_2005

> <r_lp_Energy>
46.5796

> <b_lp_Chiralities_Consistent>
1

> <s_lp_Variant>
AV-unprocessed.smi:1992-1

> <Gold.Version>
5.8.1

> <Gold.Id.Protein>
6NUR|6NUR_protein|mol2

> <Gold.PLP.Fitness>
42.6570

> <Gold.PLP.PLP>
-28.8003

> <Gold.PLP.part.hbond>
-3.9250

> <Gold.PLP.part.metal>
0.0000

> <Gold.PLP.part.buried>
-4.0605

> <Gold.PLP.part.nonpolar>
-21.1726

> <Gold.PLP.part.repulsive>
0.0651

> <Gold.PLP.ligand.clash>
0.0000

> <Gold.PLP.ligand.torsion>
0.3647

> <Gold.PLP.Chemscore.Hbond>
4.8072

> <Gold.PLP.Chemscore.CHOScore>
0.0000

> <Gold.PLP.Chemscore.Metal>
0.0000

> <Gold.Chemscore.Hbonds>
donor molecule, donor type, donor heavy atom, donor atom, acceptor molecule, acceptor atom, score
      L1  H     7    27       P1  7948  0.77
      L1  H    10    28       P1  7948  0.99
      L1  H    13    46       P1  7948  2.00
      P1  H  7997  8008       L1     2  1.00

> <Gold.PLP.Chemscore.Internal.Correction>
0.1643

> <Gold.Rescore>
     Score         DG    S(hbond)    S(metal)    S(lipo)     H(rot)  DE(clash)    DE(int)     intcor
     18.83     -20.52       3.66        0.00      61.65       1.71       0.09       1.60       ----

> <Gold.Chemscore.Fitness>
18.8257

> <Gold.Chemscore.DG>
-20.5181

> <Gold.Chemscore.ZeroCoef>
-5.4800

> <Gold.Chemscore.Hbond>
3.6553

> <Gold.Chemscore.Metal>
0.0000

> <Gold.Chemscore.Lipo>
61.6466

> <Gold.Chemscore.Internal_Hbond>
0.0000

> <Gold.Chemscore.DEClash>
0.0922

> <Gold.Chemscore.DEInternal>
1.6002

> <Gold.Chemscore.Rot>
1.7122

> <Gold.Chemscore.Internal.Correction>
   9.000000E+99

> <Gold.Chemscore.Hbonds>
donor molecule, donor type, donor heavy atom, donor atom, acceptor molecule, acceptor atom, score
      L1  H     7    27       P1  7948  0.54
      L1  H    10    28       P1  7948  0.92
      L1  H    13    46       P1  7948  0.34
      P1  H  7997  8008       L1     2  0.53

> <Gold.Chemscore.Hbond.Weighted>
-12.2086

> <Gold.Chemscore.Metal.Weighted>
-0.0000

> <Gold.Chemscore.Lipo.Weighted>
-7.2126

> <Gold.Chemscore.Internal_Hbond.Weighted>
0.0000

> <Gold.Chemscore.DEClash.Weighted>
0.0922

> <Gold.Chemscore.DEInternal.Weighted>
1.6002

> <Gold.Chemscore.Rot.Weighted>
4.3831

> <Gold.Chemscore.Internal.Correction.Weighted>
   9.000000E+99

> <Gold.Protein.RotatedTorsions>
[ 6907 6896 6895 6894 ] final -171.95 input  -60.11 | X-H torsion
[ 7974 7965 7964 7962 ] final  122.90 input  175.53 | X-H torsion
[ 8008 7997 7996 7995 ] final  -69.59 input   59.86 | X-H torsion
[ 10167 10162 10161 10158 ] final   68.41 input  -65.29 | X-H torsion
[ 10718 10713 10712 10709 ] final  -75.31 input   66.30 | X-H torsion
[ 10763 10752 10751 10750 ] final -109.99 input  -60.55 | X-H torsion
[ 11005 11000 10999 10996 ] final   26.55 input  -57.11 | X-H torsion

> <Gold.Protein.ActiveResidues>
 VAL166  LYS551  ARG553  GLY616  TRP617  ASP618  TYR619  PRO620  LYS621  CYS622 
 ASP623  PHE694  ASN695  SER759  ASP760  ASP761  ALA762  ILE779  LEU786  VAL792 
 PHE793  MET794  SER795  GLU796  ALA797  LYS798  CYS799  TRP800  GLU811  SER814 

> <Gold.Protein.RotatedAtoms>
  151.5321  133.3447  159.2919 H   0  0  0  0  0  0  0  0  0  0  0  0  # atno 6907 bound_to 6896
  150.8587  134.7936  159.7077 H   0  0  0  0  0  0  0  0  0  0  0  0  # atno 6908 bound_to 6896
  152.4613  134.5186  159.9827 H   0  0  0  0  0  0  0  0  0  0  0  0  # atno 6909 bound_to 6896
  145.1022  139.3511  143.4806 H   0  0  0  0  0  0  0  0  0  0  0  0  # atno 7974 bound_to 7965
  154.4949  140.0850  156.7676 H   0  0  0  0  0  0  0  0  0  0  0  0  # atno 8008 bound_to 7997
  155.4140  140.3443  155.4247 H   0  0  0  0  0  0  0  0  0  0  0  0  # atno 8009 bound_to 7997
  156.1381  140.1521  156.8951 H   0  0  0  0  0  0  0  0  0  0  0  0  # atno 8010 bound_to 7997
  140.0790  144.5087  150.7175 H   0  0  0  0  0  0  0  0  0  0  0  0  # atno 10167 bound_to 10162
  156.0212  130.4438  150.3023 H   0  0  0  0  0  0  0  0  0  0  0  0  # atno 10718 bound_to 10713
  154.8223  135.4581  154.0816 H   0  0  0  0  0  0  0  0  0  0  0  0  # atno 10763 bound_to 10752
  153.2159  135.6888  153.8064 H   0  0  0  0  0  0  0  0  0  0  0  0  # atno 10764 bound_to 10752
  153.7498  135.3300  155.3296 H   0  0  0  0  0  0  0  0  0  0  0  0  # atno 10765 bound_to 10752
  140.3358  134.2387  155.7696 H   0  0  0  0  0  0  0  0  0  0  0  0  # atno 11005 bound_to 11000
  146.3529  140.0904  142.8613 LP  0  0  0  0  0  0  0  0  0  0  0  0  # atno 17320 bound_to 7965
  145.0942  140.9304  143.4751 LP  0  0  0  0  0  0  0  0  0  0  0  0  # atno 17321 bound_to 7965
  140.7087  143.2488  151.4647 LP  0  0  0  0  0  0  0  0  0  0  0  0  # atno 17342 bound_to 10162
  139.5791  144.1751  152.1943 LP  0  0  0  0  0  0  0  0  0  0  0  0  # atno 17343 bound_to 10162
  157.1126  131.0225  151.3042 LP  0  0  0  0  0  0  0  0  0  0  0  0  # atno 17370 bound_to 10713
  157.4692  130.7699  149.7308 LP  0  0  0  0  0  0  0  0  0  0  0  0  # atno 17371 bound_to 10713
  141.2051  133.7868  157.0248 LP  0  0  0  0  0  0  0  0  0  0  0  0  # atno 17394 bound_to 11000
  140.0822  134.9641  157.1643 LP  0  0  0  0  0  0  0  0  0  0  0  0  # atno 17395 bound_to 11000

$$$$
