AV-unprocessed.smi:1485|AV-procd|sdf|6004|dock2
  -GOLD-   22720 6103D 1   1.00000     0.00000
 Structure written by MMmdl.
 44 45  0  0  0  0  0  0  0  0  1 V2000
  148.0513  135.6191  161.0248 C   0  0  0  0  0  0  0  0  0  0  0  0
  148.3902  136.7617  160.2590 O   0  0  0  0  0  0  0  0  0  0  0  0
  149.2503  136.4527  159.1740 C   0  0  0  0  0  0  0  0  0  0  0  0
  148.6672  137.0341  157.8696 C   0  0  0  0  0  0  0  0  0  0  0  0
  148.7008  138.5066  157.8043 N   0  0  0  0  0  0  0  0  0  0  0  0
  149.9535  139.0654  158.0016 N   0  0  0  0  0  0  0  0  0  0  0  0
  150.1224  140.3450  157.9251 C   0  0  0  0  0  0  0  0  0  0  0  0
  151.4688  140.9622  158.0689 C   0  0  0  0  0  0  0  0  0  0  0  0
  152.5034  140.2964  158.0054 O   0  0  0  0  0  0  0  0  0  0  0  0
  151.4609  142.2874  158.2978 N   0  0  0  0  0  0  0  0  0  0  0  0
  152.6241  143.1183  158.5953 C   0  0  1  0  0  0  0  0  0  0  0  0
  152.1903  144.5805  158.8133 C   0  0  0  0  0  0  0  0  0  0  0  0
  151.3863  144.7595  160.1131 C   0  0  0  0  0  0  0  0  0  0  0  0
  152.1575  144.2195  161.3277 C   0  0  0  0  0  0  0  0  0  0  0  0
  152.5613  142.7457  161.1334 C   0  0  2  0  0  0  0  0  0  0  0  0
  153.3290  142.2088  162.3494 C   0  0  0  0  0  0  0  0  0  0  0  0
  153.3737  142.5766  159.8312 C   0  0  0  0  0  0  0  0  0  0  0  0
  148.9981  141.2288  157.6754 C   0  0  0  0  0  0  0  0  0  0  0  0
  147.7749  140.6771  157.5190 C   0  0  0  0  0  0  0  0  0  0  0  0
  147.5594  139.2300  157.5877 C   0  0  0  0  0  0  0  0  0  0  0  0
  146.4483  138.7151  157.4657 O   0  0  0  0  0  0  0  0  0  0  0  0
  147.3975  135.9095  161.8470 H   0  0  0  0  0  0  0  0  0  0  0  0
  148.9396  135.1504  161.4498 H   0  0  0  0  0  0  0  0  0  0  0  0
  147.5216  134.8825  160.4192 H   0  0  0  0  0  0  0  0  0  0  0  0
  150.2343  136.8868  159.3573 H   0  0  0  0  0  0  0  0  0  0  0  0
  149.3954  135.3739  159.0921 H   0  0  0  0  0  0  0  0  0  0  0  0
  149.2107  136.5836  157.0378 H   0  0  0  0  0  0  0  0  0  0  0  0
  147.6306  136.7132  157.7612 H   0  0  0  0  0  0  0  0  0  0  0  0
  150.5622  142.7473  158.3263 H   0  0  0  0  0  0  0  0  0  0  0  0
  153.2994  143.0953  157.7384 H   0  0  0  0  0  0  0  0  0  0  0  0
  153.0782  145.2129  158.8547 H   0  0  0  0  0  0  0  0  0  0  0  0
  151.6075  144.9325  157.9612 H   0  0  0  0  0  0  0  0  0  0  0  0
  151.1550  145.8147  160.2611 H   0  0  0  0  0  0  0  0  0  0  0  0
  150.4282  144.2448  160.0304 H   0  0  0  0  0  0  0  0  0  0  0  0
  153.0484  144.8274  161.4909 H   0  0  0  0  0  0  0  0  0  0  0  0
  151.5447  144.3241  162.2235 H   0  0  0  0  0  0  0  0  0  0  0  0
  151.6471  142.1570  161.0448 H   0  0  0  0  0  0  0  0  0  0  0  0
  154.2687  142.7430  162.4933 H   0  0  0  0  0  0  0  0  0  0  0  0
  153.5616  141.1504  162.2296 H   0  0  0  0  0  0  0  0  0  0  0  0
  152.7418  142.3150  163.2621 H   0  0  0  0  0  0  0  0  0  0  0  0
  153.6280  141.5265  159.6816 H   0  0  0  0  0  0  0  0  0  0  0  0
  154.3232  143.1047  159.9282 H   0  0  0  0  0  0  0  0  0  0  0  0
  149.1283  142.3000  157.6195 H   0  0  0  0  0  0  0  0  0  0  0  0
  146.9280  141.3219  157.3353 H   0  0  0  0  0  0  0  0  0  0  0  0
  1  2  1  0  0  0  0
  1 22  1  0  0  0  0
  1 23  1  0  0  0  0
  1 24  1  0  0  0  0
  2  3  1  0  0  0  0
  3  4  1  0  0  0  0
  3 25  1  0  0  0  0
  3 26  1  0  0  0  0
  4  5  1  0  0  0  0
  4 27  1  0  0  0  0
  4 28  1  0  0  0  0
  5 20  1  0  0  0  0
  5  6  1  0  0  0  0
  6  7  2  0  0  0  0
  7  8  1  0  0  0  0
  7 18  1  0  0  0  0
  8  9  2  0  0  0  0
  8 10  1  0  0  0  0
 10 11  1  0  0  0  0
 10 29  1  0  0  0  0
 11 17  1  0  0  0  0
 11 12  1  0  0  0  0
 11 30  1  0  0  0  0
 12 13  1  0  0  0  0
 12 31  1  0  0  0  0
 12 32  1  0  0  0  0
 13 14  1  0  0  0  0
 13 33  1  0  0  0  0
 13 34  1  0  0  0  0
 14 15  1  0  0  0  0
 14 35  1  0  0  0  0
 14 36  1  0  0  0  0
 15 16  1  0  0  0  0
 15 17  1  0  0  0  0
 15 37  1  0  0  0  0
 16 38  1  0  0  0  0
 16 39  1  0  0  0  0
 16 40  1  0  0  0  0
 17 41  1  0  0  0  0
 17 42  1  0  0  0  0
 18 19  2  0  0  0  0
 18 43  1  0  0  0  0
 19 20  1  0  0  0  0
 19 44  1  0  0  0  0
 20 21  2  0  0  0  0
M  END
> <s_m_source_file>
AV-unprocessed.smi

> <i_m_source_file_index>
1485

> <i_lp_mmshare_version>
43012

> <i_f3d_flags>
0

> <s_epik_input>
W0NIM11PW0NIMl1bQ0gyXW4xbmMoW2NIXVtjSF1jMT1PKUMoPU8pW05IXVtDQEBIXTJbQ0gyXVtDSDJdW0NIMl1bQ0BASF0oW0NIM10pW0NIMl0y

> <s_epik_cmdline>
J2VwaWtfcHl0aG9uJywgJy1waCcsICc3LjAnLCAnLXRuJywgJzgnLCAnLW1hJywgJzIwMCcsICctbWV0YWxfYmluZGluZycsICctaW1hZScsICc8aW5maWxlLm1hZT4nLCAnLW9tYWUnLCAnPG91dGZpbGUubWFlPic=

> <r_lp_tautomer_probability>
1

> <r_epik_Ionization_Penalty>
6.4688e-07

> <r_epik_Ionization_Penalty_Charging>
6.63567e-09

> <r_epik_Ionization_Penalty_Neutral>
6.40245e-07

> <r_epik_State_Penalty>
-0

> <r_epik_Charging_Adjusted_Penalty>
6.63567e-09

> <i_epik_Tot_Q>
0

> <i_epik_Tot_abs_Q>
0

> <r_epik_Metal_State_Penalty>
-0

> <b_epik_Metal_Only>
0

> <s_lp_Force_Field>
OPLS_2005

> <r_lp_Energy>
30.8996

> <b_lp_Chiralities_Consistent>
1

> <s_lp_Variant>
AV-unprocessed.smi:1485-4

> <Gold.Version>
5.8.1

> <Gold.Id.Protein>
6NUR|6NUR_protein|mol2

> <Gold.PLP.Fitness>
46.6993

> <Gold.PLP.PLP>
-42.8254

> <Gold.PLP.part.hbond>
-2.0000

> <Gold.PLP.part.metal>
0.0000

> <Gold.PLP.part.buried>
-6.0751

> <Gold.PLP.part.nonpolar>
-35.7446

> <Gold.PLP.part.repulsive>
0.0594

> <Gold.PLP.ligand.clash>
0.0000

> <Gold.PLP.ligand.torsion>
0.5141

> <Gold.PLP.Chemscore.Hbond>
1.6160

> <Gold.PLP.Chemscore.CHOScore>
0.0000

> <Gold.PLP.Chemscore.Metal>
0.0000

> <Gold.Chemscore.Hbonds>
donor molecule, donor type, donor heavy atom, donor atom, acceptor molecule, acceptor atom, score
      P1  H  6931  6943       L1     2  0.27
      P1  H  7997  8010       L1     9  0.34

> <Gold.PLP.Chemscore.Internal.Correction>
0.0541

> <Gold.Rescore>
     Score         DG    S(hbond)    S(metal)    S(lipo)     H(rot)  DE(clash)    DE(int)     intcor
     16.33     -17.82       1.23        0.00     104.14       1.55       0.05       1.44       ----

> <Gold.Chemscore.Fitness>
16.3321

> <Gold.Chemscore.DG>
-17.8222

> <Gold.Chemscore.ZeroCoef>
-5.4800

> <Gold.Chemscore.Hbond>
1.2336

> <Gold.Chemscore.Metal>
0.0000

> <Gold.Chemscore.Lipo>
104.1371

> <Gold.Chemscore.Internal_Hbond>
0.0000

> <Gold.Chemscore.DEClash>
0.0491

> <Gold.Chemscore.DEInternal>
1.4410

> <Gold.Chemscore.Rot>
1.5478

> <Gold.Chemscore.Internal.Correction>
   9.000000E+99

> <Gold.Chemscore.Hbonds>
donor molecule, donor type, donor heavy atom, donor atom, acceptor molecule, acceptor atom, score
      P1  H  6931  6943       L1     2  0.09
      P1  H  7997  8010       L1     9  0.34

> <Gold.Chemscore.Hbond.Weighted>
-4.1204

> <Gold.Chemscore.Metal.Weighted>
-0.0000

> <Gold.Chemscore.Lipo.Weighted>
-12.1840

> <Gold.Chemscore.Internal_Hbond.Weighted>
0.0000

> <Gold.Chemscore.DEClash.Weighted>
0.0491

> <Gold.Chemscore.DEInternal.Weighted>
1.4410

> <Gold.Chemscore.Rot.Weighted>
3.9623

> <Gold.Chemscore.Internal.Correction.Weighted>
   9.000000E+99

> <Gold.Protein.RotatedTorsions>
[ 6907 6896 6895 6894 ] final  -51.24 input  -60.11 | X-H torsion
[ 7974 7965 7964 7962 ] final -108.53 input  175.53 | X-H torsion
[ 8008 7997 7996 7995 ] final   50.64 input   59.86 | X-H torsion
[ 10167 10162 10161 10158 ] final  -50.82 input  -65.29 | X-H torsion
[ 10718 10713 10712 10709 ] final   55.22 input   66.30 | X-H torsion
[ 10763 10752 10751 10750 ] final  -44.03 input  -60.55 | X-H torsion
[ 11005 11000 10999 10996 ] final   53.46 input  -57.11 | X-H torsion

> <Gold.Protein.ActiveResidues>
 VAL166  LYS551  ARG553  GLY616  TRP617  ASP618  TYR619  PRO620  LYS621  CYS622 
 ASP623  PHE694  ASN695  SER759  ASP760  ASP761  ALA762  ILE779  LEU786  VAL792 
 PHE793  MET794  SER795  GLU796  ALA797  LYS798  CYS799  TRP800  GLU811  SER814 

> <Gold.Protein.RotatedAtoms>
  150.8630  134.7987  159.7097 H   0  0  0  0  0  0  0  0  0  0  0  0  # atno 6907 bound_to 6896
  152.4661  134.5069  159.9751 H   0  0  0  0  0  0  0  0  0  0  0  0  # atno 6908 bound_to 6896
  151.5169  133.3435  159.2930 H   0  0  0  0  0  0  0  0  0  0  0  0  # atno 6909 bound_to 6896
  145.1918  140.9018  143.3420 H   0  0  0  0  0  0  0  0  0  0  0  0  # atno 7974 bound_to 7965
  155.4221  140.3447  155.4272 H   0  0  0  0  0  0  0  0  0  0  0  0  # atno 8008 bound_to 7997
  156.1387  140.1535  156.8986 H   0  0  0  0  0  0  0  0  0  0  0  0  # atno 8009 bound_to 7997
  154.4953  140.0829  156.7663 H   0  0  0  0  0  0  0  0  0  0  0  0  # atno 8010 bound_to 7997
  140.6619  143.2643  151.4414 H   0  0  0  0  0  0  0  0  0  0  0  0  # atno 10167 bound_to 10162
  157.5326  130.8641  149.8708 H   0  0  0  0  0  0  0  0  0  0  0  0  # atno 10718 bound_to 10713
  154.0054  135.6688  153.4762 H   0  0  0  0  0  0  0  0  0  0  0  0  # atno 10763 bound_to 10752
  153.0644  135.5009  154.8163 H   0  0  0  0  0  0  0  0  0  0  0  0  # atno 10764 bound_to 10752
  154.7028  135.3082  154.9279 H   0  0  0  0  0  0  0  0  0  0  0  0  # atno 10765 bound_to 10752
  140.0765  134.5397  155.8991 H   0  0  0  0  0  0  0  0  0  0  0  0  # atno 11005 bound_to 11000
  145.0034  139.3577  143.6156 LP  0  0  0  0  0  0  0  0  0  0  0  0  # atno 17320 bound_to 7965
  146.3435  139.9267  142.8759 LP  0  0  0  0  0  0  0  0  0  0  0  0  # atno 17321 bound_to 7965
  139.5855  144.1613  152.2024 LP  0  0  0  0  0  0  0  0  0  0  0  0  # atno 17342 bound_to 10162
  140.0952  144.5587  150.7027 LP  0  0  0  0  0  0  0  0  0  0  0  0  # atno 17343 bound_to 10162
  156.0434  130.3733  150.1379 LP  0  0  0  0  0  0  0  0  0  0  0  0  # atno 17370 bound_to 10713
  156.9563  130.9790  151.3488 LP  0  0  0  0  0  0  0  0  0  0  0  0  # atno 17371 bound_to 10713
  141.2031  133.6630  156.6046 LP  0  0  0  0  0  0  0  0  0  0  0  0  # atno 17394 bound_to 11000
  140.3550  134.7736  157.4493 LP  0  0  0  0  0  0  0  0  0  0  0  0  # atno 17395 bound_to 11000

$$$$
