#       Name:                AV-unprocessed.smi:563
#       Creating user name   scv26
#       Creation time:       Thu Mar 26 23:44:34 2020


#       File generated by GOLD software.
#

@<TRIPOS>MOLECULE
AV-unprocessed.smi:563
    34    35     1
SMALL
NO_CHARGES


@<TRIPOS>ATOM
      1 ****        -4.1130   1.9573  -1.8930 C.3            1 S1                 0.0000
      2 ****        -3.2012   0.8280  -2.2307 C.2            1 S1                 0.0000
      3 ****        -1.8761   0.8752  -2.0702 N.2            1 S1                 0.0000
      4 ****        -1.2434  -0.3112  -2.4574 C.2            1 S1                 0.0000
      5 ****         0.2484  -0.4358  -2.3520 C.3            1 S1                 0.0000
      6 ****         0.6323  -1.1181  -1.0385 C.2            1 S1                 0.0000
      7 ****         0.8444  -2.3304  -1.0136 O.2            1 S1                 0.0000
      8 ****         0.7252  -0.3280   0.0427 N.am           1 S1                 0.0000
      9 ****         1.0882  -0.7773   1.3840 C.3            1 S1                 0.0000
     10 ****         0.6400   0.2461   2.4453 C.3            1 S1                 0.0000
     11 ****         1.8496   0.4717   3.3544 C.3            1 S1                 0.0000
     12 ****         3.0523   0.2371   2.4465 C.3            1 S1                 0.0000
     13 ****         2.6164  -0.9143   1.5401 C.3            1 S1                 0.0000
     14 ****        -2.1184  -1.2630  -2.9201 C.2            1 S1                 0.0000
     15 ****        -3.7683  -0.7060  -2.8788 S.3            1 S1                 0.0000
     16 ****        -3.5622   2.8978  -1.8604 H              1 S1                 0.0000
     17 ****        -4.5733   1.7854  -0.9199 H              1 S1                 0.0000
     18 ****        -4.8995   2.0408  -2.6432 H              1 S1                 0.0000
     19 ****         0.6428  -1.0182  -3.1856 H              1 S1                 0.0000
     20 ****         0.7280   0.5425  -2.4085 H              1 S1                 0.0000
     21 ****         0.5291   0.6561  -0.0717 H              1 S1                 0.0000
     22 ****         0.6145  -1.7397   1.5872 H              1 S1                 0.0000
     23 ****         0.3681   1.1935   1.9767 H              1 S1                 0.0000
     24 ****        -0.2309  -0.0965   3.0049 H              1 S1                 0.0000
     25 ****         1.8539   1.4616   3.8111 H              1 S1                 0.0000
     26 ****         1.8487  -0.2660   4.1581 H              1 S1                 0.0000
     27 ****         3.2386   1.1285   1.8457 H              1 S1                 0.0000
     28 ****         3.9629   0.0128   3.0027 H              1 S1                 0.0000
     29 ****         2.8419  -1.8623   2.0302 H              1 S1                 0.0000
     30 ****         3.1543  -0.9114   0.5911 H              1 S1                 0.0000
     31 ****        -1.8920  -2.2563  -3.2785 H              1 S1                 0.0000
     32 ****        -1.3891   1.6719  -1.7122 LP             1 S1                 0.0000
     33 ****         0.7656  -2.8691  -1.8524 LP             1 S1                 0.0000
     34 ****         1.0954  -2.7765  -0.1545 LP             1 S1                 0.0000
@<TRIPOS>BOND
    1    1    2 1     
    2    1   16 1     
    3    1   17 1     
    4    1   18 1     
    5    2   15 1     
    6    2    3 2     
    7    3    4 1     
    8    4    5 1     
    9    4   14 2     
   10    5    6 1     
   11    5   19 1     
   12    5   20 1     
   13    6    7 2     
   14    6    8 am    
   15    8    9 1     
   16    8   21 1     
   17    9   13 1     
   18    9   10 1     
   19    9   22 1     
   20   10   11 1     
   21   10   23 1     
   22   10   24 1     
   23   11   12 1     
   24   11   25 1     
   25   11   26 1     
   26   12   13 1     
   27   12   27 1     
   28   12   28 1     
   29   13   29 1     
   30   13   30 1     
   31   14   15 1     
   32   14   31 1     
   33    3   32 1     
   34    7   33 1     
   35    7   34 1     
@<TRIPOS>SUBSTRUCTURE
      1 S1             1
@<TRIPOS>SET
LONE_PAIRS      STATIC     ATOMS    <user>   **** ""
3 32 33 34
DONOR_HYDROGENS      STATIC     ATOMS    <user>   **** ""
1 21
ATOM$BLUE        STATIC     ATOMS    COLORGROUP SYSTEM
3 32 33 34
ATOM$RED        STATIC     ATOMS    COLORGROUP SYSTEM
1 21
