AV-unprocessed.smi:2727|AV-procd|sdf|10522|dock5
  -GOLD-   2272014563D 1   1.00000     0.00000
 Structure written by MMmdl.
 40 41  0  0  0  0  0  0  0  0  1 V2000
  148.1951  139.4674  157.0632 O   0  0  0  0  0  0  0  0  0  0  0  0
  149.0823  139.2577  156.2293 C   0  0  0  0  0  0  0  0  0  0  0  0
  150.3325  139.7101  156.4098 N   0  0  0  0  0  0  0  0  0  0  0  0
  150.7971  140.4683  157.5668 C   0  0  0  0  0  0  0  0  0  0  0  0
  151.2500  141.8883  157.1699 C   0  0  0  0  0  0  0  0  0  0  0  0
  150.6787  142.9949  158.0750 C   0  0  0  0  0  0  0  0  0  0  0  0
  149.4565  143.1352  158.1502 O   0  0  0  0  0  0  0  0  0  0  0  0
  151.5346  143.7939  158.7588 N   0  0  0  0  0  0  0  0  0  0  0  0
  152.9855  143.5747  158.7177 C   0  0  0  0  0  0  0  0  0  0  0  0
  153.4349  142.4836  159.7111 C   0  0  0  0  0  0  0  0  0  0  0  0
  152.6524  142.4175  161.0414 C   0  0  0  0  0  0  0  0  0  0  0  0
  152.3120  143.7807  161.6754 C   0  0  0  0  0  0  0  0  0  0  0  0
  151.0265  144.4239  161.1121 C   0  0  0  0  0  0  0  0  0  0  0  0
  151.1330  144.8927  159.6488 C   0  0  0  0  0  0  0  0  0  0  0  0
  148.9962  138.5632  155.0313 N   0  0  0  0  0  0  0  0  0  0  0  0
  148.2004  138.9872  154.0986 C   0  0  0  0  0  0  0  0  0  0  0  0
  147.9867  138.4259  152.8495 N   0  0  0  0  0  0  0  0  0  0  0  0
  147.0636  139.1907  152.1913 C   0  0  0  0  0  0  0  0  0  0  0  0
  146.7114  140.1935  152.9904 C   0  0  0  0  0  0  0  0  0  0  0  0
  147.3905  140.0975  154.1673 O   0  0  0  0  0  0  0  0  0  0  0  0
  151.0155  139.5057  155.6944 H   0  0  0  0  0  0  0  0  0  0  0  0
  150.0090  140.5068  158.3212 H   0  0  0  0  0  0  0  0  0  0  0  0
  151.6278  139.9212  158.0137 H   0  0  0  0  0  0  0  0  0  0  0  0
  152.3390  141.9417  157.1916 H   0  0  0  0  0  0  0  0  0  0  0  0
  150.9403  142.0832  156.1436 H   0  0  0  0  0  0  0  0  0  0  0  0
  153.3139  143.3197  157.7087 H   0  0  0  0  0  0  0  0  0  0  0  0
  153.5148  144.4989  158.9512 H   0  0  0  0  0  0  0  0  0  0  0  0
  153.3638  141.5088  159.2274 H   0  0  0  0  0  0  0  0  0  0  0  0
  154.4947  142.6280  159.9227 H   0  0  0  0  0  0  0  0  0  0  0  0
  151.7323  141.8489  160.8981 H   0  0  0  0  0  0  0  0  0  0  0  0
  153.2429  141.8347  161.7489 H   0  0  0  0  0  0  0  0  0  0  0  0
  152.1607  143.6263  162.7444 H   0  0  0  0  0  0  0  0  0  0  0  0
  153.1572  144.4647  161.5912 H   0  0  0  0  0  0  0  0  0  0  0  0
  150.1968  143.7250  161.2193 H   0  0  0  0  0  0  0  0  0  0  0  0
  150.7674  145.2845  161.7296 H   0  0  0  0  0  0  0  0  0  0  0  0
  151.8492  145.7125  159.5840 H   0  0  0  0  0  0  0  0  0  0  0  0
  150.1903  145.3395  159.3341 H   0  0  0  0  0  0  0  0  0  0  0  0
  148.4079  137.5971  152.4552 H   0  0  0  0  0  0  0  0  0  0  0  0
  146.7476  138.9275  151.1928 H   0  0  0  0  0  0  0  0  0  0  0  0
  146.0227  141.0172  152.8747 H   0  0  0  0  0  0  0  0  0  0  0  0
  1  2  2  0  0  0  0
  2 15  1  0  0  0  0
  2  3  1  0  0  0  0
  3  4  1  0  0  0  0
  3 21  1  0  0  0  0
  4  5  1  0  0  0  0
  4 22  1  0  0  0  0
  4 23  1  0  0  0  0
  5  6  1  0  0  0  0
  5 24  1  0  0  0  0
  5 25  1  0  0  0  0
  6  7  2  0  0  0  0
  6  8  1  0  0  0  0
  8 14  1  0  0  0  0
  8  9  1  0  0  0  0
  9 10  1  0  0  0  0
  9 26  1  0  0  0  0
  9 27  1  0  0  0  0
 10 11  1  0  0  0  0
 10 28  1  0  0  0  0
 10 29  1  0  0  0  0
 11 12  1  0  0  0  0
 11 30  1  0  0  0  0
 11 31  1  0  0  0  0
 12 13  1  0  0  0  0
 12 32  1  0  0  0  0
 12 33  1  0  0  0  0
 13 14  1  0  0  0  0
 13 34  1  0  0  0  0
 13 35  1  0  0  0  0
 14 36  1  0  0  0  0
 14 37  1  0  0  0  0
 15 16  2  0  0  0  0
 16 20  1  0  0  0  0
 16 17  1  0  0  0  0
 17 38  1  0  0  0  0
 17 18  1  0  0  0  0
 18 39  1  0  0  0  0
 18 19  2  0  0  0  0
 19 40  1  0  0  0  0
 19 20  1  0  0  0  0
M  END
> <s_m_source_file>
AV-unprocessed.smi

> <i_m_source_file_index>
2727

> <i_lp_mmshare_version>
43012

> <i_f3d_flags>
0

> <s_epik_input>
bzFbY0hdW2NIXW5jMVtOSF1DKD1PKVtOSF1bQ0gyXVtDSDJdQyg9TylOMltDSDJdW0NIMl1bQ0gyXVtDSDJdW0NIMl1bQ0gyXTI=

> <s_epik_cmdline>
J2VwaWtfcHl0aG9uJywgJy1waCcsICc3LjAnLCAnLXRuJywgJzgnLCAnLW1hJywgJzIwMCcsICctbWV0YWxfYmluZGluZycsICctaW1hZScsICc8aW5maWxlLm1hZT4nLCAnLW9tYWUnLCAnPG91dGZpbGUubWFlPic=

> <r_lp_tautomer_probability>
0.107061

> <r_epik_Ionization_Penalty>
0.376272

> <r_epik_Ionization_Penalty_Charging>
0.375918

> <r_epik_Ionization_Penalty_Neutral>
0.000353756

> <r_epik_State_Penalty>
2.48665

> <r_epik_Charging_Adjusted_Penalty>
2.86256

> <i_epik_Tot_Q>
0

> <i_epik_Tot_abs_Q>
0

> <r_epik_Metal_State_Penalty>
4.1171

> <b_epik_Metal_Only>
0

> <s_lp_Force_Field>
OPLS_2005

> <r_lp_Energy>
48.3689

> <b_lp_Chiralities_Consistent>
1

> <s_lp_Variant>
AV-unprocessed.smi:2727-2

> <Gold.Version>
5.8.1

> <Gold.Id.Protein>
6NUR|6NUR_protein|mol2

> <Gold.PLP.Fitness>
40.1221

> <Gold.PLP.PLP>
-36.4785

> <Gold.PLP.part.hbond>
-2.0000

> <Gold.PLP.part.metal>
0.0000

> <Gold.PLP.part.buried>
-1.2648

> <Gold.PLP.part.nonpolar>
-34.4588

> <Gold.PLP.part.repulsive>
1.4690

> <Gold.PLP.ligand.clash>
0.0000

> <Gold.PLP.ligand.torsion>
0.9280

> <Gold.PLP.Chemscore.Hbond>
1.0000

> <Gold.PLP.Chemscore.CHOScore>
0.8270

> <Gold.PLP.Chemscore.Metal>
0.0000

> <Gold.Chemscore.Hbonds>
donor molecule, donor type, donor heavy atom, donor atom, acceptor molecule, acceptor atom, score
      L1  H    17    38       P1  7948  1.00
      L1  C    19    40       P1 10175  0.76

> <Gold.PLP.Chemscore.Internal.Correction>
0.0186

> <Gold.Rescore>
     Score         DG    S(hbond)    S(metal)    S(lipo)     H(rot)  DE(clash)    DE(int)     intcor
     14.40     -15.94       0.94        0.00      99.70       1.70       0.58       0.97       ----

> <Gold.Chemscore.Fitness>
14.3951

> <Gold.Chemscore.DG>
-15.9409

> <Gold.Chemscore.ZeroCoef>
-5.4800

> <Gold.Chemscore.Hbond>
0.9444

> <Gold.Chemscore.Metal>
0.0000

> <Gold.Chemscore.Lipo>
99.7014

> <Gold.Chemscore.Internal_Hbond>
0.0000

> <Gold.Chemscore.DEClash>
0.5767

> <Gold.Chemscore.DEInternal>
0.9691

> <Gold.Chemscore.Rot>
1.7025

> <Gold.Chemscore.Internal.Correction>
   9.000000E+99

> <Gold.Chemscore.Hbonds>
donor molecule, donor type, donor heavy atom, donor atom, acceptor molecule, acceptor atom, score
      L1  H    17    38       P1  7948  0.97

> <Gold.Chemscore.Hbond.Weighted>
-3.1542

> <Gold.Chemscore.Metal.Weighted>
-0.0000

> <Gold.Chemscore.Lipo.Weighted>
-11.6651

> <Gold.Chemscore.Internal_Hbond.Weighted>
0.0000

> <Gold.Chemscore.DEClash.Weighted>
0.5767

> <Gold.Chemscore.DEInternal.Weighted>
0.9691

> <Gold.Chemscore.Rot.Weighted>
4.3584

> <Gold.Chemscore.Internal.Correction.Weighted>
   9.000000E+99

> <Gold.Protein.RotatedTorsions>
[ 6907 6896 6895 6894 ] final  106.00 input  -60.11 | X-H torsion
[ 7974 7965 7964 7962 ] final  137.25 input  175.53 | X-H torsion
[ 8008 7997 7996 7995 ] final    4.02 input   59.86 | X-H torsion
[ 10167 10162 10161 10158 ] final -153.25 input  -65.29 | X-H torsion
[ 10718 10713 10712 10709 ] final  -82.64 input   66.30 | X-H torsion
[ 10763 10752 10751 10750 ] final  165.94 input  -60.55 | X-H torsion
[ 11005 11000 10999 10996 ] final  -32.26 input  -57.11 | X-H torsion

> <Gold.Protein.ActiveResidues>
 VAL166  LYS551  ARG553  GLY616  TRP617  ASP618  TYR619  PRO620  LYS621  CYS622 
 ASP623  PHE694  ASN695  SER759  ASP760  ASP761  ALA762  ILE779  LEU786  VAL792 
 PHE793  MET794  SER795  GLU796  ALA797  LYS798  CYS799  TRP800  GLU811  SER814 

> <Gold.Protein.RotatedAtoms>
  152.5210  133.9445  159.7642 H   0  0  0  0  0  0  0  0  0  0  0  0  # atno 6907 bound_to 6896
  150.9768  133.6278  159.2736 H   0  0  0  0  0  0  0  0  0  0  0  0  # atno 6908 bound_to 6896
  151.3470  135.0882  159.9443 H   0  0  0  0  0  0  0  0  0  0  0  0  # atno 6909 bound_to 6896
  144.9486  139.4846  143.5537 H   0  0  0  0  0  0  0  0  0  0  0  0  # atno 7974 bound_to 7965
  154.7107  140.2692  155.6632 H   0  0  0  0  0  0  0  0  0  0  0  0  # atno 8008 bound_to 7997
  156.2794  140.2754  156.1672 H   0  0  0  0  0  0  0  0  0  0  0  0  # atno 8009 bound_to 7997
  155.0638  140.0371  157.2576 H   0  0  0  0  0  0  0  0  0  0  0  0  # atno 8010 bound_to 7997
  139.7112  143.9105  152.2469 H   0  0  0  0  0  0  0  0  0  0  0  0  # atno 10167 bound_to 10162
  156.0030  130.4640  150.4135 H   0  0  0  0  0  0  0  0  0  0  0  0  # atno 10718 bound_to 10713
  154.3315  135.2754  155.2469 H   0  0  0  0  0  0  0  0  0  0  0  0  # atno 10763 bound_to 10752
  154.4779  135.5866  153.6372 H   0  0  0  0  0  0  0  0  0  0  0  0  # atno 10764 bound_to 10752
  152.9866  135.6104  154.3508 H   0  0  0  0  0  0  0  0  0  0  0  0  # atno 10765 bound_to 10752
  140.9537  133.7205  156.1260 H   0  0  0  0  0  0  0  0  0  0  0  0  # atno 11005 bound_to 11000
  146.3312  139.8555  142.8865 LP  0  0  0  0  0  0  0  0  0  0  0  0  # atno 17320 bound_to 7965
  145.2879  141.0158  143.3679 LP  0  0  0  0  0  0  0  0  0  0  0  0  # atno 17321 bound_to 7965
  139.8975  144.6931  150.8702 LP  0  0  0  0  0  0  0  0  0  0  0  0  # atno 17342 bound_to 10162
  140.7733  143.3539  151.1960 LP  0  0  0  0  0  0  0  0  0  0  0  0  # atno 17343 bound_to 10162
  157.2196  131.0479  151.2554 LP  0  0  0  0  0  0  0  0  0  0  0  0  # atno 17370 bound_to 10713
  157.3812  130.7232  149.6632 LP  0  0  0  0  0  0  0  0  0  0  0  0  # atno 17371 bound_to 10713
  140.7566  134.3985  157.5533 LP  0  0  0  0  0  0  0  0  0  0  0  0  # atno 17394 bound_to 11000
  139.8855  134.8934  156.2637 LP  0  0  0  0  0  0  0  0  0  0  0  0  # atno 17395 bound_to 11000

$$$$
