AV-unprocessed.smi:670|AV-procd|sdf|3270|dock1
  -GOLD-   22720 0223D 1   1.00000     0.00000
 Structure written by MMmdl.
 45 46  0  0  0  0  0  0  0  0  1 V2000
  147.9150  133.4787  159.4071 C   0  0  0  0  0  0  0  0  0  0  0  0
  147.5776  134.4201  160.5738 C   0  0  1  0  0  0  0  0  0  0  0  0
  148.2245  133.9516  161.8933 C   0  0  0  0  0  0  0  0  0  0  0  0
  147.8541  134.8766  163.0635 C   0  0  0  0  0  0  0  0  0  0  0  0
  148.2151  136.3371  162.7566 C   0  0  0  0  0  0  0  0  0  0  0  0
  147.5672  136.8061  161.4442 C   0  0  0  0  0  0  0  0  0  0  0  0
  147.9480  135.8879  160.2618 C   0  0  1  0  0  0  0  0  0  0  0  0
  149.3477  135.9540  160.0141 O   0  0  0  0  0  0  0  0  0  0  0  0
  149.7632  137.0663  159.2354 C   0  0  0  0  0  0  0  0  0  0  0  0
  150.7281  136.5693  158.1498 C   0  0  0  0  0  0  0  0  0  0  0  0
  151.1350  137.6523  157.2611 N   0  0  0  0  0  0  0  0  0  0  0  0
  152.1043  137.5730  156.3376 C   0  0  0  0  0  0  0  0  0  0  0  0
  152.7885  136.5629  156.1651 O   0  0  0  0  0  0  0  0  0  0  0  0
  152.3323  138.8377  155.4967 C   0  0  0  0  0  0  0  0  0  0  0  0
  151.7342  140.0471  156.0809 N   0  0  0  0  0  0  0  0  0  0  0  0
  150.7543  140.6308  155.2921 N   0  0  0  0  0  0  0  0  0  0  0  0
  150.1426  141.6900  155.7022 C   0  0  0  0  0  0  0  0  0  0  0  0
  149.1761  142.2334  154.8919 O   0  0  0  0  0  0  0  0  0  0  0  0
  150.4621  142.2924  156.9781 C   0  0  0  0  0  0  0  0  0  0  0  0
  151.4218  141.7195  157.7368 C   0  0  0  0  0  0  0  0  0  0  0  0
  152.1340  140.5163  157.3028 C   0  0  0  0  0  0  0  0  0  0  0  0
  153.0109  139.9740  157.9747 O   0  0  0  0  0  0  0  0  0  0  0  0
  149.0828  143.1291  155.1771 H   0  0  0  0  0  0  0  0  0  0  0  0
  148.9887  133.4432  159.2202 H   0  0  0  0  0  0  0  0  0  0  0  0
  147.4271  133.8027  158.4876 H   0  0  0  0  0  0  0  0  0  0  0  0
  147.5819  132.4617  159.6159 H   0  0  0  0  0  0  0  0  0  0  0  0
  146.4959  134.3795  160.7092 H   0  0  0  0  0  0  0  0  0  0  0  0
  147.9090  132.9333  162.1224 H   0  0  0  0  0  0  0  0  0  0  0  0
  149.3093  133.9197  161.7844 H   0  0  0  0  0  0  0  0  0  0  0  0
  146.7850  134.8000  163.2650 H   0  0  0  0  0  0  0  0  0  0  0  0
  148.3637  134.5507  163.9705 H   0  0  0  0  0  0  0  0  0  0  0  0
  147.8963  136.9792  163.5780 H   0  0  0  0  0  0  0  0  0  0  0  0
  149.2988  136.4398  162.6873 H   0  0  0  0  0  0  0  0  0  0  0  0
  146.4829  136.8068  161.5613 H   0  0  0  0  0  0  0  0  0  0  0  0
  147.8440  137.8408  161.2455 H   0  0  0  0  0  0  0  0  0  0  0  0
  147.4037  136.1997  159.3685 H   0  0  0  0  0  0  0  0  0  0  0  0
  148.8924  137.5335  158.7740 H   0  0  0  0  0  0  0  0  0  0  0  0
  150.2486  137.8258  159.8477 H   0  0  0  0  0  0  0  0  0  0  0  0
  151.6213  136.1481  158.6116 H   0  0  0  0  0  0  0  0  0  0  0  0
  150.2674  135.7663  157.5724 H   0  0  0  0  0  0  0  0  0  0  0  0
  150.6225  138.5190  157.3378 H   0  0  0  0  0  0  0  0  0  0  0  0
  153.4040  138.9847  155.3498 H   0  0  0  0  0  0  0  0  0  0  0  0
  151.9229  138.6602  154.5007 H   0  0  0  0  0  0  0  0  0  0  0  0
  149.9421  143.1798  157.3080 H   0  0  0  0  0  0  0  0  0  0  0  0
  151.6714  142.1594  158.6911 H   0  0  0  0  0  0  0  0  0  0  0  0
  1  2  1  0  0  0  0
  1 24  1  0  0  0  0
  1 25  1  0  0  0  0
  1 26  1  0  0  0  0
  2  7  1  0  0  0  0
  2  3  1  0  0  0  0
  2 27  1  0  0  0  0
  3  4  1  0  0  0  0
  3 28  1  0  0  0  0
  3 29  1  0  0  0  0
  4  5  1  0  0  0  0
  4 30  1  0  0  0  0
  4 31  1  0  0  0  0
  5  6  1  0  0  0  0
  5 32  1  0  0  0  0
  5 33  1  0  0  0  0
  6  7  1  0  0  0  0
  6 34  1  0  0  0  0
  6 35  1  0  0  0  0
  7  8  1  0  0  0  0
  7 36  1  0  0  0  0
  8  9  1  0  0  0  0
  9 10  1  0  0  0  0
  9 37  1  0  0  0  0
  9 38  1  0  0  0  0
 10 11  1  0  0  0  0
 10 39  1  0  0  0  0
 10 40  1  0  0  0  0
 11 12  1  0  0  0  0
 11 41  1  0  0  0  0
 12 13  2  0  0  0  0
 12 14  1  0  0  0  0
 14 42  1  0  0  0  0
 14 43  1  0  0  0  0
 14 15  1  0  0  0  0
 15 16  1  0  0  0  0
 15 21  1  0  0  0  0
 16 17  2  0  0  0  0
 17 18  1  0  0  0  0
 17 19  1  0  0  0  0
 18 23  1  0  0  0  0
 19 44  1  0  0  0  0
 19 20  2  0  0  0  0
 20 45  1  0  0  0  0
 20 21  1  0  0  0  0
 21 22  2  0  0  0  0
M  END
> <s_m_source_file>
AV-unprocessed.smi

> <i_m_source_file_index>
670

> <i_lp_mmshare_version>
43012

> <i_f3d_flags>
0

> <s_epik_input>
W0NIM11bQ0BASF0xW0NIMl1bQ0gyXVtDSDJdW0NIMl1bQ0BIXTFPW0NIMl1bQ0gyXVtOSF1DKD1PKVtDSDJdbjJbbkhdYyg9TylbY0hdW2NIXWMyPU8=

> <s_epik_cmdline>
J2VwaWtfcHl0aG9uJywgJy1waCcsICc3LjAnLCAnLXRuJywgJzgnLCAnLW1hJywgJzIwMCcsICctbWV0YWxfYmluZGluZycsICctaW1hZScsICc8aW5maWxlLm1hZT4nLCAnLW9tYWUnLCAnPG91dGZpbGUubWFlPic=

> <r_lp_tautomer_probability>
0.9996

> <r_epik_Ionization_Penalty>
2.12726

> <r_epik_Ionization_Penalty_Charging>
3.83395e-08

> <r_epik_Ionization_Penalty_Neutral>
2.12726

> <r_epik_State_Penalty>
1.70432

> <r_epik_Charging_Adjusted_Penalty>
1.70432

> <i_epik_Tot_Q>
0

> <i_epik_Tot_abs_Q>
0

> <r_epik_Metal_State_Penalty>
1.70432

> <b_epik_Metal_Only>
0

> <s_lp_Force_Field>
OPLS_2005

> <r_lp_Energy>
19.8416

> <b_lp_Chiralities_Consistent>
1

> <s_lp_Variant>
AV-unprocessed.smi:670-6

> <Gold.Version>
5.8.1

> <Gold.Id.Protein>
6NUR|6NUR_protein|mol2

> <Gold.PLP.Fitness>
51.8435

> <Gold.PLP.PLP>
-38.4960

> <Gold.PLP.part.hbond>
-5.7282

> <Gold.PLP.part.metal>
0.0000

> <Gold.PLP.part.buried>
-3.3309

> <Gold.PLP.part.nonpolar>
-30.2423

> <Gold.PLP.part.repulsive>
0.1072

> <Gold.PLP.ligand.clash>
0.0000

> <Gold.PLP.ligand.torsion>
0.8367

> <Gold.PLP.Chemscore.Hbond>
4.8953

> <Gold.PLP.Chemscore.CHOScore>
0.0000

> <Gold.PLP.Chemscore.Metal>
0.0000

> <Gold.Chemscore.Hbonds>
donor molecule, donor type, donor heavy atom, donor atom, acceptor molecule, acceptor atom, score
      L1  H    18    23       P1  8028  1.00
      P1  H  6896  6909       L1     8  0.98
      P1  H  7989  7998       L1    16  0.91
      P1  H  7997  8008       L1    22  1.00
      P1  H 10752 10765       L1    13  0.98

> <Gold.PLP.Chemscore.Internal.Correction>
0.3350

> <Gold.Rescore>
     Score         DG    S(hbond)    S(metal)    S(lipo)     H(rot)  DE(clash)    DE(int)     intcor
     16.74     -17.91       3.39        0.00      76.96       3.09       0.31       0.86       ----

> <Gold.Chemscore.Fitness>
16.7423

> <Gold.Chemscore.DG>
-17.9104

> <Gold.Chemscore.ZeroCoef>
-5.4800

> <Gold.Chemscore.Hbond>
3.3942

> <Gold.Chemscore.Metal>
0.0000

> <Gold.Chemscore.Lipo>
76.9615

> <Gold.Chemscore.Internal_Hbond>
0.0000

> <Gold.Chemscore.DEClash>
0.3057

> <Gold.Chemscore.DEInternal>
0.8624

> <Gold.Chemscore.Rot>
3.0901

> <Gold.Chemscore.Internal.Correction>
   9.000000E+99

> <Gold.Chemscore.Hbonds>
donor molecule, donor type, donor heavy atom, donor atom, acceptor molecule, acceptor atom, score
      L1  H    18    23       P1  8028  1.00
      P1  H  6896  6909       L1     8  0.32
      P1  H  7989  7998       L1    16  0.35
      P1  H  7997  8008       L1    22  0.34
      P1  H 10752 10765       L1    13  0.90

> <Gold.Chemscore.Hbond.Weighted>
-11.3365

> <Gold.Chemscore.Metal.Weighted>
-0.0000

> <Gold.Chemscore.Lipo.Weighted>
-9.0045

> <Gold.Chemscore.Internal_Hbond.Weighted>
0.0000

> <Gold.Chemscore.DEClash.Weighted>
0.3057

> <Gold.Chemscore.DEInternal.Weighted>
0.8624

> <Gold.Chemscore.Rot.Weighted>
7.9106

> <Gold.Chemscore.Internal.Correction.Weighted>
   9.000000E+99

> <Gold.Protein.RotatedTorsions>
[ 6907 6896 6895 6894 ] final   56.95 input  -60.11 | X-H torsion
[ 7974 7965 7964 7962 ] final  -35.34 input  175.53 | X-H torsion
[ 8008 7997 7996 7995 ] final  -73.87 input   59.86 | X-H torsion
[ 10167 10162 10161 10158 ] final  120.16 input  -65.29 | X-H torsion
[ 10718 10713 10712 10709 ] final  -21.35 input   66.30 | X-H torsion
[ 10763 10752 10751 10750 ] final -136.20 input  -60.55 | X-H torsion
[ 11005 11000 10999 10996 ] final   80.99 input  -57.11 | X-H torsion

> <Gold.Protein.ActiveResidues>
 VAL166  LYS551  ARG553  GLY616  TRP617  ASP618  TYR619  PRO620  LYS621  CYS622 
 ASP623  PHE694  ASN695  SER759  ASP760  ASP761  ALA762  ILE779  LEU786  VAL792 
 PHE793  MET794  SER795  GLU796  ALA797  LYS798  CYS799  TRP800  GLU811  SER814 

> <Gold.Protein.RotatedAtoms>
  152.3685  134.6768  160.0183 H   0  0  0  0  0  0  0  0  0  0  0  0  # atno 6907 bound_to 6896
  151.7069  133.3306  159.3289 H   0  0  0  0  0  0  0  0  0  0  0  0  # atno 6908 bound_to 6896
  150.7656  134.6501  159.6328 H   0  0  0  0  0  0  0  0  0  0  0  0  # atno 6909 bound_to 6896
  146.0754  140.6148  142.8933 H   0  0  0  0  0  0  0  0  0  0  0  0  # atno 7974 bound_to 7965
  154.5283  140.0771  156.8299 H   0  0  0  0  0  0  0  0  0  0  0  0  # atno 8008 bound_to 7997
  155.3428  140.3408  155.4221 H   0  0  0  0  0  0  0  0  0  0  0  0  # atno 8009 bound_to 7997
  156.1755  140.1634  156.8357 H   0  0  0  0  0  0  0  0  0  0  0  0  # atno 8010 bound_to 7997
  139.6000  144.7053  151.3086 H   0  0  0  0  0  0  0  0  0  0  0  0  # atno 10167 bound_to 10162
  156.5194  130.4629  149.6605 H   0  0  0  0  0  0  0  0  0  0  0  0  # atno 10718 bound_to 10713
  154.8688  135.3680  154.5023 H   0  0  0  0  0  0  0  0  0  0  0  0  # atno 10763 bound_to 10752
  153.5663  135.7022  153.5529 H   0  0  0  0  0  0  0  0  0  0  0  0  # atno 10764 bound_to 10752
  153.3582  135.4053  155.1662 H   0  0  0  0  0  0  0  0  0  0  0  0  # atno 10765 bound_to 10752
  139.9114  134.7962  156.1982 H   0  0  0  0  0  0  0  0  0  0  0  0  # atno 11005 bound_to 11000
  144.7258  140.4520  143.6974 LP  0  0  0  0  0  0  0  0  0  0  0  0  # atno 17320 bound_to 7965
  145.6315  139.1537  143.2966 LP  0  0  0  0  0  0  0  0  0  0  0  0  # atno 17321 bound_to 7965
  140.7242  143.7051  150.7814 LP  0  0  0  0  0  0  0  0  0  0  0  0  # atno 17342 bound_to 10162
  140.0625  143.5140  152.2620 LP  0  0  0  0  0  0  0  0  0  0  0  0  # atno 17343 bound_to 10162
  156.3164  130.7257  151.2160 LP  0  0  0  0  0  0  0  0  0  0  0  0  # atno 17370 bound_to 10713
  157.7439  131.0467  150.4909 LP  0  0  0  0  0  0  0  0  0  0  0  0  # atno 17371 bound_to 10713
  141.0541  133.6874  156.1828 LP  0  0  0  0  0  0  0  0  0  0  0  0  # atno 17394 bound_to 11000
  140.6764  134.4814  157.5588 LP  0  0  0  0  0  0  0  0  0  0  0  0  # atno 17395 bound_to 11000

$$$$
