AV-unprocessed.smi:497|AV-procd|sdf|2724|dock2
  -GOLD-   2262023173D 1   1.00000     0.00000
 Structure written by MMmdl.
 39 41  0  0  0  0  0  0  0  0  1 V2000
  148.2999  141.5335  154.0658 C   0  0  0  0  0  0  0  0  0  0  0  0
  149.1376  140.4358  154.3833 O   0  0  0  0  0  0  0  0  0  0  0  0
  149.5456  140.4414  155.7403 C   0  0  0  0  0  0  0  0  0  0  0  0
  150.8606  141.2213  155.8593 C   0  0  0  0  0  0  0  0  0  0  0  0
  151.3452  141.2482  157.2307 N   0  0  0  0  0  0  0  0  0  0  0  0
  151.6351  140.1983  158.0409 C   0  0  0  0  0  0  0  0  0  0  0  0
  151.4679  138.7771  157.5612 C   0  0  0  0  0  0  0  0  0  0  0  0
  150.2441  138.1774  158.0890 N   0  0  0  0  0  0  0  0  0  0  0  0
  150.1746  137.3915  159.1753 C   0  0  0  0  0  0  0  0  0  0  0  0
  151.1500  137.1061  159.8697 O   0  0  0  0  0  0  0  0  0  0  0  0
  148.8373  136.8612  159.5006 C   0  0  0  0  0  0  0  0  0  0  0  0
  147.8270  136.4338  158.6814 C   0  0  0  0  0  0  0  0  0  0  0  0
  146.7584  136.0302  159.5290 C   0  0  0  0  0  0  0  0  0  0  0  0
  147.1925  136.2395  160.8064 C   0  0  0  0  0  0  0  0  0  0  0  0
  148.4561  136.7447  160.8073 O   0  0  0  0  0  0  0  0  0  0  0  0
  152.0869  140.5231  159.2567 N   0  0  0  0  0  0  0  0  0  0  0  0
  152.0793  141.9030  159.2323 C   0  0  0  0  0  0  0  0  0  0  0  0
  152.4462  142.8411  160.2235 C   0  0  0  0  0  0  0  0  0  0  0  0
  152.3597  144.2246  159.9633 C   0  0  0  0  0  0  0  0  0  0  0  0
  151.9070  144.6883  158.7110 C   0  0  0  0  0  0  0  0  0  0  0  0
  151.5367  143.7696  157.7098 C   0  0  0  0  0  0  0  0  0  0  0  0
  151.6229  142.3898  157.9759 C   0  0  0  0  0  0  0  0  0  0  0  0
  148.0131  141.4839  153.0154 H   0  0  0  0  0  0  0  0  0  0  0  0
  148.8133  142.4819  154.2301 H   0  0  0  0  0  0  0  0  0  0  0  0
  147.3885  141.5203  154.6649 H   0  0  0  0  0  0  0  0  0  0  0  0
  148.7744  140.9026  156.3592 H   0  0  0  0  0  0  0  0  0  0  0  0
  149.6831  139.4176  156.0924 H   0  0  0  0  0  0  0  0  0  0  0  0
  151.6241  140.7624  155.2302 H   0  0  0  0  0  0  0  0  0  0  0  0
  150.7382  142.2396  155.4921 H   0  0  0  0  0  0  0  0  0  0  0  0
  151.4614  138.7479  156.4710 H   0  0  0  0  0  0  0  0  0  0  0  0
  152.3198  138.1861  157.8970 H   0  0  0  0  0  0  0  0  0  0  0  0
  149.3923  138.3487  157.5749 H   0  0  0  0  0  0  0  0  0  0  0  0
  147.8537  136.4158  157.6017 H   0  0  0  0  0  0  0  0  0  0  0  0
  145.7949  135.6372  159.2405 H   0  0  0  0  0  0  0  0  0  0  0  0
  146.7534  136.0910  161.7820 H   0  0  0  0  0  0  0  0  0  0  0  0
  152.7956  142.4951  161.1850 H   0  0  0  0  0  0  0  0  0  0  0  0
  152.6436  144.9330  160.7278 H   0  0  0  0  0  0  0  0  0  0  0  0
  151.8446  145.7494  158.5191 H   0  0  0  0  0  0  0  0  0  0  0  0
  151.1913  144.1220  156.7493 H   0  0  0  0  0  0  0  0  0  0  0  0
  1  2  1  0  0  0  0
  1 23  1  0  0  0  0
  1 24  1  0  0  0  0
  1 25  1  0  0  0  0
  2  3  1  0  0  0  0
  3  4  1  0  0  0  0
  3 26  1  0  0  0  0
  3 27  1  0  0  0  0
  4  5  1  0  0  0  0
  4 28  1  0  0  0  0
  4 29  1  0  0  0  0
  5 22  1  0  0  0  0
  5  6  1  0  0  0  0
  6  7  1  0  0  0  0
  6 16  2  0  0  0  0
  7  8  1  0  0  0  0
  7 30  1  0  0  0  0
  7 31  1  0  0  0  0
  8  9  1  0  0  0  0
  8 32  1  0  0  0  0
  9 10  2  0  0  0  0
  9 11  1  0  0  0  0
 11 15  1  0  0  0  0
 11 12  2  0  0  0  0
 12 13  1  0  0  0  0
 12 33  1  0  0  0  0
 13 14  2  0  0  0  0
 13 34  1  0  0  0  0
 14 15  1  0  0  0  0
 14 35  1  0  0  0  0
 16 17  1  0  0  0  0
 17 22  2  0  0  0  0
 17 18  1  0  0  0  0
 18 19  2  0  0  0  0
 18 36  1  0  0  0  0
 19 20  1  0  0  0  0
 19 37  1  0  0  0  0
 20 21  2  0  0  0  0
 20 38  1  0  0  0  0
 21 22  1  0  0  0  0
 21 39  1  0  0  0  0
M  END
> <s_m_source_file>
AV-unprocessed.smi

> <i_m_source_file_index>
497

> <i_lp_mmshare_version>
43012

> <i_f3d_flags>
0

> <s_epik_input>
W2NIXTFbY0hdW2NIXVtjSF1jKGMxMiluKFtDSDJdW0NIMl1PW0NIM10pYyhuMilbQ0gyXVtOSF1DKD1PKWMzW2NIXVtjSF1bY0hdbzM=

> <s_epik_cmdline>
J2VwaWtfcHl0aG9uJywgJy1waCcsICc3LjAnLCAnLXRuJywgJzgnLCAnLW1hJywgJzIwMCcsICctbWV0YWxfYmluZGluZycsICctaW1hZScsICc8aW5maWxlLm1hZT4nLCAnLW9tYWUnLCAnPG91dGZpbGUubWFlPic=

> <r_epik_Ionization_Penalty>
0.0745911

> <r_epik_Ionization_Penalty_Charging>
0

> <r_epik_Ionization_Penalty_Neutral>
0.0745911

> <r_epik_State_Penalty>
0.0656752

> <r_epik_Charging_Adjusted_Penalty>
0.0656752

> <i_epik_Tot_Q>
0

> <i_epik_Tot_abs_Q>
0

> <r_epik_Metal_State_Penalty>
0.069874

> <b_epik_Metal_Only>
0

> <s_lp_Force_Field>
OPLS_2005

> <r_lp_Energy>
10.4941

> <b_lp_Chiralities_Consistent>
1

> <s_lp_Variant>
AV-unprocessed.smi:497-1

> <Gold.Version>
5.8.1

> <Gold.Id.Protein>
6NUR|6NUR_protein|mol2

> <Gold.PLP.Fitness>
47.8310

> <Gold.PLP.PLP>
-44.0534

> <Gold.PLP.part.hbond>
-1.9929

> <Gold.PLP.part.metal>
0.0000

> <Gold.PLP.part.buried>
-6.9827

> <Gold.PLP.part.nonpolar>
-35.2172

> <Gold.PLP.part.repulsive>
0.2095

> <Gold.PLP.ligand.clash>
0.0000

> <Gold.PLP.ligand.torsion>
1.1696

> <Gold.PLP.Chemscore.Hbond>
1.9833

> <Gold.PLP.Chemscore.CHOScore>
0.0000

> <Gold.PLP.Chemscore.Metal>
0.0000

> <Gold.Chemscore.Hbonds>
donor molecule, donor type, donor heavy atom, donor atom, acceptor molecule, acceptor atom, score
      P1  H  6896  6907       L1    10  1.00
      P1  H  6931  6943       L1    15  1.00

> <Gold.PLP.Chemscore.Internal.Correction>
0.1671

> <Gold.Rescore>
     Score         DG    S(hbond)    S(metal)    S(lipo)     H(rot)  DE(clash)    DE(int)     intcor
     18.32     -19.78       1.84        0.00     111.26       1.90       0.02       1.44       ----

> <Gold.Chemscore.Fitness>
18.3204

> <Gold.Chemscore.DG>
-19.7805

> <Gold.Chemscore.ZeroCoef>
-5.4800

> <Gold.Chemscore.Hbond>
1.8434

> <Gold.Chemscore.Metal>
0.0000

> <Gold.Chemscore.Lipo>
111.2627

> <Gold.Chemscore.Internal_Hbond>
0.0000

> <Gold.Chemscore.DEClash>
0.0153

> <Gold.Chemscore.DEInternal>
1.4448

> <Gold.Chemscore.Rot>
1.9039

> <Gold.Chemscore.Internal.Correction>
   9.000000E+99

> <Gold.Chemscore.Hbonds>
donor molecule, donor type, donor heavy atom, donor atom, acceptor molecule, acceptor atom, score
      P1  H  6896  6907       L1    10  0.73
      P1  H  6931  6943       L1    15  0.78

> <Gold.Chemscore.Hbond.Weighted>
-6.1568

> <Gold.Chemscore.Metal.Weighted>
-0.0000

> <Gold.Chemscore.Lipo.Weighted>
-13.0177

> <Gold.Chemscore.Internal_Hbond.Weighted>
0.0000

> <Gold.Chemscore.DEClash.Weighted>
0.0153

> <Gold.Chemscore.DEInternal.Weighted>
1.4448

> <Gold.Chemscore.Rot.Weighted>
4.8740

> <Gold.Chemscore.Internal.Correction.Weighted>
   9.000000E+99

> <Gold.Protein.RotatedTorsions>
[ 6907 6896 6895 6894 ] final  -11.90 input  -60.11 | X-H torsion
[ 7974 7965 7964 7962 ] final  -11.51 input  175.53 | X-H torsion
[ 8008 7997 7996 7995 ] final    4.17 input   59.86 | X-H torsion
[ 10167 10162 10161 10158 ] final   32.41 input  -65.29 | X-H torsion
[ 10718 10713 10712 10709 ] final  -93.24 input   66.30 | X-H torsion
[ 10763 10752 10751 10750 ] final   -5.69 input  -60.55 | X-H torsion
[ 11005 11000 10999 10996 ] final -159.74 input  -57.11 | X-H torsion

> <Gold.Protein.ActiveResidues>
 VAL166  LYS551  ARG553  GLY616  TRP617  ASP618  TYR619  PRO620  LYS621  CYS622 
 ASP623  PHE694  ASN695  SER759  ASP760  ASP761  ALA762  ILE779  LEU786  VAL792 
 PHE793  MET794  SER795  GLU796  ALA797  LYS798  CYS799  TRP800  GLU811  SER814 

> <Gold.Protein.RotatedAtoms>
  151.3789  135.0936  159.9489 H   0  0  0  0  0  0  0  0  0  0  0  0  # atno 6907 bound_to 6896
  152.5114  133.9091  159.7489 H   0  0  0  0  0  0  0  0  0  0  0  0  # atno 6908 bound_to 6896
  150.9520  133.6483  159.2799 H   0  0  0  0  0  0  0  0  0  0  0  0  # atno 6909 bound_to 6896
  146.2185  140.2922  142.8369 H   0  0  0  0  0  0  0  0  0  0  0  0  # atno 7974 bound_to 7965
  154.7126  140.2695  155.6615 H   0  0  0  0  0  0  0  0  0  0  0  0  # atno 8008 bound_to 7997
  156.2800  140.2750  156.1696 H   0  0  0  0  0  0  0  0  0  0  0  0  # atno 8009 bound_to 7997
  155.0614  140.0371  157.2568 H   0  0  0  0  0  0  0  0  0  0  0  0  # atno 8010 bound_to 7997
  140.4501  144.1061  150.6190 H   0  0  0  0  0  0  0  0  0  0  0  0  # atno 10167 bound_to 10162
  156.0011  130.5019  150.5747 H   0  0  0  0  0  0  0  0  0  0  0  0  # atno 10718 bound_to 10713
  153.4021  135.7005  153.6419 H   0  0  0  0  0  0  0  0  0  0  0  0  # atno 10763 bound_to 10752
  153.4948  135.3665  155.2510 H   0  0  0  0  0  0  0  0  0  0  0  0  # atno 10764 bound_to 10752
  154.8711  135.4097  154.3357 H   0  0  0  0  0  0  0  0  0  0  0  0  # atno 10765 bound_to 10752
  140.6392  134.4569  157.5233 H   0  0  0  0  0  0  0  0  0  0  0  0  # atno 11005 bound_to 11000
  144.9119  140.7767  143.5802 LP  0  0  0  0  0  0  0  0  0  0  0  0  # atno 17320 bound_to 7965
  145.2853  139.1903  143.4769 LP  0  0  0  0  0  0  0  0  0  0  0  0  # atno 17321 bound_to 7965
  140.4217  143.2608  151.9706 LP  0  0  0  0  0  0  0  0  0  0  0  0  # atno 17342 bound_to 10162
  139.4796  144.5824  151.7910 LP  0  0  0  0  0  0  0  0  0  0  0  0  # atno 17343 bound_to 10162
  157.3636  131.0754  151.1616 LP  0  0  0  0  0  0  0  0  0  0  0  0  # atno 17370 bound_to 10713
  157.2392  130.6561  149.5882 LP  0  0  0  0  0  0  0  0  0  0  0  0  # atno 17371 bound_to 10713
  139.9086  134.8393  156.1611 LP  0  0  0  0  0  0  0  0  0  0  0  0  # atno 17394 bound_to 11000
  141.0619  133.6838  156.1969 LP  0  0  0  0  0  0  0  0  0  0  0  0  # atno 17395 bound_to 11000

$$$$
