#       Name:                AV-unprocessed.smi:2253
#       Creating user name   scv26
#       Creation time:       Fri Mar 27 12:32:34 2020


#       File generated by GOLD software.
#

@<TRIPOS>MOLECULE
AV-unprocessed.smi:2253
    55    57     1
SMALL
NO_CHARGES


@<TRIPOS>ATOM
      1 ****        -6.7446  -2.8103  -0.3140 C.3            1 S1                 0.0000
      2 ****        -5.3228  -2.5344  -0.1623 N.3            1 S1                 0.0000
      3 ****        -5.1194  -1.6665   0.9947 C.3            1 S1                 0.0000
      4 ****        -3.6170  -1.4181   1.2131 C.3            1 S1                 0.0000
      5 ****        -2.9496  -0.7677  -0.0238 C.3            1 S1                 0.0000
      6 ****        -1.4636  -0.6034   0.0989 N.4            1 S1                 1.0000
      7 ****        -0.9779  -0.2178   1.4566 C.3            1 S1                 0.0000
      8 ****         0.5586  -0.1857   1.5282 C.3            1 S1                 0.0000
      9 ****         1.1543   0.7528   0.4714 C.3            1 S1                 0.0000
     10 ****         2.6122   0.6898   0.5167 N.am           1 S1                 0.0000
     11 ****         3.4407   1.6404   0.0603 C.2            1 S1                 0.0000
     12 ****         3.0486   2.6866  -0.4558 O.2            1 S1                 0.0000
     13 ****         4.7254   1.2976   0.2563 N.am           1 S1                 0.0000
     14 ****         5.9067   2.0146  -0.0800 C.ar           1 S1                 0.0000
     15 ****         5.9606   3.0710  -1.0218 C.ar           1 S1                 0.0000
     16 ****         7.2028   3.6878  -1.2736 C.ar           1 S1                 0.0000
     17 ****         8.3528   3.3205  -0.6695 N.ar           1 S1                 0.0000
     18 ****         8.3000   2.3047   0.2178 C.ar           1 S1                 0.0000
     19 ****         7.1107   1.6215   0.5420 C.ar           1 S1                 0.0000
     20 ****         7.1287   0.6063   1.4395 F              1 S1                 0.0000
     21 ****         0.6281   0.3438  -0.9130 C.3            1 S1                 0.0000
     22 ****        -0.9083   0.3186  -0.9340 C.3            1 S1                 0.0000
     23 ****        -3.3125  -1.6342  -1.2527 C.3            1 S1                 0.0000
     24 ****        -4.8283  -1.8705  -1.3655 C.3            1 S1                 0.0000
     25 ****        -7.1326  -3.3154   0.5712 H              1 S1                 0.0000
     26 ****        -6.9186  -3.4634  -1.1699 H              1 S1                 0.0000
     27 ****        -7.3161  -1.8929  -0.4623 H              1 S1                 0.0000
     28 ****        -5.6455  -0.7204   0.8567 H              1 S1                 0.0000
     29 ****        -5.5404  -2.1406   1.8823 H              1 S1                 0.0000
     30 ****        -3.5177  -0.7756   2.0881 H              1 S1                 0.0000
     31 ****        -3.1259  -2.3626   1.4531 H              1 S1                 0.0000
     32 ****        -3.3894   0.2235  -0.1480 H              1 S1                 0.0000
     33 ****        -1.3914   0.7541   1.7309 H              1 S1                 0.0000
     34 ****        -1.3076  -0.9339   2.2078 H              1 S1                 0.0000
     35 ****         0.8722   0.1280   2.5247 H              1 S1                 0.0000
     36 ****         0.9459  -1.1962   1.3874 H              1 S1                 0.0000
     37 ****         0.8319   1.7723   0.6934 H              1 S1                 0.0000
     38 ****         3.0204  -0.1355   0.9315 H              1 S1                 0.0000
     39 ****         4.8811   0.4346   0.7567 H              1 S1                 0.0000
     40 ****         5.0906   3.4119  -1.5606 H              1 S1                 0.0000
     41 ****         7.2753   4.4959  -1.9863 H              1 S1                 0.0000
     42 ****         9.2344   2.0263   0.6822 H              1 S1                 0.0000
     43 ****         0.9908   1.0363  -1.6737 H              1 S1                 0.0000
     44 ****         1.0123  -0.6408  -1.1838 H              1 S1                 0.0000
     45 ****        -1.2222   0.0249  -1.9334 H              1 S1                 0.0000
     46 ****        -1.2981   1.3245  -0.7695 H              1 S1                 0.0000
     47 ****        -2.9814  -1.1697  -2.1795 H              1 S1                 0.0000
     48 ****        -2.8000  -2.5956  -1.1918 H              1 S1                 0.0000
     49 ****        -5.0330  -2.4964  -2.2351 H              1 S1                 0.0000
     50 ****        -5.3511  -0.9251  -1.5210 H              1 S1                 0.0000
     51 ****        -1.0692  -1.5155  -0.0823 H              1 S1                 0.0000
     52 ****        -4.8257  -3.3914  -0.0268 LP             1 S1                 0.0000
     53 ****         2.0684   2.8604  -0.5512 LP             1 S1                 0.0000
     54 ****         3.7101   3.3629  -0.7797 LP             1 S1                 0.0000
     55 ****         9.2146   3.7853  -0.8725 LP             1 S1                 0.0000
@<TRIPOS>BOND
    1    1    2 1     
    2    1   25 1     
    3    1   26 1     
    4    1   27 1     
    5    2   24 1     
    6    2    3 1     
    7    3    4 1     
    8    3   28 1     
    9    3   29 1     
   10    4    5 1     
   11    4   30 1     
   12    4   31 1     
   13    5    6 1     
   14    5   23 1     
   15    5   32 1     
   16    6   22 1     
   17    6    7 1     
   18    6   51 1     
   19    7    8 1     
   20    7   33 1     
   21    7   34 1     
   22    8    9 1     
   23    8   35 1     
   24    8   36 1     
   25    9   10 1     
   26    9   21 1     
   27    9   37 1     
   28   10   11 am    
   29   10   38 1     
   30   11   12 2     
   31   11   13 am    
   32   13   14 1     
   33   13   39 1     
   34   14   19 ar    
   35   14   15 ar    
   36   15   16 ar    
   37   15   40 1     
   38   16   17 ar    
   39   16   41 1     
   40   17   18 ar    
   41   18   19 ar    
   42   18   42 1     
   43   19   20 1     
   44   21   22 1     
   45   21   43 1     
   46   21   44 1     
   47   22   45 1     
   48   22   46 1     
   49   23   24 1     
   50   23   47 1     
   51   23   48 1     
   52   24   49 1     
   53   24   50 1     
   54    2   52 1     
   55   12   53 1     
   56   12   54 1     
   57   17   55 1     
@<TRIPOS>SUBSTRUCTURE
      1 S1             1
@<TRIPOS>SET
LONE_PAIRS      STATIC     ATOMS    <user>   **** ""
4 52 53 54 55
DONOR_HYDROGENS      STATIC     ATOMS    <user>   **** ""
3 51 38 39
ATOM$BLUE        STATIC     ATOMS    COLORGROUP SYSTEM
4 52 53 54 55
ATOM$RED        STATIC     ATOMS    COLORGROUP SYSTEM
3 51 38 39
