AV-unprocessed.smi:2131|AV-procd|sdf|8687|dock3
  -GOLD-   2272011443D 1   1.00000     0.00000
 Structure written by MMmdl.
 40 42  0  0  0  0  0  0  0  0  1 V2000
  143.0921  146.3447  153.4755 N   0  0  0  0  0  0  0  0  0  0  0  0
  143.1158  145.5405  154.3071 C   0  0  0  0  0  0  0  0  0  0  0  0
  143.1457  144.5181  155.3641 C   0  0  0  0  0  0  0  0  0  0  0  0
  144.2787  143.5319  155.1702 C   0  0  0  0  0  0  0  0  0  0  0  0
  144.4988  142.5092  156.1132 C   0  0  0  0  0  0  0  0  0  0  0  0
  145.5519  141.5928  155.9279 C   0  0  0  0  0  0  0  0  0  0  0  0
  146.3991  141.6822  154.8041 C   0  0  0  0  0  0  0  0  0  0  0  0
  147.4022  140.7422  154.6996 O   0  0  0  0  0  0  0  0  0  0  0  0
  148.6063  141.1140  154.0410 C   0  0  0  0  0  0  0  0  0  0  0  0
  149.7686  141.0584  155.0434 C   0  0  2  0  0  0  0  0  0  0  0  0
  150.4301  139.8178  154.8902 O   0  0  0  0  0  0  0  0  0  0  0  0
  149.2986  141.2220  156.5020 C   0  0  0  0  0  0  0  0  0  0  0  0
  150.3984  141.1706  157.4493 N   0  0  0  0  0  0  0  0  0  0  0  0
  150.9668  140.0656  157.9687 C   0  0  0  0  0  0  0  0  0  0  0  0
  151.9693  140.2404  158.8248 N   0  0  0  0  0  0  0  0  0  0  0  0
  152.0643  141.6209  158.8658 C   0  0  0  0  0  0  0  0  0  0  0  0
  152.9395  142.4589  159.5934 C   0  0  0  0  0  0  0  0  0  0  0  0
  152.8478  143.8615  159.4761 C   0  0  0  0  0  0  0  0  0  0  0  0
  151.8814  144.4469  158.6323 C   0  0  0  0  0  0  0  0  0  0  0  0
  150.9983  143.6326  157.8974 C   0  0  0  0  0  0  0  0  0  0  0  0
  151.0942  142.2335  158.0160 C   0  0  0  0  0  0  0  0  0  0  0  0
  146.1744  142.7175  153.8616 C   0  0  0  0  0  0  0  0  0  0  0  0
  145.1204  143.6337  154.0452 C   0  0  0  0  0  0  0  0  0  0  0  0
  143.2437  145.0193  156.3274 H   0  0  0  0  0  0  0  0  0  0  0  0
  142.1900  143.9932  155.3637 H   0  0  0  0  0  0  0  0  0  0  0  0
  143.8609  142.4244  156.9807 H   0  0  0  0  0  0  0  0  0  0  0  0
  145.7106  140.8112  156.6563 H   0  0  0  0  0  0  0  0  0  0  0  0
  148.8081  140.4496  153.1988 H   0  0  0  0  0  0  0  0  0  0  0  0
  148.5055  142.1301  153.6549 H   0  0  0  0  0  0  0  0  0  0  0  0
  150.4852  141.8439  154.7998 H   0  0  0  0  0  0  0  0  0  0  0  0
  149.8722  139.1367  155.2341 H   0  0  0  0  0  0  0  0  0  0  0  0
  148.7872  142.1772  156.6289 H   0  0  0  0  0  0  0  0  0  0  0  0
  148.5757  140.4477  156.7617 H   0  0  0  0  0  0  0  0  0  0  0  0
  150.6231  139.0763  157.7034 H   0  0  0  0  0  0  0  0  0  0  0  0
  153.6831  142.0221  160.2436 H   0  0  0  0  0  0  0  0  0  0  0  0
  153.5221  144.4919  160.0370 H   0  0  0  0  0  0  0  0  0  0  0  0
  151.8181  145.5220  158.5501 H   0  0  0  0  0  0  0  0  0  0  0  0
  150.2555  144.0779  157.2523 H   0  0  0  0  0  0  0  0  0  0  0  0
  146.7972  142.8315  152.9876 H   0  0  0  0  0  0  0  0  0  0  0  0
  144.9596  144.4170  153.3191 H   0  0  0  0  0  0  0  0  0  0  0  0
  1  2  3  0  0  0  0
  2  3  1  0  0  0  0
  3  4  1  0  0  0  0
  3 24  1  0  0  0  0
  3 25  1  0  0  0  0
  4 23  1  0  0  0  0
  4  5  2  0  0  0  0
  5  6  1  0  0  0  0
  5 26  1  0  0  0  0
  6  7  2  0  0  0  0
  6 27  1  0  0  0  0
  7  8  1  0  0  0  0
  7 22  1  0  0  0  0
  8  9  1  0  0  0  0
  9 10  1  0  0  0  0
  9 28  1  0  0  0  0
  9 29  1  0  0  0  0
 10 11  1  0  0  0  0
 10 12  1  0  0  0  0
 10 30  1  0  0  0  0
 11 31  1  0  0  0  0
 12 13  1  0  0  0  0
 12 32  1  0  0  0  0
 12 33  1  0  0  0  0
 13 21  1  0  0  0  0
 13 14  1  0  0  0  0
 14 15  2  0  0  0  0
 14 34  1  0  0  0  0
 15 16  1  0  0  0  0
 16 21  2  0  0  0  0
 16 17  1  0  0  0  0
 17 18  2  0  0  0  0
 17 35  1  0  0  0  0
 18 19  1  0  0  0  0
 18 36  1  0  0  0  0
 19 20  2  0  0  0  0
 19 37  1  0  0  0  0
 20 21  1  0  0  0  0
 20 38  1  0  0  0  0
 22 23  2  0  0  0  0
 22 39  1  0  0  0  0
 23 40  1  0  0  0  0
M  END
> <s_m_source_file>
AV-unprocessed.smi

> <i_m_source_file_index>
2131

> <i_lp_mmshare_version>
43012

> <i_f3d_flags>
0

> <s_epik_input>
TiNDW0NIMl1jMVtjSF1bY0hdYyhbY0hdW2NIXTEpT1tDSDJdW0NASF0oW09IXSlbQ0gyXW4oW2NIXW4yKWMoYzIzKVtjSF1bY0hdW2NIXVtjSF0z

> <s_epik_cmdline>
J2VwaWtfcHl0aG9uJywgJy1waCcsICc3LjAnLCAnLXRuJywgJzgnLCAnLW1hJywgJzIwMCcsICctbWV0YWxfYmluZGluZycsICctaW1hZScsICc8aW5maWxlLm1hZT4nLCAnLW9tYWUnLCAnPG91dGZpbGUubWFlPic=

> <r_lp_tautomer_probability>
1

> <r_epik_Ionization_Penalty>
0.0609831

> <r_epik_Ionization_Penalty_Charging>
0

> <r_epik_Ionization_Penalty_Neutral>
0.0609831

> <r_epik_State_Penalty>
0.0529032

> <r_epik_Charging_Adjusted_Penalty>
0.0529032

> <i_epik_Tot_Q>
0

> <i_epik_Tot_abs_Q>
0

> <r_epik_Metal_State_Penalty>
5.53344e-05

> <b_epik_Metal_Only>
0

> <s_lp_Force_Field>
OPLS_2005

> <r_lp_Energy>
15.4123

> <b_lp_Chiralities_Consistent>
1

> <s_lp_Variant>
AV-unprocessed.smi:2131-1

> <Gold.Version>
5.8.1

> <Gold.Id.Protein>
6NUR|6NUR_protein|mol2

> <Gold.PLP.Fitness>
48.0183

> <Gold.PLP.PLP>
-51.1194

> <Gold.PLP.part.hbond>
-2.3154

> <Gold.PLP.part.metal>
0.0000

> <Gold.PLP.part.buried>
-6.7271

> <Gold.PLP.part.nonpolar>
-42.2755

> <Gold.PLP.part.repulsive>
0.1931

> <Gold.PLP.ligand.clash>
0.0000

> <Gold.PLP.ligand.torsion>
1.5904

> <Gold.PLP.Chemscore.Hbond>
0.0000

> <Gold.PLP.Chemscore.CHOScore>
0.0000

> <Gold.PLP.Chemscore.Metal>
0.0000

> <Gold.Chemscore.Hbonds>
donor molecule, donor type, donor heavy atom, donor atom, acceptor molecule, acceptor atom, score
      P1  H  7989  7998       L1    11  0.16

> <Gold.PLP.Chemscore.Internal.Correction>
0.0796

> <Gold.Rescore>
     Score         DG    S(hbond)    S(metal)    S(lipo)     H(rot)  DE(clash)    DE(int)     intcor
     10.52     -12.18       0.01        0.00     116.54       2.72       0.14       1.52       ----

> <Gold.Chemscore.Fitness>
10.5240

> <Gold.Chemscore.DG>
-12.1797

> <Gold.Chemscore.ZeroCoef>
-5.4800

> <Gold.Chemscore.Hbond>
0.0070

> <Gold.Chemscore.Metal>
0.0000

> <Gold.Chemscore.Lipo>
116.5408

> <Gold.Chemscore.Internal_Hbond>
0.0000

> <Gold.Chemscore.DEClash>
0.1405

> <Gold.Chemscore.DEInternal>
1.5151

> <Gold.Chemscore.Rot>
2.7183

> <Gold.Chemscore.Internal.Correction>
   9.000000E+99

> <Gold.Chemscore.Hbond.Weighted>
-0.0233

> <Gold.Chemscore.Metal.Weighted>
-0.0000

> <Gold.Chemscore.Lipo.Weighted>
-13.6353

> <Gold.Chemscore.Internal_Hbond.Weighted>
0.0000

> <Gold.Chemscore.DEClash.Weighted>
0.1405

> <Gold.Chemscore.DEInternal.Weighted>
1.5151

> <Gold.Chemscore.Rot.Weighted>
6.9588

> <Gold.Chemscore.Internal.Correction.Weighted>
   9.000000E+99

> <Gold.Protein.RotatedTorsions>
[ 6907 6896 6895 6894 ] final   68.21 input  -60.11 | X-H torsion
[ 7974 7965 7964 7962 ] final  -16.95 input  175.53 | X-H torsion
[ 8008 7997 7996 7995 ] final   37.41 input   59.86 | X-H torsion
[ 10167 10162 10161 10158 ] final  176.93 input  -65.29 | X-H torsion
[ 10718 10713 10712 10709 ] final  -77.80 input   66.30 | X-H torsion
[ 10763 10752 10751 10750 ] final  -96.95 input  -60.55 | X-H torsion
[ 11005 11000 10999 10996 ] final  103.85 input  -57.11 | X-H torsion

> <Gold.Protein.ActiveResidues>
 VAL166  LYS551  ARG553  GLY616  TRP617  ASP618  TYR619  PRO620  LYS621  CYS622 
 ASP623  PHE694  ASN695  SER759  ASP760  ASP761  ALA762  ILE779  LEU786  VAL792 
 PHE793  MET794  SER795  GLU796  ALA797  LYS798  CYS799  TRP800  GLU811  SER814 

> <Gold.Protein.RotatedAtoms>
  152.4605  134.5195  159.9778 H   0  0  0  0  0  0  0  0  0  0  0  0  # atno 6907 bound_to 6896
  151.5245  133.3454  159.2915 H   0  0  0  0  0  0  0  0  0  0  0  0  # atno 6908 bound_to 6896
  150.8566  134.7936  159.7112 H   0  0  0  0  0  0  0  0  0  0  0  0  # atno 6909 bound_to 6896
  146.1964  140.3710  142.8439 H   0  0  0  0  0  0  0  0  0  0  0  0  # atno 7974 bound_to 7965
  155.2034  140.3317  155.4340 H   0  0  0  0  0  0  0  0  0  0  0  0  # atno 8008 bound_to 7997
  156.2398  140.1890  156.7069 H   0  0  0  0  0  0  0  0  0  0  0  0  # atno 8009 bound_to 7997
  154.6126  140.0607  156.9499 H   0  0  0  0  0  0  0  0  0  0  0  0  # atno 8010 bound_to 7997
  139.5233  144.2858  152.0507 H   0  0  0  0  0  0  0  0  0  0  0  0  # atno 10167 bound_to 10162
  156.0135  130.4501  150.3400 H   0  0  0  0  0  0  0  0  0  0  0  0  # atno 10718 bound_to 10713
  154.7285  135.5064  153.8925 H   0  0  0  0  0  0  0  0  0  0  0  0  # atno 10763 bound_to 10752
  153.0927  135.6663  153.9831 H   0  0  0  0  0  0  0  0  0  0  0  0  # atno 10764 bound_to 10752
  153.9638  135.3045  155.3411 H   0  0  0  0  0  0  0  0  0  0  0  0  # atno 10765 bound_to 10752
  139.8787  134.9278  156.5272 H   0  0  0  0  0  0  0  0  0  0  0  0  # atno 11005 bound_to 11000
  144.8589  140.7110  143.6120 LP  0  0  0  0  0  0  0  0  0  0  0  0  # atno 17320 bound_to 7965
  145.3630  139.1677  143.4373 LP  0  0  0  0  0  0  0  0  0  0  0  0  # atno 17321 bound_to 7965
  140.2311  144.4367  150.6299 LP  0  0  0  0  0  0  0  0  0  0  0  0  # atno 17342 bound_to 10162
  140.6354  143.2194  151.6405 LP  0  0  0  0  0  0  0  0  0  0  0  0  # atno 17343 bound_to 10162
  157.1496  131.0317  151.2891 LP  0  0  0  0  0  0  0  0  0  0  0  0  # atno 17370 bound_to 10713
  157.4404  130.7540  149.7064 LP  0  0  0  0  0  0  0  0  0  0  0  0  # atno 17371 bound_to 10713
  140.8407  133.8207  155.9072 LP  0  0  0  0  0  0  0  0  0  0  0  0  # atno 17394 bound_to 11000
  140.9240  134.2106  157.4908 LP  0  0  0  0  0  0  0  0  0  0  0  0  # atno 17395 bound_to 11000

$$$$
