AV-unprocessed.smi:2189|AV-procd|sdf|8884|dock7
  -GOLD-   2272012 83D 1   1.00000     0.00000
 Structure written by MMmdl.
 39 41  0  0  0  0  0  0  0  0  1 V2000
  152.2635  140.1920  155.2997 O   0  0  0  0  0  0  0  0  0  0  0  0
  151.4124  140.9035  155.8360 C   0  0  0  0  0  0  0  0  0  0  0  0
  150.1502  140.9637  155.3687 N   0  0  0  0  0  0  0  0  0  0  0  0
  149.6305  140.2537  154.2023 C   0  0  0  0  0  0  0  0  0  0  0  0
  148.0902  140.2266  154.1720 C   0  0  0  0  0  0  0  0  0  0  0  0
  147.4512  141.5882  154.3865 C   0  0  0  0  0  0  0  0  0  0  0  0
  147.6319  142.6279  153.4487 C   0  0  0  0  0  0  0  0  0  0  0  0
  146.9956  143.8618  153.6851 C   0  0  0  0  0  0  0  0  0  0  0  0
  146.2113  144.0095  154.8452 C   0  0  0  0  0  0  0  0  0  0  0  0
  146.0965  142.9113  155.7208 C   0  0  0  0  0  0  0  0  0  0  0  0
  146.7015  141.7238  155.5035 N   0  0  0  0  0  0  0  0  0  0  0  0
  151.6465  141.7604  157.0122 C   0  0  0  0  0  0  0  0  0  0  0  0
  151.1452  143.0243  157.0182 C   0  0  0  0  0  0  0  0  0  0  0  0
  151.3228  143.9063  158.1450 C   0  0  0  0  0  0  0  0  0  0  0  0
  152.0360  143.4616  159.1850 C   0  0  0  0  0  0  0  0  0  0  0  0
  152.6135  142.1937  159.2285 N   0  0  0  0  0  0  0  0  0  0  0  0
  153.4594  141.8912  160.3781 C   0  0  0  0  0  0  0  0  0  0  0  0
  153.2211  140.4688  160.8506 C   0  0  0  0  0  0  0  0  0  0  0  0
  153.7436  139.3893  159.4703 S   0  0  0  0  0  0  0  0  0  0  0  0
  155.1679  139.6458  159.2046 O   0  0  0  0  0  0  0  0  0  0  0  0
  153.3001  138.0193  159.7692 O   0  0  0  0  0  0  0  0  0  0  0  0
  152.8266  140.0260  158.2215 N   0  0  0  0  0  0  0  0  0  0  0  0
  152.4086  141.2594  158.1744 C   0  0  0  0  0  0  0  0  0  0  0  0
  149.4996  141.5600  155.8590 H   0  0  0  0  0  0  0  0  0  0  0  0
  150.0217  140.6818  153.2778 H   0  0  0  0  0  0  0  0  0  0  0  0
  150.0071  139.2316  154.2440 H   0  0  0  0  0  0  0  0  0  0  0  0
  147.7535  139.8312  153.2127 H   0  0  0  0  0  0  0  0  0  0  0  0
  147.7187  139.5335  154.9279 H   0  0  0  0  0  0  0  0  0  0  0  0
  148.2333  142.4812  152.5636 H   0  0  0  0  0  0  0  0  0  0  0  0
  147.1058  144.6793  152.9882 H   0  0  0  0  0  0  0  0  0  0  0  0
  145.7084  144.9409  155.0591 H   0  0  0  0  0  0  0  0  0  0  0  0
  145.5034  142.9889  156.6201 H   0  0  0  0  0  0  0  0  0  0  0  0
  150.6008  143.4161  156.1707 H   0  0  0  0  0  0  0  0  0  0  0  0
  150.8900  144.8959  158.1501 H   0  0  0  0  0  0  0  0  0  0  0  0
  152.2028  144.0755  160.0584 H   0  0  0  0  0  0  0  0  0  0  0  0
  154.5046  142.0421  160.1065 H   0  0  0  0  0  0  0  0  0  0  0  0
  153.2499  142.5741  161.2020 H   0  0  0  0  0  0  0  0  0  0  0  0
  153.8190  140.2280  161.7294 H   0  0  0  0  0  0  0  0  0  0  0  0
  152.1720  140.2816  161.0817 H   0  0  0  0  0  0  0  0  0  0  0  0
  1  2  2  0  0  0  0
  2  3  1  0  0  0  0
  2 12  1  0  0  0  0
  3  4  1  0  0  0  0
  3 24  1  0  0  0  0
  4  5  1  0  0  0  0
  4 25  1  0  0  0  0
  4 26  1  0  0  0  0
  5  6  1  0  0  0  0
  5 27  1  0  0  0  0
  5 28  1  0  0  0  0
  6 11  1  0  0  0  0
  6  7  2  0  0  0  0
  7  8  1  0  0  0  0
  7 29  1  0  0  0  0
  8  9  2  0  0  0  0
  8 30  1  0  0  0  0
  9 10  1  0  0  0  0
  9 31  1  0  0  0  0
 10 11  2  0  0  0  0
 10 32  1  0  0  0  0
 12 23  1  0  0  0  0
 12 13  2  0  0  0  0
 13 14  1  0  0  0  0
 13 33  1  0  0  0  0
 14 15  2  0  0  0  0
 14 34  1  0  0  0  0
 15 16  1  0  0  0  0
 15 35  1  0  0  0  0
 16 23  1  0  0  0  0
 16 17  1  0  0  0  0
 17 18  1  0  0  0  0
 17 36  1  0  0  0  0
 17 37  1  0  0  0  0
 18 19  1  0  0  0  0
 18 38  1  0  0  0  0
 18 39  1  0  0  0  0
 19 20  2  0  0  0  0
 19 21  2  0  0  0  0
 19 22  1  0  0  0  0
 22 23  2  0  0  0  0
M  END
> <s_m_source_file>
AV-unprocessed.smi

> <i_m_source_file_index>
2189

> <i_lp_mmshare_version>
43012

> <i_f3d_flags>
0

> <s_epik_input>
W0NIMl0xW0NIMl1TKD1PKSg9TylOPUMoTjEyKUMoPVtDSF1bQ0hdPVtDSF0yKUMoPU8pW05IXVtDSDJdW0NIMl1jM1tjSF1bY0hdW2NIXVtjSF1uMw==

> <s_epik_cmdline>
J2VwaWtfcHl0aG9uJywgJy1waCcsICc3LjAnLCAnLXRuJywgJzgnLCAnLW1hJywgJzIwMCcsICctbWV0YWxfYmluZGluZycsICctaW1hZScsICc8aW5maWxlLm1hZT4nLCAnLW9tYWUnLCAnPG91dGZpbGUubWFlPic=

> <r_epik_Ionization_Penalty>
0.0177355

> <r_epik_Ionization_Penalty_Charging>
8.06468e-09

> <r_epik_Ionization_Penalty_Neutral>
0.0177355

> <r_epik_State_Penalty>
0.0140338

> <r_epik_Charging_Adjusted_Penalty>
0.0140338

> <i_epik_Tot_Q>
0

> <i_epik_Tot_abs_Q>
0

> <r_epik_Metal_State_Penalty>
0.0535636

> <b_epik_Metal_Only>
0

> <s_lp_Force_Field>
OPLS_2005

> <r_lp_Energy>
27.3768

> <b_lp_Chiralities_Consistent>
1

> <s_lp_Variant>
AV-unprocessed.smi:2189-1

> <Gold.Version>
5.8.1

> <Gold.Id.Protein>
6NUR|6NUR_protein|mol2

> <Gold.PLP.Fitness>
44.2935

> <Gold.PLP.PLP>
-41.9326

> <Gold.PLP.part.hbond>
-3.3123

> <Gold.PLP.part.metal>
0.0000

> <Gold.PLP.part.buried>
-5.0410

> <Gold.PLP.part.nonpolar>
-32.1919

> <Gold.PLP.part.repulsive>
0.1468

> <Gold.PLP.ligand.clash>
0.0000

> <Gold.PLP.ligand.torsion>
0.8753

> <Gold.PLP.Chemscore.Hbond>
1.3104

> <Gold.PLP.Chemscore.CHOScore>
0.0000

> <Gold.PLP.Chemscore.Metal>
0.0000

> <Gold.Chemscore.Hbonds>
donor molecule, donor type, donor heavy atom, donor atom, acceptor molecule, acceptor atom, score
      P1  H  7989  7998       L1     1  0.29
      P1  H  7997  8009       L1    20  0.06
      P1  H  7997  8010       L1    22  0.43

> <Gold.PLP.Chemscore.Internal.Correction>
0.1803

> <Gold.Rescore>
     Score         DG    S(hbond)    S(metal)    S(lipo)     H(rot)  DE(clash)    DE(int)     intcor
     15.30     -17.54       1.44        0.00      94.08       1.47       0.29       1.95       ----

> <Gold.Chemscore.Fitness>
15.3029

> <Gold.Chemscore.DG>
-17.5447

> <Gold.Chemscore.ZeroCoef>
-5.4800

> <Gold.Chemscore.Hbond>
1.4415

> <Gold.Chemscore.Metal>
0.0000

> <Gold.Chemscore.Lipo>
94.0829

> <Gold.Chemscore.Internal_Hbond>
0.0000

> <Gold.Chemscore.DEClash>
0.2880

> <Gold.Chemscore.DEInternal>
1.9538

> <Gold.Chemscore.Rot>
1.4679

> <Gold.Chemscore.Internal.Correction>
   9.000000E+99

> <Gold.Chemscore.Hbonds>
donor molecule, donor type, donor heavy atom, donor atom, acceptor molecule, acceptor atom, score
      P1  H  7989  7998       L1     1  0.01
      P1  H  7997  8009       L1    20  0.06
      P1  H  7997  8010       L1    22  0.03

> <Gold.Chemscore.Hbond.Weighted>
-4.8147

> <Gold.Chemscore.Metal.Weighted>
-0.0000

> <Gold.Chemscore.Lipo.Weighted>
-11.0077

> <Gold.Chemscore.Internal_Hbond.Weighted>
0.0000

> <Gold.Chemscore.DEClash.Weighted>
0.2880

> <Gold.Chemscore.DEInternal.Weighted>
1.9538

> <Gold.Chemscore.Rot.Weighted>
3.7578

> <Gold.Chemscore.Internal.Correction.Weighted>
   9.000000E+99

> <Gold.Protein.RotatedTorsions>
[ 6907 6896 6895 6894 ] final -110.13 input  -60.11 | X-H torsion
[ 7974 7965 7964 7962 ] final  146.94 input  175.53 | X-H torsion
[ 8008 7997 7996 7995 ] final   60.62 input   59.86 | X-H torsion
[ 10167 10162 10161 10158 ] final  -93.29 input  -65.29 | X-H torsion
[ 10718 10713 10712 10709 ] final  104.53 input   66.30 | X-H torsion
[ 10763 10752 10751 10750 ] final   99.80 input  -60.55 | X-H torsion
[ 11005 11000 10999 10996 ] final  123.53 input  -57.11 | X-H torsion

> <Gold.Protein.ActiveResidues>
 VAL166  LYS551  ARG553  GLY616  TRP617  ASP618  TYR619  PRO620  LYS621  CYS622 
 ASP623  PHE694  ASN695  SER759  ASP760  ASP761  ALA762  ILE779  LEU786  VAL792 
 PHE793  MET794  SER795  GLU796  ALA797  LYS798  CYS799  TRP800  GLU811  SER814 

> <Gold.Protein.RotatedAtoms>
  150.7605  133.9428  159.3461 H   0  0  0  0  0  0  0  0  0  0  0  0  # atno 6907 bound_to 6896
  151.7338  135.0867  160.0314 H   0  0  0  0  0  0  0  0  0  0  0  0  # atno 6908 bound_to 6896
  152.3573  133.6215  159.6024 H   0  0  0  0  0  0  0  0  0  0  0  0  # atno 6909 bound_to 6896
  144.8631  139.5967  143.5921 H   0  0  0  0  0  0  0  0  0  0  0  0  # atno 7974 bound_to 7965
  155.5852  140.3492  155.4551 H   0  0  0  0  0  0  0  0  0  0  0  0  # atno 8008 bound_to 7997
  156.0343  140.1281  157.0249 H   0  0  0  0  0  0  0  0  0  0  0  0  # atno 8009 bound_to 7997
  154.4365  140.1037  156.6130 H   0  0  0  0  0  0  0  0  0  0  0  0  # atno 8010 bound_to 7997
  140.3261  143.3021  151.9993 H   0  0  0  0  0  0  0  0  0  0  0  0  # atno 10167 bound_to 10162
  157.6737  131.0806  150.5719 H   0  0  0  0  0  0  0  0  0  0  0  0  # atno 10718 bound_to 10713
  153.3060  135.4101  155.1294 H   0  0  0  0  0  0  0  0  0  0  0  0  # atno 10763 bound_to 10752
  154.8563  135.3553  154.5788 H   0  0  0  0  0  0  0  0  0  0  0  0  # atno 10764 bound_to 10752
  153.6215  135.7064  153.5367 H   0  0  0  0  0  0  0  0  0  0  0  0  # atno 10765 bound_to 10752
  139.9317  134.9641  156.8274 H   0  0  0  0  0  0  0  0  0  0  0  0  # atno 11005 bound_to 11000
  146.2875  139.7046  142.9184 LP  0  0  0  0  0  0  0  0  0  0  0  0  # atno 17320 bound_to 7965
  145.4274  141.0412  143.2930 LP  0  0  0  0  0  0  0  0  0  0  0  0  # atno 17321 bound_to 7965
  139.4865  144.6272  151.7141 LP  0  0  0  0  0  0  0  0  0  0  0  0  # atno 17342 bound_to 10162
  140.5439  144.0534  150.6099 LP  0  0  0  0  0  0  0  0  0  0  0  0  # atno 17343 bound_to 10162
  156.6021  130.4357  149.5893 LP  0  0  0  0  0  0  0  0  0  0  0  0  # atno 17370 bound_to 10713
  156.2498  130.6900  151.1634 LP  0  0  0  0  0  0  0  0  0  0  0  0  # atno 17371 bound_to 10713
  140.6184  134.0016  155.7607 LP  0  0  0  0  0  0  0  0  0  0  0  0  # atno 17394 bound_to 11000
  141.0909  133.9918  157.3238 LP  0  0  0  0  0  0  0  0  0  0  0  0  # atno 17395 bound_to 11000

$$$$
