AV-unprocessed.smi:701|AV-procd|sdf|3409|dock9
  -GOLD-   22720 0393D 1   1.00000     0.00000
 Structure written by MMmdl.
 49 51  0  0  0  0  0  0  0  0  1 V2000
  150.9930  142.5360  157.1007 C   0  0  0  0  0  0  0  0  0  0  0  0
  151.1915  141.3905  156.0990 C   0  0  0  0  0  0  0  0  0  0  0  0
  150.1079  141.2653  155.1876 O   0  0  0  0  0  0  0  0  0  0  0  0
  148.9420  140.6566  155.7244 C   0  0  1  0  0  0  0  0  0  0  0  0
  147.6704  140.9455  154.9209 C   0  0  0  0  0  0  0  0  0  0  0  0
  147.2777  139.5019  155.2260 C   0  0  1  0  0  0  0  0  0  0  0  0
  146.5894  138.8616  154.1108 N   0  0  0  0  0  0  0  0  0  0  0  0
  146.5186  137.5360  153.9240 C   0  0  0  0  0  0  0  0  0  0  0  0
  147.0387  136.7208  154.6870 O   0  0  0  0  0  0  0  0  0  0  0  0
  145.7694  137.0701  152.6679 C   0  0  0  0  0  0  0  0  0  0  0  0
  144.5075  136.3821  152.9761 N   0  0  0  0  0  0  0  0  0  0  0  0
  143.2920  136.9824  152.6798 C   0  0  0  0  0  0  0  0  0  0  0  0
  142.0941  136.4005  152.9244 C   0  0  0  0  0  0  0  0  0  0  0  0
  142.0270  135.0744  153.5294 C   0  0  0  0  0  0  0  0  0  0  0  0
  140.9918  134.4659  153.7908 O   0  0  0  0  0  0  0  0  0  0  0  0
  143.2709  134.5028  153.8103 N   0  0  0  0  0  0  0  0  0  0  0  0
  144.5088  135.0959  153.5586 C   0  0  0  0  0  0  0  0  0  0  0  0
  145.5483  134.5011  153.8409 O   0  0  0  0  0  0  0  0  0  0  0  0
  148.7866  139.1543  155.3552 C   0  0  0  0  0  0  0  0  0  0  0  0
  149.5004  138.6645  154.0675 C   0  0  0  0  0  0  0  0  0  0  0  0
  151.0151  138.4363  154.2380 C   0  0  0  0  0  0  0  0  0  0  0  0
  151.3173  137.4970  155.4111 C   0  0  0  0  0  0  0  0  0  0  0  0
  150.6295  137.9786  156.6933 C   0  0  0  0  0  0  0  0  0  0  0  0
  149.1192  138.1523  156.4723 C   0  0  0  0  0  0  0  0  0  0  0  0
  143.2747  133.5835  154.2278 H   0  0  0  0  0  0  0  0  0  0  0  0
  151.8889  142.6776  157.7055 H   0  0  0  0  0  0  0  0  0  0  0  0
  150.1694  142.3341  157.7844 H   0  0  0  0  0  0  0  0  0  0  0  0
  150.7860  143.4751  156.5871 H   0  0  0  0  0  0  0  0  0  0  0  0
  152.0874  141.5894  155.5105 H   0  0  0  0  0  0  0  0  0  0  0  0
  151.3672  140.4460  156.6159 H   0  0  0  0  0  0  0  0  0  0  0  0
  148.8125  140.8245  156.7966 H   0  0  0  0  0  0  0  0  0  0  0  0
  147.0094  141.6940  155.3575 H   0  0  0  0  0  0  0  0  0  0  0  0
  147.8632  141.1409  153.8646 H   0  0  0  0  0  0  0  0  0  0  0  0
  146.7449  139.4281  156.1774 H   0  0  0  0  0  0  0  0  0  0  0  0
  146.1430  139.4661  153.4363 H   0  0  0  0  0  0  0  0  0  0  0  0
  145.5846  137.9205  152.0081 H   0  0  0  0  0  0  0  0  0  0  0  0
  146.4317  136.4100  152.1061 H   0  0  0  0  0  0  0  0  0  0  0  0
  143.2939  137.9634  152.2261 H   0  0  0  0  0  0  0  0  0  0  0  0
  141.1807  136.9183  152.6701 H   0  0  0  0  0  0  0  0  0  0  0  0
  149.0563  137.7251  153.7359 H   0  0  0  0  0  0  0  0  0  0  0  0
  149.3441  139.3653  153.2470 H   0  0  0  0  0  0  0  0  0  0  0  0
  151.4309  138.0224  153.3190 H   0  0  0  0  0  0  0  0  0  0  0  0
  151.5256  139.3856  154.3960 H   0  0  0  0  0  0  0  0  0  0  0  0
  150.9704  136.4915  155.1704 H   0  0  0  0  0  0  0  0  0  0  0  0
  152.3942  137.4248  155.5658 H   0  0  0  0  0  0  0  0  0  0  0  0
  150.8087  137.2663  157.4992 H   0  0  0  0  0  0  0  0  0  0  0  0
  151.0657  138.9260  157.0129 H   0  0  0  0  0  0  0  0  0  0  0  0
  148.6601  138.4652  157.4106 H   0  0  0  0  0  0  0  0  0  0  0  0
  148.6779  137.1815  156.2425 H   0  0  0  0  0  0  0  0  0  0  0  0
  1  2  1  0  0  0  0
  1 26  1  0  0  0  0
  1 27  1  0  0  0  0
  1 28  1  0  0  0  0
  2  3  1  0  0  0  0
  2 29  1  0  0  0  0
  2 30  1  0  0  0  0
  3  4  1  0  0  0  0
  4 19  1  0  0  0  0
  4  5  1  0  0  0  0
  4 31  1  0  0  0  0
  5  6  1  0  0  0  0
  5 32  1  0  0  0  0
  5 33  1  0  0  0  0
  6  7  1  0  0  0  0
  6 19  1  0  0  0  0
  6 34  1  0  0  0  0
  7  8  1  0  0  0  0
  7 35  1  0  0  0  0
  8  9  2  0  0  0  0
  8 10  1  0  0  0  0
 10 11  1  0  0  0  0
 10 36  1  0  0  0  0
 10 37  1  0  0  0  0
 11 17  1  0  0  0  0
 11 12  1  0  0  0  0
 12 13  2  0  0  0  0
 12 38  1  0  0  0  0
 13 14  1  0  0  0  0
 13 39  1  0  0  0  0
 14 15  2  0  0  0  0
 14 16  1  0  0  0  0
 16 25  1  0  0  0  0
 16 17  1  0  0  0  0
 17 18  2  0  0  0  0
 19 24  1  0  0  0  0
 19 20  1  0  0  0  0
 20 21  1  0  0  0  0
 20 40  1  0  0  0  0
 20 41  1  0  0  0  0
 21 22  1  0  0  0  0
 21 42  1  0  0  0  0
 21 43  1  0  0  0  0
 22 23  1  0  0  0  0
 22 44  1  0  0  0  0
 22 45  1  0  0  0  0
 23 24  1  0  0  0  0
 23 46  1  0  0  0  0
 23 47  1  0  0  0  0
 24 48  1  0  0  0  0
 24 49  1  0  0  0  0
M  END
> <s_m_source_file>
AV-unprocessed.smi

> <i_m_source_file_index>
701

> <i_lp_mmshare_version>
43012

> <i_f3d_flags>
0

> <s_epik_input>
W0NIMl0xW0NIMl1bQ0gyXVtDSDJdW0NIMl1DMTJbQ0BIXShPW0NIMl1bQ0gzXSlbQ0gyXVtDQEhdMltOSF1DKD1PKVtDSDJdbjNbY0hdW2NIXWMoPU8pW25IXWMzPU8=

> <s_epik_cmdline>
J2VwaWtfcHl0aG9uJywgJy1waCcsICc3LjAnLCAnLXRuJywgJzgnLCAnLW1hJywgJzIwMCcsICctbWV0YWxfYmluZGluZycsICctaW1hZScsICc8aW5maWxlLm1hZT4nLCAnLW9tYWUnLCAnPG91dGZpbGUubWFlPic=

> <r_lp_tautomer_probability>
0.999537

> <r_epik_Ionization_Penalty>
0.00304597

> <r_epik_Ionization_Penalty_Charging>
0.00304595

> <r_epik_Ionization_Penalty_Neutral>
1.88422e-08

> <r_epik_State_Penalty>
0.00214084

> <r_epik_Charging_Adjusted_Penalty>
0.00518679

> <i_epik_Tot_Q>
0

> <i_epik_Tot_abs_Q>
0

> <r_epik_Metal_State_Penalty>
0.361872

> <b_epik_Metal_Only>
0

> <s_lp_Force_Field>
OPLS_2005

> <r_lp_Energy>
28.8847

> <b_lp_Chiralities_Consistent>
1

> <s_lp_Variant>
AV-unprocessed.smi:701-2

> <Gold.Version>
5.8.1

> <Gold.Id.Protein>
6NUR|6NUR_protein|mol2

> <Gold.PLP.Fitness>
39.7240

> <Gold.PLP.PLP>
-28.7003

> <Gold.PLP.part.hbond>
-3.9534

> <Gold.PLP.part.metal>
0.0000

> <Gold.PLP.part.buried>
-6.8254

> <Gold.PLP.part.nonpolar>
-18.3999

> <Gold.PLP.part.repulsive>
0.4840

> <Gold.PLP.ligand.clash>
0.0000

> <Gold.PLP.ligand.torsion>
0.7693

> <Gold.PLP.Chemscore.Hbond>
2.0962

> <Gold.PLP.Chemscore.CHOScore>
1.9846

> <Gold.PLP.Chemscore.Metal>
0.0000

> <Gold.Chemscore.Hbonds>
donor molecule, donor type, donor heavy atom, donor atom, acceptor molecule, acceptor atom, score
      L1  H    16    25       P1 10957  1.00
      P1  H  7989  7998       L1     3  0.09
      P1  H 11000 11005       L1    15  1.00
      L1  C    12    38       P1 10171  0.95
      L1  C    12    38       P1 10175  1.00

> <Gold.PLP.Chemscore.Internal.Correction>
0.3201

> <Gold.Rescore>
     Score         DG    S(hbond)    S(metal)    S(lipo)     H(rot)  DE(clash)    DE(int)     intcor
     12.82     -14.93       1.97        0.00      70.33       2.09       0.05       2.06       ----

> <Gold.Chemscore.Fitness>
12.8247

> <Gold.Chemscore.DG>
-14.9342

> <Gold.Chemscore.ZeroCoef>
-5.4800

> <Gold.Chemscore.Hbond>
1.9713

> <Gold.Chemscore.Metal>
0.0000

> <Gold.Chemscore.Lipo>
70.3310

> <Gold.Chemscore.Internal_Hbond>
0.0000

> <Gold.Chemscore.DEClash>
0.0473

> <Gold.Chemscore.DEInternal>
2.0622

> <Gold.Chemscore.Rot>
2.0933

> <Gold.Chemscore.Internal.Correction>
   9.000000E+99

> <Gold.Chemscore.Hbonds>
donor molecule, donor type, donor heavy atom, donor atom, acceptor molecule, acceptor atom, score
      L1  H    16    25       P1 10957  0.96
      P1  H 10995 11001       L1    15  0.01
      P1  H 11000 11005       L1    15  0.90

> <Gold.Chemscore.Hbond.Weighted>
-6.5842

> <Gold.Chemscore.Metal.Weighted>
-0.0000

> <Gold.Chemscore.Lipo.Weighted>
-8.2287

> <Gold.Chemscore.Internal_Hbond.Weighted>
0.0000

> <Gold.Chemscore.DEClash.Weighted>
0.0473

> <Gold.Chemscore.DEInternal.Weighted>
2.0622

> <Gold.Chemscore.Rot.Weighted>
5.3588

> <Gold.Chemscore.Internal.Correction.Weighted>
   9.000000E+99

> <Gold.Protein.RotatedTorsions>
[ 6907 6896 6895 6894 ] final  107.79 input  -60.11 | X-H torsion
[ 7974 7965 7964 7962 ] final  126.67 input  175.53 | X-H torsion
[ 8008 7997 7996 7995 ] final   46.10 input   59.86 | X-H torsion
[ 10167 10162 10161 10158 ] final -118.65 input  -65.29 | X-H torsion
[ 10718 10713 10712 10709 ] final -132.14 input   66.30 | X-H torsion
[ 10763 10752 10751 10750 ] final   -5.40 input  -60.55 | X-H torsion
[ 11005 11000 10999 10996 ] final    8.49 input  -57.11 | X-H torsion

> <Gold.Protein.ActiveResidues>
 VAL166  LYS551  ARG553  GLY616  TRP617  ASP618  TYR619  PRO620  LYS621  CYS622 
 ASP623  PHE694  ASN695  SER759  ASP760  ASP761  ALA762  ILE779  LEU786  VAL792 
 PHE793  MET794  SER795  GLU796  ALA797  LYS798  CYS799  TRP800  GLU811  SER814 

> <Gold.Protein.RotatedAtoms>
  152.5140  133.9183  159.7521 H   0  0  0  0  0  0  0  0  0  0  0  0  # atno 6907 bound_to 6896
  150.9561  133.6488  159.2770 H   0  0  0  0  0  0  0  0  0  0  0  0  # atno 6908 bound_to 6896
  151.3749  135.0934  159.9530 H   0  0  0  0  0  0  0  0  0  0  0  0  # atno 6909 bound_to 6896
  145.0591  139.3820  143.5015 H   0  0  0  0  0  0  0  0  0  0  0  0  # atno 7974 bound_to 7965
  155.3469  140.3411  155.4239 H   0  0  0  0  0  0  0  0  0  0  0  0  # atno 8008 bound_to 7997
  156.1784  140.1655  156.8355 H   0  0  0  0  0  0  0  0  0  0  0  0  # atno 8009 bound_to 7997
  154.5307  140.0746  156.8322 H   0  0  0  0  0  0  0  0  0  0  0  0  # atno 8010 bound_to 7997
  140.0552  143.5021  152.2061 H   0  0  0  0  0  0  0  0  0  0  0  0  # atno 10167 bound_to 10162
  156.2315  130.7040  151.0863 H   0  0  0  0  0  0  0  0  0  0  0  0  # atno 10718 bound_to 10713
  153.3981  135.7004  153.6446 H   0  0  0  0  0  0  0  0  0  0  0  0  # atno 10763 bound_to 10752
  153.4991  135.3656  155.2531 H   0  0  0  0  0  0  0  0  0  0  0  0  # atno 10764 bound_to 10752
  154.8708  135.4107  154.3310 H   0  0  0  0  0  0  0  0  0  0  0  0  # atno 10765 bound_to 10752
  140.5364  134.0416  155.7890 H   0  0  0  0  0  0  0  0  0  0  0  0  # atno 11005 bound_to 11000
  146.3523  140.0280  142.8653 LP  0  0  0  0  0  0  0  0  0  0  0  0  # atno 17320 bound_to 7965
  145.1431  140.9582  143.4476 LP  0  0  0  0  0  0  0  0  0  0  0  0  # atno 17321 bound_to 7965
  139.5928  144.7556  151.3359 LP  0  0  0  0  0  0  0  0  0  0  0  0  # atno 17342 bound_to 10162
  140.7198  143.7167  150.7727 LP  0  0  0  0  0  0  0  0  0  0  0  0  # atno 17343 bound_to 10162
  157.7135  131.0722  150.6413 LP  0  0  0  0  0  0  0  0  0  0  0  0  # atno 17370 bound_to 10713
  156.6481  130.4477  149.5729 LP  0  0  0  0  0  0  0  0  0  0  0  0  # atno 17371 bound_to 10713
  141.1252  133.9395  157.2650 LP  0  0  0  0  0  0  0  0  0  0  0  0  # atno 17394 bound_to 11000
  139.9527  135.0172  156.9039 LP  0  0  0  0  0  0  0  0  0  0  0  0  # atno 17395 bound_to 11000

$$$$
