AV-unprocessed.smi:1602|AV-procd|sdf|6442|dock10
  -GOLD-   22720 7 93D 1   1.00000     0.00000
 Structure written by MMmdl.
 35 36  0  0  0  0  0  0  0  0  2 V2000
  152.0917  140.6627  158.8354 C   0  0  0  0  0  0  0  0  0  0  0  0
  153.1203  141.2024  159.8439 C   0  0  1  0  0  0  0  0  0  0  0  0
  152.5447  142.2765  160.8061 C   0  0  0  0  0  0  0  0  0  0  0  0
  152.0303  143.4868  160.1678 N   0  0  0  0  0  0  0  0  0  0  0  0
  151.3307  144.5330  160.7391 C   0  0  0  0  0  0  0  0  0  0  0  0
  151.0352  145.4223  159.7460 C   0  0  0  0  0  0  0  0  0  0  0  0
  151.5871  144.8214  158.5808 C   0  0  0  0  0  0  0  0  0  0  0  0
  152.1704  143.6617  158.8326 N   0  0  0  0  0  0  0  0  0  0  0  0
  153.6747  140.0961  160.6113 N   0  5  0  0  0  0  0  0  0  0  0  0
  155.2401  139.7053  160.4462 S   0  0  0  0  0  0  0  0  0  0  0  0
  155.8327  140.1323  159.1681 O   0  0  0  0  0  0  0  0  0  0  0  0
  156.0160  139.9425  161.6746 O   0  0  0  0  0  0  0  0  0  0  0  0
  155.0320  137.9852  160.3192 N   0  0  0  0  0  0  0  0  0  0  0  0
  154.5284  137.4746  159.0324 C   0  0  0  0  0  0  0  0  0  0  0  0
  154.6046  135.9405  158.9703 C   0  0  0  0  0  0  0  0  0  0  0  0
  153.9309  135.3707  160.0812 O   0  0  0  0  0  0  0  0  0  0  0  0
  154.5436  135.7519  161.3032 C   0  0  0  0  0  0  0  0  0  0  0  0
  154.4632  137.2759  161.4841 C   0  0  0  0  0  0  0  0  0  0  0  0
  151.6239  141.4779  158.2836 H   0  0  0  0  0  0  0  0  0  0  0  0
  151.3008  140.0950  159.3269 H   0  0  0  0  0  0  0  0  0  0  0  0
  152.5617  140.0039  158.1051 H   0  0  0  0  0  0  0  0  0  0  0  0
  153.9045  141.6982  159.2703 H   0  0  0  0  0  0  0  0  0  0  0  0
  151.7593  141.8442  161.4286 H   0  0  0  0  0  0  0  0  0  0  0  0
  153.3296  142.5861  161.4971 H   0  0  0  0  0  0  0  0  0  0  0  0
  151.1096  144.5578  161.7959 H   0  0  0  0  0  0  0  0  0  0  0  0
  150.5030  146.3573  159.8375 H   0  0  0  0  0  0  0  0  0  0  0  0
  151.5763  145.1881  157.5650 H   0  0  0  0  0  0  0  0  0  0  0  0
  153.4973  137.8054  158.9027 H   0  0  0  0  0  0  0  0  0  0  0  0
  155.1072  137.8992  158.2125 H   0  0  0  0  0  0  0  0  0  0  0  0
  154.1380  135.5814  158.0529 H   0  0  0  0  0  0  0  0  0  0  0  0
  155.6429  135.6054  158.9484 H   0  0  0  0  0  0  0  0  0  0  0  0
  154.0307  135.2526  162.1254 H   0  0  0  0  0  0  0  0  0  0  0  0
  155.5809  135.4137  161.3266 H   0  0  0  0  0  0  0  0  0  0  0  0
  154.9867  137.5577  162.3971 H   0  0  0  0  0  0  0  0  0  0  0  0
  153.4236  137.5818  161.6082 H   0  0  0  0  0  0  0  0  0  0  0  0
  1  2  1  0  0  0  0
  1 19  1  0  0  0  0
  1 20  1  0  0  0  0
  1 21  1  0  0  0  0
  2  3  1  0  0  0  0
  2  9  1  0  0  0  0
  2 22  1  0  0  0  0
  3  4  1  0  0  0  0
  3 23  1  0  0  0  0
  3 24  1  0  0  0  0
  4  8  1  0  0  0  0
  4  5  1  0  0  0  0
  5  6  2  0  0  0  0
  5 25  1  0  0  0  0
  6  7  1  0  0  0  0
  6 26  1  0  0  0  0
  7  8  2  0  0  0  0
  7 27  1  0  0  0  0
  9 10  1  0  0  0  0
 10 11  2  0  0  0  0
 10 12  2  0  0  0  0
 10 13  1  0  0  0  0
 13 18  1  0  0  0  0
 13 14  1  0  0  0  0
 14 15  1  0  0  0  0
 14 28  1  0  0  0  0
 14 29  1  0  0  0  0
 15 16  1  0  0  0  0
 15 30  1  0  0  0  0
 15 31  1  0  0  0  0
 16 17  1  0  0  0  0
 17 18  1  0  0  0  0
 17 32  1  0  0  0  0
 17 33  1  0  0  0  0
 18 34  1  0  0  0  0
 18 35  1  0  0  0  0
M  CHG  1   9  -1
M  END
> <s_m_source_file>
AV-unprocessed.smi

> <i_m_source_file_index>
1602

> <i_lp_mmshare_version>
43012

> <i_f3d_flags>
0

> <s_epik_input>
bjFbY0hdW2NIXVtjSF1uMVtDSDJdW0NAQEhdKFtDSDNdKVtOSF1TKD1PKSg9TylOMltDSDJdW0NIMl1PW0NIMl1bQ0gyXTI=

> <s_epik_cmdline>
J2VwaWtfcHl0aG9uJywgJy1waCcsICc3LjAnLCAnLXRuJywgJzgnLCAnLW1hJywgJzIwMCcsICctbWV0YWxfYmluZGluZycsICctaW1hZScsICc8aW5maWxlLm1hZT4nLCAnLW9tYWUnLCAnPG91dGZpbGUubWFlPic=

> <r_lp_tautomer_probability>
1

> <r_epik_Ionization_Penalty>
1.03144

> <r_epik_Ionization_Penalty_Charging>
1.03142

> <r_epik_Ionization_Penalty_Neutral>
2.21579e-05

> <r_epik_State_Penalty>
1.0826

> <r_epik_Charging_Adjusted_Penalty>
2.11402

> <i_epik_Tot_Q>
-1

> <i_epik_Tot_abs_Q>
1

> <r_epik_Metal_State_Penalty>
0.386234

> <b_epik_Metal_Only>
0

> <s_lp_Force_Field>
OPLS_2005

> <r_lp_Energy>
7.84511

> <b_lp_Chiralities_Consistent>
1

> <s_lp_Variant>
AV-unprocessed.smi:1602-4

> <Gold.Version>
5.8.1

> <Gold.Id.Protein>
6NUR|6NUR_protein|mol2

> <Gold.PLP.Fitness>
42.1500

> <Gold.PLP.PLP>
-36.5402

> <Gold.PLP.part.hbond>
-2.3824

> <Gold.PLP.part.metal>
0.0000

> <Gold.PLP.part.buried>
-5.1251

> <Gold.PLP.part.nonpolar>
-28.7583

> <Gold.PLP.part.repulsive>
0.0238

> <Gold.PLP.ligand.clash>
0.0000

> <Gold.PLP.ligand.torsion>
0.9540

> <Gold.PLP.Chemscore.Hbond>
2.0000

> <Gold.PLP.Chemscore.CHOScore>
0.0000

> <Gold.PLP.Chemscore.Metal>
0.0000

> <Gold.Chemscore.Hbonds>
donor molecule, donor type, donor heavy atom, donor atom, acceptor molecule, acceptor atom, score
      P1  H  6896  6909       L1    16  1.00
      P1  H  7997  8008       L1    11  0.94

> <Gold.PLP.Chemscore.Internal.Correction>
1.5178

> <Gold.Rescore>
     Score         DG    S(hbond)    S(metal)    S(lipo)     H(rot)  DE(clash)    DE(int)     intcor
     16.67     -17.74       1.97        0.00      84.94       1.67       0.03       1.04       ----

> <Gold.Chemscore.Fitness>
16.6698

> <Gold.Chemscore.DG>
-17.7363

> <Gold.Chemscore.ZeroCoef>
-5.4800

> <Gold.Chemscore.Hbond>
1.9733

> <Gold.Chemscore.Metal>
0.0000

> <Gold.Chemscore.Lipo>
84.9365

> <Gold.Chemscore.Internal_Hbond>
0.0000

> <Gold.Chemscore.DEClash>
0.0310

> <Gold.Chemscore.DEInternal>
1.0355

> <Gold.Chemscore.Rot>
1.6688

> <Gold.Chemscore.Internal.Correction>
   9.000000E+99

> <Gold.Chemscore.Hbonds>
donor molecule, donor type, donor heavy atom, donor atom, acceptor molecule, acceptor atom, score
      P1  H  6896  6909       L1    16  0.97
      P1  H  7997  8008       L1    11  0.91

> <Gold.Chemscore.Hbond.Weighted>
-6.5910

> <Gold.Chemscore.Metal.Weighted>
-0.0000

> <Gold.Chemscore.Lipo.Weighted>
-9.9376

> <Gold.Chemscore.Internal_Hbond.Weighted>
0.0000

> <Gold.Chemscore.DEClash.Weighted>
0.0310

> <Gold.Chemscore.DEInternal.Weighted>
1.0355

> <Gold.Chemscore.Rot.Weighted>
4.2722

> <Gold.Chemscore.Internal.Correction.Weighted>
   9.000000E+99

> <Gold.Protein.RotatedTorsions>
[ 6907 6896 6895 6894 ] final  170.06 input  -60.11 | X-H torsion
[ 7974 7965 7964 7962 ] final  137.66 input  175.53 | X-H torsion
[ 8008 7997 7996 7995 ] final -153.82 input   59.86 | X-H torsion
[ 10167 10162 10161 10158 ] final   27.52 input  -65.29 | X-H torsion
[ 10718 10713 10712 10709 ] final   92.05 input   66.30 | X-H torsion
[ 10763 10752 10751 10750 ] final -133.24 input  -60.55 | X-H torsion
[ 11005 11000 10999 10996 ] final   64.51 input  -57.11 | X-H torsion

> <Gold.Protein.ActiveResidues>
 VAL166  LYS551  ARG553  GLY616  TRP617  ASP618  TYR619  PRO620  LYS621  CYS622 
 ASP623  PHE694  ASN695  SER759  ASP760  ASP761  ALA762  ILE779  LEU786  VAL792 
 PHE793  MET794  SER795  GLU796  ALA797  LYS798  CYS799  TRP800  GLU811  SER814 

> <Gold.Protein.RotatedAtoms>
  151.8221  133.3396  159.3587 H   0  0  0  0  0  0  0  0  0  0  0  0  # atno 6907 bound_to 6896
  150.7291  134.5564  159.5829 H   0  0  0  0  0  0  0  0  0  0  0  0  # atno 6908 bound_to 6896
  152.2998  134.7625  160.0411 H   0  0  0  0  0  0  0  0  0  0  0  0  # atno 6909 bound_to 6896
  144.9446  139.4890  143.5555 H   0  0  0  0  0  0  0  0  0  0  0  0  # atno 7974 bound_to 7965
  155.6767  140.0739  157.2500 H   0  0  0  0  0  0  0  0  0  0  0  0  # atno 8008 bound_to 7997
  154.4113  140.1689  156.1990 H   0  0  0  0  0  0  0  0  0  0  0  0  # atno 8009 bound_to 7997
  155.9570  140.3373  155.6460 H   0  0  0  0  0  0  0  0  0  0  0  0  # atno 8010 bound_to 7997
  140.4931  144.0435  150.6304 H   0  0  0  0  0  0  0  0  0  0  0  0  # atno 10167 bound_to 10162
  157.6959  131.0429  150.3822 H   0  0  0  0  0  0  0  0  0  0  0  0  # atno 10718 bound_to 10713
  154.8735  135.3772  154.4541 H   0  0  0  0  0  0  0  0  0  0  0  0  # atno 10763 bound_to 10752
  153.5215  135.7029  153.5734 H   0  0  0  0  0  0  0  0  0  0  0  0  # atno 10764 bound_to 10752
  153.3979  135.3955  155.1933 H   0  0  0  0  0  0  0  0  0  0  0  0  # atno 10765 bound_to 10752
  139.9954  134.6525  156.0019 H   0  0  0  0  0  0  0  0  0  0  0  0  # atno 11005 bound_to 11000
  146.3299  139.8489  142.8876 LP  0  0  0  0  0  0  0  0  0  0  0  0  # atno 17320 bound_to 7965
  145.2938  141.0175  143.3648 LP  0  0  0  0  0  0  0  0  0  0  0  0  # atno 17321 bound_to 7965
  140.3709  143.2855  152.0279 LP  0  0  0  0  0  0  0  0  0  0  0  0  # atno 17342 bound_to 10162
  139.4855  144.6230  151.7218 LP  0  0  0  0  0  0  0  0  0  0  0  0  # atno 17343 bound_to 10162
  156.4235  130.3957  149.6809 LP  0  0  0  0  0  0  0  0  0  0  0  0  # atno 17370 bound_to 10713
  156.4051  130.7694  151.2704 LP  0  0  0  0  0  0  0  0  0  0  0  0  # atno 17371 bound_to 10713
  141.1600  133.6539  156.4288 LP  0  0  0  0  0  0  0  0  0  0  0  0  # atno 17394 bound_to 11000
  140.4828  134.6649  157.5178 LP  0  0  0  0  0  0  0  0  0  0  0  0  # atno 17395 bound_to 11000

$$$$
