AV-unprocessed.smi:3232|AV-procd|sdf|12345|dock3
  -GOLD-   2272018203D 1   1.00000     0.00000
 Structure written by MMmdl.
 40 41  0  0  0  0  0  0  0  0  2 V2000
  146.5577  142.0625  154.3831 C   0  0  0  0  0  0  0  0  0  0  0  0
  147.7782  142.1937  153.4613 C   0  0  0  0  0  0  0  0  0  0  0  0
  148.8448  141.2176  153.7967 N   0  3  2  0  0  0  0  0  0  0  0  0
  148.3746  139.8255  153.9791 C   0  0  0  0  0  0  0  0  0  0  0  0
  149.3641  139.1510  154.9402 C   0  0  0  0  0  0  0  0  0  0  0  0
  150.4636  140.1887  155.1619 C   0  0  0  0  0  0  0  0  0  0  0  0
  149.7567  141.5301  154.9263 C   0  0  2  0  0  0  0  0  0  0  0  0
  149.0191  142.0704  156.1804 C   0  0  0  0  0  0  0  0  0  0  0  0
  149.8495  142.9974  156.9423 N   0  0  0  0  0  0  0  0  0  0  0  0
  150.8234  142.6461  157.7982 C   0  0  0  0  0  0  0  0  0  0  0  0
  151.0823  141.4746  158.0764 O   0  0  0  0  0  0  0  0  0  0  0  0
  151.6392  143.7990  158.4059 C   0  0  1  0  0  0  0  0  0  0  0  0
  151.0780  145.1897  158.0487 C   0  0  0  0  0  0  0  0  0  0  0  0
  151.7634  143.6214  159.8478 N   0  0  0  0  0  0  0  0  0  0  0  0
  152.2462  142.5932  160.5487 C   0  0  0  0  0  0  0  0  0  0  0  0
  152.1663  142.7526  161.8623 N   0  0  0  0  0  0  0  0  0  0  0  0
  151.5823  143.9867  161.9079 C   0  0  0  0  0  0  0  0  0  0  0  0
  151.3119  144.5481  160.7299 N   0  0  0  0  0  0  0  0  0  0  0  0
  145.8178  142.8294  154.1530 H   0  0  0  0  0  0  0  0  0  0  0  0
  146.8407  142.1800  155.4297 H   0  0  0  0  0  0  0  0  0  0  0  0
  146.0687  141.0946  154.2746 H   0  0  0  0  0  0  0  0  0  0  0  0
  147.4866  142.1108  152.4142 H   0  0  0  0  0  0  0  0  0  0  0  0
  148.1903  143.1967  153.5795 H   0  0  0  0  0  0  0  0  0  0  0  0
  147.3704  139.8075  154.4058 H   0  0  0  0  0  0  0  0  0  0  0  0
  148.3367  139.3194  153.0140 H   0  0  0  0  0  0  0  0  0  0  0  0
  148.8683  138.9277  155.8858 H   0  0  0  0  0  0  0  0  0  0  0  0
  149.7582  138.2144  154.5450 H   0  0  0  0  0  0  0  0  0  0  0  0
  150.9493  140.0923  156.1323 H   0  0  0  0  0  0  0  0  0  0  0  0
  151.2388  140.0550  154.4061 H   0  0  0  0  0  0  0  0  0  0  0  0
  150.4840  142.2758  154.6024 H   0  0  0  0  0  0  0  0  0  0  0  0
  148.1316  142.6305  155.8876 H   0  0  0  0  0  0  0  0  0  0  0  0
  148.6652  141.2490  156.8057 H   0  0  0  0  0  0  0  0  0  0  0  0
  149.7009  143.9824  156.7769 H   0  0  0  0  0  0  0  0  0  0  0  0
  152.6440  143.7362  157.9849 H   0  0  0  0  0  0  0  0  0  0  0  0
  151.0390  145.3334  156.9682 H   0  0  0  0  0  0  0  0  0  0  0  0
  151.7085  145.9790  158.4591 H   0  0  0  0  0  0  0  0  0  0  0  0
  150.0702  145.3374  158.4391 H   0  0  0  0  0  0  0  0  0  0  0  0
  152.6599  141.7076  160.0890 H   0  0  0  0  0  0  0  0  0  0  0  0
  151.3429  144.4831  162.8366 H   0  0  0  0  0  0  0  0  0  0  0  0
  149.4464  141.1776  152.9862 H   0  0  0  0  0  0  0  0  0  0  0  0
  1  2  1  0  0  0  0
  1 19  1  0  0  0  0
  1 20  1  0  0  0  0
  1 21  1  0  0  0  0
  2  3  1  0  0  0  0
  2 22  1  0  0  0  0
  2 23  1  0  0  0  0
  3  7  1  0  0  0  0
  3  4  1  0  0  0  0
  3 40  1  0  0  0  0
  4  5  1  0  0  0  0
  4 24  1  0  0  0  0
  4 25  1  0  0  0  0
  5  6  1  0  0  0  0
  5 26  1  0  0  0  0
  5 27  1  0  0  0  0
  6  7  1  0  0  0  0
  6 28  1  0  0  0  0
  6 29  1  0  0  0  0
  7  8  1  0  0  0  0
  7 30  1  0  0  0  0
  8  9  1  0  0  0  0
  8 31  1  0  0  0  0
  8 32  1  0  0  0  0
  9 10  1  0  0  0  0
  9 33  1  0  0  0  0
 10 11  2  0  0  0  0
 10 12  1  0  0  0  0
 12 13  1  0  0  0  0
 12 14  1  0  0  0  0
 12 34  1  0  0  0  0
 13 35  1  0  0  0  0
 13 36  1  0  0  0  0
 13 37  1  0  0  0  0
 14 18  1  0  0  0  0
 14 15  1  0  0  0  0
 15 16  2  0  0  0  0
 15 38  1  0  0  0  0
 16 17  1  0  0  0  0
 17 18  2  0  0  0  0
 17 39  1  0  0  0  0
M  CHG  1   3   1
M  END
> <s_m_source_file>
AV-unprocessed.smi

> <i_m_source_file_index>
3232

> <i_lp_mmshare_version>
43012

> <i_f3d_flags>
0

> <s_epik_input>
W0NIM11bQ0gyXU4xW0NIMl1bQ0gyXVtDSDJdW0NASF0xW0NIMl1bTkhdQyg9TylbQ0BIXShbQ0gzXSluMltjSF1uW2NIXW4y

> <s_epik_cmdline>
J2VwaWtfcHl0aG9uJywgJy1waCcsICc3LjAnLCAnLXRuJywgJzgnLCAnLW1hJywgJzIwMCcsICctbWV0YWxfYmluZGluZycsICctaW1hZScsICc8aW5maWxlLm1hZT4nLCAnLW9tYWUnLCAnPG91dGZpbGUubWFlPic=

> <r_lp_tautomer_probability>
1

> <r_epik_Ionization_Penalty>
0.00177695

> <r_epik_Ionization_Penalty_Charging>
0.00176881

> <r_epik_Ionization_Penalty_Neutral>
8.13528e-06

> <r_epik_State_Penalty>
0.00119827

> <r_epik_Charging_Adjusted_Penalty>
0.00296709

> <i_epik_Tot_Q>
1

> <i_epik_Tot_abs_Q>
1

> <r_epik_Metal_State_Penalty>
-0

> <b_epik_Metal_Only>
0

> <s_lp_Force_Field>
OPLS_2005

> <r_lp_Energy>
36.5981

> <b_lp_Chiralities_Consistent>
1

> <s_lp_Variant>
AV-unprocessed.smi:3232-7

> <Gold.Version>
5.8.1

> <Gold.Id.Protein>
6NUR|6NUR_protein|mol2

> <Gold.PLP.Fitness>
43.9794

> <Gold.PLP.PLP>
-40.3902

> <Gold.PLP.part.hbond>
-2.0000

> <Gold.PLP.part.metal>
0.0000

> <Gold.PLP.part.buried>
-4.2357

> <Gold.PLP.part.nonpolar>
-32.9004

> <Gold.PLP.part.repulsive>
0.3112

> <Gold.PLP.ligand.clash>
0.1516

> <Gold.PLP.ligand.torsion>
0.8976

> <Gold.PLP.Chemscore.Hbond>
1.8025

> <Gold.PLP.Chemscore.CHOScore>
0.0000

> <Gold.PLP.Chemscore.Metal>
0.0000

> <Gold.Chemscore.Hbonds>
donor molecule, donor type, donor heavy atom, donor atom, acceptor molecule, acceptor atom, score
      L1  H     3    40       P1  7957  0.56
      L1  H     9    33       P1  8028  0.64
      P1  H  6933  6945       L1    16  0.06

> <Gold.PLP.Chemscore.Internal.Correction>
0.1287

> <Gold.Rescore>
     Score         DG    S(hbond)    S(metal)    S(lipo)     H(rot)  DE(clash)    DE(int)     intcor
     11.89     -13.45       1.94        0.00      67.13       2.49       0.14       1.42       ----

> <Gold.Chemscore.Fitness>
11.8897

> <Gold.Chemscore.DG>
-13.4545

> <Gold.Chemscore.ZeroCoef>
-5.4800

> <Gold.Chemscore.Hbond>
1.9432

> <Gold.Chemscore.Metal>
0.0000

> <Gold.Chemscore.Lipo>
67.1282

> <Gold.Chemscore.Internal_Hbond>
0.0000

> <Gold.Chemscore.DEClash>
0.1415

> <Gold.Chemscore.DEInternal>
1.4233

> <Gold.Chemscore.Rot>
2.4882

> <Gold.Chemscore.Internal.Correction>
   9.000000E+99

> <Gold.Chemscore.Hbonds>
donor molecule, donor type, donor heavy atom, donor atom, acceptor molecule, acceptor atom, score
      L1  H     3    40       P1  7957  0.55
      L1  H     9    33       P1  8028  0.58

> <Gold.Chemscore.Hbond.Weighted>
-6.4902

> <Gold.Chemscore.Metal.Weighted>
-0.0000

> <Gold.Chemscore.Lipo.Weighted>
-7.8540

> <Gold.Chemscore.Internal_Hbond.Weighted>
0.0000

> <Gold.Chemscore.DEClash.Weighted>
0.1415

> <Gold.Chemscore.DEInternal.Weighted>
1.4233

> <Gold.Chemscore.Rot.Weighted>
6.3697

> <Gold.Chemscore.Internal.Correction.Weighted>
   9.000000E+99

> <Gold.Protein.RotatedTorsions>
[ 6907 6896 6895 6894 ] final -169.12 input  -60.11 | X-H torsion
[ 7974 7965 7964 7962 ] final  -76.13 input  175.53 | X-H torsion
[ 8008 7997 7996 7995 ] final   27.94 input   59.86 | X-H torsion
[ 10167 10162 10161 10158 ] final  117.22 input  -65.29 | X-H torsion
[ 10718 10713 10712 10709 ] final  -94.97 input   66.30 | X-H torsion
[ 10763 10752 10751 10750 ] final  -14.63 input  -60.55 | X-H torsion
[ 11005 11000 10999 10996 ] final   85.66 input  -57.11 | X-H torsion

> <Gold.Protein.ActiveResidues>
 VAL166  LYS551  ARG553  GLY616  TRP617  ASP618  TYR619  PRO620  LYS621  CYS622 
 ASP623  PHE694  ASN695  SER759  ASP760  ASP761  ALA762  ILE779  LEU786  VAL792 
 PHE793  MET794  SER795  GLU796  ALA797  LYS798  CYS799  TRP800  GLU811  SER814 

> <Gold.Protein.RotatedAtoms>
  151.4865  133.3534  159.2846 H   0  0  0  0  0  0  0  0  0  0  0  0  # atno 6907 bound_to 6896
  150.8863  134.8263  159.7272 H   0  0  0  0  0  0  0  0  0  0  0  0  # atno 6908 bound_to 6896
  152.4795  134.4769  159.9705 H   0  0  0  0  0  0  0  0  0  0  0  0  # atno 6909 bound_to 6896
  145.6169  140.9373  143.1159 H   0  0  0  0  0  0  0  0  0  0  0  0  # atno 7974 bound_to 7965
  155.0508  140.3179  155.4692 H   0  0  0  0  0  0  0  0  0  0  0  0  # atno 8008 bound_to 7997
  156.2835  140.2146  156.5578 H   0  0  0  0  0  0  0  0  0  0  0  0  # atno 8009 bound_to 7997
  154.7212  140.0489  157.0628 H   0  0  0  0  0  0  0  0  0  0  0  0  # atno 8010 bound_to 7997
  139.6194  144.7098  151.2668 H   0  0  0  0  0  0  0  0  0  0  0  0  # atno 10167 bound_to 10162
  156.0035  130.5090  150.6007 H   0  0  0  0  0  0  0  0  0  0  0  0  # atno 10718 bound_to 10713
  153.5312  135.7014  153.5682 H   0  0  0  0  0  0  0  0  0  0  0  0  # atno 10763 bound_to 10752
  153.3689  135.3950  155.1773 H   0  0  0  0  0  0  0  0  0  0  0  0  # atno 10764 bound_to 10752
  154.8684  135.3807  154.4809 H   0  0  0  0  0  0  0  0  0  0  0  0  # atno 10765 bound_to 10752
  139.8965  134.8302  156.2613 H   0  0  0  0  0  0  0  0  0  0  0  0  # atno 11005 bound_to 11000
  144.7247  139.7915  143.7369 LP  0  0  0  0  0  0  0  0  0  0  0  0  # atno 17320 bound_to 7965
  146.1461  139.4531  143.0078 LP  0  0  0  0  0  0  0  0  0  0  0  0  # atno 17321 bound_to 7965
  140.7372  143.6685  150.8102 LP  0  0  0  0  0  0  0  0  0  0  0  0  # atno 17342 bound_to 10162
  140.0293  143.5460  152.2767 LP  0  0  0  0  0  0  0  0  0  0  0  0  # atno 17343 bound_to 10162
  157.3856  131.0788  151.1439 LP  0  0  0  0  0  0  0  0  0  0  0  0  # atno 17370 bound_to 10713
  157.2147  130.6454  149.5787 LP  0  0  0  0  0  0  0  0  0  0  0  0  # atno 17371 bound_to 10713
  141.0160  133.7068  156.1190 LP  0  0  0  0  0  0  0  0  0  0  0  0  # atno 17394 bound_to 11000
  140.7300  134.4265  157.5567 LP  0  0  0  0  0  0  0  0  0  0  0  0  # atno 17395 bound_to 11000

$$$$
