AV-unprocessed.smi:3303|AV-procd|sdf|12665|dock5
  -GOLD-   2272019 03D 1   1.00000     0.00000
 Structure written by MMmdl.
 45 46  0  0  0  0  0  0  0  0  3 V2000
  148.3091  140.8792  154.3979 C   0  0  0  0  0  0  0  0  0  0  0  0
  149.0087  139.5190  154.2366 C   0  0  2  0  0  0  0  0  0  0  0  0
  148.1470  138.3545  154.7613 C   0  0  0  0  0  0  0  0  0  0  0  0
  148.7891  137.0359  154.5162 N   0  3  2  0  0  0  0  0  0  0  0  0
  147.8815  135.9271  154.9000 C   0  0  0  0  0  0  0  0  0  0  0  0
  150.1494  136.9464  155.1291 C   0  0  1  0  0  0  0  0  0  0  0  0
  150.8429  135.6017  154.8357 C   0  0  0  0  0  0  0  0  0  0  0  0
  151.0472  138.1054  154.6374 C   0  0  0  0  0  0  0  0  0  0  0  0
  150.4205  139.4922  154.8581 C   0  0  2  0  0  0  0  0  0  0  0  0
  150.4051  139.8372  156.3008 N   0  3  0  0  0  0  0  0  0  0  0  0
  151.7393  139.9712  156.9193 C   0  0  0  0  0  0  0  0  0  0  0  0
  151.6244  140.2529  158.4232 C   0  0  0  0  0  0  0  0  0  0  0  0
  151.6866  141.7364  158.7324 C   0  0  0  0  0  0  0  0  0  0  0  0
  152.4227  142.2140  159.8375 C   0  0  0  0  0  0  0  0  0  0  0  0
  152.4405  143.6010  160.0815 C   0  0  0  0  0  0  0  0  0  0  0  0
  151.7246  144.4511  159.2168 C   0  0  0  0  0  0  0  0  0  0  0  0
  151.0190  143.8747  158.1420 C   0  0  0  0  0  0  0  0  0  0  0  0
  150.9946  142.5458  157.8998 N   0  0  0  0  0  0  0  0  0  0  0  0
  148.1006  141.1067  155.4436 H   0  0  0  0  0  0  0  0  0  0  0  0
  147.3585  140.8950  153.8639 H   0  0  0  0  0  0  0  0  0  0  0  0
  148.9226  141.6863  153.9964 H   0  0  0  0  0  0  0  0  0  0  0  0
  149.1308  139.3642  153.1629 H   0  0  0  0  0  0  0  0  0  0  0  0
  147.9500  138.4730  155.8282 H   0  0  0  0  0  0  0  0  0  0  0  0
  147.1777  138.3770  154.2610 H   0  0  0  0  0  0  0  0  0  0  0  0
  147.7824  135.8591  155.9843 H   0  0  0  0  0  0  0  0  0  0  0  0
  148.2373  134.9691  154.5226 H   0  0  0  0  0  0  0  0  0  0  0  0
  146.8868  136.0766  154.4787 H   0  0  0  0  0  0  0  0  0  0  0  0
  150.0351  137.0332  156.2108 H   0  0  0  0  0  0  0  0  0  0  0  0
  151.8673  135.6027  155.2098 H   0  0  0  0  0  0  0  0  0  0  0  0
  150.8848  135.3999  153.7648 H   0  0  0  0  0  0  0  0  0  0  0  0
  150.3393  134.7648  155.3190 H   0  0  0  0  0  0  0  0  0  0  0  0
  152.0215  138.0608  155.1267 H   0  0  0  0  0  0  0  0  0  0  0  0
  151.2432  137.9747  153.5720 H   0  0  0  0  0  0  0  0  0  0  0  0
  151.0388  140.2212  154.3309 H   0  0  0  0  0  0  0  0  0  0  0  0
  149.9138  140.7121  156.4165 H   0  0  0  0  0  0  0  0  0  0  0  0
  152.3031  139.0521  156.7518 H   0  0  0  0  0  0  0  0  0  0  0  0
  152.2837  140.7808  156.4312 H   0  0  0  0  0  0  0  0  0  0  0  0
  150.6891  139.8450  158.8090 H   0  0  0  0  0  0  0  0  0  0  0  0
  152.4261  139.7466  158.9631 H   0  0  0  0  0  0  0  0  0  0  0  0
  152.9621  141.5381  160.4845 H   0  0  0  0  0  0  0  0  0  0  0  0
  152.9928  144.0053  160.9168 H   0  0  0  0  0  0  0  0  0  0  0  0
  151.7165  145.5198  159.3729 H   0  0  0  0  0  0  0  0  0  0  0  0
  150.4587  144.4966  157.4598 H   0  0  0  0  0  0  0  0  0  0  0  0
  149.9014  139.1172  156.7992 H   0  0  0  0  0  0  0  0  0  0  0  0
  148.9159  136.9623  153.5164 H   0  0  0  0  0  0  0  0  0  0  0  0
  1  2  1  0  0  0  0
  1 19  1  0  0  0  0
  1 20  1  0  0  0  0
  1 21  1  0  0  0  0
  2  9  1  0  0  0  0
  2  3  1  0  0  0  0
  2 22  1  0  0  0  0
  3  4  1  0  0  0  0
  3 23  1  0  0  0  0
  3 24  1  0  0  0  0
  4  5  1  0  0  0  0
  4  6  1  0  0  0  0
  4 45  1  0  0  0  0
  5 25  1  0  0  0  0
  5 26  1  0  0  0  0
  5 27  1  0  0  0  0
  6  7  1  0  0  0  0
  6  8  1  0  0  0  0
  6 28  1  0  0  0  0
  7 29  1  0  0  0  0
  7 30  1  0  0  0  0
  7 31  1  0  0  0  0
  8  9  1  0  0  0  0
  8 32  1  0  0  0  0
  8 33  1  0  0  0  0
  9 10  1  0  0  0  0
  9 34  1  0  0  0  0
 10 11  1  0  0  0  0
 10 35  1  0  0  0  0
 10 44  1  0  0  0  0
 11 12  1  0  0  0  0
 11 36  1  0  0  0  0
 11 37  1  0  0  0  0
 12 13  1  0  0  0  0
 12 38  1  0  0  0  0
 12 39  1  0  0  0  0
 13 18  1  0  0  0  0
 13 14  2  0  0  0  0
 14 15  1  0  0  0  0
 14 40  1  0  0  0  0
 15 16  2  0  0  0  0
 15 41  1  0  0  0  0
 16 17  1  0  0  0  0
 16 42  1  0  0  0  0
 17 18  2  0  0  0  0
 17 43  1  0  0  0  0
M  CHG  1   4   1
M  CHG  1  10   1
M  END
> <s_m_source_file>
AV-unprocessed.smi

> <i_m_source_file_index>
3303

> <i_lp_mmshare_version>
43012

> <i_f3d_flags>
0

> <s_epik_input>
W0NIM11bQ0BASF0xW0NIMl1OKFtDSDNdKVtDQEBIXShbQ0gzXSlbQ0gyXVtDQEhdMVtOSF1bQ0gyXVtDSDJdYzJbY0hdW2NIXVtjSF1bY0hdbjI=

> <s_epik_cmdline>
J2VwaWtfcHl0aG9uJywgJy1waCcsICc3LjAnLCAnLXRuJywgJzgnLCAnLW1hJywgJzIwMCcsICctbWV0YWxfYmluZGluZycsICctaW1hZScsICc8aW5maWxlLm1hZT4nLCAnLW9tYWUnLCAnPG91dGZpbGUubWFlPic=

> <r_epik_Ionization_Penalty>
0.0769462

> <r_epik_Ionization_Penalty_Charging>
0.0759813

> <r_epik_Ionization_Penalty_Neutral>
0.000964829

> <r_epik_State_Penalty>
0.0654373

> <r_epik_Charging_Adjusted_Penalty>
0.141419

> <i_epik_Tot_Q>
2

> <i_epik_Tot_abs_Q>
2

> <r_epik_Metal_State_Penalty>
0.0656439

> <b_epik_Metal_Only>
0

> <s_lp_Force_Field>
OPLS_2005

> <r_lp_Energy>
34.324

> <b_lp_Chiralities_Consistent>
1

> <s_lp_Variant>
AV-unprocessed.smi:3303-9

> <Gold.Version>
5.8.1

> <Gold.Id.Protein>
6NUR|6NUR_protein|mol2

> <Gold.PLP.Fitness>
45.7468

> <Gold.PLP.PLP>
-37.7554

> <Gold.PLP.part.hbond>
-1.0000

> <Gold.PLP.part.metal>
0.0000

> <Gold.PLP.part.buried>
-1.2389

> <Gold.PLP.part.nonpolar>
-35.9941

> <Gold.PLP.part.repulsive>
0.1455

> <Gold.PLP.ligand.clash>
0.0000

> <Gold.PLP.ligand.torsion>
0.5080

> <Gold.PLP.Chemscore.Hbond>
2.0000

> <Gold.PLP.Chemscore.CHOScore>
1.0000

> <Gold.PLP.Chemscore.Metal>
0.0000

> <Gold.Chemscore.Hbonds>
donor molecule, donor type, donor heavy atom, donor atom, acceptor molecule, acceptor atom, score
      L1  H     4    45       P1  7948  2.00
      L1  C    17    43       P1  8028  1.00

> <Gold.PLP.Chemscore.Internal.Correction>
0.0073

> <Gold.Rescore>
     Score         DG    S(hbond)    S(metal)    S(lipo)     H(rot)  DE(clash)    DE(int)     intcor
     18.38     -18.79       0.99        0.00     115.49       1.37       0.16       0.24       ----

> <Gold.Chemscore.Fitness>
18.3826

> <Gold.Chemscore.DG>
-18.7853

> <Gold.Chemscore.ZeroCoef>
-5.4800

> <Gold.Chemscore.Hbond>
0.9915

> <Gold.Chemscore.Metal>
0.0000

> <Gold.Chemscore.Lipo>
115.4896

> <Gold.Chemscore.Internal_Hbond>
0.0000

> <Gold.Chemscore.DEClash>
0.1638

> <Gold.Chemscore.DEInternal>
0.2389

> <Gold.Chemscore.Rot>
1.3744

> <Gold.Chemscore.Internal.Correction>
   9.000000E+99

> <Gold.Chemscore.Hbonds>
donor molecule, donor type, donor heavy atom, donor atom, acceptor molecule, acceptor atom, score
      L1  H     4    45       P1  7948  1.00

> <Gold.Chemscore.Hbond.Weighted>
-3.3115

> <Gold.Chemscore.Metal.Weighted>
-0.0000

> <Gold.Chemscore.Lipo.Weighted>
-13.5123

> <Gold.Chemscore.Internal_Hbond.Weighted>
0.0000

> <Gold.Chemscore.DEClash.Weighted>
0.1638

> <Gold.Chemscore.DEInternal.Weighted>
0.2389

> <Gold.Chemscore.Rot.Weighted>
3.5185

> <Gold.Chemscore.Internal.Correction.Weighted>
   9.000000E+99

> <Gold.Protein.RotatedTorsions>
[ 6907 6896 6895 6894 ] final  133.76 input  -60.11 | X-H torsion
[ 7974 7965 7964 7962 ] final  -63.04 input  175.53 | X-H torsion
[ 8008 7997 7996 7995 ] final   37.07 input   59.86 | X-H torsion
[ 10167 10162 10161 10158 ] final   70.81 input  -65.29 | X-H torsion
[ 10718 10713 10712 10709 ] final    5.29 input   66.30 | X-H torsion
[ 10763 10752 10751 10750 ] final  110.69 input  -60.55 | X-H torsion
[ 11005 11000 10999 10996 ] final  126.19 input  -57.11 | X-H torsion

> <Gold.Protein.ActiveResidues>
 VAL166  LYS551  ARG553  GLY616  TRP617  ASP618  TYR619  PRO620  LYS621  CYS622 
 ASP623  PHE694  ASN695  SER759  ASP760  ASP761  ALA762  ILE779  LEU786  VAL792 
 PHE793  MET794  SER795  GLU796  ALA797  LYS798  CYS799  TRP800  GLU811  SER814 

> <Gold.Protein.RotatedAtoms>
  152.3186  133.5829  159.5728 H   0  0  0  0  0  0  0  0  0  0  0  0  # atno 6907 bound_to 6896
  150.7359  134.0045  159.3658 H   0  0  0  0  0  0  0  0  0  0  0  0  # atno 6908 bound_to 6896
  151.7932  135.0730  160.0441 H   0  0  0  0  0  0  0  0  0  0  0  0  # atno 6909 bound_to 6896
  145.7839  140.8747  143.0316 H   0  0  0  0  0  0  0  0  0  0  0  0  # atno 7974 bound_to 7965
  155.1978  140.3313  155.4348 H   0  0  0  0  0  0  0  0  0  0  0  0  # atno 8008 bound_to 7997
  156.2418  140.1899  156.7017 H   0  0  0  0  0  0  0  0  0  0  0  0  # atno 8009 bound_to 7997
  154.6162  140.0602  156.9543 H   0  0  0  0  0  0  0  0  0  0  0  0  # atno 8010 bound_to 7997
  140.0529  144.5297  150.7350 H   0  0  0  0  0  0  0  0  0  0  0  0  # atno 10167 bound_to 10162
  156.9052  130.5736  149.5647 H   0  0  0  0  0  0  0  0  0  0  0  0  # atno 10718 bound_to 10713
  153.4525  135.3740  155.2292 H   0  0  0  0  0  0  0  0  0  0  0  0  # atno 10763 bound_to 10752
  154.8756  135.3889  154.4021 H   0  0  0  0  0  0  0  0  0  0  0  0  # atno 10764 bound_to 10752
  153.4582  135.7086  153.6130 H   0  0  0  0  0  0  0  0  0  0  0  0  # atno 10765 bound_to 10752
  139.9443  134.9631  156.8670 H   0  0  0  0  0  0  0  0  0  0  0  0  # atno 11005 bound_to 11000
  144.6792  140.0028  143.7484 LP  0  0  0  0  0  0  0  0  0  0  0  0  # atno 17320 bound_to 7965
  146.0046  139.3119  143.0907 LP  0  0  0  0  0  0  0  0  0  0  0  0  # atno 17321 bound_to 7965
  140.7208  143.2587  151.4284 LP  0  0  0  0  0  0  0  0  0  0  0  0  # atno 17342 bound_to 10162
  139.5942  144.1433  152.2124 LP  0  0  0  0  0  0  0  0  0  0  0  0  # atno 17343 bound_to 10162
  156.0562  130.5623  150.9097 LP  0  0  0  0  0  0  0  0  0  0  0  0  # atno 17370 bound_to 10713
  157.6001  131.0941  150.8974 LP  0  0  0  0  0  0  0  0  0  0  0  0  # atno 17371 bound_to 10713
  140.5872  134.0296  155.7486 LP  0  0  0  0  0  0  0  0  0  0  0  0  # atno 17394 bound_to 11000
  141.1089  133.9649  157.2946 LP  0  0  0  0  0  0  0  0  0  0  0  0  # atno 17395 bound_to 11000

$$$$
