AV-unprocessed.smi:1556|AV-procd|sdf|6268|dock10
  -GOLD-   22720 6463D 1   1.00000     0.00000
 Structure written by MMmdl.
 37 38  0  0  0  0  0  0  0  0  1 V2000
  145.3305  136.5821  151.8485 C   0  0  0  0  0  0  0  0  0  0  0  0
  144.9054  135.2045  151.7235 N   0  0  0  0  0  0  0  0  0  0  0  0
  145.3295  134.2512  150.8231 C   0  0  0  0  0  0  0  0  0  0  0  0
  144.6428  133.1005  151.0900 C   0  0  0  0  0  0  0  0  0  0  0  0
  144.7345  131.7709  150.3946 C   0  0  0  0  0  0  0  0  0  0  0  0
  145.3064  130.6851  151.3203 C   0  0  0  0  0  0  0  0  0  0  0  0
  146.6249  131.0525  151.8224 N   0  0  0  0  0  0  0  0  0  0  0  0
  146.8656  131.6011  153.0255 C   0  0  0  0  0  0  0  0  0  0  0  0
  145.9815  131.8671  153.8375 O   0  0  0  0  0  0  0  0  0  0  0  0
  148.1615  131.8537  153.2819 N   0  0  0  0  0  0  0  0  0  0  0  0
  148.7478  132.4409  154.4872 C   0  0  2  0  0  0  0  0  0  0  0  0
  149.6235  133.6583  154.1357 C   0  0  0  0  0  0  0  0  0  0  0  0
  150.4872  134.0157  155.3524 C   0  0  0  0  0  0  0  0  0  0  0  0
  150.7714  132.4466  156.2571 S   0  0  0  0  0  0  0  0  0  0  0  0
  152.1509  131.9880  156.0346 O   0  0  0  0  0  0  0  0  0  0  0  0
  150.2263  132.5777  157.6168 O   0  0  0  0  0  0  0  0  0  0  0  0
  149.6306  131.4350  155.2428 C   0  0  0  0  0  0  0  0  0  0  0  0
  143.8126  133.4595  152.1904 C   0  0  0  0  0  0  0  0  0  0  0  0
  143.9709  134.7183  152.5659 N   0  0  0  0  0  0  0  0  0  0  0  0
  146.1273  136.7937  151.1349 H   0  0  0  0  0  0  0  0  0  0  0  0
  145.7010  136.7649  152.8575 H   0  0  0  0  0  0  0  0  0  0  0  0
  144.4897  137.2467  151.6488 H   0  0  0  0  0  0  0  0  0  0  0  0
  146.0765  134.4677  150.0736 H   0  0  0  0  0  0  0  0  0  0  0  0
  143.7510  131.4624  150.0379 H   0  0  0  0  0  0  0  0  0  0  0  0
  145.3596  131.8510  149.5045 H   0  0  0  0  0  0  0  0  0  0  0  0
  144.6477  130.5383  152.1766 H   0  0  0  0  0  0  0  0  0  0  0  0
  145.3571  129.7268  150.8002 H   0  0  0  0  0  0  0  0  0  0  0  0
  147.4107  130.8740  151.2144 H   0  0  0  0  0  0  0  0  0  0  0  0
  148.8109  131.6478  152.5363 H   0  0  0  0  0  0  0  0  0  0  0  0
  147.9583  132.7899  155.1555 H   0  0  0  0  0  0  0  0  0  0  0  0
  150.2833  133.3979  153.3067 H   0  0  0  0  0  0  0  0  0  0  0  0
  149.0245  134.5085  153.8081 H   0  0  0  0  0  0  0  0  0  0  0  0
  151.4391  134.4702  155.0772 H   0  0  0  0  0  0  0  0  0  0  0  0
  149.9567  134.6962  156.0186 H   0  0  0  0  0  0  0  0  0  0  0  0
  149.0647  130.7553  155.8802 H   0  0  0  0  0  0  0  0  0  0  0  0
  150.2347  130.8446  154.5529 H   0  0  0  0  0  0  0  0  0  0  0  0
  143.1011  132.8454  152.7224 H   0  0  0  0  0  0  0  0  0  0  0  0
  1  2  1  0  0  0  0
  1 20  1  0  0  0  0
  1 21  1  0  0  0  0
  1 22  1  0  0  0  0
  2 19  1  0  0  0  0
  2  3  1  0  0  0  0
  3  4  2  0  0  0  0
  3 23  1  0  0  0  0
  4  5  1  0  0  0  0
  4 18  1  0  0  0  0
  5  6  1  0  0  0  0
  5 24  1  0  0  0  0
  5 25  1  0  0  0  0
  6  7  1  0  0  0  0
  6 26  1  0  0  0  0
  6 27  1  0  0  0  0
  7  8  1  0  0  0  0
  7 28  1  0  0  0  0
  8  9  2  0  0  0  0
  8 10  1  0  0  0  0
 10 11  1  0  0  0  0
 10 29  1  0  0  0  0
 11 17  1  0  0  0  0
 11 12  1  0  0  0  0
 11 30  1  0  0  0  0
 12 13  1  0  0  0  0
 12 31  1  0  0  0  0
 12 32  1  0  0  0  0
 13 14  1  0  0  0  0
 13 33  1  0  0  0  0
 13 34  1  0  0  0  0
 14 15  2  0  0  0  0
 14 16  2  0  0  0  0
 14 17  1  0  0  0  0
 17 35  1  0  0  0  0
 17 36  1  0  0  0  0
 18 19  2  0  0  0  0
 18 37  1  0  0  0  0
M  END
> <s_m_source_file>
AV-unprocessed.smi

> <i_m_source_file_index>
1556

> <i_lp_mmshare_version>
43012

> <i_f3d_flags>
0

> <s_epik_input>
W0NIM11uMVtjSF1jKFtjSF1uMSlbQ0gyXVtDSDJdW05IXUMoPU8pW05IXVtDQEBIXShbQ0gyXTIpW0NIMl1bQ0gyXVMyKD1PKT1P

> <s_epik_cmdline>
J2VwaWtfcHl0aG9uJywgJy1waCcsICc3LjAnLCAnLXRuJywgJzgnLCAnLW1hJywgJzIwMCcsICctbWV0YWxfYmluZGluZycsICctaW1hZScsICc8aW5maWxlLm1hZT4nLCAnLW9tYWUnLCAnPG91dGZpbGUubWFlPic=

> <r_lp_tautomer_probability>
1

> <r_epik_Ionization_Penalty>
0.000530192

> <r_epik_Ionization_Penalty_Charging>
0

> <r_epik_Ionization_Penalty_Neutral>
0.000530192

> <r_epik_State_Penalty>
-0

> <r_epik_Charging_Adjusted_Penalty>
0

> <i_epik_Tot_Q>
0

> <i_epik_Tot_abs_Q>
0

> <r_epik_Metal_State_Penalty>
-0

> <b_epik_Metal_Only>
0

> <s_lp_Force_Field>
OPLS_2005

> <r_lp_Energy>
8.62968

> <b_lp_Chiralities_Consistent>
1

> <s_lp_Variant>
AV-unprocessed.smi:1556-1

> <Gold.Version>
5.8.1

> <Gold.Id.Protein>
6NUR|6NUR_protein|mol2

> <Gold.PLP.Fitness>
42.4712

> <Gold.PLP.PLP>
-30.9274

> <Gold.PLP.part.hbond>
-2.0577

> <Gold.PLP.part.metal>
0.0000

> <Gold.PLP.part.buried>
-4.1470

> <Gold.PLP.part.nonpolar>
-25.2512

> <Gold.PLP.part.repulsive>
0.2667

> <Gold.PLP.ligand.clash>
0.0000

> <Gold.PLP.ligand.torsion>
0.2297

> <Gold.PLP.Chemscore.Hbond>
2.0000

> <Gold.PLP.Chemscore.CHOScore>
2.0000

> <Gold.PLP.Chemscore.Metal>
0.0000

> <Gold.Chemscore.Hbonds>
donor molecule, donor type, donor heavy atom, donor atom, acceptor molecule, acceptor atom, score
      L1  H     7    28       P1 10747  1.00
      L1  H    10    29       P1 10747  0.12
      P1  H  6896  6908       L1    16  0.99
      L1  C     3    23       P1  7921  1.00
      L1  C    18    37       P1 10957  0.94

> <Gold.PLP.Chemscore.Internal.Correction>
0.0032

> <Gold.Rescore>
     Score         DG    S(hbond)    S(metal)    S(lipo)     H(rot)  DE(clash)    DE(int)     intcor
     15.35     -15.61       2.09        0.00      66.69       1.82       0.02       0.24       ----

> <Gold.Chemscore.Fitness>
15.3517

> <Gold.Chemscore.DG>
-15.6103

> <Gold.Chemscore.ZeroCoef>
-5.4800

> <Gold.Chemscore.Hbond>
2.0935

> <Gold.Chemscore.Metal>
0.0000

> <Gold.Chemscore.Lipo>
66.6865

> <Gold.Chemscore.Internal_Hbond>
0.0000

> <Gold.Chemscore.DEClash>
0.0226

> <Gold.Chemscore.DEInternal>
0.2360

> <Gold.Chemscore.Rot>
1.8220

> <Gold.Chemscore.Internal.Correction>
   9.000000E+99

> <Gold.Chemscore.Hbonds>
donor molecule, donor type, donor heavy atom, donor atom, acceptor molecule, acceptor atom, score
      L1  H     7    28       P1 10747  1.00
      L1  H    10    29       P1 10747  0.12
      P1  H  6896  6908       L1    16  0.92

> <Gold.Chemscore.Hbond.Weighted>
-6.9922

> <Gold.Chemscore.Metal.Weighted>
-0.0000

> <Gold.Chemscore.Lipo.Weighted>
-7.8023

> <Gold.Chemscore.Internal_Hbond.Weighted>
0.0000

> <Gold.Chemscore.DEClash.Weighted>
0.0226

> <Gold.Chemscore.DEInternal.Weighted>
0.2360

> <Gold.Chemscore.Rot.Weighted>
4.6642

> <Gold.Chemscore.Internal.Correction.Weighted>
   9.000000E+99

> <Gold.Protein.RotatedTorsions>
[ 6907 6896 6895 6894 ] final   89.34 input  -60.11 | X-H torsion
[ 7974 7965 7964 7962 ] final  -68.58 input  175.53 | X-H torsion
[ 8008 7997 7996 7995 ] final    7.28 input   59.86 | X-H torsion
[ 10167 10162 10161 10158 ] final  165.43 input  -65.29 | X-H torsion
[ 10718 10713 10712 10709 ] final  -17.16 input   66.30 | X-H torsion
[ 10763 10752 10751 10750 ] final   86.43 input  -60.55 | X-H torsion
[ 11005 11000 10999 10996 ] final  -27.16 input  -57.11 | X-H torsion

> <Gold.Protein.ActiveResidues>
 VAL166  LYS551  ARG553  GLY616  TRP617  ASP618  TYR619  PRO620  LYS621  CYS622 
 ASP623  PHE694  ASN695  SER759  ASP760  ASP761  ALA762  ILE779  LEU786  VAL792 
 PHE793  MET794  SER795  GLU796  ALA797  LYS798  CYS799  TRP800  GLU811  SER814 

> <Gold.Protein.RotatedAtoms>
  152.5435  134.1982  159.8701 H   0  0  0  0  0  0  0  0  0  0  0  0  # atno 6907 bound_to 6896
  151.1972  133.4625  159.2603 H   0  0  0  0  0  0  0  0  0  0  0  0  # atno 6908 bound_to 6896
  151.1024  134.9992  159.8511 H   0  0  0  0  0  0  0  0  0  0  0  0  # atno 6909 bound_to 6896
  145.7147  140.9063  143.0662 H   0  0  0  0  0  0  0  0  0  0  0  0  # atno 7974 bound_to 7965
  154.7517  140.2768  155.6287 H   0  0  0  0  0  0  0  0  0  0  0  0  # atno 8008 bound_to 7997
  156.2897  140.2677  156.2199 H   0  0  0  0  0  0  0  0  0  0  0  0  # atno 8009 bound_to 7997
  155.0128  140.0372  157.2396 H   0  0  0  0  0  0  0  0  0  0  0  0  # atno 8010 bound_to 7997
  139.4906  144.4133  151.9274 H   0  0  0  0  0  0  0  0  0  0  0  0  # atno 10167 bound_to 10162
  156.5774  130.4765  149.6336 H   0  0  0  0  0  0  0  0  0  0  0  0  # atno 10718 bound_to 10713
  153.1570  135.4580  154.9718 H   0  0  0  0  0  0  0  0  0  0  0  0  # atno 10763 bound_to 10752
  154.7869  135.3207  154.7869 H   0  0  0  0  0  0  0  0  0  0  0  0  # atno 10764 bound_to 10752
  153.8364  135.6934  153.4862 H   0  0  0  0  0  0  0  0  0  0  0  0  # atno 10765 bound_to 10752
  140.9094  133.7471  156.0650 H   0  0  0  0  0  0  0  0  0  0  0  0  # atno 11005 bound_to 11000
  144.6932  139.9122  143.7464 LP  0  0  0  0  0  0  0  0  0  0  0  0  # atno 17320 bound_to 7965
  146.0680  139.3670  143.0540 LP  0  0  0  0  0  0  0  0  0  0  0  0  # atno 17321 bound_to 7965
  140.3575  144.3014  150.5939 LP  0  0  0  0  0  0  0  0  0  0  0  0  # atno 17342 bound_to 10162
  140.5432  143.2219  151.8050 LP  0  0  0  0  0  0  0  0  0  0  0  0  # atno 17343 bound_to 10162
  156.2662  130.6990  151.1774 LP  0  0  0  0  0  0  0  0  0  0  0  0  # atno 17370 bound_to 10713
  157.7334  131.0591  150.5576 LP  0  0  0  0  0  0  0  0  0  0  0  0  # atno 17371 bound_to 10713
  140.8129  134.3378  157.5406 LP  0  0  0  0  0  0  0  0  0  0  0  0  # atno 17394 bound_to 11000
  139.8755  134.9264  156.3400 LP  0  0  0  0  0  0  0  0  0  0  0  0  # atno 17395 bound_to 11000

$$$$
