AV-unprocessed.smi:1709|AV-procd|sdf|6898|dock5
  -GOLD-   22720 8103D 1   1.00000     0.00000
 Structure written by MMmdl.
 43 45  0  0  0  0  0  0  0  0  2 V2000
  150.6818  137.8243  154.5526 C   0  0  0  0  0  0  0  0  0  0  0  0
  149.9656  139.1643  154.6130 C   0  0  0  0  0  0  0  0  0  0  0  0
  150.6236  140.2689  155.1944 C   0  0  0  0  0  0  0  0  0  0  0  0
  149.9646  141.5083  155.2505 C   0  0  0  0  0  0  0  0  0  0  0  0
  148.6672  141.5908  154.7183 C   0  0  0  0  0  0  0  0  0  0  0  0
  148.0313  140.5399  154.1609 N   0  0  0  0  0  0  0  0  0  0  0  0
  148.6506  139.3329  154.1000 C   0  0  0  0  0  0  0  0  0  0  0  0
  148.0543  138.1673  153.5251 N   0  0  0  0  0  0  0  0  0  0  0  0
  146.8042  137.6620  153.6001 C   0  0  0  0  0  0  0  0  0  0  0  0
  145.9311  138.2276  154.2559 O   0  0  0  0  0  0  0  0  0  0  0  0
  146.5777  136.5247  152.9230 N   0  0  0  0  0  0  0  0  0  0  0  0
  145.3070  135.8108  152.8566 C   0  0  1  0  0  0  0  0  0  0  0  0
  144.1196  136.7330  152.6089 C   0  0  0  0  0  0  0  0  0  0  0  0
  143.0574  135.7613  152.0922 C   0  0  0  0  0  0  0  0  0  0  0  0
  143.7895  134.7187  151.3368 N   0  3  2  0  0  0  0  0  0  0  0  0
  143.2147  133.3562  151.4536 C   0  0  0  0  0  0  0  0  0  0  0  0
  144.0254  132.3480  150.6181 C   0  0  0  0  0  0  0  0  0  0  0  0
  145.5453  132.4370  150.8685 C   0  0  0  0  0  0  0  0  0  0  0  0
  145.9014  133.4665  151.9521 C   0  0  0  0  0  0  0  0  0  0  0  0
  145.2376  134.8337  151.6713 C   0  0  2  0  0  0  0  0  0  0  0  0
  151.6872  137.8919  154.9689 H   0  0  0  0  0  0  0  0  0  0  0  0
  150.7700  137.4832  153.5208 H   0  0  0  0  0  0  0  0  0  0  0  0
  150.1336  137.0729  155.1213 H   0  0  0  0  0  0  0  0  0  0  0  0
  151.6223  140.1706  155.5940 H   0  0  0  0  0  0  0  0  0  0  0  0
  150.4411  142.3723  155.6894 H   0  0  0  0  0  0  0  0  0  0  0  0
  148.1238  142.5239  154.7404 H   0  0  0  0  0  0  0  0  0  0  0  0
  148.6836  137.6261  152.9502 H   0  0  0  0  0  0  0  0  0  0  0  0
  147.3529  136.1276  152.4101 H   0  0  0  0  0  0  0  0  0  0  0  0
  145.1238  135.2748  153.7904 H   0  0  0  0  0  0  0  0  0  0  0  0
  143.8031  137.2698  153.5038 H   0  0  0  0  0  0  0  0  0  0  0  0
  144.3602  137.4677  151.8386 H   0  0  0  0  0  0  0  0  0  0  0  0
  142.5394  135.3119  152.9412 H   0  0  0  0  0  0  0  0  0  0  0  0
  142.3098  136.2530  151.4694 H   0  0  0  0  0  0  0  0  0  0  0  0
  143.2027  133.0508  152.5013 H   0  0  0  0  0  0  0  0  0  0  0  0
  142.1767  133.3689  151.1191 H   0  0  0  0  0  0  0  0  0  0  0  0
  143.6725  131.3382  150.8294 H   0  0  0  0  0  0  0  0  0  0  0  0
  143.8293  132.5172  149.5586 H   0  0  0  0  0  0  0  0  0  0  0  0
  145.9388  131.4579  151.1439 H   0  0  0  0  0  0  0  0  0  0  0  0
  146.0452  132.7119  149.9389 H   0  0  0  0  0  0  0  0  0  0  0  0
  145.5845  133.0880  152.9250 H   0  0  0  0  0  0  0  0  0  0  0  0
  146.9841  133.5801  152.0119 H   0  0  0  0  0  0  0  0  0  0  0  0
  145.7120  135.2873  150.7993 H   0  0  0  0  0  0  0  0  0  0  0  0
  143.7203  134.9698  150.3611 H   0  0  0  0  0  0  0  0  0  0  0  0
  1  2  1  0  0  0  0
  1 21  1  0  0  0  0
  1 22  1  0  0  0  0
  1 23  1  0  0  0  0
  2  7  1  0  0  0  0
  2  3  2  0  0  0  0
  3  4  1  0  0  0  0
  3 24  1  0  0  0  0
  4  5  2  0  0  0  0
  4 25  1  0  0  0  0
  5  6  1  0  0  0  0
  5 26  1  0  0  0  0
  6  7  2  0  0  0  0
  7  8  1  0  0  0  0
  8  9  1  0  0  0  0
  8 27  1  0  0  0  0
  9 10  2  0  0  0  0
  9 11  1  0  0  0  0
 11 12  1  0  0  0  0
 11 28  1  0  0  0  0
 12 20  1  0  0  0  0
 12 13  1  0  0  0  0
 12 29  1  0  0  0  0
 13 14  1  0  0  0  0
 13 30  1  0  0  0  0
 13 31  1  0  0  0  0
 14 15  1  0  0  0  0
 14 32  1  0  0  0  0
 14 33  1  0  0  0  0
 15 20  1  0  0  0  0
 15 16  1  0  0  0  0
 15 43  1  0  0  0  0
 16 17  1  0  0  0  0
 16 34  1  0  0  0  0
 16 35  1  0  0  0  0
 17 18  1  0  0  0  0
 17 36  1  0  0  0  0
 17 37  1  0  0  0  0
 18 19  1  0  0  0  0
 18 38  1  0  0  0  0
 18 39  1  0  0  0  0
 19 20  1  0  0  0  0
 19 40  1  0  0  0  0
 19 41  1  0  0  0  0
 20 42  1  0  0  0  0
M  CHG  1  15   1
M  END
> <s_m_source_file>
AV-unprocessed.smi

> <i_m_source_file_index>
1709

> <i_lp_mmshare_version>
43012

> <i_f3d_flags>
0

> <s_epik_input>
W0NIM11jMVtjSF1bY0hdW2NIXW5jMVtOSF1DKD1PKVtOSF1bQ0BIXShbQ0gyXVtDSDJdMilbQ0BASF0oTjIzKVtDSDJdW0NIMl1bQ0gyXVtDSDJdMw==

> <s_epik_cmdline>
J2VwaWtfcHl0aG9uJywgJy1waCcsICc3LjAnLCAnLXRuJywgJzgnLCAnLW1hJywgJzIwMCcsICctbWV0YWxfYmluZGluZycsICctaW1hZScsICc8aW5maWxlLm1hZT4nLCAnLW9tYWUnLCAnPG91dGZpbGUubWFlPic=

> <r_epik_Ionization_Penalty>
0.00101524

> <r_epik_Ionization_Penalty_Charging>
0.000974069

> <r_epik_Ionization_Penalty_Neutral>
4.11757e-05

> <r_epik_State_Penalty>
0.000633842

> <r_epik_Charging_Adjusted_Penalty>
0.00160791

> <i_epik_Tot_Q>
1

> <i_epik_Tot_abs_Q>
1

> <r_epik_Metal_State_Penalty>
-0

> <b_epik_Metal_Only>
0

> <s_lp_Force_Field>
OPLS_2005

> <r_lp_Energy>
44.7523

> <b_lp_Chiralities_Consistent>
1

> <s_lp_Variant>
AV-unprocessed.smi:1709-8

> <Gold.Version>
5.8.1

> <Gold.Id.Protein>
6NUR|6NUR_protein|mol2

> <Gold.PLP.Fitness>
41.2287

> <Gold.PLP.PLP>
-33.3232

> <Gold.PLP.part.hbond>
-2.0000

> <Gold.PLP.part.metal>
0.0000

> <Gold.PLP.part.buried>
-3.3608

> <Gold.PLP.part.nonpolar>
-28.8589

> <Gold.PLP.part.repulsive>
0.2176

> <Gold.PLP.ligand.clash>
0.0000

> <Gold.PLP.ligand.torsion>
0.5513

> <Gold.PLP.Chemscore.Hbond>
2.0000

> <Gold.PLP.Chemscore.CHOScore>
1.0000

> <Gold.PLP.Chemscore.Metal>
0.0000

> <Gold.Chemscore.Hbonds>
donor molecule, donor type, donor heavy atom, donor atom, acceptor molecule, acceptor atom, score
      L1  H     8    27       P1  7948  1.00
      L1  H    11    28       P1  7948  1.00
      L1  C     5    26       P1  8028  0.98

> <Gold.PLP.Chemscore.Internal.Correction>
0.0081

> <Gold.Rescore>
     Score         DG    S(hbond)    S(metal)    S(lipo)     H(rot)  DE(clash)    DE(int)     intcor
     16.72     -18.68       1.88        0.00      81.17       1.00       0.07       1.89       ----

> <Gold.Chemscore.Fitness>
16.7226

> <Gold.Chemscore.DG>
-18.6845

> <Gold.Chemscore.ZeroCoef>
-5.4800

> <Gold.Chemscore.Hbond>
1.8764

> <Gold.Chemscore.Metal>
0.0000

> <Gold.Chemscore.Lipo>
81.1730

> <Gold.Chemscore.Internal_Hbond>
0.0000

> <Gold.Chemscore.DEClash>
0.0727

> <Gold.Chemscore.DEInternal>
1.8892

> <Gold.Chemscore.Rot>
1.0000

> <Gold.Chemscore.Internal.Correction>
   9.000000E+99

> <Gold.Chemscore.Hbonds>
donor molecule, donor type, donor heavy atom, donor atom, acceptor molecule, acceptor atom, score
      L1  H     8    27       P1  7948  0.94
      L1  H    11    28       P1  7948  0.95

> <Gold.Chemscore.Hbond.Weighted>
-6.2672

> <Gold.Chemscore.Metal.Weighted>
-0.0000

> <Gold.Chemscore.Lipo.Weighted>
-9.4972

> <Gold.Chemscore.Internal_Hbond.Weighted>
0.0000

> <Gold.Chemscore.DEClash.Weighted>
0.0727

> <Gold.Chemscore.DEInternal.Weighted>
1.8892

> <Gold.Chemscore.Rot.Weighted>
2.5600

> <Gold.Chemscore.Internal.Correction.Weighted>
   9.000000E+99

> <Gold.Protein.RotatedTorsions>
[ 6907 6896 6895 6894 ] final   20.61 input  -60.11 | X-H torsion
[ 7974 7965 7964 7962 ] final -158.01 input  175.53 | X-H torsion
[ 8008 7997 7996 7995 ] final  152.32 input   59.86 | X-H torsion
[ 10167 10162 10161 10158 ] final   96.81 input  -65.29 | X-H torsion
[ 10718 10713 10712 10709 ] final   77.22 input   66.30 | X-H torsion
[ 10763 10752 10751 10750 ] final  103.48 input  -60.55 | X-H torsion
[ 11005 11000 10999 10996 ] final   58.51 input  -57.11 | X-H torsion

> <Gold.Protein.ActiveResidues>
 VAL166  LYS551  ARG553  GLY616  TRP617  ASP618  TYR619  PRO620  LYS621  CYS622 
 ASP623  PHE694  ASN695  SER759  ASP760  ASP761  ALA762  ILE779  LEU786  VAL792 
 PHE793  MET794  SER795  GLU796  ALA797  LYS798  CYS799  TRP800  GLU811  SER814 

> <Gold.Protein.RotatedAtoms>
  151.8990  135.0386  160.0504 H   0  0  0  0  0  0  0  0  0  0  0  0  # atno 6907 bound_to 6896
  152.2374  133.5102  159.5258 H   0  0  0  0  0  0  0  0  0  0  0  0  # atno 6908 bound_to 6896
  150.7043  134.1052  159.4022 H   0  0  0  0  0  0  0  0  0  0  0  0  # atno 6909 bound_to 6896
  144.7524  140.3889  143.6038 H   0  0  0  0  0  0  0  0  0  0  0  0  # atno 7974 bound_to 7965
  156.2634  140.2024  156.6315 H   0  0  0  0  0  0  0  0  0  0  0  0  # atno 8008 bound_to 7997
  154.6679  140.0553  157.0158 H   0  0  0  0  0  0  0  0  0  0  0  0  # atno 8009 bound_to 7997
  155.1180  140.3222  155.4507 H   0  0  0  0  0  0  0  0  0  0  0  0  # atno 8010 bound_to 7997
  139.7859  144.6870  150.9958 H   0  0  0  0  0  0  0  0  0  0  0  0  # atno 10167 bound_to 10162
  157.6703  130.9811  150.1610 H   0  0  0  0  0  0  0  0  0  0  0  0  # atno 10718 bound_to 10713
  153.3532  135.3975  155.1662 H   0  0  0  0  0  0  0  0  0  0  0  0  # atno 10763 bound_to 10752
  154.8666  135.3661  154.5195 H   0  0  0  0  0  0  0  0  0  0  0  0  # atno 10764 bound_to 10752
  153.5648  135.7080  153.5591 H   0  0  0  0  0  0  0  0  0  0  0  0  # atno 10765 bound_to 10752
  140.0372  134.5926  155.9429 H   0  0  0  0  0  0  0  0  0  0  0  0  # atno 11005 bound_to 11000
  145.6898  139.1636  143.2653 LP  0  0  0  0  0  0  0  0  0  0  0  0  # atno 17320 bound_to 7965
  146.1491  140.6951  142.9330 LP  0  0  0  0  0  0  0  0  0  0  0  0  # atno 17321 bound_to 7965
  140.7819  143.4432  151.0521 LP  0  0  0  0  0  0  0  0  0  0  0  0  # atno 17342 bound_to 10162
  139.8111  143.7950  152.3171 LP  0  0  0  0  0  0  0  0  0  0  0  0  # atno 17343 bound_to 10162
  156.2387  130.3689  149.8362 LP  0  0  0  0  0  0  0  0  0  0  0  0  # atno 17370 bound_to 10713
  156.6168  130.8610  151.3466 LP  0  0  0  0  0  0  0  0  0  0  0  0  # atno 17371 bound_to 10713
  141.1864  133.6557  156.5236 LP  0  0  0  0  0  0  0  0  0  0  0  0  # atno 17394 bound_to 11000
  140.4128  134.7257  157.4846 LP  0  0  0  0  0  0  0  0  0  0  0  0  # atno 17395 bound_to 11000

$$$$
