#       Name:                AV-unprocessed.smi:1648
#       Creating user name   scv26
#       Creation time:       Fri Mar 27 07:33:27 2020


#       File generated by GOLD software.
#

@<TRIPOS>MOLECULE
AV-unprocessed.smi:1648
    46    46     1
SMALL
NO_CHARGES


@<TRIPOS>ATOM
      1 ****        -1.7303   0.7054   3.4368 C.3            1 S1                 0.0000
      2 ****        -1.8712  -0.7912   3.1521 C.2            1 S1                 0.0000
      3 ****        -2.0955  -1.5633   4.0813 O.2            1 S1                 0.0000
      4 ****        -1.7495  -1.2370   1.8893 N.am           1 S1                 0.0000
      5 ****        -1.8503  -2.6208   1.4139 C.3            1 S1                 0.0000
      6 ****        -3.3398  -2.9928   1.2689 C.2            1 S1                 0.0000
      7 ****        -4.1425  -2.1885   0.7932 O.2            1 S1                 0.0000
      8 ****        -3.6874  -4.2210   1.6858 N.am           1 S1                 0.0000
      9 ****        -5.0427  -4.7688   1.7096 C.3            1 S1                 0.0000
     10 ****        -5.1964  -5.6338   2.9680 C.3            1 S1                 0.0000
     11 ****        -5.3454  -5.5843   0.4332 C.3            1 S1                 0.0000
     12 ****        -5.4677  -4.7617  -0.7574 N.pl3          1 S1                 0.0000
     13 ****        -6.4102  -3.7704  -1.0003 C.2            1 S1                 0.0000
     14 ****        -6.1446  -3.2730  -2.2558 C.2            1 S1                 0.0000
     15 ****        -5.0644  -3.9546  -2.8109 N.2            1 S1                 0.0000
     16 ****        -4.7239  -4.8259  -1.8704 C.2            1 S1                 0.0000
     17 ****        -1.1368  -2.7319   0.0335 C.3            1 S1                 0.0000
     18 ****        -1.1377  -4.1687  -0.5274 C.3            1 S1                 0.0000
     19 ****         0.3175  -2.2212   0.0860 C.3            1 S1                 0.0000
     20 ****        -0.7426   1.0649   3.1480 H              1 S1                 0.0000
     21 ****        -1.8592   0.9057   4.5009 H              1 S1                 0.0000
     22 ****        -2.4849   1.2763   2.8958 H              1 S1                 0.0000
     23 ****        -1.5818  -0.5410   1.1773 H              1 S1                 0.0000
     24 ****        -1.3629  -3.2929   2.1223 H              1 S1                 0.0000
     25 ****        -2.9559  -4.8143   2.0499 H              1 S1                 0.0000
     26 ****        -5.7647  -3.9544   1.7948 H              1 S1                 0.0000
     27 ****        -6.2081  -6.0323   3.0492 H              1 S1                 0.0000
     28 ****        -4.9997  -5.0538   3.8705 H              1 S1                 0.0000
     29 ****        -4.5063  -6.4784   2.9566 H              1 S1                 0.0000
     30 ****        -4.5742  -6.3384   0.2685 H              1 S1                 0.0000
     31 ****        -6.2861  -6.1233   0.5509 H              1 S1                 0.0000
     32 ****        -7.1647  -3.5014  -0.2761 H              1 S1                 0.0000
     33 ****        -6.6489  -2.4888  -2.8010 H              1 S1                 0.0000
     34 ****        -3.9115  -5.5267  -1.9950 H              1 S1                 0.0000
     35 ****        -1.6692  -2.1034  -0.6832 H              1 S1                 0.0000
     36 ****        -0.6425  -4.8595   0.1556 H              1 S1                 0.0000
     37 ****        -0.6150  -4.2171  -1.4830 H              1 S1                 0.0000
     38 ****        -2.1450  -4.5414  -0.7023 H              1 S1                 0.0000
     39 ****         0.9042  -2.7767   0.8183 H              1 S1                 0.0000
     40 ****         0.3727  -1.1644   0.3471 H              1 S1                 0.0000
     41 ****         0.8072  -2.3315  -0.8820 H              1 S1                 0.0000
     42 ****        -2.1842  -1.2117   5.0132 LP             1 S1                 0.0000
     43 ****        -2.1892  -2.5433   3.9056 LP             1 S1                 0.0000
     44 ****        -3.8301  -1.2858   0.4973 LP             1 S1                 0.0000
     45 ****        -5.1066  -2.4383   0.7029 LP             1 S1                 0.0000
     46 ****        -4.6440  -3.8191  -3.7081 LP             1 S1                 0.0000
@<TRIPOS>BOND
    1    1    2 1     
    2    1   20 1     
    3    1   21 1     
    4    1   22 1     
    5    2    3 2     
    6    2    4 am    
    7    4    5 1     
    8    4   23 1     
    9    5    6 1     
   10    5   17 1     
   11    5   24 1     
   12    6    7 2     
   13    6    8 am    
   14    8    9 1     
   15    8   25 1     
   16    9   10 1     
   17    9   11 1     
   18    9   26 1     
   19   10   27 1     
   20   10   28 1     
   21   10   29 1     
   22   11   12 1     
   23   11   30 1     
   24   11   31 1     
   25   12   16 1     
   26   12   13 1     
   27   13   14 2     
   28   13   32 1     
   29   14   15 1     
   30   14   33 1     
   31   15   16 2     
   32   16   34 1     
   33   17   18 1     
   34   17   19 1     
   35   17   35 1     
   36   18   36 1     
   37   18   37 1     
   38   18   38 1     
   39   19   39 1     
   40   19   40 1     
   41   19   41 1     
   42    3   42 1     
   43    3   43 1     
   44    7   44 1     
   45    7   45 1     
   46   15   46 1     
@<TRIPOS>SUBSTRUCTURE
      1 S1             1
@<TRIPOS>SET
LONE_PAIRS      STATIC     ATOMS    <user>   **** ""
5 42 43 44 45 46
DONOR_HYDROGENS      STATIC     ATOMS    <user>   **** ""
2 23 25
ATOM$BLUE        STATIC     ATOMS    COLORGROUP SYSTEM
5 42 43 44 45 46
ATOM$RED        STATIC     ATOMS    COLORGROUP SYSTEM
2 23 25
