#       Name:                AV-unprocessed.smi:2352
#       Creating user name   scv26
#       Creation time:       Fri Mar 27 13:00:42 2020


#       File generated by GOLD software.
#

@<TRIPOS>MOLECULE
AV-unprocessed.smi:2352
    42    43     1
SMALL
NO_CHARGES


@<TRIPOS>ATOM
      1 ****        -2.7268   5.1747   0.0896 C.3            1 S1                 0.0000
      2 ****        -2.1741   3.7605   0.1179 C.2            1 S1                 0.0000
      3 ****        -2.0993   3.1668   1.3813 N.2            1 S1                 0.0000
      4 ****        -1.6438   1.9629   1.5021 C.2            1 S1                 0.0000
      5 ****        -1.2175   1.2201   0.3889 N.am           1 S1                 0.0000
      6 ****        -0.7222  -0.1397   0.6625 C.3            1 S1                 0.0000
      7 ****         0.8210  -0.2083   0.6884 C.3            1 S1                 0.0000
      8 ****         1.2767   0.3130   1.9216 O.3            1 S1                 0.0000
      9 ****         1.3068  -1.6345   0.4763 C.ar           1 S1                 0.0000
     10 ****         1.8277  -2.0204  -0.7766 C.ar           1 S1                 0.0000
     11 ****         2.2743  -3.3396  -0.9850 C.ar           1 S1                 0.0000
     12 ****         2.2074  -4.2898   0.0565 C.ar           1 S1                 0.0000
     13 ****         2.6848  -5.7158  -0.1767 C.3            1 S1                 0.0000
     14 ****         3.0583  -6.2917   0.9667 F              1 S1                 0.0000
     15 ****         1.6935  -6.4277  -0.7113 F              1 S1                 0.0000
     16 ****         3.7249  -5.7333  -1.0109 F              1 S1                 0.0000
     17 ****         1.6737  -3.9064   1.3061 C.ar           1 S1                 0.0000
     18 ****         1.2267  -2.5873   1.5150 C.ar           1 S1                 0.0000
     19 ****        -1.2471   1.7270  -0.8777 C.2            1 S1                 0.0000
     20 ****        -0.8559   1.0718  -1.8458 O.2            1 S1                 0.0000
     21 ****        -1.7716   3.0968  -1.0002 C.2            1 S1                 0.0000
     22 ****        -1.8298   3.6921  -2.4016 C.3            1 S1                 0.0000
     23 ****        -3.6261   5.2215  -0.5251 H              1 S1                 0.0000
     24 ****        -1.9883   5.8656  -0.3181 H              1 S1                 0.0000
     25 ****        -2.9884   5.5195   1.0907 H              1 S1                 0.0000
     26 ****        -1.5600   1.4564   2.4651 H              1 S1                 0.0000
     27 ****        -1.1403  -0.5593   1.5801 H              1 S1                 0.0000
     28 ****        -1.0962  -0.7960  -0.1261 H              1 S1                 0.0000
     29 ****         1.2397   0.4132  -0.1041 H              1 S1                 0.0000
     30 ****         2.2211   0.3402   1.9039 H              1 S1                 0.0000
     31 ****         1.8842  -1.3063  -1.5853 H              1 S1                 0.0000
     32 ****         2.6670  -3.6203  -1.9513 H              1 S1                 0.0000
     33 ****         1.6014  -4.6226   2.1113 H              1 S1                 0.0000
     34 ****         0.8186  -2.3112   2.4765 H              1 S1                 0.0000
     35 ****        -0.8291   3.7371  -2.8327 H              1 S1                 0.0000
     36 ****        -2.2421   4.6995  -2.4235 H              1 S1                 0.0000
     37 ****        -2.4497   3.0704  -3.0487 H              1 S1                 0.0000
     38 ****        -2.3977   3.6727   2.1906 LP             1 S1                 0.0000
     39 ****         0.9699  -0.2744   2.6704 LP             1 S1                 0.0000
     40 ****         0.9148   1.2360   2.0523 LP             1 S1                 0.0000
     41 ****        -0.5058   0.1445  -1.7134 LP             1 S1                 0.0000
     42 ****        -0.8886   1.4676  -2.7636 LP             1 S1                 0.0000
@<TRIPOS>BOND
    1    1    2 1     
    2    1   23 1     
    3    1   24 1     
    4    1   25 1     
    5    2   21 2     
    6    2    3 1     
    7    3    4 2     
    8    4    5 1     
    9    4   26 1     
   10    5    6 1     
   11    5   19 am    
   12    6    7 1     
   13    6   27 1     
   14    6   28 1     
   15    7    8 1     
   16    7    9 1     
   17    7   29 1     
   18    8   30 1     
   19    9   18 ar    
   20    9   10 ar    
   21   10   11 ar    
   22   10   31 1     
   23   11   12 ar    
   24   11   32 1     
   25   12   13 1     
   26   12   17 ar    
   27   13   14 1     
   28   13   15 1     
   29   13   16 1     
   30   17   18 ar    
   31   17   33 1     
   32   18   34 1     
   33   19   20 2     
   34   19   21 1     
   35   21   22 1     
   36   22   35 1     
   37   22   36 1     
   38   22   37 1     
   39    3   38 1     
   40    8   39 1     
   41    8   40 1     
   42   20   41 1     
   43   20   42 1     
@<TRIPOS>SUBSTRUCTURE
      1 S1             1
@<TRIPOS>SET
LONE_PAIRS      STATIC     ATOMS    <user>   **** ""
5 38 39 40 41 42
DONOR_HYDROGENS      STATIC     ATOMS    <user>   **** ""
1 30
ATOM$BLUE        STATIC     ATOMS    COLORGROUP SYSTEM
5 38 39 40 41 42
ATOM$RED        STATIC     ATOMS    COLORGROUP SYSTEM
1 30
