AV-unprocessed.smi:3187|AV-procd|sdf|12182|dock9
  -GOLD-   2272018 23D 1   1.00000     0.00000
 Structure written by MMmdl.
 42 43  0  0  0  0  0  0  0  0  3 V2000
  151.1906  138.4407  154.1433 C   0  0  0  0  0  0  0  0  0  0  0  0
  150.3304  139.4894  154.8276 C   0  0  0  0  0  0  0  0  0  0  0  0
  150.6477  139.9666  156.0471 C   0  0  0  0  0  0  0  0  0  0  0  0
  149.8705  141.0426  156.7828 C   0  0  0  0  0  0  0  0  0  0  0  0
  148.5435  141.3995  156.0946 C   0  0  0  0  0  0  0  0  0  0  0  0
  148.6841  141.3956  154.5618 C   0  0  2  0  0  0  0  0  0  0  0  0
  147.4471  141.9980  153.8745 C   0  0  0  0  0  0  0  0  0  0  0  0
  149.1214  139.9942  154.0356 C   0  0  2  0  0  0  0  0  0  0  0  0
  148.0012  138.9220  154.0397 C   0  0  0  0  0  0  0  0  0  0  0  0
  147.6548  138.4624  152.6795 N   0  3  0  0  0  0  0  0  0  0  0  0
  146.3584  137.7626  152.5905 C   0  0  0  0  0  0  0  0  0  0  0  0
  146.2694  136.9269  151.3056 C   0  0  0  0  0  0  0  0  0  0  0  0
  145.2912  135.8429  151.4248 N   0  0  0  0  0  0  0  0  0  0  0  0
  145.2089  134.9051  152.4225 C   0  0  0  0  0  0  0  0  0  0  0  0
  144.1427  134.0995  152.1147 C   0  0  0  0  0  0  0  0  0  0  0  0
  143.6200  134.5785  150.9430 N   0  3  0  0  0  0  0  0  0  0  0  0
  144.3199  135.6386  150.5247 C   0  0  0  0  0  0  0  0  0  0  0  0
  151.5550  138.8165  153.1870 H   0  0  0  0  0  0  0  0  0  0  0  0
  150.6316  137.5239  153.9612 H   0  0  0  0  0  0  0  0  0  0  0  0
  152.0579  138.1826  154.7520 H   0  0  0  0  0  0  0  0  0  0  0  0
  151.5272  139.5962  156.5539 H   0  0  0  0  0  0  0  0  0  0  0  0
  149.6877  140.7226  157.8089 H   0  0  0  0  0  0  0  0  0  0  0  0
  150.5067  141.9265  156.8373 H   0  0  0  0  0  0  0  0  0  0  0  0
  147.7712  140.6932  156.3991 H   0  0  0  0  0  0  0  0  0  0  0  0
  148.2104  142.3771  156.4455 H   0  0  0  0  0  0  0  0  0  0  0  0
  149.5033  142.0778  154.3269 H   0  0  0  0  0  0  0  0  0  0  0  0
  146.5334  141.4702  154.1470 H   0  0  0  0  0  0  0  0  0  0  0  0
  147.5475  141.9770  152.7891 H   0  0  0  0  0  0  0  0  0  0  0  0
  147.3135  143.0399  154.1674 H   0  0  0  0  0  0  0  0  0  0  0  0
  149.4624  140.1247  153.0072 H   0  0  0  0  0  0  0  0  0  0  0  0
  148.3131  138.0404  154.5987 H   0  0  0  0  0  0  0  0  0  0  0  0
  147.1102  139.2994  154.5412 H   0  0  0  0  0  0  0  0  0  0  0  0
  147.6235  139.2707  152.0744 H   0  0  0  0  0  0  0  0  0  0  0  0
  146.2332  137.1222  153.4648 H   0  0  0  0  0  0  0  0  0  0  0  0
  145.5540  138.4993  152.6115 H   0  0  0  0  0  0  0  0  0  0  0  0
  145.9724  137.5504  150.4608 H   0  0  0  0  0  0  0  0  0  0  0  0
  147.2375  136.4890  151.0575 H   0  0  0  0  0  0  0  0  0  0  0  0
  145.8952  134.8805  153.2571 H   0  0  0  0  0  0  0  0  0  0  0  0
  143.7275  133.2443  152.6286 H   0  0  0  0  0  0  0  0  0  0  0  0
  144.1343  136.2147  149.6352 H   0  0  0  0  0  0  0  0  0  0  0  0
  148.3853  137.8449  152.3544 H   0  0  0  0  0  0  0  0  0  0  0  0
  142.8178  134.1896  150.4625 H   0  0  0  0  0  0  0  0  0  0  0  0
  1  2  1  0  0  0  0
  1 18  1  0  0  0  0
  1 19  1  0  0  0  0
  1 20  1  0  0  0  0
  2  8  1  0  0  0  0
  2  3  2  0  0  0  0
  3  4  1  0  0  0  0
  3 21  1  0  0  0  0
  4  5  1  0  0  0  0
  4 22  1  0  0  0  0
  4 23  1  0  0  0  0
  5  6  1  0  0  0  0
  5 24  1  0  0  0  0
  5 25  1  0  0  0  0
  6  7  1  0  0  0  0
  6  8  1  0  0  0  0
  6 26  1  0  0  0  0
  7 27  1  0  0  0  0
  7 28  1  0  0  0  0
  7 29  1  0  0  0  0
  8  9  1  0  0  0  0
  8 30  1  0  0  0  0
  9 10  1  0  0  0  0
  9 31  1  0  0  0  0
  9 32  1  0  0  0  0
 10 11  1  0  0  0  0
 10 33  1  0  0  0  0
 10 41  1  0  0  0  0
 11 12  1  0  0  0  0
 11 34  1  0  0  0  0
 11 35  1  0  0  0  0
 12 13  1  0  0  0  0
 12 36  1  0  0  0  0
 12 37  1  0  0  0  0
 13 17  1  0  0  0  0
 13 14  1  0  0  0  0
 14 15  2  0  0  0  0
 14 38  1  0  0  0  0
 15 16  1  0  0  0  0
 15 39  1  0  0  0  0
 16 17  2  0  0  0  0
 16 42  1  0  0  0  0
 17 40  1  0  0  0  0
M  CHG  1  10   1
M  CHG  1  16   1
M  END
> <s_m_source_file>
AV-unprocessed.smi

> <i_m_source_file_index>
3187

> <i_lp_mmshare_version>
43012

> <i_f3d_flags>
0

> <s_epik_input>
W0NIM11DMT1bQ0hdW0NIMl1bQ0gyXVtDQEBIXShbQ0gzXSlbQ0BIXTFbQ0gyXVtOSF1bQ0gyXVtDSDJdbjJbY0hdW2NIXW5bY0hdMg==

> <s_epik_cmdline>
J2VwaWtfcHl0aG9uJywgJy1waCcsICc3LjAnLCAnLXRuJywgJzgnLCAnLW1hJywgJzIwMCcsICctbWV0YWxfYmluZGluZycsICctaW1hZScsICc8aW5maWxlLm1hZT4nLCAnLW9tYWUnLCAnPG91dGZpbGUubWFlPic=

> <r_lp_tautomer_probability>
1

> <r_epik_Ionization_Penalty>
1.51066

> <r_epik_Ionization_Penalty_Charging>
0.0026721

> <r_epik_Ionization_Penalty_Neutral>
1.50798

> <r_epik_State_Penalty>
1.12593

> <r_epik_Charging_Adjusted_Penalty>
1.12861

> <i_epik_Tot_Q>
2

> <i_epik_Tot_abs_Q>
2

> <r_epik_Metal_State_Penalty>
5.12155

> <b_epik_Metal_Only>
0

> <s_lp_Force_Field>
OPLS_2005

> <r_lp_Energy>
26.0631

> <b_lp_Chiralities_Consistent>
1

> <s_lp_Variant>
AV-unprocessed.smi:3187-8

> <Gold.Version>
5.8.1

> <Gold.Id.Protein>
6NUR|6NUR_protein|mol2

> <Gold.PLP.Fitness>
43.4961

> <Gold.PLP.PLP>
-30.7727

> <Gold.PLP.part.hbond>
-3.0000

> <Gold.PLP.part.metal>
0.0000

> <Gold.PLP.part.buried>
1.8104

> <Gold.PLP.part.nonpolar>
-30.1549

> <Gold.PLP.part.repulsive>
0.0682

> <Gold.PLP.ligand.clash>
0.0000

> <Gold.PLP.ligand.torsion>
1.0832

> <Gold.PLP.Chemscore.Hbond>
4.1435

> <Gold.PLP.Chemscore.CHOScore>
0.8065

> <Gold.PLP.Chemscore.Metal>
0.0000

> <Gold.Chemscore.Hbonds>
donor molecule, donor type, donor heavy atom, donor atom, acceptor molecule, acceptor atom, score
      L1  H    10    33       P1  7957  0.14
      L1  H    10    41       P1  7948  2.00
      L1  H    16    42       P1 10186  1.97
      L1  C    17    40       P1 10171  0.81

> <Gold.PLP.Chemscore.Internal.Correction>
0.0396

> <Gold.Rescore>
     Score         DG    S(hbond)    S(metal)    S(lipo)     H(rot)  DE(clash)    DE(int)     intcor
     13.28     -15.33       1.77        0.00      76.83       1.97       0.88       1.16       ----

> <Gold.Chemscore.Fitness>
13.2807

> <Gold.Chemscore.DG>
-15.3265

> <Gold.Chemscore.ZeroCoef>
-5.4800

> <Gold.Chemscore.Hbond>
1.7690

> <Gold.Chemscore.Metal>
0.0000

> <Gold.Chemscore.Lipo>
76.8326

> <Gold.Chemscore.Internal_Hbond>
0.0000

> <Gold.Chemscore.DEClash>
0.8822

> <Gold.Chemscore.DEInternal>
1.1636

> <Gold.Chemscore.Rot>
1.9732

> <Gold.Chemscore.Internal.Correction>
   9.000000E+99

> <Gold.Chemscore.Hbonds>
donor molecule, donor type, donor heavy atom, donor atom, acceptor molecule, acceptor atom, score
      L1  H    10    33       P1  7957  0.13
      L1  H    10    41       P1  7948  0.96
      L1  H    16    42       P1 10186  0.72

> <Gold.Chemscore.Hbond.Weighted>
-5.9085

> <Gold.Chemscore.Metal.Weighted>
-0.0000

> <Gold.Chemscore.Lipo.Weighted>
-8.9894

> <Gold.Chemscore.Internal_Hbond.Weighted>
0.0000

> <Gold.Chemscore.DEClash.Weighted>
0.8822

> <Gold.Chemscore.DEInternal.Weighted>
1.1636

> <Gold.Chemscore.Rot.Weighted>
5.0514

> <Gold.Chemscore.Internal.Correction.Weighted>
   9.000000E+99

> <Gold.Protein.RotatedTorsions>
[ 6907 6896 6895 6894 ] final  144.73 input  -60.11 | X-H torsion
[ 7974 7965 7964 7962 ] final  122.35 input  175.53 | X-H torsion
[ 8008 7997 7996 7995 ] final -111.68 input   59.86 | X-H torsion
[ 10167 10162 10161 10158 ] final    3.91 input  -65.29 | X-H torsion
[ 10718 10713 10712 10709 ] final   -5.57 input   66.30 | X-H torsion
[ 10763 10752 10751 10750 ] final  -82.96 input  -60.55 | X-H torsion
[ 11005 11000 10999 10996 ] final -138.54 input  -57.11 | X-H torsion

> <Gold.Protein.ActiveResidues>
 VAL166  LYS551  ARG553  GLY616  TRP617  ASP618  TYR619  PRO620  LYS621  CYS622 
 ASP623  PHE694  ASN695  SER759  ASP760  ASP761  ALA762  ILE779  LEU786  VAL792 
 PHE793  MET794  SER795  GLU796  ALA797  LYS798  CYS799  TRP800  GLU811  SER814 

> <Gold.Protein.RotatedAtoms>
  152.1900  133.4766  159.5002 H   0  0  0  0  0  0  0  0  0  0  0  0  # atno 6907 bound_to 6896
  150.6949  134.1725  159.4227 H   0  0  0  0  0  0  0  0  0  0  0  0  # atno 6908 bound_to 6896
  151.9639  135.0109  160.0600 H   0  0  0  0  0  0  0  0  0  0  0  0  # atno 6909 bound_to 6896
  145.1086  139.3468  143.4775 H   0  0  0  0  0  0  0  0  0  0  0  0  # atno 7974 bound_to 7965
  154.9936  140.0395  157.2330 H   0  0  0  0  0  0  0  0  0  0  0  0  # atno 8008 bound_to 7997
  154.7606  140.2784  155.6194 H   0  0  0  0  0  0  0  0  0  0  0  0  # atno 8009 bound_to 7997
  156.2903  140.2629  156.2384 H   0  0  0  0  0  0  0  0  0  0  0  0  # atno 8010 bound_to 7997
  140.6562  143.7422  150.7657 H   0  0  0  0  0  0  0  0  0  0  0  0  # atno 10167 bound_to 10162
  156.7446  130.5220  149.5817 H   0  0  0  0  0  0  0  0  0  0  0  0  # atno 10718 bound_to 10713
  154.5820  135.5573  153.7194 H   0  0  0  0  0  0  0  0  0  0  0  0  # atno 10763 bound_to 10752
  153.0085  135.6322  154.1969 H   0  0  0  0  0  0  0  0  0  0  0  0  # atno 10764 bound_to 10752
  154.1910  135.2882  155.3002 H   0  0  0  0  0  0  0  0  0  0  0  0  # atno 10765 bound_to 10752
  140.8606  134.2174  157.4709 H   0  0  0  0  0  0  0  0  0  0  0  0  # atno 11005 bound_to 11000
  146.3527  140.0995  142.8608 LP  0  0  0  0  0  0  0  0  0  0  0  0  # atno 17320 bound_to 7965
  145.0873  140.9261  143.4790 LP  0  0  0  0  0  0  0  0  0  0  0  0  # atno 17321 bound_to 7965
  140.1082  143.4724  152.2385 LP  0  0  0  0  0  0  0  0  0  0  0  0  # atno 17342 bound_to 10162
  139.5785  144.7499  151.3702 LP  0  0  0  0  0  0  0  0  0  0  0  0  # atno 17343 bound_to 10162
  156.1441  130.6265  151.0508 LP  0  0  0  0  0  0  0  0  0  0  0  0  # atno 17370 bound_to 10713
  157.6803  131.0839  150.7386 LP  0  0  0  0  0  0  0  0  0  0  0  0  # atno 17371 bound_to 10713
  139.8707  134.9727  156.4784 LP  0  0  0  0  0  0  0  0  0  0  0  0  # atno 17394 bound_to 11000
  140.8687  133.8004  155.9342 LP  0  0  0  0  0  0  0  0  0  0  0  0  # atno 17395 bound_to 11000

$$$$
