AV-unprocessed.smi:1844|AV-procd|sdf|7510|dock6
  -GOLD-   22720 9213D 1   1.00000     0.00000
 Structure written by MMmdl.
 45 46  0  0  0  0  0  0  0  0  1 V2000
  146.4534  131.0654  153.0475 C   0  0  0  0  0  0  0  0  0  0  0  0
  147.4837  131.6124  153.9173 N   0  0  0  0  0  0  0  0  0  0  0  0
  148.0461  132.8225  153.7634 C   0  0  0  0  0  0  0  0  0  0  0  0
  147.7177  133.5761  152.8453 O   0  0  0  0  0  0  0  0  0  0  0  0
  149.0580  133.1385  154.7749 C   0  0  0  0  0  0  0  0  0  0  0  0
  149.9723  132.1476  155.3231 C   0  0  0  0  0  0  0  0  0  0  0  0
  150.8879  132.4971  156.2478 C   0  0  0  0  0  0  0  0  0  0  0  0
  151.0020  133.8730  156.7401 C   0  0  0  0  0  0  0  0  0  0  0  0
  151.8384  134.1982  157.5834 O   0  0  0  0  0  0  0  0  0  0  0  0
  150.1207  134.7709  156.2040 N   0  0  0  0  0  0  0  0  0  0  0  0
  150.1382  136.1833  156.6206 C   0  0  0  0  0  0  0  0  0  0  0  0
  150.6728  137.1327  155.5389 C   0  0  0  0  0  0  0  0  0  0  0  0
  151.2197  136.6937  154.5264 O   0  0  0  0  0  0  0  0  0  0  0  0
  150.4813  138.4411  155.7685 N   0  0  0  0  0  0  0  0  0  0  0  0
  150.8945  139.5436  154.8976 C   0  0  2  0  0  0  0  0  0  0  0  0
  152.1404  140.2354  155.4868 C   0  0  0  0  0  0  0  0  0  0  0  0
  151.8175  141.0260  156.7668 C   0  0  0  0  0  0  0  0  0  0  0  0
  150.6859  142.0360  156.5261 C   0  0  0  0  0  0  0  0  0  0  0  0
  149.4319  141.3480  155.9629 C   0  0  0  0  0  0  0  0  0  0  0  0
  149.7467  140.5614  154.6733 C   0  0  2  0  0  0  0  0  0  0  0  0
  148.4805  139.9219  154.0780 C   0  0  0  0  0  0  0  0  0  0  0  0
  149.1685  134.4007  155.2339 C   0  0  0  0  0  0  0  0  0  0  0  0
  146.1570  130.0773  153.3993 H   0  0  0  0  0  0  0  0  0  0  0  0
  146.8206  130.9672  152.0253 H   0  0  0  0  0  0  0  0  0  0  0  0
  145.5697  131.7045  153.0411 H   0  0  0  0  0  0  0  0  0  0  0  0
  147.7917  131.0361  154.6869 H   0  0  0  0  0  0  0  0  0  0  0  0
  149.9410  131.1162  155.0041 H   0  0  0  0  0  0  0  0  0  0  0  0
  151.5565  131.7445  156.6391 H   0  0  0  0  0  0  0  0  0  0  0  0
  149.1359  136.5143  156.8959 H   0  0  0  0  0  0  0  0  0  0  0  0
  150.7339  136.2984  157.5282 H   0  0  0  0  0  0  0  0  0  0  0  0
  150.0116  138.7004  156.6240 H   0  0  0  0  0  0  0  0  0  0  0  0
  151.1822  139.1433  153.9240 H   0  0  0  0  0  0  0  0  0  0  0  0
  152.9208  139.5004  155.6885 H   0  0  0  0  0  0  0  0  0  0  0  0
  152.5544  140.9180  154.7436 H   0  0  0  0  0  0  0  0  0  0  0  0
  151.5316  140.3393  157.5644 H   0  0  0  0  0  0  0  0  0  0  0  0
  152.7103  141.5455  157.1158 H   0  0  0  0  0  0  0  0  0  0  0  0
  150.4421  142.5497  157.4563 H   0  0  0  0  0  0  0  0  0  0  0  0
  151.0247  142.8037  155.8294 H   0  0  0  0  0  0  0  0  0  0  0  0
  149.0133  140.6785  156.7153 H   0  0  0  0  0  0  0  0  0  0  0  0
  148.6669  142.0992  155.7633 H   0  0  0  0  0  0  0  0  0  0  0  0
  150.1040  141.2836  153.9377 H   0  0  0  0  0  0  0  0  0  0  0  0
  148.0107  139.2289  154.7764 H   0  0  0  0  0  0  0  0  0  0  0  0
  148.7119  139.3707  153.1661 H   0  0  0  0  0  0  0  0  0  0  0  0
  147.7417  140.6826  153.8245 H   0  0  0  0  0  0  0  0  0  0  0  0
  148.5450  135.2140  154.8896 H   0  0  0  0  0  0  0  0  0  0  0  0
  1  2  1  0  0  0  0
  1 23  1  0  0  0  0
  1 24  1  0  0  0  0
  1 25  1  0  0  0  0
  2  3  1  0  0  0  0
  2 26  1  0  0  0  0
  3  4  2  0  0  0  0
  3  5  1  0  0  0  0
  5 22  2  0  0  0  0
  5  6  1  0  0  0  0
  6  7  2  0  0  0  0
  6 27  1  0  0  0  0
  7  8  1  0  0  0  0
  7 28  1  0  0  0  0
  8  9  2  0  0  0  0
  8 10  1  0  0  0  0
 10 11  1  0  0  0  0
 10 22  1  0  0  0  0
 11 12  1  0  0  0  0
 11 29  1  0  0  0  0
 11 30  1  0  0  0  0
 12 13  2  0  0  0  0
 12 14  1  0  0  0  0
 14 15  1  0  0  0  0
 14 31  1  0  0  0  0
 15 20  1  0  0  0  0
 15 16  1  0  0  0  0
 15 32  1  0  0  0  0
 16 17  1  0  0  0  0
 16 33  1  0  0  0  0
 16 34  1  0  0  0  0
 17 18  1  0  0  0  0
 17 35  1  0  0  0  0
 17 36  1  0  0  0  0
 18 19  1  0  0  0  0
 18 37  1  0  0  0  0
 18 38  1  0  0  0  0
 19 20  1  0  0  0  0
 19 39  1  0  0  0  0
 19 40  1  0  0  0  0
 20 21  1  0  0  0  0
 20 41  1  0  0  0  0
 21 42  1  0  0  0  0
 21 43  1  0  0  0  0
 21 44  1  0  0  0  0
 22 45  1  0  0  0  0
M  END
> <s_m_source_file>
AV-unprocessed.smi

> <i_m_source_file_index>
1844

> <i_lp_mmshare_version>
43012

> <i_f3d_flags>
0

> <s_epik_input>
W0NIM11bTkhdQyg9TyljMVtjSF1bY0hdYyg9TyluKFtjSF0xKVtDSDJdQyg9TylbTkhdW0NAQEhdMltDSDJdW0NIMl1bQ0gyXVtDSDJdW0NASF0yW0NIM10=

> <s_epik_cmdline>
J2VwaWtfcHl0aG9uJywgJy1waCcsICc3LjAnLCAnLXRuJywgJzgnLCAnLW1hJywgJzIwMCcsICctbWV0YWxfYmluZGluZycsICctaW1hZScsICc8aW5maWxlLm1hZT4nLCAnLW9tYWUnLCAnPG91dGZpbGUubWFlPic=

> <r_lp_tautomer_probability>
1

> <r_epik_Ionization_Penalty>
3.66612e-07

> <r_epik_Ionization_Penalty_Charging>
5.18929e-08

> <r_epik_Ionization_Penalty_Neutral>
3.14719e-07

> <r_epik_State_Penalty>
-0

> <r_epik_Charging_Adjusted_Penalty>
5.18929e-08

> <i_epik_Tot_Q>
0

> <i_epik_Tot_abs_Q>
0

> <r_epik_Metal_State_Penalty>
-0

> <b_epik_Metal_Only>
0

> <s_lp_Force_Field>
OPLS_2005

> <r_lp_Energy>
22.5965

> <b_lp_Chiralities_Consistent>
1

> <s_lp_Variant>
AV-unprocessed.smi:1844-3

> <Gold.Version>
5.8.1

> <Gold.Id.Protein>
6NUR|6NUR_protein|mol2

> <Gold.PLP.Fitness>
39.5327

> <Gold.PLP.PLP>
-36.9237

> <Gold.PLP.part.hbond>
-2.0000

> <Gold.PLP.part.metal>
0.0000

> <Gold.PLP.part.buried>
-3.5697

> <Gold.PLP.part.nonpolar>
-33.0402

> <Gold.PLP.part.repulsive>
1.7979

> <Gold.PLP.ligand.clash>
0.0000

> <Gold.PLP.ligand.torsion>
0.9211

> <Gold.PLP.Chemscore.Hbond>
1.4800

> <Gold.PLP.Chemscore.CHOScore>
0.0000

> <Gold.PLP.Chemscore.Metal>
0.0000

> <Gold.Chemscore.Hbonds>
donor molecule, donor type, donor heavy atom, donor atom, acceptor molecule, acceptor atom, score
      P1  H  6896  6907       L1     9  0.11
      P1  H 10752 10765       L1    13  1.00

> <Gold.PLP.Chemscore.Internal.Correction>
0.0111

> <Gold.Rescore>
     Score         DG    S(hbond)    S(metal)    S(lipo)     H(rot)  DE(clash)    DE(int)     intcor
     13.77     -15.14       1.41        0.00      74.95       1.49       0.09       1.28       ----

> <Gold.Chemscore.Fitness>
13.7660

> <Gold.Chemscore.DG>
-15.1393

> <Gold.Chemscore.ZeroCoef>
-5.4800

> <Gold.Chemscore.Hbond>
1.4105

> <Gold.Chemscore.Metal>
0.0000

> <Gold.Chemscore.Lipo>
74.9451

> <Gold.Chemscore.Internal_Hbond>
0.0000

> <Gold.Chemscore.DEClash>
0.0898

> <Gold.Chemscore.DEInternal>
1.2834

> <Gold.Chemscore.Rot>
1.4923

> <Gold.Chemscore.Internal.Correction>
   9.000000E+99

> <Gold.Chemscore.Hbonds>
donor molecule, donor type, donor heavy atom, donor atom, acceptor molecule, acceptor atom, score
      P1  H  6896  6907       L1     9  0.07
      P1  H 10752 10765       L1    13  0.95

> <Gold.Chemscore.Hbond.Weighted>
-4.7111

> <Gold.Chemscore.Metal.Weighted>
-0.0000

> <Gold.Chemscore.Lipo.Weighted>
-8.7686

> <Gold.Chemscore.Internal_Hbond.Weighted>
0.0000

> <Gold.Chemscore.DEClash.Weighted>
0.0898

> <Gold.Chemscore.DEInternal.Weighted>
1.2834

> <Gold.Chemscore.Rot.Weighted>
3.8204

> <Gold.Chemscore.Internal.Correction.Weighted>
   9.000000E+99

> <Gold.Protein.RotatedTorsions>
[ 6907 6896 6895 6894 ] final -157.38 input  -60.11 | X-H torsion
[ 7974 7965 7964 7962 ] final -146.30 input  175.53 | X-H torsion
[ 8008 7997 7996 7995 ] final  172.14 input   59.86 | X-H torsion
[ 10167 10162 10161 10158 ] final  117.58 input  -65.29 | X-H torsion
[ 10718 10713 10712 10709 ] final  -80.93 input   66.30 | X-H torsion
[ 10763 10752 10751 10750 ] final  173.02 input  -60.55 | X-H torsion
[ 11005 11000 10999 10996 ] final  149.69 input  -57.11 | X-H torsion

> <Gold.Protein.ActiveResidues>
 VAL166  LYS551  ARG553  GLY616  TRP617  ASP618  TYR619  PRO620  LYS621  CYS622 
 ASP623  PHE694  ASN695  SER759  ASP760  ASP761  ALA762  ILE779  LEU786  VAL792 
 PHE793  MET794  SER795  GLU796  ALA797  LYS798  CYS799  TRP800  GLU811  SER814 

> <Gold.Protein.RotatedAtoms>
  151.3020  133.4118  159.2640 H   0  0  0  0  0  0  0  0  0  0  0  0  # atno 6907 bound_to 6896
  151.0187  134.9453  159.8058 H   0  0  0  0  0  0  0  0  0  0  0  0  # atno 6908 bound_to 6896
  152.5319  134.2983  159.9121 H   0  0  0  0  0  0  0  0  0  0  0  0  # atno 6909 bound_to 6896
  144.8169  140.5473  143.5605 H   0  0  0  0  0  0  0  0  0  0  0  0  # atno 7974 bound_to 7965
  156.1203  140.1493  156.9213 H   0  0  0  0  0  0  0  0  0  0  0  0  # atno 8008 bound_to 7997
  154.4831  140.0873  156.7466 H   0  0  0  0  0  0  0  0  0  0  0  0  # atno 8009 bound_to 7997
  155.4439  140.3432  155.4295 H   0  0  0  0  0  0  0  0  0  0  0  0  # atno 8010 bound_to 7997
  139.6169  144.7093  151.2720 H   0  0  0  0  0  0  0  0  0  0  0  0  # atno 10167 bound_to 10162
  156.0060  130.4589  150.3875 H   0  0  0  0  0  0  0  0  0  0  0  0  # atno 10718 bound_to 10713
  154.4342  135.2760  155.1892 H   0  0  0  0  0  0  0  0  0  0  0  0  # atno 10763 bound_to 10752
  154.3785  135.6093  153.5781 H   0  0  0  0  0  0  0  0  0  0  0  0  # atno 10764 bound_to 10752
  152.9837  135.5874  154.4658 H   0  0  0  0  0  0  0  0  0  0  0  0  # atno 10765 bound_to 10752
  140.1067  134.8950  157.1876 H   0  0  0  0  0  0  0  0  0  0  0  0  # atno 11005 bound_to 11000
  145.5195  139.1477  143.3560 LP  0  0  0  0  0  0  0  0  0  0  0  0  # atno 17320 bound_to 7965
  146.2472  140.5336  142.8909 LP  0  0  0  0  0  0  0  0  0  0  0  0  # atno 17321 bound_to 7965
  140.7356  143.6730  150.8065 LP  0  0  0  0  0  0  0  0  0  0  0  0  # atno 17342 bound_to 10162
  140.0335  143.5419  152.2750 LP  0  0  0  0  0  0  0  0  0  0  0  0  # atno 17343 bound_to 10162
  157.1952  131.0425  151.2679 LP  0  0  0  0  0  0  0  0  0  0  0  0  # atno 17370 bound_to 10713
  157.4026  130.7341  149.6778 LP  0  0  0  0  0  0  0  0  0  0  0  0  # atno 17371 bound_to 10713
  140.3147  134.2984  155.7259 LP  0  0  0  0  0  0  0  0  0  0  0  0  # atno 17394 bound_to 11000
  141.2120  133.7672  156.9826 LP  0  0  0  0  0  0  0  0  0  0  0  0  # atno 17395 bound_to 11000

$$$$
