#       Name:                AV-unprocessed.smi:3316
#       Creating user name   scv26
#       Creation time:       Fri Mar 27 19:09:45 2020


#       File generated by GOLD software.
#

@<TRIPOS>MOLECULE
AV-unprocessed.smi:3316
    42    44     1
SMALL
NO_CHARGES


@<TRIPOS>ATOM
      1 ****        -2.8314  -2.4691  -2.2866 C.3            1 S1                 0.0000
      2 ****        -2.2289  -1.6920  -1.1059 C.3            1 S1                 0.0000
      3 ****        -0.6896  -1.7703  -1.1033 C.3            1 S1                 0.0000
      4 ****        -0.1192  -1.0964   0.0809 N.4            1 S1                 1.0000
      5 ****         1.3529  -0.9992   0.0769 C.3            1 S1                 0.0000
      6 ****         1.8530  -0.2059   1.2978 C.3            1 S1                 0.0000
      7 ****         1.4545   1.3043   1.2722 C.3            1 S1                 0.0000
      8 ****         2.8113   2.0306   1.4191 C.3            1 S1                 0.0000
      9 ****         3.3759   1.7036   2.7853 C.2            1 S1                 0.0000
     10 ****         3.7335   0.4181   2.7694 C.2            1 S1                 0.0000
     11 ****         3.3989  -0.1260   1.3956 C.3            1 S1                 0.0000
     12 ****         3.6825   1.1216   0.5479 C.3            1 S1                 0.0000
     13 ****        -2.7241  -0.2503  -1.0843 C.ar           1 S1                 0.0000
     14 ****        -3.5158   0.2204  -0.0152 C.ar           1 S1                 0.0000
     15 ****        -3.9363   1.5656  -0.0276 C.ar           1 S1                 0.0000
     16 ****        -3.6169   2.4330  -1.0112 N.ar           1 S1                 0.0000
     17 ****        -2.8617   1.9783  -2.0334 C.ar           1 S1                 0.0000
     18 ****        -2.3912   0.6527  -2.1175 C.ar           1 S1                 0.0000
     19 ****        -3.9213  -2.4515  -2.2507 H              1 S1                 0.0000
     20 ****        -2.5200  -3.5139  -2.2695 H              1 S1                 0.0000
     21 ****        -2.5235  -2.0486  -3.2443 H              1 S1                 0.0000
     22 ****        -2.5822  -2.1767  -0.1942 H              1 S1                 0.0000
     23 ****        -0.3652  -2.8117  -1.1046 H              1 S1                 0.0000
     24 ****        -0.2876  -1.3137  -2.0088 H              1 S1                 0.0000
     25 ****        -0.4924  -0.1582   0.1155 H              1 S1                 0.0000
     26 ****         1.7713  -2.0063   0.0906 H              1 S1                 0.0000
     27 ****         1.6824  -0.5296  -0.8504 H              1 S1                 0.0000
     28 ****         1.4621  -0.6827   2.1990 H              1 S1                 0.0000
     29 ****         0.9779   1.5782   0.3298 H              1 S1                 0.0000
     30 ****         0.7638   1.5608   2.0765 H              1 S1                 0.0000
     31 ****         2.8260   3.0885   1.1556 H              1 S1                 0.0000
     32 ****         3.4385   2.3987   3.6096 H              1 S1                 0.0000
     33 ****         4.1483  -0.1630   3.5798 H              1 S1                 0.0000
     34 ****         3.9535  -1.0223   1.1165 H              1 S1                 0.0000
     35 ****         3.3489   1.0498  -0.4883 H              1 S1                 0.0000
     36 ****         4.7359   1.4097   0.5545 H              1 S1                 0.0000
     37 ****        -3.7990  -0.4293   0.7999 H              1 S1                 0.0000
     38 ****        -4.5432   1.9555   0.7762 H              1 S1                 0.0000
     39 ****        -2.6222   2.6926  -2.8070 H              1 S1                 0.0000
     40 ****        -1.7885   0.3430  -2.9586 H              1 S1                 0.0000
     41 ****        -0.4125  -1.5901   0.9117 H              1 S1                 0.0000
     42 ****        -3.9298   3.3824  -0.9835 LP             1 S1                 0.0000
@<TRIPOS>BOND
    1    1    2 1     
    2    1   19 1     
    3    1   20 1     
    4    1   21 1     
    5    2    3 1     
    6    2   13 1     
    7    2   22 1     
    8    3    4 1     
    9    3   23 1     
   10    3   24 1     
   11    4    5 1     
   12    4   25 1     
   13    4   41 1     
   14    5    6 1     
   15    5   26 1     
   16    5   27 1     
   17    6   11 1     
   18    6    7 1     
   19    6   28 1     
   20    7    8 1     
   21    7   29 1     
   22    7   30 1     
   23    8   12 1     
   24    8    9 1     
   25    8   31 1     
   26    9   10 2     
   27    9   32 1     
   28   10   11 1     
   29   10   33 1     
   30   11   12 1     
   31   11   34 1     
   32   12   35 1     
   33   12   36 1     
   34   13   18 ar    
   35   13   14 ar    
   36   14   15 ar    
   37   14   37 1     
   38   15   16 ar    
   39   15   38 1     
   40   16   17 ar    
   41   17   18 ar    
   42   17   39 1     
   43   18   40 1     
   44   16   42 1     
@<TRIPOS>SUBSTRUCTURE
      1 S1             1
@<TRIPOS>SET
LONE_PAIRS      STATIC     ATOMS    <user>   **** ""
1 42
DONOR_HYDROGENS      STATIC     ATOMS    <user>   **** ""
2 25 41
ATOM$BLUE        STATIC     ATOMS    COLORGROUP SYSTEM
1 42
ATOM$RED        STATIC     ATOMS    COLORGROUP SYSTEM
2 25 41
