#       Name:                AV-unprocessed.smi:198
#       Creating user name   scv26
#       Creation time:       Thu Mar 26 19:42:15 2020


#       File generated by GOLD software.
#

@<TRIPOS>MOLECULE
AV-unprocessed.smi:198
    67    71     1
SMALL
NO_CHARGES


@<TRIPOS>ATOM
      1 ****        -2.5208   2.5699   3.2633 C.3            1 S1                 0.0000
      2 ****        -3.6256   1.6542   2.8944 N.4            1 S1                 1.0000
      3 ****        -3.1974   0.2453   2.7052 C.3            1 S1                 0.0000
      4 ****        -2.4394   0.0487   1.3815 C.3            1 S1                 0.0000
      5 ****        -3.2803   0.5405   0.1817 C.3            1 S1                 0.0000
      6 ****        -3.7493   1.9984   0.4018 C.3            1 S1                 0.0000
      7 ****        -4.6695   2.4304  -0.7562 C.3            1 S1                 0.0000
      8 ****        -3.9731   2.2407  -2.1126 C.3            1 S1                 0.0000
      9 ****        -3.4364   0.8035  -2.2726 C.3            1 S1                 0.0000
     10 ****        -2.6294   0.3813  -1.1265 N.3            1 S1                 0.0000
     11 ****        -1.3019   0.6398  -1.2111 C.ar           1 S1                 0.0000
     12 ****        -0.8611   1.9121  -1.3883 N.ar           1 S1                 0.0000
     13 ****         0.4499   2.1652  -1.4412 C.ar           1 S1                 0.0000
     14 ****         1.4698   1.3104  -1.3363 N.ar           1 S1                 0.0000
     15 ****         1.0295   0.0310  -1.1613 C.ar           1 S1                 0.0000
     16 ****        -0.3282  -0.3868  -1.0877 C.ar           1 S1                 0.0000
     17 ****        -0.3953  -1.7593  -0.8900 N.2            1 S1                 0.0000
     18 ****         0.8546  -2.1326  -0.8436 C.2            1 S1                 0.0000
     19 ****         1.7786  -1.1235  -1.0116 N.pl3          1 S1                 0.0000
     20 ****         3.2097  -1.2357  -0.9791 C.3            1 S1                 0.0000
     21 ****         3.9425  -2.5129  -1.3983 C.3            1 S1                 0.0000
     22 ****         5.0394  -2.2118  -0.3496 C.3            1 S1                 0.0000
     23 ****         5.5416  -3.4100   0.4751 C.3            1 S1                 0.0000
     24 ****         6.1439  -4.3971  -0.3369 O.3            1 S1                 0.0000
     25 ****         6.2499  -1.3874  -0.8365 C.3            1 S1                 0.0000
     26 ****         6.9375  -2.0256  -1.8927 O.3            1 S1                 0.0000
     27 ****         3.9495  -1.3684   0.3516 C.3            1 S1                 0.0000
     28 ****        -4.4578   2.1449   1.7662 C.3            1 S1                 0.0000
     29 ****        -1.7889   2.6723   2.4622 H              1 S1                 0.0000
     30 ****        -2.0020   2.2044   4.1497 H              1 S1                 0.0000
     31 ****        -2.9097   3.5622   3.4943 H              1 S1                 0.0000
     32 ****        -2.5839  -0.0751   3.5482 H              1 S1                 0.0000
     33 ****        -4.0848  -0.3888   2.7131 H              1 S1                 0.0000
     34 ****        -1.4878   0.5782   1.4350 H              1 S1                 0.0000
     35 ****        -2.1982  -1.0074   1.2579 H              1 S1                 0.0000
     36 ****        -4.1705  -0.0897   0.1450 H              1 S1                 0.0000
     37 ****        -2.8777   2.6538   0.3974 H              1 S1                 0.0000
     38 ****        -5.5879   1.8419  -0.7373 H              1 S1                 0.0000
     39 ****        -4.9658   3.4730  -0.6359 H              1 S1                 0.0000
     40 ****        -4.6680   2.4663  -2.9218 H              1 S1                 0.0000
     41 ****        -3.1607   2.9609  -2.2065 H              1 S1                 0.0000
     42 ****        -4.2728   0.1102  -2.3696 H              1 S1                 0.0000
     43 ****        -2.8588   0.7179  -3.1943 H              1 S1                 0.0000
     44 ****         0.7208   3.2005  -1.5873 H              1 S1                 0.0000
     45 ****         1.1313  -3.1635  -0.6800 H              1 S1                 0.0000
     46 ****         3.5974  -0.3895  -1.5488 H              1 S1                 0.0000
     47 ****         3.3925  -3.4269  -1.1711 H              1 S1                 0.0000
     48 ****         4.2818  -2.5146  -2.4344 H              1 S1                 0.0000
     49 ****         6.2551  -3.0954   1.2374 H              1 S1                 0.0000
     50 ****         4.7168  -3.8856   1.0067 H              1 S1                 0.0000
     51 ****         6.4031  -5.1209   0.2128 H              1 S1                 0.0000
     52 ****         5.9412  -0.4050  -1.1945 H              1 S1                 0.0000
     53 ****         6.9522  -1.2032  -0.0227 H              1 S1                 0.0000
     54 ****         7.1882  -2.8907  -1.6047 H              1 S1                 0.0000
     55 ****         4.2958  -0.4226   0.7693 H              1 S1                 0.0000
     56 ****         3.3747  -1.9314   1.0895 H              1 S1                 0.0000
     57 ****        -5.3875   1.5740   1.7596 H              1 S1                 0.0000
     58 ****        -4.7394   3.1839   1.9420 H              1 S1                 0.0000
     59 ****        -4.2348   1.6478   3.7003 H              1 S1                 0.0000
     60 ****        -2.6049  -0.6156  -1.2024 LP             1 S1                 0.0000
     61 ****        -1.5184   2.6603  -1.4793 LP             1 S1                 0.0000
     62 ****         2.4334   1.5741  -1.3804 LP             1 S1                 0.0000
     63 ****        -1.2121  -2.3298  -0.8032 LP             1 S1                 0.0000
     64 ****         6.9478  -4.0147  -0.7923 LP             1 S1                 0.0000
     65 ****         5.4901  -4.7131  -1.0245 LP             1 S1                 0.0000
     66 ****         7.7535  -1.4993  -2.1316 LP             1 S1                 0.0000
     67 ****         6.3400  -2.0953  -2.6916 LP             1 S1                 0.0000
@<TRIPOS>BOND
    1    1    2 1     
    2    1   29 1     
    3    1   30 1     
    4    1   31 1     
    5    2   28 1     
    6    2    3 1     
    7    2   59 1     
    8    3    4 1     
    9    3   32 1     
   10    3   33 1     
   11    4    5 1     
   12    4   34 1     
   13    4   35 1     
   14    5   10 1     
   15    5    6 1     
   16    5   36 1     
   17    6    7 1     
   18    6   28 1     
   19    6   37 1     
   20    7    8 1     
   21    7   38 1     
   22    7   39 1     
   23    8    9 1     
   24    8   40 1     
   25    8   41 1     
   26    9   10 1     
   27    9   42 1     
   28    9   43 1     
   29   10   11 1     
   30   11   16 ar    
   31   11   12 ar    
   32   12   13 ar    
   33   13   14 ar    
   34   13   44 1     
   35   14   15 ar    
   36   15   19 1     
   37   15   16 ar    
   38   16   17 1     
   39   17   18 2     
   40   18   19 1     
   41   18   45 1     
   42   19   20 1     
   43   20   27 1     
   44   20   21 1     
   45   20   46 1     
   46   21   22 1     
   47   21   47 1     
   48   21   48 1     
   49   22   23 1     
   50   22   25 1     
   51   22   27 1     
   52   23   24 1     
   53   23   49 1     
   54   23   50 1     
   55   24   51 1     
   56   25   26 1     
   57   25   52 1     
   58   25   53 1     
   59   26   54 1     
   60   27   55 1     
   61   27   56 1     
   62   28   57 1     
   63   28   58 1     
   64   10   60 1     
   65   12   61 1     
   66   14   62 1     
   67   17   63 1     
   68   24   64 1     
   69   24   65 1     
   70   26   66 1     
   71   26   67 1     
@<TRIPOS>SUBSTRUCTURE
      1 S1             1
@<TRIPOS>SET
LONE_PAIRS      STATIC     ATOMS    <user>   **** ""
8 60 61 62 63 64 65 66 67
DONOR_HYDROGENS      STATIC     ATOMS    <user>   **** ""
3 59 51 54
ATOM$BLUE        STATIC     ATOMS    COLORGROUP SYSTEM
8 60 61 62 63 64 65 66 67
ATOM$RED        STATIC     ATOMS    COLORGROUP SYSTEM
3 59 51 54
