AV-unprocessed.smi:1871|AV-procd|sdf|7601|dock6
  -GOLD-   22720 9313D 1   1.00000     0.00000
 Structure written by MMmdl.
 41 43  0  0  0  0  0  0  0  0  2 V2000
  149.2188  142.1835  155.2667 O   0  0  0  0  0  0  0  0  0  0  0  0
  150.3726  141.6267  155.8554 C   0  0  0  0  0  0  0  0  0  0  0  0
  150.8017  142.3692  157.0790 C   0  0  0  0  0  0  0  0  0  0  0  0
  150.8202  143.7260  157.2106 N   0  3  0  0  0  0  0  0  0  0  0  0
  151.2851  144.0734  158.4794 C   0  0  0  0  0  0  0  0  0  0  0  0
  151.4783  145.3181  159.0705 C   0  0  0  0  0  0  0  0  0  0  0  0
  151.9713  145.3213  160.3920 C   0  0  0  0  0  0  0  0  0  0  0  0
  152.2526  144.1193  161.0736 C   0  0  0  0  0  0  0  0  0  0  0  0
  152.0531  142.8634  160.4634 C   0  0  0  0  0  0  0  0  0  0  0  0
  151.5651  142.8695  159.1567 C   0  0  0  0  0  0  0  0  0  0  0  0
  151.2554  141.8444  158.2559 N   0  0  0  0  0  0  0  0  0  0  0  0
  151.4561  140.4477  158.6749 C   0  0  0  0  0  0  0  0  0  0  0  0
  152.9036  139.9587  158.4654 C   0  0  2  0  0  0  0  0  0  0  0  0
  153.0339  139.3825  157.1805 O   0  0  0  0  0  0  0  0  0  0  0  0
  153.3275  139.0060  159.5716 C   0  0  0  0  0  0  0  0  0  0  0  0
  152.6705  137.7695  159.7490 C   0  0  0  0  0  0  0  0  0  0  0  0
  153.0646  136.8986  160.7829 C   0  0  0  0  0  0  0  0  0  0  0  0
  154.1200  137.2450  161.6502 C   0  0  0  0  0  0  0  0  0  0  0  0
  154.4489  136.3586  162.6505 O   0  0  0  0  0  0  0  0  0  0  0  0
  153.5470  136.1020  163.6350 C   0  0  0  0  0  0  0  0  0  0  0  0
  153.8766  134.9646  164.2950 F   0  0  0  0  0  0  0  0  0  0  0  0
  153.5526  137.1134  164.5363 F   0  0  0  0  0  0  0  0  0  0  0  0
  154.7673  138.4923  161.4802 C   0  0  0  0  0  0  0  0  0  0  0  0
  154.3742  139.3639  160.4462 C   0  0  0  0  0  0  0  0  0  0  0  0
  149.0894  143.0512  155.6185 H   0  0  0  0  0  0  0  0  0  0  0  0
  150.1661  140.5894  156.1198 H   0  0  0  0  0  0  0  0  0  0  0  0
  151.1786  141.6102  155.1227 H   0  0  0  0  0  0  0  0  0  0  0  0
  151.2646  146.2402  158.5499 H   0  0  0  0  0  0  0  0  0  0  0  0
  152.1373  146.2643  160.8927 H   0  0  0  0  0  0  0  0  0  0  0  0
  152.6292  144.1612  162.0855 H   0  0  0  0  0  0  0  0  0  0  0  0
  152.2732  141.9486  160.9933 H   0  0  0  0  0  0  0  0  0  0  0  0
  151.1659  140.3606  159.7227 H   0  0  0  0  0  0  0  0  0  0  0  0
  150.7597  139.8217  158.1174 H   0  0  0  0  0  0  0  0  0  0  0  0
  153.5748  140.8179  158.4848 H   0  0  0  0  0  0  0  0  0  0  0  0
  152.4572  139.8392  156.5872 H   0  0  0  0  0  0  0  0  0  0  0  0
  151.8589  137.4856  159.0952 H   0  0  0  0  0  0  0  0  0  0  0  0
  152.5532  135.9557  160.9102 H   0  0  0  0  0  0  0  0  0  0  0  0
  152.5344  136.0129  163.2408 H   0  0  0  0  0  0  0  0  0  0  0  0
  155.5639  138.7972  162.1420 H   0  0  0  0  0  0  0  0  0  0  0  0
  154.8783  140.3123  160.3314 H   0  0  0  0  0  0  0  0  0  0  0  0
  150.5395  144.3654  156.4785 H   0  0  0  0  0  0  0  0  0  0  0  0
  1  2  1  0  0  0  0
  1 25  1  0  0  0  0
  2  3  1  0  0  0  0
  2 26  1  0  0  0  0
  2 27  1  0  0  0  0
  3 11  1  0  0  0  0
  3  4  2  0  0  0  0
  4  5  1  0  0  0  0
  4 41  1  0  0  0  0
  5 10  2  0  0  0  0
  5  6  1  0  0  0  0
  6  7  2  0  0  0  0
  6 28  1  0  0  0  0
  7  8  1  0  0  0  0
  7 29  1  0  0  0  0
  8  9  2  0  0  0  0
  8 30  1  0  0  0  0
  9 10  1  0  0  0  0
  9 31  1  0  0  0  0
 10 11  1  0  0  0  0
 11 12  1  0  0  0  0
 12 13  1  0  0  0  0
 12 32  1  0  0  0  0
 12 33  1  0  0  0  0
 13 14  1  0  0  0  0
 13 15  1  0  0  0  0
 13 34  1  0  0  0  0
 14 35  1  0  0  0  0
 15 24  1  0  0  0  0
 15 16  2  0  0  0  0
 16 17  1  0  0  0  0
 16 36  1  0  0  0  0
 17 18  2  0  0  0  0
 17 37  1  0  0  0  0
 18 19  1  0  0  0  0
 18 23  1  0  0  0  0
 19 20  1  0  0  0  0
 20 21  1  0  0  0  0
 20 22  1  0  0  0  0
 20 38  1  0  0  0  0
 23 24  2  0  0  0  0
 23 39  1  0  0  0  0
 24 40  1  0  0  0  0
M  CHG  1   4   1
M  END
> <s_m_source_file>
AV-unprocessed.smi

> <i_m_source_file_index>
1871

> <i_lp_mmshare_version>
43012

> <i_f3d_flags>
0

> <s_epik_input>
W2NIXTFbY0hdW2NIXVtjSF1jKGMxMiluKGMobjIpW0NIMl1bT0hdKVtDSDJdW0NASF0oW09IXSljM1tjSF1bY0hdYyhPW0NIXShGKUYpW2NIXVtjSF0z

> <s_epik_cmdline>
J2VwaWtfcHl0aG9uJywgJy1waCcsICc3LjAnLCAnLXRuJywgJzgnLCAnLW1hJywgJzIwMCcsICctbWV0YWxfYmluZGluZycsICctaW1hZScsICc8aW5maWxlLm1hZT4nLCAnLW9tYWUnLCAnPG91dGZpbGUubWFlPic=

> <r_lp_tautomer_probability>
1

> <r_epik_Ionization_Penalty>
1.35642

> <r_epik_Ionization_Penalty_Charging>
1.35557

> <r_epik_Ionization_Penalty_Neutral>
0.000856035

> <r_epik_State_Penalty>
1.43401

> <r_epik_Charging_Adjusted_Penalty>
2.78958

> <i_epik_Tot_Q>
1

> <i_epik_Tot_abs_Q>
1

> <r_epik_Metal_State_Penalty>
5.47166

> <b_epik_Metal_Only>
0

> <s_lp_Force_Field>
OPLS_2005

> <r_lp_Energy>
13.1026

> <b_lp_Chiralities_Consistent>
1

> <s_lp_Variant>
AV-unprocessed.smi:1871-3

> <Gold.Version>
5.8.1

> <Gold.Id.Protein>
6NUR|6NUR_protein|mol2

> <Gold.PLP.Fitness>
62.6766

> <Gold.PLP.PLP>
-53.6720

> <Gold.PLP.part.hbond>
-3.0000

> <Gold.PLP.part.metal>
0.0000

> <Gold.PLP.part.buried>
-6.9929

> <Gold.PLP.part.nonpolar>
-44.1532

> <Gold.PLP.part.repulsive>
0.0000

> <Gold.PLP.ligand.clash>
0.0000

> <Gold.PLP.ligand.torsion>
1.2374

> <Gold.PLP.Chemscore.Hbond>
3.7920

> <Gold.PLP.Chemscore.CHOScore>
0.0000

> <Gold.PLP.Chemscore.Metal>
0.0000

> <Gold.Chemscore.Hbonds>
donor molecule, donor type, donor heavy atom, donor atom, acceptor molecule, acceptor atom, score
      L1  H     1    25       P1  8028  1.00
      L1  H     4    41       P1  8028  1.38
      P1  H  7997  8010       L1    14  0.80

> <Gold.PLP.Chemscore.Internal.Correction>
0.1034

> <Gold.Rescore>
     Score         DG    S(hbond)    S(metal)    S(lipo)     H(rot)  DE(clash)    DE(int)     intcor
     17.68     -18.82       2.02        0.00     129.90       3.37       0.05       1.08       ----

> <Gold.Chemscore.Fitness>
17.6805

> <Gold.Chemscore.DG>
-18.8185

> <Gold.Chemscore.ZeroCoef>
-5.4800

> <Gold.Chemscore.Hbond>
2.0231

> <Gold.Chemscore.Metal>
0.0000

> <Gold.Chemscore.Lipo>
129.8958

> <Gold.Chemscore.Internal_Hbond>
0.0000

> <Gold.Chemscore.DEClash>
0.0533

> <Gold.Chemscore.DEInternal>
1.0847

> <Gold.Chemscore.Rot>
3.3659

> <Gold.Chemscore.Internal.Correction>
   9.000000E+99

> <Gold.Chemscore.Hbonds>
donor molecule, donor type, donor heavy atom, donor atom, acceptor molecule, acceptor atom, score
      L1  H     1    25       P1  8028  0.99
      L1  H     4    41       P1  8028  0.68
      P1  H  7997  8010       L1    14  0.03

> <Gold.Chemscore.Hbond.Weighted>
-6.7573

> <Gold.Chemscore.Metal.Weighted>
-0.0000

> <Gold.Chemscore.Lipo.Weighted>
-15.1978

> <Gold.Chemscore.Internal_Hbond.Weighted>
0.0000

> <Gold.Chemscore.DEClash.Weighted>
0.0533

> <Gold.Chemscore.DEInternal.Weighted>
1.0847

> <Gold.Chemscore.Rot.Weighted>
8.6167

> <Gold.Chemscore.Internal.Correction.Weighted>
   9.000000E+99

> <Gold.Protein.RotatedTorsions>
[ 6907 6896 6895 6894 ] final  -27.28 input  -60.11 | X-H torsion
[ 7974 7965 7964 7962 ] final -155.92 input  175.53 | X-H torsion
[ 8008 7997 7996 7995 ] final   58.09 input   59.86 | X-H torsion
[ 10167 10162 10161 10158 ] final  147.54 input  -65.29 | X-H torsion
[ 10718 10713 10712 10709 ] final -114.97 input   66.30 | X-H torsion
[ 10763 10752 10751 10750 ] final  -65.78 input  -60.55 | X-H torsion
[ 11005 11000 10999 10996 ] final  -19.05 input  -57.11 | X-H torsion

> <Gold.Protein.ActiveResidues>
 VAL166  LYS551  ARG553  GLY616  TRP617  ASP618  TYR619  PRO620  LYS621  CYS622 
 ASP623  PHE694  ASN695  SER759  ASP760  ASP761  ALA762  ILE779  LEU786  VAL792 
 PHE793  MET794  SER795  GLU796  ALA797  LYS798  CYS799  TRP800  GLU811  SER814 

> <Gold.Protein.RotatedAtoms>
  151.1490  135.0218  159.8659 H   0  0  0  0  0  0  0  0  0  0  0  0  # atno 6907 bound_to 6896
  152.5453  134.1410  159.8489 H   0  0  0  0  0  0  0  0  0  0  0  0  # atno 6908 bound_to 6896
  151.1493  133.4872  159.2628 H   0  0  0  0  0  0  0  0  0  0  0  0  # atno 6909 bound_to 6896
  144.7617  140.4182  143.5972 H   0  0  0  0  0  0  0  0  0  0  0  0  # atno 7974 bound_to 7965
  155.5444  140.3485  155.4454 H   0  0  0  0  0  0  0  0  0  0  0  0  # atno 8008 bound_to 7997
  156.0628  140.1344  156.9947 H   0  0  0  0  0  0  0  0  0  0  0  0  # atno 8009 bound_to 7997
  154.4488  140.0981  156.6527 H   0  0  0  0  0  0  0  0  0  0  0  0  # atno 8010 bound_to 7997
  139.4888  144.5747  151.6988 H   0  0  0  0  0  0  0  0  0  0  0  0  # atno 10167 bound_to 10162
  156.0865  130.6055  150.8845 H   0  0  0  0  0  0  0  0  0  0  0  0  # atno 10718 bound_to 10713
  154.3501  135.6138  153.5638 H   0  0  0  0  0  0  0  0  0  0  0  0  # atno 10763 bound_to 10752
  152.9799  135.5790  154.4753 H   0  0  0  0  0  0  0  0  0  0  0  0  # atno 10764 bound_to 10752
  154.4472  135.2852  155.1783 H   0  0  0  0  0  0  0  0  0  0  0  0  # atno 10765 bound_to 10752
  140.8328  133.7984  155.9777 H   0  0  0  0  0  0  0  0  0  0  0  0  # atno 11005 bound_to 11000
  145.6598  139.1579  143.2814 LP  0  0  0  0  0  0  0  0  0  0  0  0  # atno 17320 bound_to 7965
  146.1686  140.6680  142.9244 LP  0  0  0  0  0  0  0  0  0  0  0  0  # atno 17321 bound_to 7965
  140.5341  144.0683  150.6064 LP  0  0  0  0  0  0  0  0  0  0  0  0  # atno 17342 bound_to 10162
  140.3684  143.2868  152.0306 LP  0  0  0  0  0  0  0  0  0  0  0  0  # atno 17343 bound_to 10162
  157.6001  131.0941  150.8975 LP  0  0  0  0  0  0  0  0  0  0  0  0  # atno 17370 bound_to 10713
  156.9134  130.5289  149.5280 LP  0  0  0  0  0  0  0  0  0  0  0  0  # atno 17371 bound_to 10713
  140.8980  134.2414  157.5058 LP  0  0  0  0  0  0  0  0  0  0  0  0  # atno 17394 bound_to 11000
  139.8704  134.9693  156.4661 LP  0  0  0  0  0  0  0  0  0  0  0  0  # atno 17395 bound_to 11000

$$$$
