AV-unprocessed.smi:3299|AV-procd|sdf|12649|dock2
  -GOLD-   2272018583D 1   1.00000     0.00000
 Structure written by MMmdl.
 34 35  0  0  0  0  0  0  0  0  1 V2000
  153.0535  142.6341  161.3182 C   0  0  0  0  0  0  0  0  0  0  0  0
  152.3612  143.3754  160.2179 C   0  0  0  0  0  0  0  0  0  0  0  0
  152.9038  143.7647  159.0172 C   0  0  0  0  0  0  0  0  0  0  0  0
  151.7495  144.6085  158.0205 S   0  0  0  0  0  0  0  0  0  0  0  0
  150.5536  144.3949  159.3007 C   0  0  0  0  0  0  0  0  0  0  0  0
  149.2065  144.8335  159.3016 N   0  0  0  0  0  0  0  0  0  0  0  0
  148.2931  144.6833  160.2743 C   0  0  0  0  0  0  0  0  0  0  0  0
  148.4937  144.1330  161.3567 O   0  0  0  0  0  0  0  0  0  0  0  0
  147.1133  145.2129  159.9131 N   0  0  0  0  0  0  0  0  0  0  0  0
  145.8807  145.2441  160.7037 C   0  0  1  0  0  0  0  0  0  0  0  0
  144.6406  145.5684  159.8397 C   0  0  0  0  0  0  0  0  0  0  0  0
  144.7577  146.8781  159.0424 C   0  0  0  0  0  0  0  0  0  0  0  0
  145.3174  146.6173  157.7733 O   0  0  0  0  0  0  0  0  0  0  0  0
  145.6519  144.0060  161.5585 C   0  0  0  0  0  0  0  0  0  0  0  0
  144.7002  142.9211  161.1145 C   0  0  0  0  0  0  0  0  0  0  0  0
  144.3535  143.7951  162.2993 C   0  0  0  0  0  0  0  0  0  0  0  0
  151.0195  143.7419  160.3667 N   0  0  0  0  0  0  0  0  0  0  0  0
  154.0350  142.2787  161.0037 H   0  0  0  0  0  0  0  0  0  0  0  0
  152.4752  141.7654  161.6338 H   0  0  0  0  0  0  0  0  0  0  0  0
  153.1975  143.2715  162.1908 H   0  0  0  0  0  0  0  0  0  0  0  0
  153.9105  143.6071  158.6593 H   0  0  0  0  0  0  0  0  0  0  0  0
  148.9038  145.3086  158.4643 H   0  0  0  0  0  0  0  0  0  0  0  0
  147.0607  145.6409  159.0004 H   0  0  0  0  0  0  0  0  0  0  0  0
  146.0135  146.0797  161.3921 H   0  0  0  0  0  0  0  0  0  0  0  0
  144.4348  144.7442  159.1555 H   0  0  0  0  0  0  0  0  0  0  0  0
  143.7692  145.6346  160.4927 H   0  0  0  0  0  0  0  0  0  0  0  0
  143.7779  147.3375  158.9102 H   0  0  0  0  0  0  0  0  0  0  0  0
  145.3915  147.5982  159.5602 H   0  0  0  0  0  0  0  0  0  0  0  0
  146.2274  146.3892  157.8867 H   0  0  0  0  0  0  0  0  0  0  0  0
  146.5468  143.6526  162.0670 H   0  0  0  0  0  0  0  0  0  0  0  0
  144.1420  143.0795  160.1939 H   0  0  0  0  0  0  0  0  0  0  0  0
  144.9862  141.8905  161.3151 H   0  0  0  0  0  0  0  0  0  0  0  0
  144.4091  143.3476  163.2895 H   0  0  0  0  0  0  0  0  0  0  0  0
  143.5656  144.5336  162.1648 H   0  0  0  0  0  0  0  0  0  0  0  0
  1  2  1  0  0  0  0
  1 18  1  0  0  0  0
  1 19  1  0  0  0  0
  1 20  1  0  0  0  0
  2 17  1  0  0  0  0
  2  3  2  0  0  0  0
  3  4  1  0  0  0  0
  3 21  1  0  0  0  0
  4  5  1  0  0  0  0
  5  6  1  0  0  0  0
  5 17  2  0  0  0  0
  6  7  1  0  0  0  0
  6 22  1  0  0  0  0
  7  8  2  0  0  0  0
  7  9  1  0  0  0  0
  9 10  1  0  0  0  0
  9 23  1  0  0  0  0
 10 11  1  0  0  0  0
 10 14  1  0  0  0  0
 10 24  1  0  0  0  0
 11 12  1  0  0  0  0
 11 25  1  0  0  0  0
 11 26  1  0  0  0  0
 12 13  1  0  0  0  0
 12 27  1  0  0  0  0
 12 28  1  0  0  0  0
 13 29  1  0  0  0  0
 14 16  1  0  0  0  0
 14 15  1  0  0  0  0
 14 30  1  0  0  0  0
 15 16  1  0  0  0  0
 15 31  1  0  0  0  0
 15 32  1  0  0  0  0
 16 33  1  0  0  0  0
 16 34  1  0  0  0  0
M  END
> <s_m_source_file>
AV-unprocessed.smi

> <i_m_source_file_index>
3299

> <i_lp_mmshare_version>
43012

> <i_f3d_flags>
0

> <s_epik_input>
W0NIM11jMVtjSF1zYyhuMSlbTkhdQyg9TylbTkhdW0NASF0oW0NIMl1bQ0gyXVtPSF0pW0NIXTJbQ0gyXVtDSDJdMg==

> <s_epik_cmdline>
J2VwaWtfcHl0aG9uJywgJy1waCcsICc3LjAnLCAnLXRuJywgJzgnLCAnLW1hJywgJzIwMCcsICctbWV0YWxfYmluZGluZycsICctaW1hZScsICc8aW5maWxlLm1hZT4nLCAnLW9tYWUnLCAnPG91dGZpbGUubWFlPic=

> <r_lp_tautomer_probability>
0.999

> <r_epik_Ionization_Penalty>
0.000568872

> <r_epik_Ionization_Penalty_Charging>
0

> <r_epik_Ionization_Penalty_Neutral>
0.000568872

> <r_epik_State_Penalty>
0.000177984

> <r_epik_Charging_Adjusted_Penalty>
0.000177984

> <i_epik_Tot_Q>
0

> <i_epik_Tot_abs_Q>
0

> <r_epik_Metal_State_Penalty>
-0

> <b_epik_Metal_Only>
0

> <s_lp_Force_Field>
OPLS_2005

> <r_lp_Energy>
11.9184

> <b_lp_Chiralities_Consistent>
1

> <s_lp_Variant>
AV-unprocessed.smi:3299-2

> <Gold.Version>
5.8.1

> <Gold.Id.Protein>
6NUR|6NUR_protein|mol2

> <Gold.PLP.Fitness>
52.3303

> <Gold.PLP.PLP>
-41.6793

> <Gold.PLP.part.hbond>
-4.4594

> <Gold.PLP.part.metal>
0.0000

> <Gold.PLP.part.buried>
-6.3785

> <Gold.PLP.part.nonpolar>
-30.6463

> <Gold.PLP.part.repulsive>
0.5957

> <Gold.PLP.ligand.clash>
0.0000

> <Gold.PLP.ligand.torsion>
1.0532

> <Gold.PLP.Chemscore.Hbond>
3.8560

> <Gold.PLP.Chemscore.CHOScore>
0.0000

> <Gold.PLP.Chemscore.Metal>
0.0000

> <Gold.Chemscore.Hbonds>
donor molecule, donor type, donor heavy atom, donor atom, acceptor molecule, acceptor atom, score
      L1  H     6    22       P1  8029  1.00
      L1  H     9    23       P1  8029  0.99
      L1  H    13    29       P1  8029  1.00
      P1  H  6933  6944       L1     8  0.86

> <Gold.PLP.Chemscore.Internal.Correction>
1.1895

> <Gold.Rescore>
     Score         DG    S(hbond)    S(metal)    S(lipo)     H(rot)  DE(clash)    DE(int)     intcor
     18.12     -21.93       3.79        0.00      84.78       2.39       0.00       3.81       ----

> <Gold.Chemscore.Fitness>
18.1203

> <Gold.Chemscore.DG>
-21.9315

> <Gold.Chemscore.ZeroCoef>
-5.4800

> <Gold.Chemscore.Hbond>
3.7888

> <Gold.Chemscore.Metal>
0.0000

> <Gold.Chemscore.Lipo>
84.7847

> <Gold.Chemscore.Internal_Hbond>
0.0000

> <Gold.Chemscore.DEClash>
0.0000

> <Gold.Chemscore.DEInternal>
3.8111

> <Gold.Chemscore.Rot>
2.3917

> <Gold.Chemscore.Internal.Correction>
   9.000000E+99

> <Gold.Chemscore.Hbonds>
donor molecule, donor type, donor heavy atom, donor atom, acceptor molecule, acceptor atom, score
      L1  H     6    22       P1  8029  0.96
      L1  H     9    23       P1  8029  0.94
      L1  H    13    29       P1  8029  0.96
      P1  H  6933  6944       L1     8  0.83

> <Gold.Chemscore.Hbond.Weighted>
-12.6544

> <Gold.Chemscore.Metal.Weighted>
-0.0000

> <Gold.Chemscore.Lipo.Weighted>
-9.9198

> <Gold.Chemscore.Internal_Hbond.Weighted>
0.0000

> <Gold.Chemscore.DEClash.Weighted>
0.0000

> <Gold.Chemscore.DEInternal.Weighted>
3.8111

> <Gold.Chemscore.Rot.Weighted>
6.1228

> <Gold.Chemscore.Internal.Correction.Weighted>
   9.000000E+99

> <Gold.Protein.RotatedTorsions>
[ 6907 6896 6895 6894 ] final  -71.63 input  -60.11 | X-H torsion
[ 7974 7965 7964 7962 ] final  104.49 input  175.53 | X-H torsion
[ 8008 7997 7996 7995 ] final  107.11 input   59.86 | X-H torsion
[ 10167 10162 10161 10158 ] final   35.91 input  -65.29 | X-H torsion
[ 10718 10713 10712 10709 ] final  -80.14 input   66.30 | X-H torsion
[ 10763 10752 10751 10750 ] final  169.56 input  -60.55 | X-H torsion
[ 11005 11000 10999 10996 ] final  -91.03 input  -57.11 | X-H torsion

> <Gold.Protein.ActiveResidues>
 VAL166  LYS551  ARG553  GLY616  TRP617  ASP618  TYR619  PRO620  LYS621  CYS622 
 ASP623  PHE694  ASN695  SER759  ASP760  ASP761  ALA762  ILE779  LEU786  VAL792 
 PHE793  MET794  SER795  GLU796  ALA797  LYS798  CYS799  TRP800  GLU811  SER814 

> <Gold.Protein.RotatedAtoms>
  150.7204  134.5281  159.5686 H   0  0  0  0  0  0  0  0  0  0  0  0  # atno 6907 bound_to 6896
  152.2820  134.7815  160.0404 H   0  0  0  0  0  0  0  0  0  0  0  0  # atno 6908 bound_to 6896
  151.8458  133.3396  159.3694 H   0  0  0  0  0  0  0  0  0  0  0  0  # atno 6909 bound_to 6896
  145.3320  139.2484  143.3655 H   0  0  0  0  0  0  0  0  0  0  0  0  # atno 7974 bound_to 7965
  156.1798  140.3100  155.9127 H   0  0  0  0  0  0  0  0  0  0  0  0  # atno 8008 bound_to 7997
  155.3409  140.0466  157.3062 H   0  0  0  0  0  0  0  0  0  0  0  0  # atno 8009 bound_to 7997
  154.5330  140.2236  155.8782 H   0  0  0  0  0  0  0  0  0  0  0  0  # atno 8010 bound_to 7997
  140.4177  144.1503  150.6145 H   0  0  0  0  0  0  0  0  0  0  0  0  # atno 10167 bound_to 10162
  156.0076  130.4566  150.3755 H   0  0  0  0  0  0  0  0  0  0  0  0  # atno 10718 bound_to 10713
  154.3849  135.2753  155.2189 H   0  0  0  0  0  0  0  0  0  0  0  0  # atno 10763 bound_to 10752
  154.4280  135.5984  153.6054 H   0  0  0  0  0  0  0  0  0  0  0  0  # atno 10764 bound_to 10752
  152.9833  135.5988  154.4097 H   0  0  0  0  0  0  0  0  0  0  0  0  # atno 10765 bound_to 10752
  141.1553  133.7729  156.9821 H   0  0  0  0  0  0  0  0  0  0  0  0  # atno 11005 bound_to 11000
  146.3041  140.3900  142.8693 LP  0  0  0  0  0  0  0  0  0  0  0  0  # atno 17320 bound_to 7965
  144.8856  140.7458  143.5959 LP  0  0  0  0  0  0  0  0  0  0  0  0  # atno 17321 bound_to 7965
  140.4568  143.2464  151.9274 LP  0  0  0  0  0  0  0  0  0  0  0  0  # atno 17342 bound_to 10162
  139.4782  144.5507  151.8389 LP  0  0  0  0  0  0  0  0  0  0  0  0  # atno 17343 bound_to 10162
  157.1838  131.0398  151.2735 LP  0  0  0  0  0  0  0  0  0  0  0  0  # atno 17370 bound_to 10713
  157.4122  130.7391  149.6848 LP  0  0  0  0  0  0  0  0  0  0  0  0  # atno 17371 bound_to 10713
  140.1059  134.9507  157.1993 LP  0  0  0  0  0  0  0  0  0  0  0  0  # atno 17394 bound_to 11000
  140.3257  134.2866  155.7237 LP  0  0  0  0  0  0  0  0  0  0  0  0  # atno 17395 bound_to 11000

$$$$
