AV-unprocessed.smi:3328|AV-procd|sdf|12792|dock10
  -GOLD-   2272019143D 1   1.00000     0.00000
 Structure written by MMmdl.
 41 42  0  0  0  0  0  0  0  0  2 V2000
  150.7038  142.5137  157.8638 C   0  0  0  0  0  0  0  0  0  0  0  0
  150.4929  141.6911  156.6254 C   0  0  0  0  0  0  0  0  0  0  0  0
  151.3739  140.7302  156.0531 C   0  0  0  0  0  0  0  0  0  0  0  0
  150.8860  140.1750  154.9556 N   0  0  0  0  0  0  0  0  0  0  0  0
  149.6831  140.7640  154.7857 N   0  0  0  0  0  0  0  0  0  0  0  0
  148.8464  140.3869  153.6599 C   0  0  0  0  0  0  0  0  0  0  0  0
  147.3463  140.5878  153.9519 C   0  0  1  0  0  0  0  0  0  0  0  0
  147.0037  142.0842  154.0392 C   0  0  0  0  0  0  0  0  0  0  0  0
  146.5291  139.9152  152.9155 N   0  3  0  0  0  0  0  0  0  0  0  0
  146.7336  138.4578  152.7924 C   0  0  0  0  0  0  0  0  0  0  0  0
  146.1018  137.9276  151.4966 C   0  0  0  0  0  0  0  0  0  0  0  0
  145.3232  136.7161  151.7368 N   0  0  0  0  0  0  0  0  0  0  0  0
  145.5797  135.5027  150.9794 C   0  0  0  0  0  0  0  0  0  0  0  0
  144.7251  134.4235  151.6594 C   0  0  0  0  0  0  0  0  0  0  0  0
  143.7297  135.1801  152.5456 C   0  0  0  0  0  0  0  0  0  0  0  0
  144.3062  136.5849  152.5964 C   0  0  0  0  0  0  0  0  0  0  0  0
  143.8708  137.4613  153.3418 O   0  0  0  0  0  0  0  0  0  0  0  0
  149.4199  141.6825  155.7797 C   0  0  0  0  0  0  0  0  0  0  0  0
  151.6844  142.3364  158.3062 H   0  0  0  0  0  0  0  0  0  0  0  0
  149.9611  142.2869  158.6288 H   0  0  0  0  0  0  0  0  0  0  0  0
  150.6352  143.5814  157.6544 H   0  0  0  0  0  0  0  0  0  0  0  0
  152.3477  140.4198  156.4026 H   0  0  0  0  0  0  0  0  0  0  0  0
  149.1465  140.9934  152.8041 H   0  0  0  0  0  0  0  0  0  0  0  0
  149.0542  139.3496  153.3921 H   0  0  0  0  0  0  0  0  0  0  0  0
  147.1296  140.1262  154.9168 H   0  0  0  0  0  0  0  0  0  0  0  0
  147.6236  142.5831  154.7848 H   0  0  0  0  0  0  0  0  0  0  0  0
  145.9652  142.2463  154.3274 H   0  0  0  0  0  0  0  0  0  0  0  0
  147.1681  142.5850  153.0847 H   0  0  0  0  0  0  0  0  0  0  0  0
  145.5524  140.1038  153.0909 H   0  0  0  0  0  0  0  0  0  0  0  0
  147.8026  138.2403  152.7935 H   0  0  0  0  0  0  0  0  0  0  0  0
  146.2990  137.9557  153.6568 H   0  0  0  0  0  0  0  0  0  0  0  0
  145.4574  138.6874  151.0512 H   0  0  0  0  0  0  0  0  0  0  0  0
  146.8804  137.7153  150.7622 H   0  0  0  0  0  0  0  0  0  0  0  0
  145.2697  135.6520  149.9443 H   0  0  0  0  0  0  0  0  0  0  0  0
  146.6392  135.2443  150.9867 H   0  0  0  0  0  0  0  0  0  0  0  0
  144.2236  133.7859  150.9309 H   0  0  0  0  0  0  0  0  0  0  0  0
  145.3547  133.7815  152.2773 H   0  0  0  0  0  0  0  0  0  0  0  0
  142.7381  135.2116  152.0927 H   0  0  0  0  0  0  0  0  0  0  0  0
  143.6473  134.7437  153.5416 H   0  0  0  0  0  0  0  0  0  0  0  0
  148.4996  142.2479  155.8046 H   0  0  0  0  0  0  0  0  0  0  0  0
  146.7769  140.3285  152.0272 H   0  0  0  0  0  0  0  0  0  0  0  0
  1  2  1  0  0  0  0
  1 19  1  0  0  0  0
  1 20  1  0  0  0  0
  1 21  1  0  0  0  0
  2 18  2  0  0  0  0
  2  3  1  0  0  0  0
  3  4  2  0  0  0  0
  3 22  1  0  0  0  0
  4  5  1  0  0  0  0
  5  6  1  0  0  0  0
  5 18  1  0  0  0  0
  6  7  1  0  0  0  0
  6 23  1  0  0  0  0
  6 24  1  0  0  0  0
  7  8  1  0  0  0  0
  7  9  1  0  0  0  0
  7 25  1  0  0  0  0
  8 26  1  0  0  0  0
  8 27  1  0  0  0  0
  8 28  1  0  0  0  0
  9 10  1  0  0  0  0
  9 29  1  0  0  0  0
  9 41  1  0  0  0  0
 10 11  1  0  0  0  0
 10 30  1  0  0  0  0
 10 31  1  0  0  0  0
 11 12  1  0  0  0  0
 11 32  1  0  0  0  0
 11 33  1  0  0  0  0
 12 16  1  0  0  0  0
 12 13  1  0  0  0  0
 13 14  1  0  0  0  0
 13 34  1  0  0  0  0
 13 35  1  0  0  0  0
 14 15  1  0  0  0  0
 14 36  1  0  0  0  0
 14 37  1  0  0  0  0
 15 16  1  0  0  0  0
 15 38  1  0  0  0  0
 15 39  1  0  0  0  0
 16 17  2  0  0  0  0
 18 40  1  0  0  0  0
M  CHG  1   9   1
M  END
> <s_m_source_file>
AV-unprocessed.smi

> <i_m_source_file_index>
3328

> <i_lp_mmshare_version>
43012

> <i_f3d_flags>
0

> <s_epik_input>
W0NIM11jMVtjSF1ubihbY0hdMSlbQ0gyXVtDQEhdKFtDSDNdKVtOSF1bQ0gyXVtDSDJdTjJbQ0gyXVtDSDJdW0NIMl1DMj1P

> <s_epik_cmdline>
J2VwaWtfcHl0aG9uJywgJy1waCcsICc3LjAnLCAnLXRuJywgJzgnLCAnLW1hJywgJzIwMCcsICctbWV0YWxfYmluZGluZycsICctaW1hZScsICc8aW5maWxlLm1hZT4nLCAnLW9tYWUnLCAnPG91dGZpbGUubWFlPic=

> <r_lp_tautomer_probability>
1

> <r_epik_Ionization_Penalty>
0.00826719

> <r_epik_Ionization_Penalty_Charging>
0.00825899

> <r_epik_Ionization_Penalty_Neutral>
8.19932e-06

> <r_epik_State_Penalty>
0.00621436

> <r_epik_Charging_Adjusted_Penalty>
0.0144734

> <i_epik_Tot_Q>
1

> <i_epik_Tot_abs_Q>
1

> <r_epik_Metal_State_Penalty>
0.00621509

> <b_epik_Metal_Only>
0

> <s_lp_Force_Field>
OPLS_2005

> <r_lp_Energy>
19.1629

> <b_lp_Chiralities_Consistent>
1

> <s_lp_Variant>
AV-unprocessed.smi:3328-2

> <Gold.Version>
5.8.1

> <Gold.Id.Protein>
6NUR|6NUR_protein|mol2

> <Gold.PLP.Fitness>
43.0593

> <Gold.PLP.PLP>
-33.9750

> <Gold.PLP.part.hbond>
-2.0000

> <Gold.PLP.part.metal>
0.0000

> <Gold.PLP.part.buried>
5.2045

> <Gold.PLP.part.nonpolar>
-37.4934

> <Gold.PLP.part.repulsive>
0.6930

> <Gold.PLP.ligand.clash>
0.0000

> <Gold.PLP.ligand.torsion>
0.8275

> <Gold.PLP.Chemscore.Hbond>
2.9000

> <Gold.PLP.Chemscore.CHOScore>
0.6499

> <Gold.PLP.Chemscore.Metal>
0.0000

> <Gold.Chemscore.Hbonds>
donor molecule, donor type, donor heavy atom, donor atom, acceptor molecule, acceptor atom, score
      L1  H     9    29       P1 10175  2.00
      P1  H  7989  7998       L1     4  0.80
      L1  C    18    40       P1  8028  0.67

> <Gold.PLP.Chemscore.Internal.Correction>
0.0897

> <Gold.Rescore>
     Score         DG    S(hbond)    S(metal)    S(lipo)     H(rot)  DE(clash)    DE(int)     intcor
     12.16     -15.39       1.83        0.00      75.59       1.97       2.71       0.52       ----

> <Gold.Chemscore.Fitness>
12.1601

> <Gold.Chemscore.DG>
-15.3933

> <Gold.Chemscore.ZeroCoef>
-5.4800

> <Gold.Chemscore.Hbond>
1.8312

> <Gold.Chemscore.Metal>
0.0000

> <Gold.Chemscore.Lipo>
75.5878

> <Gold.Chemscore.Internal_Hbond>
0.0000

> <Gold.Chemscore.DEClash>
2.7135

> <Gold.Chemscore.DEInternal>
0.5197

> <Gold.Chemscore.Rot>
1.9714

> <Gold.Chemscore.Internal.Correction>
   9.000000E+99

> <Gold.Chemscore.Hbonds>
donor molecule, donor type, donor heavy atom, donor atom, acceptor molecule, acceptor atom, score
      L1  H     9    29       P1 10175  0.92
      P1  H  7989  7998       L1     4  0.09

> <Gold.Chemscore.Hbond.Weighted>
-6.1164

> <Gold.Chemscore.Metal.Weighted>
-0.0000

> <Gold.Chemscore.Lipo.Weighted>
-8.8438

> <Gold.Chemscore.Internal_Hbond.Weighted>
0.0000

> <Gold.Chemscore.DEClash.Weighted>
2.7135

> <Gold.Chemscore.DEInternal.Weighted>
0.5197

> <Gold.Chemscore.Rot.Weighted>
5.0468

> <Gold.Chemscore.Internal.Correction.Weighted>
   9.000000E+99

> <Gold.Protein.RotatedTorsions>
[ 6907 6896 6895 6894 ] final -159.31 input  -60.11 | X-H torsion
[ 7974 7965 7964 7962 ] final -153.44 input  175.53 | X-H torsion
[ 8008 7997 7996 7995 ] final -148.34 input   59.86 | X-H torsion
[ 10167 10162 10161 10158 ] final  -35.40 input  -65.29 | X-H torsion
[ 10718 10713 10712 10709 ] final   20.19 input   66.30 | X-H torsion
[ 10763 10752 10751 10750 ] final  -26.50 input  -60.55 | X-H torsion
[ 11005 11000 10999 10996 ] final  -63.89 input  -57.11 | X-H torsion

> <Gold.Protein.ActiveResidues>
 VAL166  LYS551  ARG553  GLY616  TRP617  ASP618  TYR619  PRO620  LYS621  CYS622 
 ASP623  PHE694  ASN695  SER759  ASP760  ASP761  ALA762  ILE779  LEU786  VAL792 
 PHE793  MET794  SER795  GLU796  ALA797  LYS798  CYS799  TRP800  GLU811  SER814 

> <Gold.Protein.RotatedAtoms>
  151.3317  133.3998  159.2662 H   0  0  0  0  0  0  0  0  0  0  0  0  # atno 6907 bound_to 6896
  150.9950  134.9277  159.7932 H   0  0  0  0  0  0  0  0  0  0  0  0  # atno 6908 bound_to 6896
  152.5258  134.3282  159.9225 H   0  0  0  0  0  0  0  0  0  0  0  0  # atno 6909 bound_to 6896
  144.7740  140.4525  143.5886 H   0  0  0  0  0  0  0  0  0  0  0  0  # atno 7974 bound_to 7965
  155.5900  140.0651  157.2761 H   0  0  0  0  0  0  0  0  0  0  0  0  # atno 8008 bound_to 7997
  154.4308  140.1837  156.1112 H   0  0  0  0  0  0  0  0  0  0  0  0  # atno 8009 bound_to 7997
  156.0240  140.3314  155.7072 H   0  0  0  0  0  0  0  0  0  0  0  0  # atno 8010 bound_to 7997
  140.7166  143.3480  151.2215 H   0  0  0  0  0  0  0  0  0  0  0  0  # atno 10167 bound_to 10162
  157.1210  130.6550  149.5924 H   0  0  0  0  0  0  0  0  0  0  0  0  # atno 10718 bound_to 10713
  153.7170  135.6947  153.5022 H   0  0  0  0  0  0  0  0  0  0  0  0  # atno 10763 bound_to 10752
  153.2231  135.4363  155.0510 H   0  0  0  0  0  0  0  0  0  0  0  0  # atno 10764 bound_to 10752
  154.8296  135.3465  154.6705 H   0  0  0  0  0  0  0  0  0  0  0  0  # atno 10765 bound_to 10752
  141.1407  133.6658  156.5749 H   0  0  0  0  0  0  0  0  0  0  0  0  # atno 11005 bound_to 11000
  145.6239  139.1527  143.3007 LP  0  0  0  0  0  0  0  0  0  0  0  0  # atno 17320 bound_to 7965
  146.1907  140.6347  142.9147 LP  0  0  0  0  0  0  0  0  0  0  0  0  # atno 17321 bound_to 7965
  139.7004  143.9543  152.2902 LP  0  0  0  0  0  0  0  0  0  0  0  0  # atno 17342 bound_to 10162
  139.9234  144.6786  150.8438 LP  0  0  0  0  0  0  0  0  0  0  0  0  # atno 17343 bound_to 10162
  155.9828  130.4844  150.6902 LP  0  0  0  0  0  0  0  0  0  0  0  0  # atno 17370 bound_to 10713
  157.4476  131.0869  151.0879 LP  0  0  0  0  0  0  0  0  0  0  0  0  # atno 17371 bound_to 10713
  140.3883  134.7462  157.4705 LP  0  0  0  0  0  0  0  0  0  0  0  0  # atno 17394 bound_to 11000
  140.0585  134.6029  155.8776 LP  0  0  0  0  0  0  0  0  0  0  0  0  # atno 17395 bound_to 11000

$$$$
