AV-unprocessed.smi:524|AV-procd|sdf|2805|dock10
  -GOLD-   2262023283D 1   1.00000     0.00000
 Structure written by MMmdl.
 43 45  0  0  0  0  0  0  0  0  1 V2000
  155.5568  140.1551  163.6336 C   0  0  0  0  0  0  0  0  0  0  0  0
  156.0253  140.6808  162.4048 O   0  0  0  0  0  0  0  0  0  0  0  0
  155.3058  140.1796  161.2901 C   0  0  0  0  0  0  0  0  0  0  0  0
  153.8819  140.7529  161.2887 C   0  0  0  0  0  0  0  0  0  0  0  0
  153.2207  140.5634  159.9989 N   0  0  0  0  0  0  0  0  0  0  0  0
  152.6675  141.5042  159.1836 C   0  0  0  0  0  0  0  0  0  0  0  0
  152.6333  142.8589  159.5198 N   0  0  0  0  0  0  0  0  0  0  0  0
  153.0582  143.9733  158.6712 C   0  0  0  0  0  0  0  0  0  0  0  0
  151.9879  145.0779  158.6044 C   0  0  0  0  0  0  0  0  0  0  0  0
  151.6610  145.5935  160.0126 C   0  0  0  0  0  0  0  0  0  0  0  0
  151.3230  144.4160  160.9379 C   0  0  0  0  0  0  0  0  0  0  0  0
  152.4271  143.3448  160.8836 C   0  0  0  0  0  0  0  0  0  0  0  0
  152.2098  141.0329  158.0202 N   0  0  0  0  0  0  0  0  0  0  0  0
  152.4712  139.6754  158.1078 C   0  0  0  0  0  0  0  0  0  0  0  0
  153.0848  139.3727  159.2797 C   0  0  0  0  0  0  0  0  0  0  0  0
  153.5181  138.0059  159.6055 C   0  0  0  0  0  0  0  0  0  0  0  0
  154.0869  137.7013  160.6512 O   0  0  0  0  0  0  0  0  0  0  0  0
  153.2345  137.1110  158.6281 N   0  0  0  0  0  0  0  0  0  0  0  0
  152.6174  137.3513  157.4313 C   0  0  0  0  0  0  0  0  0  0  0  0
  152.4411  136.4260  156.6392 O   0  0  0  0  0  0  0  0  0  0  0  0
  152.2216  138.6384  157.1668 N   0  0  0  0  0  0  0  0  0  0  0  0
  151.5563  138.9981  155.9128 C   0  0  0  0  0  0  0  0  0  0  0  0
  153.5166  136.1572  158.8008 H   0  0  0  0  0  0  0  0  0  0  0  0
  156.1450  140.5648  164.4546 H   0  0  0  0  0  0  0  0  0  0  0  0
  155.6523  139.0689  163.6599 H   0  0  0  0  0  0  0  0  0  0  0  0
  154.5123  140.4202  163.8027 H   0  0  0  0  0  0  0  0  0  0  0  0
  155.8145  140.4505  160.3639 H   0  0  0  0  0  0  0  0  0  0  0  0
  155.2674  139.0902  161.3329 H   0  0  0  0  0  0  0  0  0  0  0  0
  153.2904  140.2932  162.0773 H   0  0  0  0  0  0  0  0  0  0  0  0
  153.9045  141.8078  161.5452 H   0  0  0  0  0  0  0  0  0  0  0  0
  153.9835  144.3853  159.0764 H   0  0  0  0  0  0  0  0  0  0  0  0
  153.3118  143.6179  157.6733 H   0  0  0  0  0  0  0  0  0  0  0  0
  152.3359  145.8996  157.9779 H   0  0  0  0  0  0  0  0  0  0  0  0
  151.0825  144.6919  158.1351 H   0  0  0  0  0  0  0  0  0  0  0  0
  152.5200  146.1344  160.4113 H   0  0  0  0  0  0  0  0  0  0  0  0
  150.8325  146.3013  159.9773 H   0  0  0  0  0  0  0  0  0  0  0  0
  151.1943  144.7698  161.9611 H   0  0  0  0  0  0  0  0  0  0  0  0
  150.3711  143.9749  160.6393 H   0  0  0  0  0  0  0  0  0  0  0  0
  152.1537  142.5106  161.5309 H   0  0  0  0  0  0  0  0  0  0  0  0
  153.3651  143.7442  161.2715 H   0  0  0  0  0  0  0  0  0  0  0  0
  151.2048  138.1395  155.3393 H   0  0  0  0  0  0  0  0  0  0  0  0
  152.2397  139.5653  155.2800 H   0  0  0  0  0  0  0  0  0  0  0  0
  150.6860  139.6242  156.1130 H   0  0  0  0  0  0  0  0  0  0  0  0
  1  2  1  0  0  0  0
  1 24  1  0  0  0  0
  1 25  1  0  0  0  0
  1 26  1  0  0  0  0
  2  3  1  0  0  0  0
  3  4  1  0  0  0  0
  3 27  1  0  0  0  0
  3 28  1  0  0  0  0
  4  5  1  0  0  0  0
  4 29  1  0  0  0  0
  4 30  1  0  0  0  0
  5 15  1  0  0  0  0
  5  6  1  0  0  0  0
  6  7  1  0  0  0  0
  6 13  2  0  0  0  0
  7 12  1  0  0  0  0
  7  8  1  0  0  0  0
  8  9  1  0  0  0  0
  8 31  1  0  0  0  0
  8 32  1  0  0  0  0
  9 10  1  0  0  0  0
  9 33  1  0  0  0  0
  9 34  1  0  0  0  0
 10 11  1  0  0  0  0
 10 35  1  0  0  0  0
 10 36  1  0  0  0  0
 11 12  1  0  0  0  0
 11 37  1  0  0  0  0
 11 38  1  0  0  0  0
 12 39  1  0  0  0  0
 12 40  1  0  0  0  0
 13 14  1  0  0  0  0
 14 21  1  0  0  0  0
 14 15  2  0  0  0  0
 15 16  1  0  0  0  0
 16 17  2  0  0  0  0
 16 18  1  0  0  0  0
 18 23  1  0  0  0  0
 18 19  1  0  0  0  0
 19 20  2  0  0  0  0
 19 21  1  0  0  0  0
 21 22  1  0  0  0  0
 22 41  1  0  0  0  0
 22 42  1  0  0  0  0
 22 43  1  0  0  0  0
M  END
> <s_m_source_file>
AV-unprocessed.smi

> <i_m_source_file_index>
524

> <i_lp_mmshare_version>
43012

> <i_f3d_flags>
0

> <s_epik_input>
W0NIM11uMWMoPU8pW25IXWMoPU8pYyhjMTIpbihbQ0gyXVtDSDJdT1tDSDNdKWMobjIpTjNbQ0gyXVtDSDJdW0NIMl1bQ0gyXVtDSDJdMw==

> <s_epik_cmdline>
J2VwaWtfcHl0aG9uJywgJy1waCcsICc3LjAnLCAnLXRuJywgJzgnLCAnLW1hJywgJzIwMCcsICctbWV0YWxfYmluZGluZycsICctaW1hZScsICc8aW5maWxlLm1hZT4nLCAnLW9tYWUnLCAnPG91dGZpbGUubWFlPic=

> <r_lp_tautomer_probability>
1

> <r_epik_Ionization_Penalty>
0.000298119

> <r_epik_Ionization_Penalty_Charging>
0.000125384

> <r_epik_Ionization_Penalty_Neutral>
0.000172735

> <r_epik_State_Penalty>
-0

> <r_epik_Charging_Adjusted_Penalty>
0.000125384

> <i_epik_Tot_Q>
0

> <i_epik_Tot_abs_Q>
0

> <r_epik_Metal_State_Penalty>
0.0954001

> <b_epik_Metal_Only>
0

> <s_lp_Force_Field>
OPLS_2005

> <r_lp_Energy>
37.2528

> <b_lp_Chiralities_Consistent>
1

> <s_lp_Variant>
AV-unprocessed.smi:524-1

> <Gold.Version>
5.8.1

> <Gold.Id.Protein>
6NUR|6NUR_protein|mol2

> <Gold.PLP.Fitness>
47.2837

> <Gold.PLP.PLP>
-45.3806

> <Gold.PLP.part.hbond>
-1.7715

> <Gold.PLP.part.metal>
0.0000

> <Gold.PLP.part.buried>
-5.5727

> <Gold.PLP.part.nonpolar>
-38.8834

> <Gold.PLP.part.repulsive>
0.1083

> <Gold.PLP.ligand.clash>
0.0081

> <Gold.PLP.ligand.torsion>
0.7935

> <Gold.PLP.Chemscore.Hbond>
1.0000

> <Gold.PLP.Chemscore.CHOScore>
0.0000

> <Gold.PLP.Chemscore.Metal>
0.0000

> <Gold.Chemscore.Hbonds>
donor molecule, donor type, donor heavy atom, donor atom, acceptor molecule, acceptor atom, score
      P1  H 10752 10763       L1    20  1.00

> <Gold.PLP.Chemscore.Internal.Correction>
0.4983

> <Gold.Rescore>
     Score         DG    S(hbond)    S(metal)    S(lipo)     H(rot)  DE(clash)    DE(int)     intcor
     13.30     -16.58       0.99        0.00      99.09       1.48       0.05       3.23       ----

> <Gold.Chemscore.Fitness>
13.2954

> <Gold.Chemscore.DG>
-16.5777

> <Gold.Chemscore.ZeroCoef>
-5.4800

> <Gold.Chemscore.Hbond>
0.9883

> <Gold.Chemscore.Metal>
0.0000

> <Gold.Chemscore.Lipo>
99.0912

> <Gold.Chemscore.Internal_Hbond>
0.0000

> <Gold.Chemscore.DEClash>
0.0509

> <Gold.Chemscore.DEInternal>
3.2315

> <Gold.Chemscore.Rot>
1.4832

> <Gold.Chemscore.Internal.Correction>
   9.000000E+99

> <Gold.Chemscore.Hbonds>
donor molecule, donor type, donor heavy atom, donor atom, acceptor molecule, acceptor atom, score
      P1  H 10752 10763       L1    20  0.97

> <Gold.Chemscore.Hbond.Weighted>
-3.3010

> <Gold.Chemscore.Metal.Weighted>
-0.0000

> <Gold.Chemscore.Lipo.Weighted>
-11.5937

> <Gold.Chemscore.Internal_Hbond.Weighted>
0.0000

> <Gold.Chemscore.DEClash.Weighted>
0.0509

> <Gold.Chemscore.DEInternal.Weighted>
3.2315

> <Gold.Chemscore.Rot.Weighted>
3.7970

> <Gold.Chemscore.Internal.Correction.Weighted>
   9.000000E+99

> <Gold.Protein.RotatedTorsions>
[ 6907 6896 6895 6894 ] final -115.73 input  -60.11 | X-H torsion
[ 7974 7965 7964 7962 ] final -119.05 input  175.53 | X-H torsion
[ 8008 7997 7996 7995 ] final  -83.37 input   59.86 | X-H torsion
[ 10167 10162 10161 10158 ] final  -27.75 input  -65.29 | X-H torsion
[ 10718 10713 10712 10709 ] final  -22.19 input   66.30 | X-H torsion
[ 10763 10752 10751 10750 ] final  111.73 input  -60.55 | X-H torsion
[ 11005 11000 10999 10996 ] final  -32.58 input  -57.11 | X-H torsion

> <Gold.Protein.ActiveResidues>
 VAL166  LYS551  ARG553  GLY616  TRP617  ASP618  TYR619  PRO620  LYS621  CYS622 
 ASP623  PHE694  ASN695  SER759  ASP760  ASP761  ALA762  ILE779  LEU786  VAL792 
 PHE793  MET794  SER795  GLU796  ALA797  LYS798  CYS799  TRP800  GLU811  SER814 

> <Gold.Protein.RotatedAtoms>
  150.8001  133.8617  159.3233 H   0  0  0  0  0  0  0  0  0  0  0  0  # atno 6907 bound_to 6896
  151.6431  135.1008  160.0155 H   0  0  0  0  0  0  0  0  0  0  0  0  # atno 6908 bound_to 6896
  152.4087  133.6889  159.6414 H   0  0  0  0  0  0  0  0  0  0  0  0  # atno 6909 bound_to 6896
  145.0669  140.8331  143.4119 H   0  0  0  0  0  0  0  0  0  0  0  0  # atno 7974 bound_to 7965
  154.6184  140.0620  156.9583 H   0  0  0  0  0  0  0  0  0  0  0  0  # atno 8008 bound_to 7997
  155.1858  140.3303  155.4348 H   0  0  0  0  0  0  0  0  0  0  0  0  # atno 8009 bound_to 7997
  156.2417  140.1889  156.6951 H   0  0  0  0  0  0  0  0  0  0  0  0  # atno 8010 bound_to 7997
  140.7275  143.4067  151.1174 H   0  0  0  0  0  0  0  0  0  0  0  0  # atno 10167 bound_to 10162
  156.5079  130.4603  149.6664 H   0  0  0  0  0  0  0  0  0  0  0  0  # atno 10718 bound_to 10713
  153.4676  135.3708  155.2373 H   0  0  0  0  0  0  0  0  0  0  0  0  # atno 10763 bound_to 10752
  154.8757  135.3923  154.3851 H   0  0  0  0  0  0  0  0  0  0  0  0  # atno 10764 bound_to 10752
  153.4434  135.7084  153.6219 H   0  0  0  0  0  0  0  0  0  0  0  0  # atno 10765 bound_to 10752
  140.9564  133.7190  156.1299 H   0  0  0  0  0  0  0  0  0  0  0  0  # atno 11005 bound_to 11000
  145.1340  139.2614  143.5525 LP  0  0  0  0  0  0  0  0  0  0  0  0  # atno 17320 bound_to 7965
  146.3527  140.0998  142.8608 LP  0  0  0  0  0  0  0  0  0  0  0  0  # atno 17321 bound_to 7965
  139.7694  143.8516  152.3117 LP  0  0  0  0  0  0  0  0  0  0  0  0  # atno 17342 bound_to 10162
  139.8430  144.7201  150.9308 LP  0  0  0  0  0  0  0  0  0  0  0  0  # atno 17343 bound_to 10162
  156.3268  130.7310  151.2232 LP  0  0  0  0  0  0  0  0  0  0  0  0  # atno 17370 bound_to 10713
  157.7454  131.0440  150.4774 LP  0  0  0  0  0  0  0  0  0  0  0  0  # atno 17371 bound_to 10713
  140.7530  134.4023  157.5538 LP  0  0  0  0  0  0  0  0  0  0  0  0  # atno 17394 bound_to 11000
  139.8863  134.8912  156.2590 LP  0  0  0  0  0  0  0  0  0  0  0  0  # atno 17395 bound_to 11000

$$$$
