AV-unprocessed.smi:1971|AV-procd|sdf|7965|dock1
  -GOLD-   2272010133D 1   1.00000     0.00000
 Structure written by MMmdl.
 44 45  0  0  0  0  0  0  0  0  2 V2000
  146.2908  135.4360  155.1279 C   0  0  0  0  0  0  0  0  0  0  0  0
  146.7386  136.4109  154.0293 C   0  0  0  0  0  0  0  0  0  0  0  0
  145.6305  137.2380  153.5453 N   0  0  0  0  0  0  0  0  0  0  0  0
  145.1451  138.2427  154.4986 C   0  0  0  0  0  0  0  0  0  0  0  0
  146.1609  139.3844  154.7135 C   0  0  0  0  0  0  0  0  0  0  0  0
  146.4882  140.0299  153.4188 N   0  3  0  0  0  0  0  0  0  0  0  0
  147.3191  141.2629  153.5465 C   0  0  1  0  0  0  0  0  0  0  0  0
  146.6447  142.3782  154.3691 C   0  0  0  0  0  0  0  0  0  0  0  0
  148.7410  140.9541  154.0736 C   0  0  0  0  0  0  0  0  0  0  0  0
  149.2330  141.9356  155.0384 N   0  0  0  0  0  0  0  0  0  0  0  0
  150.2532  141.7404  155.8863 C   0  0  0  0  0  0  0  0  0  0  0  0
  150.8754  140.6810  155.9625 O   0  0  0  0  0  0  0  0  0  0  0  0
  150.4896  142.8374  156.6267 N   0  0  0  0  0  0  0  0  0  0  0  0
  151.4730  143.0197  157.6343 C   0  0  0  0  0  0  0  0  0  0  0  0
  151.9209  142.0467  158.4364 N   0  0  0  0  0  0  0  0  0  0  0  0
  152.8871  142.5102  159.3331 C   0  0  0  0  0  0  0  0  0  0  0  0
  153.1625  143.8484  159.2000 C   0  0  0  0  0  0  0  0  0  0  0  0
  152.2138  144.5845  157.9361 S   0  0  0  0  0  0  0  0  0  0  0  0
  146.9802  139.0240  152.4440 C   0  0  0  0  0  0  0  0  0  0  0  0
  145.9397  137.8977  152.2736 C   0  0  0  0  0  0  0  0  0  0  0  0
  147.0991  134.7493  155.3793 H   0  0  0  0  0  0  0  0  0  0  0  0
  145.4402  134.8363  154.8022 H   0  0  0  0  0  0  0  0  0  0  0  0
  146.0113  135.9520  156.0461 H   0  0  0  0  0  0  0  0  0  0  0  0
  147.5722  137.0173  154.3813 H   0  0  0  0  0  0  0  0  0  0  0  0
  147.1186  135.8213  153.1938 H   0  0  0  0  0  0  0  0  0  0  0  0
  144.2137  138.6588  154.1122 H   0  0  0  0  0  0  0  0  0  0  0  0
  144.8898  137.7778  155.4501 H   0  0  0  0  0  0  0  0  0  0  0  0
  145.7232  140.1230  155.3861 H   0  0  0  0  0  0  0  0  0  0  0  0
  147.0636  139.0170  155.2009 H   0  0  0  0  0  0  0  0  0  0  0  0
  147.4451  141.6539  152.5362 H   0  0  0  0  0  0  0  0  0  0  0  0
  147.2395  143.2914  154.3348 H   0  0  0  0  0  0  0  0  0  0  0  0
  146.5395  142.1039  155.4187 H   0  0  0  0  0  0  0  0  0  0  0  0
  145.6553  142.6260  153.9852 H   0  0  0  0  0  0  0  0  0  0  0  0
  148.7673  139.9598  154.5226 H   0  0  0  0  0  0  0  0  0  0  0  0
  149.4503  140.9269  153.2462 H   0  0  0  0  0  0  0  0  0  0  0  0
  148.7845  142.8404  155.0361 H   0  0  0  0  0  0  0  0  0  0  0  0
  149.9020  143.6383  156.4476 H   0  0  0  0  0  0  0  0  0  0  0  0
  153.3285  141.8170  160.0340 H   0  0  0  0  0  0  0  0  0  0  0  0
  153.8637  144.4430  159.7666 H   0  0  0  0  0  0  0  0  0  0  0  0
  147.1486  139.4980  151.4773 H   0  0  0  0  0  0  0  0  0  0  0  0
  147.9383  138.6131  152.7625 H   0  0  0  0  0  0  0  0  0  0  0  0
  146.2925  137.1600  151.5518 H   0  0  0  0  0  0  0  0  0  0  0  0
  145.0180  138.3110  151.8616 H   0  0  0  0  0  0  0  0  0  0  0  0
  145.6014  140.3506  153.0573 H   0  0  0  0  0  0  0  0  0  0  0  0
  1  2  1  0  0  0  0
  1 21  1  0  0  0  0
  1 22  1  0  0  0  0
  1 23  1  0  0  0  0
  2  3  1  0  0  0  0
  2 24  1  0  0  0  0
  2 25  1  0  0  0  0
  3 20  1  0  0  0  0
  3  4  1  0  0  0  0
  4  5  1  0  0  0  0
  4 26  1  0  0  0  0
  4 27  1  0  0  0  0
  5  6  1  0  0  0  0
  5 28  1  0  0  0  0
  5 29  1  0  0  0  0
  6  7  1  0  0  0  0
  6 19  1  0  0  0  0
  6 44  1  0  0  0  0
  7  8  1  0  0  0  0
  7  9  1  0  0  0  0
  7 30  1  0  0  0  0
  8 31  1  0  0  0  0
  8 32  1  0  0  0  0
  8 33  1  0  0  0  0
  9 10  1  0  0  0  0
  9 34  1  0  0  0  0
  9 35  1  0  0  0  0
 10 11  1  0  0  0  0
 10 36  1  0  0  0  0
 11 12  2  0  0  0  0
 11 13  1  0  0  0  0
 13 14  1  0  0  0  0
 13 37  1  0  0  0  0
 14 18  1  0  0  0  0
 14 15  2  0  0  0  0
 15 16  1  0  0  0  0
 16 17  2  0  0  0  0
 16 38  1  0  0  0  0
 17 18  1  0  0  0  0
 17 39  1  0  0  0  0
 19 20  1  0  0  0  0
 19 40  1  0  0  0  0
 19 41  1  0  0  0  0
 20 42  1  0  0  0  0
 20 43  1  0  0  0  0
M  CHG  1   6   1
M  END
> <s_m_source_file>
AV-unprocessed.smi

> <i_m_source_file_index>
1971

> <i_lp_mmshare_version>
43012

> <i_f3d_flags>
0

> <s_epik_input>
W0NIM11bQ0gyXU4xW0NIMl1bQ0gyXU4oW0NIMl1bQ0gyXTEpW0NASF0oW0NIM10pW0NIMl1bTkhdQyg9TylbTkhdYzJuW2NIXVtjSF1zMg==

> <s_epik_cmdline>
J2VwaWtfcHl0aG9uJywgJy1waCcsICc3LjAnLCAnLXRuJywgJzgnLCAnLW1hJywgJzIwMCcsICctbWV0YWxfYmluZGluZycsICctaW1hZScsICc8aW5maWxlLm1hZT4nLCAnLW9tYWUnLCAnPG91dGZpbGUubWFlPic=

> <r_epik_Ionization_Penalty>
0.150098

> <r_epik_Ionization_Penalty_Charging>
0.148467

> <r_epik_Ionization_Penalty_Neutral>
0.00163072

> <r_epik_State_Penalty>
0.974087

> <r_epik_Charging_Adjusted_Penalty>
1.12255

> <i_epik_Tot_Q>
1

> <i_epik_Tot_abs_Q>
1

> <r_epik_Metal_State_Penalty>
1.00741

> <b_epik_Metal_Only>
0

> <s_lp_Force_Field>
OPLS_2005

> <r_lp_Energy>
24.0056

> <b_lp_Chiralities_Consistent>
1

> <s_lp_Variant>
AV-unprocessed.smi:1971-4

> <Gold.Version>
5.8.1

> <Gold.Id.Protein>
6NUR|6NUR_protein|mol2

> <Gold.PLP.Fitness>
46.9401

> <Gold.PLP.PLP>
-38.4957

> <Gold.PLP.part.hbond>
-3.0000

> <Gold.PLP.part.metal>
0.0000

> <Gold.PLP.part.buried>
-3.8110

> <Gold.PLP.part.nonpolar>
-31.4554

> <Gold.PLP.part.repulsive>
0.4185

> <Gold.PLP.ligand.clash>
1.4496

> <Gold.PLP.ligand.torsion>
1.0831

> <Gold.PLP.Chemscore.Hbond>
3.9600

> <Gold.PLP.Chemscore.CHOScore>
0.0000

> <Gold.PLP.Chemscore.Metal>
0.0000

> <Gold.Chemscore.Hbonds>
donor molecule, donor type, donor heavy atom, donor atom, acceptor molecule, acceptor atom, score
      L1  H     6    44       P1 10175  2.00
      L1  H    10    36       P1  8028  0.94
      L1  H    13    37       P1  8028  1.00

> <Gold.PLP.Chemscore.Internal.Correction>
0.1802

> <Gold.Rescore>
     Score         DG    S(hbond)    S(metal)    S(lipo)     H(rot)  DE(clash)    DE(int)     intcor
     18.62     -19.92       2.85        0.00      81.24       1.79       0.03       1.27       ----

> <Gold.Chemscore.Fitness>
18.6153

> <Gold.Chemscore.DG>
-19.9225

> <Gold.Chemscore.ZeroCoef>
-5.4800

> <Gold.Chemscore.Hbond>
2.8531

> <Gold.Chemscore.Metal>
0.0000

> <Gold.Chemscore.Lipo>
81.2389

> <Gold.Chemscore.Internal_Hbond>
0.0000

> <Gold.Chemscore.DEClash>
0.0323

> <Gold.Chemscore.DEInternal>
1.2749

> <Gold.Chemscore.Rot>
1.7937

> <Gold.Chemscore.Internal.Correction>
   9.000000E+99

> <Gold.Chemscore.Hbonds>
donor molecule, donor type, donor heavy atom, donor atom, acceptor molecule, acceptor atom, score
      L1  H     6    44       P1 10175  0.90
      L1  H    10    36       P1  8028  0.89
      L1  H    13    37       P1  8028  1.00

> <Gold.Chemscore.Hbond.Weighted>
-9.5294

> <Gold.Chemscore.Metal.Weighted>
-0.0000

> <Gold.Chemscore.Lipo.Weighted>
-9.5050

> <Gold.Chemscore.Internal_Hbond.Weighted>
0.0000

> <Gold.Chemscore.DEClash.Weighted>
0.0323

> <Gold.Chemscore.DEInternal.Weighted>
1.2749

> <Gold.Chemscore.Rot.Weighted>
4.5919

> <Gold.Chemscore.Internal.Correction.Weighted>
   9.000000E+99

> <Gold.Protein.RotatedTorsions>
[ 6907 6896 6895 6894 ] final   41.64 input  -60.11 | X-H torsion
[ 7974 7965 7964 7962 ] final   14.78 input  175.53 | X-H torsion
[ 8008 7997 7996 7995 ] final  -95.04 input   59.86 | X-H torsion
[ 10167 10162 10161 10158 ] final  108.13 input  -65.29 | X-H torsion
[ 10718 10713 10712 10709 ] final    0.20 input   66.30 | X-H torsion
[ 10763 10752 10751 10750 ] final   69.75 input  -60.55 | X-H torsion
[ 11005 11000 10999 10996 ] final   21.23 input  -57.11 | X-H torsion

> <Gold.Protein.ActiveResidues>
 VAL166  LYS551  ARG553  GLY616  TRP617  ASP618  TYR619  PRO620  LYS621  CYS622 
 ASP623  PHE694  ASN695  SER759  ASP760  ASP761  ALA762  ILE779  LEU786  VAL792 
 PHE793  MET794  SER795  GLU796  ALA797  LYS798  CYS799  TRP800  GLU811  SER814 

> <Gold.Protein.RotatedAtoms>
  152.1978  134.8615  160.0510 H   0  0  0  0  0  0  0  0  0  0  0  0  # atno 6907 bound_to 6896
  151.9480  133.3652  159.3997 H   0  0  0  0  0  0  0  0  0  0  0  0  # atno 6908 bound_to 6896
  150.6948  134.4294  159.5285 H   0  0  0  0  0  0  0  0  0  0  0  0  # atno 6909 bound_to 6896
  146.2296  139.8990  142.8542 H   0  0  0  0  0  0  0  0  0  0  0  0  # atno 7974 bound_to 7965
  154.7561  140.0484  157.0934 H   0  0  0  0  0  0  0  0  0  0  0  0  # atno 8008 bound_to 7997
  154.9996  140.3123  155.4853 H   0  0  0  0  0  0  0  0  0  0  0  0  # atno 8009 bound_to 7997
  156.2895  140.2204  156.5105 H   0  0  0  0  0  0  0  0  0  0  0  0  # atno 8010 bound_to 7997
  139.6871  144.7112  151.1413 H   0  0  0  0  0  0  0  0  0  0  0  0  # atno 10167 bound_to 10162
  156.8298  130.5484  149.5688 H   0  0  0  0  0  0  0  0  0  0  0  0  # atno 10718 bound_to 10713
  153.0304  135.5199  154.7337 H   0  0  0  0  0  0  0  0  0  0  0  0  # atno 10763 bound_to 10752
  154.6357  135.2906  155.0166 H   0  0  0  0  0  0  0  0  0  0  0  0  # atno 10764 bound_to 10752
  154.1102  135.6623  153.4936 H   0  0  0  0  0  0  0  0  0  0  0  0  # atno 10765 bound_to 10752
  140.3938  134.1790  155.7663 H   0  0  0  0  0  0  0  0  0  0  0  0  # atno 11005 bound_to 11000
  145.2342  140.9984  143.3973 LP  0  0  0  0  0  0  0  0  0  0  0  0  # atno 17320 bound_to 7965
  144.9505  139.4088  143.6405 LP  0  0  0  0  0  0  0  0  0  0  0  0  # atno 17321 bound_to 7965
  140.7671  143.5613  150.9096 LP  0  0  0  0  0  0  0  0  0  0  0  0  # atno 17342 bound_to 10162
  139.9288  143.6517  152.3081 LP  0  0  0  0  0  0  0  0  0  0  0  0  # atno 17343 bound_to 10162
  156.0940  130.5918  150.9783 LP  0  0  0  0  0  0  0  0  0  0  0  0  # atno 17370 bound_to 10713
  157.6413  131.0910  150.8246 LP  0  0  0  0  0  0  0  0  0  0  0  0  # atno 17371 bound_to 10713
  141.1881  133.8267  157.1007 LP  0  0  0  0  0  0  0  0  0  0  0  0  # atno 17394 bound_to 11000
  140.0386  134.9865  157.0919 LP  0  0  0  0  0  0  0  0  0  0  0  0  # atno 17395 bound_to 11000

$$$$
