AV-unprocessed.smi:1643|AV-procd|sdf|6581|dock6
  -GOLD-   22720 7273D 1   1.00000     0.00000
 Structure written by MMmdl.
 55 57  0  0  0  0  0  0  0  0  3 V2000
  153.6665  141.9302  159.6155 C   0  0  0  0  0  0  0  0  0  0  0  0
  152.9654  140.7719  158.8993 C   0  0  0  0  0  0  0  0  0  0  0  0
  153.6365  139.7826  158.6053 O   0  0  0  0  0  0  0  0  0  0  0  0
  151.6419  140.8712  158.6223 N   0  0  0  0  0  0  0  0  0  0  0  0
  150.9155  139.7582  157.9914 C   0  0  0  0  0  0  0  0  0  0  0  0
  150.7418  139.9869  156.4793 C   0  0  0  0  0  0  0  0  0  0  0  0
  150.5332  141.4616  156.0733 C   0  0  0  0  0  0  0  0  0  0  0  0
  149.3957  142.1316  156.7608 N   0  3  1  0  0  0  0  0  0  0  0  0
  148.0740  141.6779  156.2488 C   0  0  0  0  0  0  0  0  0  0  0  0
  147.5300  142.5654  155.1114 C   0  0  1  0  0  0  0  0  0  0  0  0
  148.2843  142.3265  153.9388 O   0  0  0  0  0  0  0  0  0  0  0  0
  146.0422  142.2822  154.8239 C   0  0  0  0  0  0  0  0  0  0  0  0
  145.3597  143.4173  154.1892 N   0  0  0  0  0  0  0  0  0  0  0  0
  145.5956  144.0274  152.9956 C   0  0  0  0  0  0  0  0  0  0  0  0
  144.6930  145.0390  152.8665 N   0  3  0  0  0  0  0  0  0  0  0  0
  143.8666  145.0731  153.9919 C   0  0  0  0  0  0  0  0  0  0  0  0
  142.8109  145.9142  154.3222 C   0  0  0  0  0  0  0  0  0  0  0  0
  142.1661  145.6851  155.5588 C   0  0  0  0  0  0  0  0  0  0  0  0
  141.0095  146.5883  155.9512 C   0  0  0  0  0  0  0  0  0  0  0  0
  142.5857  144.6365  156.4183 C   0  0  0  0  0  0  0  0  0  0  0  0
  141.8856  144.4001  157.7458 C   0  0  0  0  0  0  0  0  0  0  0  0
  143.6608  143.7905  156.0632 C   0  0  0  0  0  0  0  0  0  0  0  0
  144.2866  144.0328  154.8428 C   0  0  0  0  0  0  0  0  0  0  0  0
  149.4612  142.1917  158.2548 C   0  0  0  0  0  0  0  0  0  0  0  0
  150.8739  142.1054  158.8921 C   0  0  0  0  0  0  0  0  0  0  0  0
  153.1320  142.2147  160.5223 H   0  0  0  0  0  0  0  0  0  0  0  0
  153.7441  142.7992  158.9619 H   0  0  0  0  0  0  0  0  0  0  0  0
  154.6775  141.6426  159.9070 H   0  0  0  0  0  0  0  0  0  0  0  0
  151.4110  138.7998  158.1537 H   0  0  0  0  0  0  0  0  0  0  0  0
  149.9486  139.6225  158.4727 H   0  0  0  0  0  0  0  0  0  0  0  0
  151.6342  139.6236  155.9683 H   0  0  0  0  0  0  0  0  0  0  0  0
  149.9204  139.3715  156.1115 H   0  0  0  0  0  0  0  0  0  0  0  0
  151.4432  142.0357  156.2505 H   0  0  0  0  0  0  0  0  0  0  0  0
  150.3842  141.5191  154.9944 H   0  0  0  0  0  0  0  0  0  0  0  0
  148.1497  140.6520  155.8850 H   0  0  0  0  0  0  0  0  0  0  0  0
  147.3640  141.6534  157.0770 H   0  0  0  0  0  0  0  0  0  0  0  0
  147.6357  143.6177  155.3730 H   0  0  0  0  0  0  0  0  0  0  0  0
  147.7375  141.8777  153.3116 H   0  0  0  0  0  0  0  0  0  0  0  0
  145.9384  141.4230  154.1594 H   0  0  0  0  0  0  0  0  0  0  0  0
  145.5070  142.0310  155.7407 H   0  0  0  0  0  0  0  0  0  0  0  0
  146.3624  143.7622  152.2820 H   0  0  0  0  0  0  0  0  0  0  0  0
  142.4964  146.7104  153.6631 H   0  0  0  0  0  0  0  0  0  0  0  0
  141.2348  147.1180  156.8771 H   0  0  0  0  0  0  0  0  0  0  0  0
  140.0995  146.0053  156.0963 H   0  0  0  0  0  0  0  0  0  0  0  0
  140.8076  147.3345  155.1820 H   0  0  0  0  0  0  0  0  0  0  0  0
  142.3347  143.5703  158.2926 H   0  0  0  0  0  0  0  0  0  0  0  0
  140.8331  144.1637  157.5872 H   0  0  0  0  0  0  0  0  0  0  0  0
  141.9506  145.2872  158.3764 H   0  0  0  0  0  0  0  0  0  0  0  0
  143.9797  142.9917  156.7159 H   0  0  0  0  0  0  0  0  0  0  0  0
  149.0189  143.1418  158.5556 H   0  0  0  0  0  0  0  0  0  0  0  0
  148.8112  141.4343  158.6932 H   0  0  0  0  0  0  0  0  0  0  0  0
  150.7708  142.2110  159.9728 H   0  0  0  0  0  0  0  0  0  0  0  0
  151.4412  142.9728  158.5519 H   0  0  0  0  0  0  0  0  0  0  0  0
  149.4724  143.0932  156.4604 H   0  0  0  0  0  0  0  0  0  0  0  0
  144.6470  145.6597  152.0683 H   0  0  0  0  0  0  0  0  0  0  0  0
  1  2  1  0  0  0  0
  1 26  1  0  0  0  0
  1 27  1  0  0  0  0
  1 28  1  0  0  0  0
  2  3  2  0  0  0  0
  2  4  1  0  0  0  0
  4 25  1  0  0  0  0
  4  5  1  0  0  0  0
  5  6  1  0  0  0  0
  5 29  1  0  0  0  0
  5 30  1  0  0  0  0
  6  7  1  0  0  0  0
  6 31  1  0  0  0  0
  6 32  1  0  0  0  0
  7  8  1  0  0  0  0
  7 33  1  0  0  0  0
  7 34  1  0  0  0  0
  8  9  1  0  0  0  0
  8 24  1  0  0  0  0
  8 54  1  0  0  0  0
  9 10  1  0  0  0  0
  9 35  1  0  0  0  0
  9 36  1  0  0  0  0
 10 11  1  0  0  0  0
 10 12  1  0  0  0  0
 10 37  1  0  0  0  0
 11 38  1  0  0  0  0
 12 13  1  0  0  0  0
 12 39  1  0  0  0  0
 12 40  1  0  0  0  0
 13 23  1  0  0  0  0
 13 14  1  0  0  0  0
 14 15  2  0  0  0  0
 14 41  1  0  0  0  0
 15 16  1  0  0  0  0
 15 55  1  0  0  0  0
 16 23  2  0  0  0  0
 16 17  1  0  0  0  0
 17 18  2  0  0  0  0
 17 42  1  0  0  0  0
 18 19  1  0  0  0  0
 18 20  1  0  0  0  0
 19 43  1  0  0  0  0
 19 44  1  0  0  0  0
 19 45  1  0  0  0  0
 20 21  1  0  0  0  0
 20 22  2  0  0  0  0
 21 46  1  0  0  0  0
 21 47  1  0  0  0  0
 21 48  1  0  0  0  0
 22 23  1  0  0  0  0
 22 49  1  0  0  0  0
 24 25  1  0  0  0  0
 24 50  1  0  0  0  0
 24 51  1  0  0  0  0
 25 52  1  0  0  0  0
 25 53  1  0  0  0  0
M  CHG  1   8   1
M  CHG  1  15   1
M  END
> <s_m_source_file>
AV-unprocessed.smi

> <i_m_source_file_index>
1643

> <i_lp_mmshare_version>
43012

> <i_f3d_flags>
0

> <s_epik_input>
W0NIM11DKD1PKU4xW0NIMl1bQ0gyXVtDSDJdTihbQ0gyXVtDSDJdMSlbQ0gyXVtDQEhdKFtPSF0pW0NIMl1uKFtjSF1uMiljKGMyMylbY0hdYyhbQ0gzXSljKFtjSF0zKVtDSDNd

> <s_epik_cmdline>
J2VwaWtfcHl0aG9uJywgJy1waCcsICc3LjAnLCAnLXRuJywgJzgnLCAnLW1hJywgJzIwMCcsICctbWV0YWxfYmluZGluZycsICctaW1hZScsICc8aW5maWxlLm1hZT4nLCAnLW9tYWUnLCAnPG91dGZpbGUubWFlPic=

> <r_epik_Ionization_Penalty>
1.2865

> <r_epik_Ionization_Penalty_Charging>
1.2865

> <r_epik_Ionization_Penalty_Neutral>
2.89706e-06

> <r_epik_State_Penalty>
1.3566

> <r_epik_Charging_Adjusted_Penalty>
2.6431

> <i_epik_Tot_Q>
2

> <i_epik_Tot_abs_Q>
2

> <r_epik_Metal_State_Penalty>
5.37339

> <b_epik_Metal_Only>
0

> <s_lp_Force_Field>
OPLS_2005

> <r_lp_Energy>
56.7844

> <b_lp_Chiralities_Consistent>
1

> <s_lp_Variant>
AV-unprocessed.smi:1643-10

> <Gold.Version>
5.8.1

> <Gold.Id.Protein>
6NUR|6NUR_protein|mol2

> <Gold.PLP.Fitness>
46.4512

> <Gold.PLP.PLP>
-39.0218

> <Gold.PLP.part.hbond>
-4.1334

> <Gold.PLP.part.metal>
0.0000

> <Gold.PLP.part.buried>
-1.6605

> <Gold.PLP.part.nonpolar>
-33.5885

> <Gold.PLP.part.repulsive>
0.1805

> <Gold.PLP.ligand.clash>
0.0000

> <Gold.PLP.ligand.torsion>
0.8851

> <Gold.PLP.Chemscore.Hbond>
3.0371

> <Gold.PLP.Chemscore.CHOScore>
0.0000

> <Gold.PLP.Chemscore.Metal>
0.0000

> <Gold.Chemscore.Hbonds>
donor molecule, donor type, donor heavy atom, donor atom, acceptor molecule, acceptor atom, score
      L1  H     8    54       P1  8028  2.00
      P1  H  7997  8010       L1     3  1.00
      P1  H  8011  8017       L1    11  0.04

> <Gold.PLP.Chemscore.Internal.Correction>
0.0884

> <Gold.Rescore>
     Score         DG    S(hbond)    S(metal)    S(lipo)     H(rot)  DE(clash)    DE(int)     intcor
     14.34     -16.71       1.86        0.00      90.44       2.17       1.55       0.82       ----

> <Gold.Chemscore.Fitness>
14.3350

> <Gold.Chemscore.DG>
-16.7104

> <Gold.Chemscore.ZeroCoef>
-5.4800

> <Gold.Chemscore.Hbond>
1.8609

> <Gold.Chemscore.Metal>
0.0000

> <Gold.Chemscore.Lipo>
90.4417

> <Gold.Chemscore.Internal_Hbond>
0.0000

> <Gold.Chemscore.DEClash>
1.5521

> <Gold.Chemscore.DEInternal>
0.8232

> <Gold.Chemscore.Rot>
2.1744

> <Gold.Chemscore.Internal.Correction>
   9.000000E+99

> <Gold.Chemscore.Hbonds>
donor molecule, donor type, donor heavy atom, donor atom, acceptor molecule, acceptor atom, score
      L1  H     8    54       P1  8028  0.98
      P1  H  7997  8010       L1     3  0.88

> <Gold.Chemscore.Hbond.Weighted>
-6.2153

> <Gold.Chemscore.Metal.Weighted>
-0.0000

> <Gold.Chemscore.Lipo.Weighted>
-10.5817

> <Gold.Chemscore.Internal_Hbond.Weighted>
0.0000

> <Gold.Chemscore.DEClash.Weighted>
1.5521

> <Gold.Chemscore.DEInternal.Weighted>
0.8232

> <Gold.Chemscore.Rot.Weighted>
5.5666

> <Gold.Chemscore.Internal.Correction.Weighted>
   9.000000E+99

> <Gold.Protein.RotatedTorsions>
[ 6907 6896 6895 6894 ] final  130.67 input  -60.11 | X-H torsion
[ 7974 7965 7964 7962 ] final   -1.09 input  175.53 | X-H torsion
[ 8008 7997 7996 7995 ] final    9.06 input   59.86 | X-H torsion
[ 10167 10162 10161 10158 ] final   35.61 input  -65.29 | X-H torsion
[ 10718 10713 10712 10709 ] final    4.26 input   66.30 | X-H torsion
[ 10763 10752 10751 10750 ] final  142.94 input  -60.55 | X-H torsion
[ 11005 11000 10999 10996 ] final   74.53 input  -57.11 | X-H torsion

> <Gold.Protein.ActiveResidues>
 VAL166  LYS551  ARG553  GLY616  TRP617  ASP618  TYR619  PRO620  LYS621  CYS622 
 ASP623  PHE694  ASN695  SER759  ASP760  ASP761  ALA762  ILE779  LEU786  VAL792 
 PHE793  MET794  SER795  GLU796  ALA797  LYS798  CYS799  TRP800  GLU811  SER814 

> <Gold.Protein.RotatedAtoms>
  152.3503  133.6172  159.5940 H   0  0  0  0  0  0  0  0  0  0  0  0  # atno 6907 bound_to 6896
  150.7534  133.9584  159.3516 H   0  0  0  0  0  0  0  0  0  0  0  0  # atno 6908 bound_to 6896
  151.7436  135.0849  160.0371 H   0  0  0  0  0  0  0  0  0  0  0  0  # atno 6909 bound_to 6896
  146.2421  140.1368  142.8336 H   0  0  0  0  0  0  0  0  0  0  0  0  # atno 7974 bound_to 7965
  154.7750  140.2808  155.6108 H   0  0  0  0  0  0  0  0  0  0  0  0  # atno 8008 bound_to 7997
  156.2940  140.2634  156.2489 H   0  0  0  0  0  0  0  0  0  0  0  0  # atno 8009 bound_to 7997
  154.9854  140.0374  157.2286 H   0  0  0  0  0  0  0  0  0  0  0  0  # atno 8010 bound_to 7997
  140.4206  144.1465  150.6147 H   0  0  0  0  0  0  0  0  0  0  0  0  # atno 10167 bound_to 10162
  156.8899  130.5684  149.5650 H   0  0  0  0  0  0  0  0  0  0  0  0  # atno 10718 bound_to 10713
  153.9641  135.2957  155.3431 H   0  0  0  0  0  0  0  0  0  0  0  0  # atno 10763 bound_to 10752
  154.7358  135.5047  153.9043 H   0  0  0  0  0  0  0  0  0  0  0  0  # atno 10764 bound_to 10752
  153.0932  135.6713  153.9925 H   0  0  0  0  0  0  0  0  0  0  0  0  # atno 10765 bound_to 10752
  139.9386  134.7441  156.1160 H   0  0  0  0  0  0  0  0  0  0  0  0  # atno 11005 bound_to 11000
  145.0280  140.8848  143.5127 LP  0  0  0  0  0  0  0  0  0  0  0  0  # atno 17320 bound_to 7965
  145.1427  139.2562  143.5481 LP  0  0  0  0  0  0  0  0  0  0  0  0  # atno 17321 bound_to 7965
  140.4538  143.2476  151.9312 LP  0  0  0  0  0  0  0  0  0  0  0  0  # atno 17342 bound_to 10162
  139.4782  144.5536  151.8348 LP  0  0  0  0  0  0  0  0  0  0  0  0  # atno 17343 bound_to 10162
  156.0634  130.5682  150.9239 LP  0  0  0  0  0  0  0  0  0  0  0  0  # atno 17370 bound_to 10713
  157.6090  131.0937  150.8829 LP  0  0  0  0  0  0  0  0  0  0  0  0  # atno 17371 bound_to 10713
  141.1011  133.6677  156.2757 LP  0  0  0  0  0  0  0  0  0  0  0  0  # atno 17394 bound_to 11000
  140.6010  134.5555  157.5517 LP  0  0  0  0  0  0  0  0  0  0  0  0  # atno 17395 bound_to 11000

$$$$
