AV-unprocessed.smi:1784|AV-procd|sdf|7198|dock5
  -GOLD-   22720 8443D 1   1.00000     0.00000
 Structure written by MMmdl.
 44 46  0  0  0  0  0  0  0  0  2 V2000
  150.7209  140.6302  156.2006 O   0  0  0  0  0  0  0  0  0  0  0  0
  150.0850  141.6843  156.2035 C   0  0  0  0  0  0  0  0  0  0  0  0
  150.4314  142.7616  156.9218 N   0  0  0  0  0  0  0  0  0  0  0  0
  151.5706  142.8305  157.8302 C   0  0  0  0  0  0  0  0  0  0  0  0
  151.1579  143.3922  159.2007 C   0  0  2  0  0  0  0  0  0  0  0  0
  151.4537  144.8823  159.3664 C   0  0  0  0  0  0  0  0  0  0  0  0
  151.5665  145.0069  160.8685 C   0  0  0  0  0  0  0  0  0  0  0  0
  152.2833  143.7104  161.2309 C   0  0  0  0  0  0  0  0  0  0  0  0
  151.8771  142.7549  160.2551 O   0  0  0  0  0  0  0  0  0  0  0  0
  148.9518  141.9014  155.5158 N   0  0  0  0  0  0  0  0  0  0  0  0
  148.2438  140.9812  154.6928 C   0  0  0  0  0  0  0  0  0  0  0  0
  148.8811  139.8247  154.1745 C   0  0  0  0  0  0  0  0  0  0  0  0
  148.1550  138.9182  153.3798 C   0  0  0  0  0  0  0  0  0  0  0  0
  146.8018  139.1836  153.1104 C   0  0  0  0  0  0  0  0  0  0  0  0
  146.2293  140.3023  153.6012 N   0  3  0  0  0  0  0  0  0  0  0  0
  146.8784  141.2207  154.3602 C   0  0  0  0  0  0  0  0  0  0  0  0
  146.1470  142.3499  154.7947 N   0  0  0  0  0  0  0  0  0  0  0  0
  145.3384  142.2857  156.0066 C   0  0  0  0  0  0  0  0  0  0  0  0
  144.4618  143.5342  155.9635 C   0  0  0  0  0  0  0  0  0  0  0  0
  144.1904  143.6938  154.4705 C   0  0  0  0  0  0  0  0  0  0  0  0
  145.4814  143.1972  153.8104 C   0  0  0  0  0  0  0  0  0  0  0  0
  149.8501  143.5846  156.8619 H   0  0  0  0  0  0  0  0  0  0  0  0
  152.0445  141.8534  157.9399 H   0  0  0  0  0  0  0  0  0  0  0  0
  152.3159  143.4844  157.3772 H   0  0  0  0  0  0  0  0  0  0  0  0
  150.0938  143.2217  159.3732 H   0  0  0  0  0  0  0  0  0  0  0  0
  152.4054  145.1419  158.9003 H   0  0  0  0  0  0  0  0  0  0  0  0
  150.6787  145.5201  158.9405 H   0  0  0  0  0  0  0  0  0  0  0  0
  152.1076  145.8977  161.1881 H   0  0  0  0  0  0  0  0  0  0  0  0
  150.5730  145.0279  161.3187 H   0  0  0  0  0  0  0  0  0  0  0  0
  153.3638  143.8392  161.1576 H   0  0  0  0  0  0  0  0  0  0  0  0
  152.0500  143.3734  162.2411 H   0  0  0  0  0  0  0  0  0  0  0  0
  148.4846  142.7779  155.6955 H   0  0  0  0  0  0  0  0  0  0  0  0
  149.9227  139.6210  154.3727 H   0  0  0  0  0  0  0  0  0  0  0  0
  148.6301  138.0320  152.9849 H   0  0  0  0  0  0  0  0  0  0  0  0
  146.1654  138.5449  152.5151 H   0  0  0  0  0  0  0  0  0  0  0  0
  144.7085  141.3952  155.9969 H   0  0  0  0  0  0  0  0  0  0  0  0
  145.9612  142.2588  156.9014 H   0  0  0  0  0  0  0  0  0  0  0  0
  143.5520  143.4358  156.5564 H   0  0  0  0  0  0  0  0  0  0  0  0
  145.0191  144.3956  156.3351 H   0  0  0  0  0  0  0  0  0  0  0  0
  143.3581  143.0512  154.1798 H   0  0  0  0  0  0  0  0  0  0  0  0
  143.9377  144.7169  154.1901 H   0  0  0  0  0  0  0  0  0  0  0  0
  146.1297  144.0430  153.5795 H   0  0  0  0  0  0  0  0  0  0  0  0
  145.2720  142.6636  152.8822 H   0  0  0  0  0  0  0  0  0  0  0  0
  145.2477  140.4709  153.3809 H   0  0  0  0  0  0  0  0  0  0  0  0
  1  2  2  0  0  0  0
  2  3  1  0  0  0  0
  2 10  1  0  0  0  0
  3  4  1  0  0  0  0
  3 22  1  0  0  0  0
  4  5  1  0  0  0  0
  4 23  1  0  0  0  0
  4 24  1  0  0  0  0
  5  9  1  0  0  0  0
  5  6  1  0  0  0  0
  5 25  1  0  0  0  0
  6  7  1  0  0  0  0
  6 26  1  0  0  0  0
  6 27  1  0  0  0  0
  7  8  1  0  0  0  0
  7 28  1  0  0  0  0
  7 29  1  0  0  0  0
  8  9  1  0  0  0  0
  8 30  1  0  0  0  0
  8 31  1  0  0  0  0
 10 11  1  0  0  0  0
 10 32  1  0  0  0  0
 11 16  1  0  0  0  0
 11 12  2  0  0  0  0
 12 13  1  0  0  0  0
 12 33  1  0  0  0  0
 13 14  2  0  0  0  0
 13 34  1  0  0  0  0
 14 15  1  0  0  0  0
 14 35  1  0  0  0  0
 15 16  2  0  0  0  0
 15 44  1  0  0  0  0
 16 17  1  0  0  0  0
 17 21  1  0  0  0  0
 17 18  1  0  0  0  0
 18 19  1  0  0  0  0
 18 36  1  0  0  0  0
 18 37  1  0  0  0  0
 19 20  1  0  0  0  0
 19 38  1  0  0  0  0
 19 39  1  0  0  0  0
 20 21  1  0  0  0  0
 20 40  1  0  0  0  0
 20 41  1  0  0  0  0
 21 42  1  0  0  0  0
 21 43  1  0  0  0  0
M  CHG  1  15   1
M  END
> <s_m_source_file>
AV-unprocessed.smi

> <i_m_source_file_index>
1784

> <i_lp_mmshare_version>
43012

> <i_f3d_flags>
0

> <s_epik_input>
TzFbQ0gyXVtDSDJdW0NIMl1bQ0BIXTFbQ0gyXVtOSF1DKD1PKVtOSF1jMltjSF1bY0hdW2NIXW5jMk4zW0NIMl1bQ0gyXVtDSDJdW0NIMl0z

> <s_epik_cmdline>
J2VwaWtfcHl0aG9uJywgJy1waCcsICc3LjAnLCAnLXRuJywgJzgnLCAnLW1hJywgJzIwMCcsICctbWV0YWxfYmluZGluZycsICctaW1hZScsICc8aW5maWxlLm1hZT4nLCAnLW9tYWUnLCAnPG91dGZpbGUubWFlPic=

> <r_lp_tautomer_probability>
0.999994

> <r_epik_Ionization_Penalty>
1.11624

> <r_epik_Ionization_Penalty_Charging>
1.11622

> <r_epik_Ionization_Penalty_Neutral>
1.90191e-05

> <r_epik_State_Penalty>
1.17466

> <r_epik_Charging_Adjusted_Penalty>
2.29088

> <i_epik_Tot_Q>
1

> <i_epik_Tot_abs_Q>
1

> <r_epik_Metal_State_Penalty>
1.25978

> <b_epik_Metal_Only>
0

> <s_lp_Force_Field>
OPLS_2005

> <r_lp_Energy>
50.7996

> <b_lp_Chiralities_Consistent>
1

> <s_lp_Variant>
AV-unprocessed.smi:1784-3

> <Gold.Version>
5.8.1

> <Gold.Id.Protein>
6NUR|6NUR_protein|mol2

> <Gold.PLP.Fitness>
52.8103

> <Gold.PLP.PLP>
-42.4574

> <Gold.PLP.part.hbond>
-3.0000

> <Gold.PLP.part.metal>
0.0000

> <Gold.PLP.part.buried>
-5.5912

> <Gold.PLP.part.nonpolar>
-33.6913

> <Gold.PLP.part.repulsive>
0.4256

> <Gold.PLP.ligand.clash>
0.0000

> <Gold.PLP.ligand.torsion>
1.0217

> <Gold.PLP.Chemscore.Hbond>
3.9920

> <Gold.PLP.Chemscore.CHOScore>
0.0000

> <Gold.PLP.Chemscore.Metal>
0.0000

> <Gold.Chemscore.Hbonds>
donor molecule, donor type, donor heavy atom, donor atom, acceptor molecule, acceptor atom, score
      L1  H     3    22       P1  8028  0.90
      L1  H    10    32       P1  8028  0.80
      L1  H    15    44       P1 10175  2.00

> <Gold.PLP.Chemscore.Internal.Correction>
0.4203

> <Gold.Rescore>
     Score         DG    S(hbond)    S(metal)    S(lipo)     H(rot)  DE(clash)    DE(int)     intcor
     20.79     -23.00       2.79        0.00     100.74       1.40       0.44       1.76       ----

> <Gold.Chemscore.Fitness>
20.7945

> <Gold.Chemscore.DG>
-23.0014

> <Gold.Chemscore.ZeroCoef>
-5.4800

> <Gold.Chemscore.Hbond>
2.7920

> <Gold.Chemscore.Metal>
0.0000

> <Gold.Chemscore.Lipo>
100.7354

> <Gold.Chemscore.Internal_Hbond>
0.0000

> <Gold.Chemscore.DEClash>
0.4440

> <Gold.Chemscore.DEInternal>
1.7629

> <Gold.Chemscore.Rot>
1.4023

> <Gold.Chemscore.Internal.Correction>
   9.000000E+99

> <Gold.Chemscore.Hbonds>
donor molecule, donor type, donor heavy atom, donor atom, acceptor molecule, acceptor atom, score
      L1  H     3    22       P1  8028  0.87
      L1  H    10    32       P1  8028  0.77
      L1  H    15    44       P1 10175  0.98

> <Gold.Chemscore.Hbond.Weighted>
-9.3252

> <Gold.Chemscore.Metal.Weighted>
-0.0000

> <Gold.Chemscore.Lipo.Weighted>
-11.7860

> <Gold.Chemscore.Internal_Hbond.Weighted>
0.0000

> <Gold.Chemscore.DEClash.Weighted>
0.4440

> <Gold.Chemscore.DEInternal.Weighted>
1.7629

> <Gold.Chemscore.Rot.Weighted>
3.5898

> <Gold.Chemscore.Internal.Correction.Weighted>
   9.000000E+99

> <Gold.Protein.RotatedTorsions>
[ 6907 6896 6895 6894 ] final  177.71 input  -60.11 | X-H torsion
[ 7974 7965 7964 7962 ] final  -18.35 input  175.53 | X-H torsion
[ 8008 7997 7996 7995 ] final   26.98 input   59.86 | X-H torsion
[ 10167 10162 10161 10158 ] final -143.92 input  -65.29 | X-H torsion
[ 10718 10713 10712 10709 ] final  173.65 input   66.30 | X-H torsion
[ 10763 10752 10751 10750 ] final -113.86 input  -60.55 | X-H torsion
[ 11005 11000 10999 10996 ] final  -58.92 input  -57.11 | X-H torsion

> <Gold.Protein.ActiveResidues>
 VAL166  LYS551  ARG553  GLY616  TRP617  ASP618  TYR619  PRO620  LYS621  CYS622 
 ASP623  PHE694  ASN695  SER759  ASP760  ASP761  ALA762  ILE779  LEU786  VAL792 
 PHE793  MET794  SER795  GLU796  ALA797  LYS798  CYS799  TRP800  GLU811  SER814 

> <Gold.Protein.RotatedAtoms>
  151.6996  133.3311  159.3262 H   0  0  0  0  0  0  0  0  0  0  0  0  # atno 6907 bound_to 6896
  150.7742  134.6627  159.6358 H   0  0  0  0  0  0  0  0  0  0  0  0  # atno 6908 bound_to 6896
  152.3778  134.6640  160.0206 H   0  0  0  0  0  0  0  0  0  0  0  0  # atno 6909 bound_to 6896
  146.1896  140.3909  142.8463 H   0  0  0  0  0  0  0  0  0  0  0  0  # atno 7974 bound_to 7965
  155.0357  140.3163  155.4742 H   0  0  0  0  0  0  0  0  0  0  0  0  # atno 8008 bound_to 7997
  156.2865  140.2172  156.5422 H   0  0  0  0  0  0  0  0  0  0  0  0  # atno 8009 bound_to 7997
  154.7332  140.0479  157.0733 H   0  0  0  0  0  0  0  0  0  0  0  0  # atno 8010 bound_to 7997
  139.7948  143.7916  152.2653 H   0  0  0  0  0  0  0  0  0  0  0  0  # atno 10167 bound_to 10162
  156.9612  131.0061  151.2927 H   0  0  0  0  0  0  0  0  0  0  0  0  # atno 10718 bound_to 10713
  154.8415  135.4439  154.1416 H   0  0  0  0  0  0  0  0  0  0  0  0  # atno 10763 bound_to 10752
  153.2600  135.6935  153.7595 H   0  0  0  0  0  0  0  0  0  0  0  0  # atno 10764 bound_to 10752
  153.6875  135.3392  155.3169 H   0  0  0  0  0  0  0  0  0  0  0  0  # atno 10765 bound_to 10752
  141.1227  133.6614  156.4993 H   0  0  0  0  0  0  0  0  0  0  0  0  # atno 11005 bound_to 11000
  144.8462  140.6932  143.6197 LP  0  0  0  0  0  0  0  0  0  0  0  0  # atno 17320 bound_to 7965
  145.3832  139.1632  143.4269 LP  0  0  0  0  0  0  0  0  0  0  0  0  # atno 17321 bound_to 7965
  139.8018  144.7371  150.9815 LP  0  0  0  0  0  0  0  0  0  0  0  0  # atno 17342 bound_to 10162
  140.7820  143.4338  151.0655 LP  0  0  0  0  0  0  0  0  0  0  0  0  # atno 17343 bound_to 10162
  157.5657  130.8276  149.8324 LP  0  0  0  0  0  0  0  0  0  0  0  0  # atno 17370 bound_to 10713
  156.0321  130.3761  150.1658 LP  0  0  0  0  0  0  0  0  0  0  0  0  # atno 17371 bound_to 10713
  140.4459  134.6973  157.5015 LP  0  0  0  0  0  0  0  0  0  0  0  0  # atno 17394 bound_to 11000
  140.0198  134.6564  155.9256 LP  0  0  0  0  0  0  0  0  0  0  0  0  # atno 17395 bound_to 11000

$$$$
