AV-unprocessed.smi:861|AV-procd|sdf|3973|dock5
  -GOLD-   22720 1453D 1   1.00000     0.00000
 Structure written by MMmdl.
 45 46  0  0  0  0  0  0  0  0  3 V2000
  144.6376  131.5384  150.7300 C   0  0  0  0  0  0  0  0  0  0  0  0
  145.9655  131.1822  151.4198 C   0  0  0  0  0  0  0  0  0  0  0  0
  146.0813  129.6609  151.5997 C   0  0  0  0  0  0  0  0  0  0  0  0
  146.1487  131.9046  152.7706 C   0  0  0  0  0  0  0  0  0  0  0  0
  146.4784  133.4042  152.6407 C   0  0  0  0  0  0  0  0  0  0  0  0
  145.4034  134.2669  153.2005 N   0  3  2  0  0  0  0  0  0  0  0  0
  144.0914  134.0963  152.5298 C   0  0  0  0  0  0  0  0  0  0  0  0
  144.0550  134.8382  151.1822 C   0  0  0  0  0  0  0  0  0  0  0  0
  144.3545  136.2130  151.3926 O   0  0  0  0  0  0  0  0  0  0  0  0
  145.6609  136.4133  151.9232 C   0  0  1  0  0  0  0  0  0  0  0  0
  145.9012  137.9284  152.0491 C   0  0  0  0  0  0  0  0  0  0  0  0
  147.2282  138.2453  152.5613 N   0  0  0  0  0  0  0  0  0  0  0  0
  147.5089  139.4702  153.1845 C   0  0  0  0  0  0  0  0  0  0  0  0
  148.7749  139.8347  153.7007 C   0  0  0  0  0  0  0  0  0  0  0  0
  148.9130  141.0994  154.2975 C   0  0  0  0  0  0  0  0  0  0  0  0
  147.7760  141.9252  154.3452 C   0  0  0  0  0  0  0  0  0  0  0  0
  146.5741  141.5583  153.8476 N   0  0  0  0  0  0  0  0  0  0  0  0
  146.4741  140.3420  153.2827 N   0  3  0  0  0  0  0  0  0  0  0  0
  145.7502  135.7090  153.2960 C   0  0  0  0  0  0  0  0  0  0  0  0
  143.7840  131.3025  151.3662 H   0  0  0  0  0  0  0  0  0  0  0  0
  144.5198  130.9813  149.7999 H   0  0  0  0  0  0  0  0  0  0  0  0
  144.5839  132.5962  150.4748 H   0  0  0  0  0  0  0  0  0  0  0  0
  146.7771  131.4901  150.7591 H   0  0  0  0  0  0  0  0  0  0  0  0
  145.2971  129.2785  152.2543 H   0  0  0  0  0  0  0  0  0  0  0  0
  147.0421  129.3851  152.0353 H   0  0  0  0  0  0  0  0  0  0  0  0
  145.9971  129.1436  150.6435 H   0  0  0  0  0  0  0  0  0  0  0  0
  145.2513  131.7796  153.3782 H   0  0  0  0  0  0  0  0  0  0  0  0
  146.9491  131.4039  153.3143 H   0  0  0  0  0  0  0  0  0  0  0  0
  147.4375  133.6287  153.1067 H   0  0  0  0  0  0  0  0  0  0  0  0
  146.5936  133.6368  151.5823 H   0  0  0  0  0  0  0  0  0  0  0  0
  143.8556  133.0394  152.3999 H   0  0  0  0  0  0  0  0  0  0  0  0
  143.3176  134.5019  153.1831 H   0  0  0  0  0  0  0  0  0  0  0  0
  144.7559  134.4014  150.4692 H   0  0  0  0  0  0  0  0  0  0  0  0
  143.0621  134.7597  150.7390 H   0  0  0  0  0  0  0  0  0  0  0  0
  146.3987  135.9895  151.2411 H   0  0  0  0  0  0  0  0  0  0  0  0
  145.7904  138.4005  151.0725 H   0  0  0  0  0  0  0  0  0  0  0  0
  145.1464  138.3853  152.6894 H   0  0  0  0  0  0  0  0  0  0  0  0
  147.9158  137.5056  152.5935 H   0  0  0  0  0  0  0  0  0  0  0  0
  149.6279  139.1751  153.6484 H   0  0  0  0  0  0  0  0  0  0  0  0
  149.8571  141.4268  154.7073 H   0  0  0  0  0  0  0  0  0  0  0  0
  147.8300  142.9062  154.7942 H   0  0  0  0  0  0  0  0  0  0  0  0
  145.0473  136.1766  153.9871 H   0  0  0  0  0  0  0  0  0  0  0  0
  146.7384  135.8463  153.7331 H   0  0  0  0  0  0  0  0  0  0  0  0
  145.2705  133.9365  154.1461 H   0  0  0  0  0  0  0  0  0  0  0  0
  145.5690  140.0591  152.9064 H   0  0  0  0  0  0  0  0  0  0  0  0
  1  2  1  0  0  0  0
  1 20  1  0  0  0  0
  1 21  1  0  0  0  0
  1 22  1  0  0  0  0
  2  3  1  0  0  0  0
  2  4  1  0  0  0  0
  2 23  1  0  0  0  0
  3 24  1  0  0  0  0
  3 25  1  0  0  0  0
  3 26  1  0  0  0  0
  4  5  1  0  0  0  0
  4 27  1  0  0  0  0
  4 28  1  0  0  0  0
  5  6  1  0  0  0  0
  5 29  1  0  0  0  0
  5 30  1  0  0  0  0
  6 19  1  0  0  0  0
  6  7  1  0  0  0  0
  6 44  1  0  0  0  0
  7  8  1  0  0  0  0
  7 31  1  0  0  0  0
  7 32  1  0  0  0  0
  8  9  1  0  0  0  0
  8 33  1  0  0  0  0
  8 34  1  0  0  0  0
  9 10  1  0  0  0  0
 10 11  1  0  0  0  0
 10 19  1  0  0  0  0
 10 35  1  0  0  0  0
 11 12  1  0  0  0  0
 11 36  1  0  0  0  0
 11 37  1  0  0  0  0
 12 13  1  0  0  0  0
 12 38  1  0  0  0  0
 13 18  1  0  0  0  0
 13 14  2  0  0  0  0
 14 15  1  0  0  0  0
 14 39  1  0  0  0  0
 15 16  2  0  0  0  0
 15 40  1  0  0  0  0
 16 17  1  0  0  0  0
 16 41  1  0  0  0  0
 17 18  2  0  0  0  0
 18 45  1  0  0  0  0
 19 42  1  0  0  0  0
 19 43  1  0  0  0  0
M  CHG  1   6   1
M  CHG  1  18   1
M  END
> <s_m_source_file>
AV-unprocessed.smi

> <i_m_source_file_index>
861

> <i_lp_mmshare_version>
43012

> <i_f3d_flags>
0

> <s_epik_input>
W0NIM11bQ0hdKFtDSDNdKVtDSDJdW0NIMl1OMVtDSDJdW0NIMl1PW0NASF0oW0NIMl0xKVtDSDJdW05IXWMyW2NIXVtjSF1bY0hdbm4y

> <s_epik_cmdline>
J2VwaWtfcHl0aG9uJywgJy1waCcsICc3LjAnLCAnLXRuJywgJzgnLCAnLW1hJywgJzIwMCcsICctbWV0YWxfYmluZGluZycsICctaW1hZScsICc8aW5maWxlLm1hZT4nLCAnLW9tYWUnLCAnPG91dGZpbGUubWFlPic=

> <r_lp_tautomer_probability>
0.966961

> <r_epik_Ionization_Penalty>
2.478

> <r_epik_Ionization_Penalty_Charging>
2.47799

> <r_epik_Ionization_Penalty_Neutral>
3.15286e-06

> <r_epik_State_Penalty>
2.10794

> <r_epik_Charging_Adjusted_Penalty>
4.58594

> <i_epik_Tot_Q>
2

> <i_epik_Tot_abs_Q>
2

> <r_epik_Metal_State_Penalty>
2.11378

> <b_epik_Metal_Only>
0

> <s_lp_Force_Field>
OPLS_2005

> <r_lp_Energy>
36.5784

> <b_lp_Chiralities_Consistent>
1

> <s_lp_Variant>
AV-unprocessed.smi:861-8

> <Gold.Version>
5.8.1

> <Gold.Id.Protein>
6NUR|6NUR_protein|mol2

> <Gold.PLP.Fitness>
44.1316

> <Gold.PLP.PLP>
-30.4407

> <Gold.PLP.part.hbond>
-2.0000

> <Gold.PLP.part.metal>
0.0000

> <Gold.PLP.part.buried>
-1.0000

> <Gold.PLP.part.nonpolar>
-29.6272

> <Gold.PLP.part.repulsive>
1.8172

> <Gold.PLP.ligand.clash>
0.0000

> <Gold.PLP.ligand.torsion>
0.6715

> <Gold.PLP.Chemscore.Hbond>
4.0000

> <Gold.PLP.Chemscore.CHOScore>
1.0000

> <Gold.PLP.Chemscore.Metal>
0.0000

> <Gold.Chemscore.Hbonds>
donor molecule, donor type, donor heavy atom, donor atom, acceptor molecule, acceptor atom, score
      L1  H    12    38       P1  7948  2.00
      L1  H    18    45       P1 10175  2.00
      L1  C    16    41       P1  8028  1.00

> <Gold.PLP.Chemscore.Internal.Correction>
0.0338

> <Gold.Rescore>
     Score         DG    S(hbond)    S(metal)    S(lipo)     H(rot)  DE(clash)    DE(int)     intcor
     15.68     -16.85       1.85        0.00      83.40       1.78       0.48       0.69       ----

> <Gold.Chemscore.Fitness>
15.6839

> <Gold.Chemscore.DG>
-16.8540

> <Gold.Chemscore.ZeroCoef>
-5.4800

> <Gold.Chemscore.Hbond>
1.8450

> <Gold.Chemscore.Metal>
0.0000

> <Gold.Chemscore.Lipo>
83.4005

> <Gold.Chemscore.Internal_Hbond>
0.0000

> <Gold.Chemscore.DEClash>
0.4765

> <Gold.Chemscore.DEInternal>
0.6936

> <Gold.Chemscore.Rot>
1.7759

> <Gold.Chemscore.Internal.Correction>
   9.000000E+99

> <Gold.Chemscore.Hbonds>
donor molecule, donor type, donor heavy atom, donor atom, acceptor molecule, acceptor atom, score
      L1  H    12    38       P1  7948  0.97
      L1  H    18    45       P1 10175  0.91

> <Gold.Chemscore.Hbond.Weighted>
-6.1623

> <Gold.Chemscore.Metal.Weighted>
-0.0000

> <Gold.Chemscore.Lipo.Weighted>
-9.7579

> <Gold.Chemscore.Internal_Hbond.Weighted>
0.0000

> <Gold.Chemscore.DEClash.Weighted>
0.4765

> <Gold.Chemscore.DEInternal.Weighted>
0.6936

> <Gold.Chemscore.Rot.Weighted>
4.5462

> <Gold.Chemscore.Internal.Correction.Weighted>
   9.000000E+99

> <Gold.Protein.RotatedTorsions>
[ 6907 6896 6895 6894 ] final   12.17 input  -60.11 | X-H torsion
[ 7974 7965 7964 7962 ] final -153.73 input  175.53 | X-H torsion
[ 8008 7997 7996 7995 ] final  -54.13 input   59.86 | X-H torsion
[ 10167 10162 10161 10158 ] final -120.42 input  -65.29 | X-H torsion
[ 10718 10713 10712 10709 ] final  140.82 input   66.30 | X-H torsion
[ 10763 10752 10751 10750 ] final   46.79 input  -60.55 | X-H torsion
[ 11005 11000 10999 10996 ] final -173.39 input  -57.11 | X-H torsion

> <Gold.Protein.ActiveResidues>
 VAL166  LYS551  ARG553  GLY616  TRP617  ASP618  TYR619  PRO620  LYS621  CYS622 
 ASP623  PHE694  ASN695  SER759  ASP760  ASP761  ALA762  ILE779  LEU786  VAL792 
 PHE793  MET794  SER795  GLU796  ALA797  LYS798  CYS799  TRP800  GLU811  SER814 

> <Gold.Protein.RotatedAtoms>
  151.7661  135.0798  160.0352 H   0  0  0  0  0  0  0  0  0  0  0  0  # atno 6907 bound_to 6896
  152.3320  133.5965  159.5825 H   0  0  0  0  0  0  0  0  0  0  0  0  # atno 6908 bound_to 6896
  150.7428  133.9769  159.3605 H   0  0  0  0  0  0  0  0  0  0  0  0  # atno 6909 bound_to 6896
  144.7725  140.4485  143.5897 H   0  0  0  0  0  0  0  0  0  0  0  0  # atno 7974 bound_to 7965
  154.4153  140.1183  156.5266 H   0  0  0  0  0  0  0  0  0  0  0  0  # atno 8008 bound_to 7997
  155.6649  140.3496  155.4777 H   0  0  0  0  0  0  0  0  0  0  0  0  # atno 8009 bound_to 7997
  155.9682  140.1136  157.0825 H   0  0  0  0  0  0  0  0  0  0  0  0  # atno 8010 bound_to 7997
  140.0360  143.5201  152.2153 H   0  0  0  0  0  0  0  0  0  0  0  0  # atno 10167 bound_to 10162
  157.3989  131.1014  151.0571 H   0  0  0  0  0  0  0  0  0  0  0  0  # atno 10718 bound_to 10713
  152.9807  135.5997  154.3656 H   0  0  0  0  0  0  0  0  0  0  0  0  # atno 10763 bound_to 10752
  154.3334  135.2768  155.2462 H   0  0  0  0  0  0  0  0  0  0  0  0  # atno 10764 bound_to 10752
  154.4575  135.5974  153.6289 H   0  0  0  0  0  0  0  0  0  0  0  0  # atno 10765 bound_to 10752
  140.4863  134.6028  157.4938 H   0  0  0  0  0  0  0  0  0  0  0  0  # atno 11005 bound_to 11000
  145.6281  139.1532  143.2984 LP  0  0  0  0  0  0  0  0  0  0  0  0  # atno 17320 bound_to 7965
  146.1882  140.6387  142.9158 LP  0  0  0  0  0  0  0  0  0  0  0  0  # atno 17321 bound_to 7965
  139.6045  144.7592  151.3094 LP  0  0  0  0  0  0  0  0  0  0  0  0  # atno 17342 bound_to 10162
  140.7281  143.6944  150.7896 LP  0  0  0  0  0  0  0  0  0  0  0  0  # atno 17343 bound_to 10162
  157.1577  130.6212  149.5601 LP  0  0  0  0  0  0  0  0  0  0  0  0  # atno 17370 bound_to 10713
  155.9818  130.4827  150.6846 LP  0  0  0  0  0  0  0  0  0  0  0  0  # atno 17371 bound_to 10713
  139.9796  134.7159  155.9884 LP  0  0  0  0  0  0  0  0  0  0  0  0  # atno 17394 bound_to 11000
  141.1506  133.6549  156.4003 LP  0  0  0  0  0  0  0  0  0  0  0  0  # atno 17395 bound_to 11000

$$$$
