AV-unprocessed.smi:1824|AV-procd|sdf|7404|dock7
  -GOLD-   22720 9 73D 1   1.00000     0.00000
 Structure written by MMmdl.
 45 47  0  0  0  0  0  0  0  0  2 V2000
  148.2997  137.0666  155.7358 C   0  0  0  0  0  0  0  0  0  0  0  0
  147.2573  138.1984  155.6949 C   0  0  1  0  0  0  0  0  0  0  0  0
  147.7820  139.5408  156.2421 C   0  0  0  0  0  0  0  0  0  0  0  0
  148.7231  140.1751  155.2892 N   0  3  2  0  0  0  0  0  0  0  0  0
  149.3073  141.4351  155.8161 C   0  0  0  0  0  0  0  0  0  0  0  0
  150.1731  141.2046  157.0704 C   0  0  2  0  0  0  0  0  0  0  0  0
  149.3615  141.3666  158.2188 O   0  0  0  0  0  0  0  0  0  0  0  0
  151.3577  142.1882  157.1359 C   0  0  0  0  0  0  0  0  0  0  0  0
  151.3684  142.9683  158.3612 N   0  0  0  0  0  0  0  0  0  0  0  0
  150.6917  144.1079  158.6016 C   0  0  0  0  0  0  0  0  0  0  0  0
  150.8424  144.6651  159.7996 N   0  0  0  0  0  0  0  0  0  0  0  0
  151.7182  143.7841  160.4103 C   0  0  0  0  0  0  0  0  0  0  0  0
  152.2811  143.8007  161.7065 C   0  0  0  0  0  0  0  0  0  0  0  0
  153.1636  142.7795  162.1159 C   0  0  0  0  0  0  0  0  0  0  0  0
  153.6929  142.8098  163.3621 F   0  0  0  0  0  0  0  0  0  0  0  0
  153.4974  141.7286  161.2359 C   0  0  0  0  0  0  0  0  0  0  0  0
  154.3467  140.7529  161.6359 F   0  0  0  0  0  0  0  0  0  0  0  0
  152.9493  141.6911  159.9393 C   0  0  0  0  0  0  0  0  0  0  0  0
  152.0675  142.7107  159.5360 C   0  0  0  0  0  0  0  0  0  0  0  0
  148.0836  140.3264  153.9601 C   0  0  0  0  0  0  0  0  0  0  0  0
  147.6003  138.9604  153.4406 C   0  0  2  0  0  0  0  0  0  0  0  0
  146.8543  139.0825  152.1076 C   0  0  0  0  0  0  0  0  0  0  0  0
  146.7091  138.3802  154.3895 O   0  0  0  0  0  0  0  0  0  0  0  0
  148.6024  136.8567  156.7619 H   0  0  0  0  0  0  0  0  0  0  0  0
  149.2025  137.3125  155.1774 H   0  0  0  0  0  0  0  0  0  0  0  0
  147.8894  136.1461  155.3198 H   0  0  0  0  0  0  0  0  0  0  0  0
  146.4277  137.8837  156.3286 H   0  0  0  0  0  0  0  0  0  0  0  0
  146.9453  140.2189  156.4179 H   0  0  0  0  0  0  0  0  0  0  0  0
  148.2687  139.3831  157.2055 H   0  0  0  0  0  0  0  0  0  0  0  0
  149.8905  141.9161  155.0293 H   0  0  0  0  0  0  0  0  0  0  0  0
  148.5092  142.1343  156.0705 H   0  0  0  0  0  0  0  0  0  0  0  0
  150.5683  140.1891  157.0767 H   0  0  0  0  0  0  0  0  0  0  0  0
  149.3939  140.5712  158.7287 H   0  0  0  0  0  0  0  0  0  0  0  0
  152.3014  141.6449  157.0713 H   0  0  0  0  0  0  0  0  0  0  0  0
  151.3358  142.8718  156.2862 H   0  0  0  0  0  0  0  0  0  0  0  0
  150.0530  144.5547  157.8535 H   0  0  0  0  0  0  0  0  0  0  0  0
  152.0339  144.6005  162.3886 H   0  0  0  0  0  0  0  0  0  0  0  0
  153.2045  140.8872  159.2654 H   0  0  0  0  0  0  0  0  0  0  0  0
  147.2444  141.0199  154.0360 H   0  0  0  0  0  0  0  0  0  0  0  0
  148.7860  140.7550  153.2460 H   0  0  0  0  0  0  0  0  0  0  0  0
  148.4565  138.3033  153.2876 H   0  0  0  0  0  0  0  0  0  0  0  0
  147.4919  139.5198  151.3390 H   0  0  0  0  0  0  0  0  0  0  0  0
  145.9681  139.7104  152.2059 H   0  0  0  0  0  0  0  0  0  0  0  0
  146.5308  138.1038  151.7522 H   0  0  0  0  0  0  0  0  0  0  0  0
  149.4924  139.5292  155.1790 H   0  0  0  0  0  0  0  0  0  0  0  0
  1  2  1  0  0  0  0
  1 24  1  0  0  0  0
  1 25  1  0  0  0  0
  1 26  1  0  0  0  0
  2 23  1  0  0  0  0
  2  3  1  0  0  0  0
  2 27  1  0  0  0  0
  3  4  1  0  0  0  0
  3 28  1  0  0  0  0
  3 29  1  0  0  0  0
  4  5  1  0  0  0  0
  4 20  1  0  0  0  0
  4 45  1  0  0  0  0
  5  6  1  0  0  0  0
  5 30  1  0  0  0  0
  5 31  1  0  0  0  0
  6  7  1  0  0  0  0
  6  8  1  0  0  0  0
  6 32  1  0  0  0  0
  7 33  1  0  0  0  0
  8  9  1  0  0  0  0
  8 34  1  0  0  0  0
  8 35  1  0  0  0  0
  9 19  1  0  0  0  0
  9 10  1  0  0  0  0
 10 11  2  0  0  0  0
 10 36  1  0  0  0  0
 11 12  1  0  0  0  0
 12 19  2  0  0  0  0
 12 13  1  0  0  0  0
 13 14  2  0  0  0  0
 13 37  1  0  0  0  0
 14 15  1  0  0  0  0
 14 16  1  0  0  0  0
 16 17  1  0  0  0  0
 16 18  2  0  0  0  0
 18 19  1  0  0  0  0
 18 38  1  0  0  0  0
 20 21  1  0  0  0  0
 20 39  1  0  0  0  0
 20 40  1  0  0  0  0
 21 22  1  0  0  0  0
 21 23  1  0  0  0  0
 21 41  1  0  0  0  0
 22 42  1  0  0  0  0
 22 43  1  0  0  0  0
 22 44  1  0  0  0  0
M  CHG  1   4   1
M  END
> <s_m_source_file>
AV-unprocessed.smi

> <i_m_source_file_index>
1824

> <i_lp_mmshare_version>
43012

> <i_f3d_flags>
0

> <s_epik_input>
W0NIM11bQ0BASF0xW0NIMl1OKFtDSDJdW0NASF0oTzEpW0NIM10pW0NIMl1bQ0BIXShbT0hdKVtDSDJdbihbY0hdbjIpYyhjMjMpW2NIXWMoRiljKEYpW2NIXTM=

> <s_epik_cmdline>
J2VwaWtfcHl0aG9uJywgJy1waCcsICc3LjAnLCAnLXRuJywgJzgnLCAnLW1hJywgJzIwMCcsICctbWV0YWxfYmluZGluZycsICctaW1hZScsICc8aW5maWxlLm1hZT4nLCAnLW9tYWUnLCAnPG91dGZpbGUubWFlPic=

> <r_epik_Ionization_Penalty>
0.61967

> <r_epik_Ionization_Penalty_Charging>
0.608065

> <r_epik_Ionization_Penalty_Neutral>
0.0116057

> <r_epik_State_Penalty>
0.664205

> <r_epik_Charging_Adjusted_Penalty>
1.27227

> <i_epik_Tot_Q>
1

> <i_epik_Tot_abs_Q>
1

> <r_epik_Metal_State_Penalty>
0.654947

> <b_epik_Metal_Only>
0

> <s_lp_Force_Field>
OPLS_2005

> <r_lp_Energy>
23.1423

> <b_lp_Chiralities_Consistent>
1

> <s_lp_Variant>
AV-unprocessed.smi:1824-12

> <Gold.Version>
5.8.1

> <Gold.Id.Protein>
6NUR|6NUR_protein|mol2

> <Gold.PLP.Fitness>
46.7637

> <Gold.PLP.PLP>
-46.4660

> <Gold.PLP.part.hbond>
0.0000

> <Gold.PLP.part.metal>
0.0000

> <Gold.PLP.part.buried>
-4.3140

> <Gold.PLP.part.nonpolar>
-41.7263

> <Gold.PLP.part.repulsive>
0.2886

> <Gold.PLP.ligand.clash>
0.0000

> <Gold.PLP.ligand.torsion>
1.5543

> <Gold.PLP.Chemscore.Hbond>
0.0000

> <Gold.PLP.Chemscore.CHOScore>
1.1018

> <Gold.PLP.Chemscore.Metal>
0.0000

> <Gold.Chemscore.Hbonds>
donor molecule, donor type, donor heavy atom, donor atom, acceptor molecule, acceptor atom, score
      L1  C    10    36       P1  8028  0.77
      L1  C    10    36       P1  8029  0.32

> <Gold.PLP.Chemscore.Internal.Correction>
0.1009

> <Gold.Rescore>
     Score         DG    S(hbond)    S(metal)    S(lipo)     H(rot)  DE(clash)    DE(int)     intcor
     10.88     -12.61       0.00        0.00     111.82       2.33       0.14       1.59       ----

> <Gold.Chemscore.Fitness>
10.8754

> <Gold.Chemscore.DG>
-12.6104

> <Gold.Chemscore.ZeroCoef>
-5.4800

> <Gold.Chemscore.Hbond>
0.0000

> <Gold.Chemscore.Metal>
0.0000

> <Gold.Chemscore.Lipo>
111.8184

> <Gold.Chemscore.Internal_Hbond>
0.0000

> <Gold.Chemscore.DEClash>
0.1410

> <Gold.Chemscore.DEInternal>
1.5940

> <Gold.Chemscore.Rot>
2.3251

> <Gold.Chemscore.Internal.Correction>
   9.000000E+99

> <Gold.Chemscore.Hbond.Weighted>
-0.0000

> <Gold.Chemscore.Metal.Weighted>
-0.0000

> <Gold.Chemscore.Lipo.Weighted>
-13.0828

> <Gold.Chemscore.Internal_Hbond.Weighted>
0.0000

> <Gold.Chemscore.DEClash.Weighted>
0.1410

> <Gold.Chemscore.DEInternal.Weighted>
1.5940

> <Gold.Chemscore.Rot.Weighted>
5.9523

> <Gold.Chemscore.Internal.Correction.Weighted>
   9.000000E+99

> <Gold.Protein.RotatedTorsions>
[ 6907 6896 6895 6894 ] final  -54.39 input  -60.11 | X-H torsion
[ 7974 7965 7964 7962 ] final  152.89 input  175.53 | X-H torsion
[ 8008 7997 7996 7995 ] final  132.66 input   59.86 | X-H torsion
[ 10167 10162 10161 10158 ] final  157.49 input  -65.29 | X-H torsion
[ 10718 10713 10712 10709 ] final -145.19 input   66.30 | X-H torsion
[ 10763 10752 10751 10750 ] final  162.93 input  -60.55 | X-H torsion
[ 11005 11000 10999 10996 ] final -169.98 input  -57.11 | X-H torsion

> <Gold.Protein.ActiveResidues>
 VAL166  LYS551  ARG553  GLY616  TRP617  ASP618  TYR619  PRO620  LYS621  CYS622 
 ASP623  PHE694  ASN695  SER759  ASP760  ASP761  ALA762  ILE779  LEU786  VAL792 
 PHE793  MET794  SER795  GLU796  ALA797  LYS798  CYS799  TRP800  GLU811  SER814 

> <Gold.Protein.RotatedAtoms>
  150.8343  134.7609  159.6879 H   0  0  0  0  0  0  0  0  0  0  0  0  # atno 6907 bound_to 6896
  152.4442  134.5526  159.9881 H   0  0  0  0  0  0  0  0  0  0  0  0  # atno 6908 bound_to 6896
  151.5679  133.3356  159.3020 H   0  0  0  0  0  0  0  0  0  0  0  0  # atno 6909 bound_to 6896
  144.8191  139.6728  143.6108 H   0  0  0  0  0  0  0  0  0  0  0  0  # atno 7974 bound_to 7965
  156.2985  140.2541  156.3125 H   0  0  0  0  0  0  0  0  0  0  0  0  # atno 8008 bound_to 7997
  154.9312  140.0398  157.2068 H   0  0  0  0  0  0  0  0  0  0  0  0  # atno 8009 bound_to 7997
  154.8216  140.2861  155.5787 H   0  0  0  0  0  0  0  0  0  0  0  0  # atno 8010 bound_to 7997
  139.4823  144.4912  151.8305 H   0  0  0  0  0  0  0  0  0  0  0  0  # atno 10167 bound_to 10162
  156.3794  130.7829  151.2019 H   0  0  0  0  0  0  0  0  0  0  0  0  # atno 10718 bound_to 10713
  154.2860  135.2762  155.2676 H   0  0  0  0  0  0  0  0  0  0  0  0  # atno 10763 bound_to 10752
  154.5176  135.5765  153.6658 H   0  0  0  0  0  0  0  0  0  0  0  0  # atno 10764 bound_to 10752
  152.9921  135.6196  154.3022 H   0  0  0  0  0  0  0  0  0  0  0  0  # atno 10765 bound_to 10752
  140.5246  134.5675  157.5058 H   0  0  0  0  0  0  0  0  0  0  0  0  # atno 11005 bound_to 11000
  146.2496  139.6171  142.9436 LP  0  0  0  0  0  0  0  0  0  0  0  0  # atno 17320 bound_to 7965
  145.5145  141.0434  143.2469 LP  0  0  0  0  0  0  0  0  0  0  0  0  # atno 17321 bound_to 7965
  140.4397  144.2004  150.5891 LP  0  0  0  0  0  0  0  0  0  0  0  0  # atno 17342 bound_to 10162
  140.4696  143.2418  151.9107 LP  0  0  0  0  0  0  0  0  0  0  0  0  # atno 17343 bound_to 10162
  157.7491  131.0349  150.4337 LP  0  0  0  0  0  0  0  0  0  0  0  0  # atno 17370 bound_to 10713
  156.4578  130.4025  149.6595 LP  0  0  0  0  0  0  0  0  0  0  0  0  # atno 17371 bound_to 10713
  139.9587  134.7490  156.0285 LP  0  0  0  0  0  0  0  0  0  0  0  0  # atno 17394 bound_to 11000
  141.1315  133.6585  156.3477 LP  0  0  0  0  0  0  0  0  0  0  0  0  # atno 17395 bound_to 11000

$$$$
