AV-unprocessed.smi:16|AV-procd|sdf|87|dock7
  -GOLD-   2262015223D 1   1.00000     0.00000
 Structure written by MMmdl.
 60 64  0  0  0  0  0  0  0  0  2 V2000
  147.1194  129.2367  156.7516 C   0  0  0  0  0  0  0  0  0  0  0  0
  148.6297  129.0796  156.9733 C   0  0  0  0  0  0  0  0  0  0  0  0
  149.0263  129.3309  158.3840 N   0  3  1  0  0  0  0  0  0  0  0  0
  150.3510  128.7768  158.7719 C   0  0  0  0  0  0  0  0  0  0  0  0
  151.5120  129.6310  158.2382 C   0  0  0  0  0  0  0  0  0  0  0  0
  151.3751  131.0927  158.7086 C   0  0  1  0  0  0  0  0  0  0  0  0
  152.4406  131.9201  158.2411 O   0  0  0  0  0  0  0  0  0  0  0  0
  152.4054  132.1974  156.8443 C   0  0  0  0  0  0  0  0  0  0  0  0
  151.0701  132.8568  156.4770 C   0  0  0  0  0  0  0  0  0  0  0  0
  149.9489  132.0303  156.9107 N   0  0  0  0  0  0  0  0  0  0  0  0
  148.7887  132.5263  156.4189 C   0  0  0  0  0  0  0  0  0  0  0  0
  147.7789  132.8785  157.2579 N   0  0  0  0  0  0  0  0  0  0  0  0
  146.6419  133.3761  156.7622 C   0  0  0  0  0  0  0  0  0  0  0  0
  146.3154  133.6017  155.4876 N   0  0  0  0  0  0  0  0  0  0  0  0
  147.3324  133.2599  154.6446 C   0  0  0  0  0  0  0  0  0  0  0  0
  148.5926  132.7216  155.0265 C   0  0  0  0  0  0  0  0  0  0  0  0
  149.3744  132.4878  153.9033 N   0  0  0  0  0  0  0  0  0  0  0  0
  148.6181  132.8681  152.9096 C   0  0  0  0  0  0  0  0  0  0  0  0
  147.3770  133.3505  153.2636 N   0  0  0  0  0  0  0  0  0  0  0  0
  146.3524  133.8211  152.3752 C   0  0  0  0  0  0  0  0  0  0  0  0
  145.1006  132.9842  152.1103 C   0  0  0  0  0  0  0  0  0  0  0  0
  145.0436  133.5404  150.6695 C   0  0  0  0  0  0  0  0  0  0  0  0
  144.6936  132.5091  149.5840 C   0  0  0  0  0  0  0  0  0  0  0  0
  143.3220  132.1709  149.6230 O   0  0  0  0  0  0  0  0  0  0  0  0
  144.1583  134.7897  150.4843 C   0  0  0  0  0  0  0  0  0  0  0  0
  144.7171  135.6849  149.5441 O   0  0  0  0  0  0  0  0  0  0  0  0
  146.5522  133.8235  150.8582 C   0  0  0  0  0  0  0  0  0  0  0  0
  149.9978  131.6934  158.3395 C   0  0  1  0  0  0  0  0  0  0  0  0
  148.8608  130.7452  158.8193 C   0  0  0  0  0  0  0  0  0  0  0  0
  151.4551  131.0893  159.7965 H   0  0  0  0  0  0  0  0  0  0  0  0
  149.8977  132.6335  158.8845 H   0  0  0  0  0  0  0  0  0  0  0  0
  146.8782  129.1426  155.6927 H   0  0  0  0  0  0  0  0  0  0  0  0
  146.7715  130.2155  157.0830 H   0  0  0  0  0  0  0  0  0  0  0  0
  146.5459  128.4768  157.2814 H   0  0  0  0  0  0  0  0  0  0  0  0
  148.9587  128.0947  156.6432 H   0  0  0  0  0  0  0  0  0  0  0  0
  149.1316  129.8028  156.3296 H   0  0  0  0  0  0  0  0  0  0  0  0
  150.3997  128.7459  159.8611 H   0  0  0  0  0  0  0  0  0  0  0  0
  150.4545  127.7447  158.4393 H   0  0  0  0  0  0  0  0  0  0  0  0
  152.4599  129.2214  158.5878 H   0  0  0  0  0  0  0  0  0  0  0  0
  151.5356  129.5638  157.1517 H   0  0  0  0  0  0  0  0  0  0  0  0
  153.2286  132.8699  156.6031 H   0  0  0  0  0  0  0  0  0  0  0  0
  152.5684  131.2927  156.2593 H   0  0  0  0  0  0  0  0  0  0  0  0
  150.9994  133.8372  156.9510 H   0  0  0  0  0  0  0  0  0  0  0  0
  151.0295  133.0197  155.3989 H   0  0  0  0  0  0  0  0  0  0  0  0
  145.8859  133.6305  157.4905 H   0  0  0  0  0  0  0  0  0  0  0  0
  148.9485  132.8042  151.8829 H   0  0  0  0  0  0  0  0  0  0  0  0
  146.0735  134.8202  152.7138 H   0  0  0  0  0  0  0  0  0  0  0  0
  145.2976  131.9109  152.1436 H   0  0  0  0  0  0  0  0  0  0  0  0
  144.2449  133.2422  152.7349 H   0  0  0  0  0  0  0  0  0  0  0  0
  144.9425  132.8729  148.5869 H   0  0  0  0  0  0  0  0  0  0  0  0
  145.2647  131.5911  149.7246 H   0  0  0  0  0  0  0  0  0  0  0  0
  142.8158  132.9684  149.5967 H   0  0  0  0  0  0  0  0  0  0  0  0
  143.1528  134.5222  150.1585 H   0  0  0  0  0  0  0  0  0  0  0  0
  144.0363  135.3287  151.4238 H   0  0  0  0  0  0  0  0  0  0  0  0
  145.2200  135.1868  148.9179 H   0  0  0  0  0  0  0  0  0  0  0  0
  146.8979  134.7755  150.4542 H   0  0  0  0  0  0  0  0  0  0  0  0
  147.1842  133.0050  150.5100 H   0  0  0  0  0  0  0  0  0  0  0  0
  147.8708  131.1103  158.5466 H   0  0  0  0  0  0  0  0  0  0  0  0
  148.8657  130.7404  159.9100 H   0  0  0  0  0  0  0  0  0  0  0  0
  148.3476  128.8155  158.9262 H   0  0  0  0  0  0  0  0  0  0  0  0
  1  2  1  0  0  0  0
  1 32  1  0  0  0  0
  1 33  1  0  0  0  0
  1 34  1  0  0  0  0
  2  3  1  0  0  0  0
  2 35  1  0  0  0  0
  2 36  1  0  0  0  0
  3 29  1  0  0  0  0
  3  4  1  0  0  0  0
  3 60  1  0  0  0  0
  4  5  1  0  0  0  0
  4 37  1  0  0  0  0
  4 38  1  0  0  0  0
  5  6  1  0  0  0  0
  5 39  1  0  0  0  0
  5 40  1  0  0  0  0
  6 30  1  0  0  0  0
  6 28  1  0  0  0  0
  6  7  1  0  0  0  0
  7  8  1  0  0  0  0
  8  9  1  0  0  0  0
  8 41  1  0  0  0  0
  8 42  1  0  0  0  0
  9 10  1  0  0  0  0
  9 43  1  0  0  0  0
  9 44  1  0  0  0  0
 10 11  1  0  0  0  0
 10 28  1  0  0  0  0
 11 16  1  0  0  0  0
 11 12  2  0  0  0  0
 12 13  1  0  0  0  0
 13 14  2  0  0  0  0
 13 45  1  0  0  0  0
 14 15  1  0  0  0  0
 15 19  1  0  0  0  0
 15 16  2  0  0  0  0
 16 17  1  0  0  0  0
 17 18  2  0  0  0  0
 18 19  1  0  0  0  0
 18 46  1  0  0  0  0
 19 20  1  0  0  0  0
 20 27  1  0  0  0  0
 20 21  1  0  0  0  0
 20 47  1  0  0  0  0
 21 22  1  0  0  0  0
 21 48  1  0  0  0  0
 21 49  1  0  0  0  0
 22 23  1  0  0  0  0
 22 25  1  0  0  0  0
 22 27  1  0  0  0  0
 23 24  1  0  0  0  0
 23 50  1  0  0  0  0
 23 51  1  0  0  0  0
 24 52  1  0  0  0  0
 25 26  1  0  0  0  0
 25 53  1  0  0  0  0
 25 54  1  0  0  0  0
 26 55  1  0  0  0  0
 27 56  1  0  0  0  0
 27 57  1  0  0  0  0
 28 31  1  0  0  0  0
 28 29  1  0  0  0  0
 29 58  1  0  0  0  0
 29 59  1  0  0  0  0
M  CHG  1   3   1
M  END
> <s_m_source_file>
AV-unprocessed.smi

> <i_m_source_file_index>
16

> <i_lp_mmshare_version>
43012

> <i_f3d_flags>
0

> <s_epik_input>
W0NIM11bQ0gyXU4oW0NIMl1bQ0gyXTEpW0NIMl1bQ0BASF0oW0NAQEhdMTIpTihbQ0gyXVtDSDJdTzIpYyhuW2NIXW4zKWMoYzM0KW5bY0hdbjRbQ0hdKFtDSDJdNSlbQ0gyXUM1KFtDSDJdW09IXSlbQ0gyXVtPSF0=

> <s_epik_cmdline>
J2VwaWtfcHl0aG9uJywgJy1waCcsICc3LjAnLCAnLXRuJywgJzgnLCAnLW1hJywgJzIwMCcsICctbWV0YWxfYmluZGluZycsICctaW1hZScsICc8aW5maWxlLm1hZT4nLCAnLW9tYWUnLCAnPG91dGZpbGUubWFlPic=

> <r_lp_tautomer_probability>
1

> <r_epik_Ionization_Penalty>
0.0135603

> <r_epik_Ionization_Penalty_Charging>
0.0131385

> <r_epik_Ionization_Penalty_Neutral>
0.000421734

> <r_epik_State_Penalty>
0.0102091

> <r_epik_Charging_Adjusted_Penalty>
0.0233476

> <i_epik_Tot_Q>
1

> <i_epik_Tot_abs_Q>
1

> <r_epik_Metal_State_Penalty>
0.0103746

> <b_epik_Metal_Only>
0

> <s_lp_Force_Field>
OPLS_2005

> <r_lp_Energy>
65.3073

> <b_lp_Chiralities_Consistent>
1

> <s_lp_Variant>
AV-unprocessed.smi:16-1

> <Gold.Version>
5.8.1

> <Gold.Id.Protein>
6NUR|6NUR_protein|mol2

> <Gold.PLP.Fitness>
43.1665

> <Gold.PLP.PLP>
-31.7535

> <Gold.PLP.part.hbond>
-5.0847

> <Gold.PLP.part.metal>
0.0000

> <Gold.PLP.part.buried>
-6.4765

> <Gold.PLP.part.nonpolar>
-21.0672

> <Gold.PLP.part.repulsive>
0.1557

> <Gold.PLP.ligand.clash>
0.0000

> <Gold.PLP.ligand.torsion>
0.8377

> <Gold.PLP.Chemscore.Hbond>
3.1375

> <Gold.PLP.Chemscore.CHOScore>
1.0000

> <Gold.PLP.Chemscore.Metal>
0.0000

> <Gold.Chemscore.Hbonds>
donor molecule, donor type, donor heavy atom, donor atom, acceptor molecule, acceptor atom, score
      L1  H    24    52       P1 10186  0.28
      L1  H    26    55       P1  7921  1.00
      P1  H  6896  6909       L1     7  0.75
      P1  H 10785 10796       L1    24  0.54
      L1  C    18    46       P1 10747  1.00

> <Gold.PLP.Chemscore.Internal.Correction>
0.6760

> <Gold.Rescore>
     Score         DG    S(hbond)    S(metal)    S(lipo)     H(rot)  DE(clash)    DE(int)     intcor
     10.70     -13.00       2.58        0.00      63.31       3.33       0.06       2.25       ----

> <Gold.Chemscore.Fitness>
10.6975

> <Gold.Chemscore.DG>
-12.9987

> <Gold.Chemscore.ZeroCoef>
-5.4800

> <Gold.Chemscore.Hbond>
2.5820

> <Gold.Chemscore.Metal>
0.0000

> <Gold.Chemscore.Lipo>
63.3073

> <Gold.Chemscore.Internal_Hbond>
0.0000

> <Gold.Chemscore.DEClash>
0.0551

> <Gold.Chemscore.DEInternal>
2.2462

> <Gold.Chemscore.Rot>
3.3251

> <Gold.Chemscore.Internal.Correction>
   9.000000E+99

> <Gold.Chemscore.Hbonds>
donor molecule, donor type, donor heavy atom, donor atom, acceptor molecule, acceptor atom, score
      L1  H    24    52       P1 10186  0.29
      L1  H    26    55       P1  7921  0.98
      P1  H  6896  6909       L1     7  0.09
      P1  H 10785 10796       L1    24  0.27

> <Gold.Chemscore.Hbond.Weighted>
-8.6240

> <Gold.Chemscore.Metal.Weighted>
-0.0000

> <Gold.Chemscore.Lipo.Weighted>
-7.4070

> <Gold.Chemscore.Internal_Hbond.Weighted>
0.0000

> <Gold.Chemscore.DEClash.Weighted>
0.0551

> <Gold.Chemscore.DEInternal.Weighted>
2.2462

> <Gold.Chemscore.Rot.Weighted>
8.5122

> <Gold.Chemscore.Internal.Correction.Weighted>
   9.000000E+99

> <Gold.Protein.RotatedTorsions>
[ 6907 6896 6895 6894 ] final  -85.57 input  -60.11 | X-H torsion
[ 7974 7965 7964 7962 ] final -170.32 input  175.53 | X-H torsion
[ 8008 7997 7996 7995 ] final  106.18 input   59.86 | X-H torsion
[ 10167 10162 10161 10158 ] final -151.19 input  -65.29 | X-H torsion
[ 10718 10713 10712 10709 ] final  -93.08 input   66.30 | X-H torsion
[ 10763 10752 10751 10750 ] final   43.53 input  -60.55 | X-H torsion
[ 11005 11000 10999 10996 ] final  105.60 input  -57.11 | X-H torsion

> <Gold.Protein.ActiveResidues>
 VAL166  LYS551  ARG553  GLY616  TRP617  ASP618  TYR619  PRO620  LYS621  CYS622 
 ASP623  PHE694  ASN695  SER759  ASP760  ASP761  ALA762  ILE779  LEU786  VAL792 
 PHE793  MET794  SER795  GLU796  ALA797  LYS798  CYS799  TRP800  GLU811  SER814 

> <Gold.Protein.RotatedAtoms>
  150.6870  134.3184  159.4775 H   0  0  0  0  0  0  0  0  0  0  0  0  # atno 6907 bound_to 6896
  152.1062  134.9304  160.0577 H   0  0  0  0  0  0  0  0  0  0  0  0  # atno 6908 bound_to 6896
  152.0564  133.4007  159.4436 H   0  0  0  0  0  0  0  0  0  0  0  0  # atno 6909 bound_to 6896
  144.7172  140.2089  143.6329 H   0  0  0  0  0  0  0  0  0  0  0  0  # atno 7974 bound_to 7965
  156.1721  140.3117  155.8993 H   0  0  0  0  0  0  0  0  0  0  0  0  # atno 8008 bound_to 7997
  155.3564  140.0474  157.3063 H   0  0  0  0  0  0  0  0  0  0  0  0  # atno 8009 bound_to 7997
  154.5252  140.2212  155.8913 H   0  0  0  0  0  0  0  0  0  0  0  0  # atno 8010 bound_to 7997
  139.7289  143.8839  152.2528 H   0  0  0  0  0  0  0  0  0  0  0  0  # atno 10167 bound_to 10162
  156.0009  130.5012  150.5722 H   0  0  0  0  0  0  0  0  0  0  0  0  # atno 10718 bound_to 10713
  152.9859  135.6098  154.3126 H   0  0  0  0  0  0  0  0  0  0  0  0  # atno 10763 bound_to 10752
  154.2840  135.2776  155.2686 H   0  0  0  0  0  0  0  0  0  0  0  0  # atno 10764 bound_to 10752
  154.5012  135.5866  153.6589 H   0  0  0  0  0  0  0  0  0  0  0  0  # atno 10765 bound_to 10752
  139.8804  134.9341  156.5539 H   0  0  0  0  0  0  0  0  0  0  0  0  # atno 11005 bound_to 11000
  145.8609  139.2222  143.1717 LP  0  0  0  0  0  0  0  0  0  0  0  0  # atno 17320 bound_to 7965
  146.0174  140.8379  142.9940 LP  0  0  0  0  0  0  0  0  0  0  0  0  # atno 17321 bound_to 7965
  139.8757  144.7045  150.8936 LP  0  0  0  0  0  0  0  0  0  0  0  0  # atno 17342 bound_to 10162
  140.7768  143.3702  151.1664 LP  0  0  0  0  0  0  0  0  0  0  0  0  # atno 17343 bound_to 10162
  157.3615  131.0750  151.1632 LP  0  0  0  0  0  0  0  0  0  0  0  0  # atno 17370 bound_to 10713
  157.2415  130.6572  149.5892 LP  0  0  0  0  0  0  0  0  0  0  0  0  # atno 17371 bound_to 10713
  140.8220  133.8346  155.8904 LP  0  0  0  0  0  0  0  0  0  0  0  0  # atno 17394 bound_to 11000
  140.9410  134.1901  157.4798 LP  0  0  0  0  0  0  0  0  0  0  0  0  # atno 17395 bound_to 11000

$$$$
