#       Name:                AV-unprocessed.smi:1918
#       Creating user name   scv26
#       Creation time:       Fri Mar 27 09:51:43 2020


#       File generated by GOLD software.
#

@<TRIPOS>MOLECULE
AV-unprocessed.smi:1918
    38    40     1
SMALL
NO_CHARGES


@<TRIPOS>ATOM
      1 ****        -1.0900   1.1182  -2.8029 C.3            1 S1                 0.0000
      2 ****        -1.3005   1.6868  -1.4354 C.2            1 S1                 0.0000
      3 ****        -1.7658   2.9209  -1.2424 N.2            1 S1                 0.0000
      4 ****        -1.8035   3.0179   0.1352 C.ar           1 S1                 0.0000
      5 ****        -2.2056   4.0856   0.9694 C.ar           1 S1                 0.0000
      6 ****        -2.1566   3.9524   2.3725 C.ar           1 S1                 0.0000
      7 ****        -1.7054   2.7530   2.9606 C.ar           1 S1                 0.0000
      8 ****        -1.3001   1.6769   2.1476 C.ar           1 S1                 0.0000
      9 ****        -1.3514   1.8143   0.7475 C.ar           1 S1                 0.0000
     10 ****        -1.0322   0.9730  -0.3145 N.pl3          1 S1                 0.0000
     11 ****        -0.5195  -0.3875  -0.2225 C.3            1 S1                 0.0000
     12 ****         1.0204  -0.4512  -0.2703 C.3            1 S1                 0.0000
     13 ****         1.5685   0.2953   0.8001 O.3            1 S1                 0.0000
     14 ****         1.5106  -1.8933  -0.2891 C.ar           1 S1                 0.0000
     15 ****         1.7220  -2.5979   0.9179 C.ar           1 S1                 0.0000
     16 ****         2.1720  -3.9321   0.8943 C.ar           1 S1                 0.0000
     17 ****         2.4089  -4.5738  -0.3359 C.ar           1 S1                 0.0000
     18 ****         2.8427  -5.8562  -0.3588 F              1 S1                 0.0000
     19 ****         2.1908  -3.8821  -1.5423 C.ar           1 S1                 0.0000
     20 ****         1.7407  -2.5475  -1.5210 C.ar           1 S1                 0.0000
     21 ****         1.5272  -1.8995  -2.6916 F              1 S1                 0.0000
     22 ****        -1.2971   1.8701  -3.5651 H              1 S1                 0.0000
     23 ****        -1.7576   0.2721  -2.9656 H              1 S1                 0.0000
     24 ****        -0.0600   0.7839  -2.9236 H              1 S1                 0.0000
     25 ****        -2.5518   5.0087   0.5286 H              1 S1                 0.0000
     26 ****        -2.4657   4.7749   3.0006 H              1 S1                 0.0000
     27 ****        -1.6697   2.6596   4.0361 H              1 S1                 0.0000
     28 ****        -0.9502   0.7583   2.5945 H              1 S1                 0.0000
     29 ****        -0.8890  -0.8375   0.6998 H              1 S1                 0.0000
     30 ****        -0.9468  -0.9752  -1.0356 H              1 S1                 0.0000
     31 ****         1.3678   0.0369  -1.1809 H              1 S1                 0.0000
     32 ****         2.5062   0.3333   0.6896 H              1 S1                 0.0000
     33 ****         1.5384  -2.1200   1.8691 H              1 S1                 0.0000
     34 ****         2.3344  -4.4633   1.8206 H              1 S1                 0.0000
     35 ****         2.3673  -4.3763  -2.4865 H              1 S1                 0.0000
     36 ****        -2.0232   3.6055  -1.9244 LP             1 S1                 0.0000
     37 ****         1.3489  -0.1490   1.6686 LP             1 S1                 0.0000
     38 ****         1.1903   1.2210   0.7943 LP             1 S1                 0.0000
@<TRIPOS>BOND
    1    1    2 1     
    2    1   22 1     
    3    1   23 1     
    4    1   24 1     
    5    2   10 1     
    6    2    3 2     
    7    3    4 1     
    8    4    9 ar    
    9    4    5 ar    
   10    5    6 ar    
   11    5   25 1     
   12    6    7 ar    
   13    6   26 1     
   14    7    8 ar    
   15    7   27 1     
   16    8    9 ar    
   17    8   28 1     
   18    9   10 1     
   19   10   11 1     
   20   11   12 1     
   21   11   29 1     
   22   11   30 1     
   23   12   13 1     
   24   12   14 1     
   25   12   31 1     
   26   13   32 1     
   27   14   20 ar    
   28   14   15 ar    
   29   15   16 ar    
   30   15   33 1     
   31   16   17 ar    
   32   16   34 1     
   33   17   18 1     
   34   17   19 ar    
   35   19   20 ar    
   36   19   35 1     
   37   20   21 1     
   38    3   36 1     
   39   13   37 1     
   40   13   38 1     
@<TRIPOS>SUBSTRUCTURE
      1 S1             1
@<TRIPOS>SET
LONE_PAIRS      STATIC     ATOMS    <user>   **** ""
3 36 37 38
DONOR_HYDROGENS      STATIC     ATOMS    <user>   **** ""
1 32
ATOM$BLUE        STATIC     ATOMS    COLORGROUP SYSTEM
3 36 37 38
ATOM$RED        STATIC     ATOMS    COLORGROUP SYSTEM
1 32
