AV-unprocessed.smi:639|AV-procd|sdf|3144|dock2
  -GOLD-   22720 0 73D 1   1.00000     0.00000
 Structure written by MMmdl.
 24 25  0  0  0  0  0  0  0  0  1 V2000
  151.5169  141.1568  156.5189 C   0  0  0  0  0  0  0  0  0  0  0  0
  150.5188  140.6065  155.6271 N   0  0  0  0  0  0  0  0  0  0  0  0
  149.3650  141.1968  155.1607 C   0  0  0  0  0  0  0  0  0  0  0  0
  148.7366  140.2973  154.3431 C   0  0  0  0  0  0  0  0  0  0  0  0
  147.4322  140.4585  153.5870 C   0  0  1  0  0  0  0  0  0  0  0  0
  146.8653  141.8861  153.6969 C   0  0  0  0  0  0  0  0  0  0  0  0
  147.5374  140.0502  152.1939 N   0  0  0  0  0  0  0  0  0  0  0  0
  146.8019  138.9659  151.9123 C   0  0  0  0  0  0  0  0  0  0  0  0
  146.7292  138.4054  150.8214 O   0  0  0  0  0  0  0  0  0  0  0  0
  146.1561  138.6074  153.0261 N   0  0  0  0  0  0  0  0  0  0  0  0
  146.4291  139.4106  154.0531 C   0  0  0  0  0  0  0  0  0  0  0  0
  145.9635  139.3362  155.1894 O   0  0  0  0  0  0  0  0  0  0  0  0
  149.6095  139.1693  154.3788 C   0  0  0  0  0  0  0  0  0  0  0  0
  150.6720  139.3578  155.1436 N   0  0  0  0  0  0  0  0  0  0  0  0
  151.0909  141.9818  157.0907 H   0  0  0  0  0  0  0  0  0  0  0  0
  152.3633  141.5252  155.9388 H   0  0  0  0  0  0  0  0  0  0  0  0
  151.8639  140.3900  157.2126 H   0  0  0  0  0  0  0  0  0  0  0  0
  149.0849  142.1997  155.4475 H   0  0  0  0  0  0  0  0  0  0  0  0
  146.6963  142.1709  154.7359 H   0  0  0  0  0  0  0  0  0  0  0  0
  145.9137  141.9827  153.1723 H   0  0  0  0  0  0  0  0  0  0  0  0
  147.5534  142.6133  153.2645 H   0  0  0  0  0  0  0  0  0  0  0  0
  148.1227  140.5304  151.5257 H   0  0  0  0  0  0  0  0  0  0  0  0
  145.5233  137.8226  153.0801 H   0  0  0  0  0  0  0  0  0  0  0  0
  149.5019  138.2210  153.8731 H   0  0  0  0  0  0  0  0  0  0  0  0
  1  2  1  0  0  0  0
  1 15  1  0  0  0  0
  1 16  1  0  0  0  0
  1 17  1  0  0  0  0
  2 14  1  0  0  0  0
  2  3  1  0  0  0  0
  3  4  2  0  0  0  0
  3 18  1  0  0  0  0
  4  5  1  0  0  0  0
  4 13  1  0  0  0  0
  5 11  1  0  0  0  0
  5  6  1  0  0  0  0
  5  7  1  0  0  0  0
  6 19  1  0  0  0  0
  6 20  1  0  0  0  0
  6 21  1  0  0  0  0
  7  8  1  0  0  0  0
  7 22  1  0  0  0  0
  8  9  2  0  0  0  0
  8 10  1  0  0  0  0
 10 11  1  0  0  0  0
 10 23  1  0  0  0  0
 11 12  2  0  0  0  0
 13 14  2  0  0  0  0
 13 24  1  0  0  0  0
M  END
> <s_m_source_file>
AV-unprocessed.smi

> <i_m_source_file_index>
639

> <i_lp_mmshare_version>
43012

> <i_f3d_flags>
0

> <s_epik_input>
W0NIM11uMVtjSF1jKFtjSF1uMSlbQ0BAXTIoW0NIM10pW05IXUMoPU8pW05IXUMyPU8=

> <s_epik_cmdline>
J2VwaWtfcHl0aG9uJywgJy1waCcsICc3LjAnLCAnLXRuJywgJzgnLCAnLW1hJywgJzIwMCcsICctbWV0YWxfYmluZGluZycsICctaW1hZScsICc8aW5maWxlLm1hZT4nLCAnLW9tYWUnLCAnPG91dGZpbGUubWFlPic=

> <r_lp_tautomer_probability>
1

> <r_epik_Ionization_Penalty>
0.0282779

> <r_epik_Ionization_Penalty_Charging>
0

> <r_epik_Ionization_Penalty_Neutral>
0.0282779

> <r_epik_State_Penalty>
0.022996

> <r_epik_Charging_Adjusted_Penalty>
0.022996

> <i_epik_Tot_Q>
0

> <i_epik_Tot_abs_Q>
0

> <r_epik_Metal_State_Penalty>
0.428533

> <b_epik_Metal_Only>
0

> <s_lp_Force_Field>
OPLS_2005

> <r_lp_Energy>
13.4697

> <b_lp_Chiralities_Consistent>
1

> <s_lp_Variant>
AV-unprocessed.smi:639-1

> <Gold.Version>
5.8.1

> <Gold.Id.Protein>
6NUR|6NUR_protein|mol2

> <Gold.PLP.Fitness>
32.6467

> <Gold.PLP.PLP>
-24.7871

> <Gold.PLP.part.hbond>
-1.8180

> <Gold.PLP.part.metal>
0.0000

> <Gold.PLP.part.buried>
-4.3672

> <Gold.PLP.part.nonpolar>
-20.1999

> <Gold.PLP.part.repulsive>
1.2848

> <Gold.PLP.ligand.clash>
0.0000

> <Gold.PLP.ligand.torsion>
0.1653

> <Gold.PLP.Chemscore.Hbond>
1.4960

> <Gold.PLP.Chemscore.CHOScore>
1.1918

> <Gold.PLP.Chemscore.Metal>
0.0000

> <Gold.Chemscore.Hbonds>
donor molecule, donor type, donor heavy atom, donor atom, acceptor molecule, acceptor atom, score
      L1  H     7    22       P1  7957  0.48
      P1  H  7954  7966       L1     9  1.00
      L1  C     3    18       P1  8028  1.00
      L1  C    13    24       P1  7948  0.20

> <Gold.PLP.Chemscore.Internal.Correction>
0.1268

> <Gold.Rescore>
     Score         DG    S(hbond)    S(metal)    S(lipo)     H(rot)  DE(clash)    DE(int)     intcor
     12.75     -13.02       1.67        0.00      38.77       1.00       0.14       0.13       ----

> <Gold.Chemscore.Fitness>
12.7524

> <Gold.Chemscore.DG>
-13.0179

> <Gold.Chemscore.ZeroCoef>
-5.4800

> <Gold.Chemscore.Hbond>
1.6653

> <Gold.Chemscore.Metal>
0.0000

> <Gold.Chemscore.Lipo>
38.7684

> <Gold.Chemscore.Internal_Hbond>
0.0000

> <Gold.Chemscore.DEClash>
0.1401

> <Gold.Chemscore.DEInternal>
0.1254

> <Gold.Chemscore.Rot>
1.0000

> <Gold.Chemscore.Internal.Correction>
   9.000000E+99

> <Gold.Chemscore.Hbonds>
donor molecule, donor type, donor heavy atom, donor atom, acceptor molecule, acceptor atom, score
      L1  H     7    22       P1  7957  0.46
      P1  H  7954  7966       L1     9  0.94

> <Gold.Chemscore.Hbond.Weighted>
-5.5620

> <Gold.Chemscore.Metal.Weighted>
-0.0000

> <Gold.Chemscore.Lipo.Weighted>
-4.5359

> <Gold.Chemscore.Internal_Hbond.Weighted>
0.0000

> <Gold.Chemscore.DEClash.Weighted>
0.1401

> <Gold.Chemscore.DEInternal.Weighted>
0.1254

> <Gold.Chemscore.Rot.Weighted>
2.5600

> <Gold.Chemscore.Internal.Correction.Weighted>
   9.000000E+99

> <Gold.Protein.RotatedTorsions>
[ 6907 6896 6895 6894 ] final -174.79 input  -60.11 | X-H torsion
[ 7974 7965 7964 7962 ] final   97.60 input  175.53 | X-H torsion
[ 8008 7997 7996 7995 ] final  -61.44 input   59.86 | X-H torsion
[ 10167 10162 10161 10158 ] final  113.66 input  -65.29 | X-H torsion
[ 10718 10713 10712 10709 ] final  119.22 input   66.30 | X-H torsion
[ 10763 10752 10751 10750 ] final  170.51 input  -60.55 | X-H torsion
[ 11005 11000 10999 10996 ] final  -57.28 input  -57.11 | X-H torsion

> <Gold.Protein.ActiveResidues>
 VAL166  LYS551  ARG553  GLY616  TRP617  ASP618  TYR619  PRO620  LYS621  CYS622 
 ASP623  PHE694  ASN695  SER759  ASP760  ASP761  ALA762  ILE779  LEU786  VAL792 
 PHE793  MET794  SER795  GLU796  ALA797  LYS798  CYS799  TRP800  GLU811  SER814 

> <Gold.Protein.RotatedAtoms>
  151.5780  133.3381  159.3002 H   0  0  0  0  0  0  0  0  0  0  0  0  # atno 6907 bound_to 6896
  150.8329  134.7593  159.6880 H   0  0  0  0  0  0  0  0  0  0  0  0  # atno 6908 bound_to 6896
  152.4410  134.5597  159.9942 H   0  0  0  0  0  0  0  0  0  0  0  0  # atno 6909 bound_to 6896
  145.4233  139.2319  143.3184 H   0  0  0  0  0  0  0  0  0  0  0  0  # atno 7974 bound_to 7965
  154.4448  140.1017  156.6431 H   0  0  0  0  0  0  0  0  0  0  0  0  # atno 8008 bound_to 7997
  155.5480  140.3485  155.4443 H   0  0  0  0  0  0  0  0  0  0  0  0  # atno 8009 bound_to 7997
  156.0550  140.1313  156.9996 H   0  0  0  0  0  0  0  0  0  0  0  0  # atno 8010 bound_to 7997
  139.6445  144.7126  151.2170 H   0  0  0  0  0  0  0  0  0  0  0  0  # atno 10167 bound_to 10162
  157.5976  131.1056  150.7866 H   0  0  0  0  0  0  0  0  0  0  0  0  # atno 10718 bound_to 10713
  154.3986  135.2754  155.2111 H   0  0  0  0  0  0  0  0  0  0  0  0  # atno 10763 bound_to 10752
  154.4146  135.6014  153.5977 H   0  0  0  0  0  0  0  0  0  0  0  0  # atno 10764 bound_to 10752
  152.9831  135.5958  154.4251 H   0  0  0  0  0  0  0  0  0  0  0  0  # atno 10765 bound_to 10752
  141.1158  133.6610  156.4746 H   0  0  0  0  0  0  0  0  0  0  0  0  # atno 11005 bound_to 11000
  146.2645  140.4960  142.8840 LP  0  0  0  0  0  0  0  0  0  0  0  0  # atno 17320 bound_to 7965
  144.8231  140.6583  143.6340 LP  0  0  0  0  0  0  0  0  0  0  0  0  # atno 17321 bound_to 7965
  140.7507  143.6255  150.8473 LP  0  0  0  0  0  0  0  0  0  0  0  0  # atno 17342 bound_to 10162
  139.9896  143.5862  152.2915 LP  0  0  0  0  0  0  0  0  0  0  0  0  # atno 17343 bound_to 10162
  156.8273  130.5004  149.5336 LP  0  0  0  0  0  0  0  0  0  0  0  0  # atno 17370 bound_to 10713
  156.1042  130.5992  150.9944 LP  0  0  0  0  0  0  0  0  0  0  0  0  # atno 17371 bound_to 10713
  140.4650  134.6806  157.5103 LP  0  0  0  0  0  0  0  0  0  0  0  0  # atno 17394 bound_to 11000
  140.0079  134.6736  155.9426 LP  0  0  0  0  0  0  0  0  0  0  0  0  # atno 17395 bound_to 11000

$$$$
