AV-unprocessed.smi:71|AV-procd|sdf|662|dock4
  -GOLD-   2262016563D 1   1.00000     0.00000
 Structure written by MMmdl.
 31 32  0  0  0  0  0  0  0  0  1 V2000
  150.8112  144.5673  157.7655 N   0  0  0  0  0  0  0  0  0  0  0  0
  151.3858  143.3490  158.1172 C   0  0  0  0  0  0  0  0  0  0  0  0
  151.9731  143.1840  159.3877 C   0  0  0  0  0  0  0  0  0  0  0  0
  152.5489  141.9385  159.7021 C   0  0  0  0  0  0  0  0  0  0  0  0
  152.5110  140.9111  158.7403 C   0  0  0  0  0  0  0  0  0  0  0  0
  151.8871  141.1678  157.4981 C   0  0  0  0  0  0  0  0  0  0  0  0
  151.8414  140.1107  156.4342 C   0  0  0  0  0  0  0  0  0  0  0  0
  152.8529  139.4477  156.2028 O   0  0  0  0  0  0  0  0  0  0  0  0
  150.6773  139.9385  155.7645 N   0  0  0  0  0  0  0  0  0  0  0  0
  149.5122  140.8253  155.8406 C   0  0  0  0  0  0  0  0  0  0  0  0
  148.4763  140.2526  154.8749 C   0  0  0  0  0  0  0  0  0  0  0  0
  149.2961  139.4347  153.8895 C   0  0  0  0  0  0  0  0  0  0  0  0
  150.4969  138.9379  154.7052 C   0  0  2  0  0  0  0  0  0  0  0  0
  150.2760  137.5354  155.3105 C   0  0  0  0  0  0  0  0  0  0  0  0
  151.1602  136.6031  154.7254 O   0  0  0  0  0  0  0  0  0  0  0  0
  151.3453  142.3686  157.1904 N   0  0  0  0  0  0  0  0  0  0  0  0
  150.3850  144.7102  156.8613 H   0  0  0  0  0  0  0  0  0  0  0  0
  150.7732  145.3371  158.4180 H   0  0  0  0  0  0  0  0  0  0  0  0
  151.9878  143.9918  160.1048 H   0  0  0  0  0  0  0  0  0  0  0  0
  153.0144  141.7754  160.6627 H   0  0  0  0  0  0  0  0  0  0  0  0
  152.9544  139.9490  158.9526 H   0  0  0  0  0  0  0  0  0  0  0  0
  149.0970  140.8867  156.8461 H   0  0  0  0  0  0  0  0  0  0  0  0
  149.8056  141.8300  155.5315 H   0  0  0  0  0  0  0  0  0  0  0  0
  147.7951  139.5946  155.4164 H   0  0  0  0  0  0  0  0  0  0  0  0
  147.8779  141.0243  154.3898 H   0  0  0  0  0  0  0  0  0  0  0  0
  148.7200  138.6326  153.4271 H   0  0  0  0  0  0  0  0  0  0  0  0
  149.6483  140.0861  153.0885 H   0  0  0  0  0  0  0  0  0  0  0  0
  151.3800  138.9161  154.0631 H   0  0  0  0  0  0  0  0  0  0  0  0
  150.4666  137.5416  156.3838 H   0  0  0  0  0  0  0  0  0  0  0  0
  149.2470  137.2031  155.1696 H   0  0  0  0  0  0  0  0  0  0  0  0
  150.9156  136.4833  153.8204 H   0  0  0  0  0  0  0  0  0  0  0  0
  1  2  1  0  0  0  0
  1 17  1  0  0  0  0
  1 18  1  0  0  0  0
  2 16  1  0  0  0  0
  2  3  2  0  0  0  0
  3  4  1  0  0  0  0
  3 19  1  0  0  0  0
  4  5  2  0  0  0  0
  4 20  1  0  0  0  0
  5  6  1  0  0  0  0
  5 21  1  0  0  0  0
  6  7  1  0  0  0  0
  6 16  2  0  0  0  0
  7  8  2  0  0  0  0
  7  9  1  0  0  0  0
  9 13  1  0  0  0  0
  9 10  1  0  0  0  0
 10 11  1  0  0  0  0
 10 22  1  0  0  0  0
 10 23  1  0  0  0  0
 11 12  1  0  0  0  0
 11 24  1  0  0  0  0
 11 25  1  0  0  0  0
 12 13  1  0  0  0  0
 12 26  1  0  0  0  0
 12 27  1  0  0  0  0
 13 14  1  0  0  0  0
 13 28  1  0  0  0  0
 14 15  1  0  0  0  0
 14 29  1  0  0  0  0
 14 30  1  0  0  0  0
 15 31  1  0  0  0  0
M  END
> <s_m_source_file>
AV-unprocessed.smi

> <i_m_source_file_index>
71

> <i_lp_mmshare_version>
43012

> <i_f3d_flags>
0

> <s_epik_input>
W05IMl1jMVtjSF1bY0hdW2NIXWMobjEpQyg9TylOMltDSDJdW0NIMl1bQ0gyXVtDQEhdMltDSDJdW09IXQ==

> <s_epik_cmdline>
J2VwaWtfcHl0aG9uJywgJy1waCcsICc3LjAnLCAnLXRuJywgJzgnLCAnLW1hJywgJzIwMCcsICctbWV0YWxfYmluZGluZycsICctaW1hZScsICc8aW5maWxlLm1hZT4nLCAnLW9tYWUnLCAnPG91dGZpbGUubWFlPic=

> <r_lp_tautomer_probability>
1

> <r_epik_Ionization_Penalty>
2.21614e-05

> <r_epik_Ionization_Penalty_Charging>
0

> <r_epik_Ionization_Penalty_Neutral>
2.21614e-05

> <r_epik_State_Penalty>
-0

> <r_epik_Charging_Adjusted_Penalty>
0

> <i_epik_Tot_Q>
0

> <i_epik_Tot_abs_Q>
0

> <r_epik_Metal_State_Penalty>
-0

> <b_epik_Metal_Only>
0

> <s_lp_Force_Field>
OPLS_2005

> <r_lp_Energy>
36.7339

> <b_lp_Chiralities_Consistent>
1

> <s_lp_Variant>
AV-unprocessed.smi:71-2

> <Gold.Version>
5.8.1

> <Gold.Id.Protein>
6NUR|6NUR_protein|mol2

> <Gold.PLP.Fitness>
40.0065

> <Gold.PLP.PLP>
-29.7835

> <Gold.PLP.part.hbond>
-4.5631

> <Gold.PLP.part.metal>
0.0000

> <Gold.PLP.part.buried>
0.4699

> <Gold.PLP.part.nonpolar>
-25.1015

> <Gold.PLP.part.repulsive>
0.1588

> <Gold.PLP.ligand.clash>
0.0000

> <Gold.PLP.ligand.torsion>
1.4792

> <Gold.PLP.Chemscore.Hbond>
4.0000

> <Gold.PLP.Chemscore.CHOScore>
0.0000

> <Gold.PLP.Chemscore.Metal>
0.0000

> <Gold.Chemscore.Hbonds>
donor molecule, donor type, donor heavy atom, donor atom, acceptor molecule, acceptor atom, score
      L1  H     1    17       P1  8028  1.00
      L1  H    15    31       P1  7949  0.09
      P1  H  7997  8008       L1     8  0.85
      P1  H 10752 10764       L1    15  0.55

> <Gold.PLP.Chemscore.Internal.Correction>
1.1814

> <Gold.Rescore>
     Score         DG    S(hbond)    S(metal)    S(lipo)     H(rot)  DE(clash)    DE(int)     intcor
     15.84     -20.46       3.36        0.00      64.90       1.50       1.61       3.01       ----

> <Gold.Chemscore.Fitness>
15.8423

> <Gold.Chemscore.DG>
-20.4629

> <Gold.Chemscore.ZeroCoef>
-5.4800

> <Gold.Chemscore.Hbond>
3.3592

> <Gold.Chemscore.Metal>
0.0000

> <Gold.Chemscore.Lipo>
64.8954

> <Gold.Chemscore.Internal_Hbond>
0.0000

> <Gold.Chemscore.DEClash>
1.6123

> <Gold.Chemscore.DEInternal>
3.0083

> <Gold.Chemscore.Rot>
1.4959

> <Gold.Chemscore.Internal.Correction>
   9.000000E+99

> <Gold.Chemscore.Hbonds>
donor molecule, donor type, donor heavy atom, donor atom, acceptor molecule, acceptor atom, score
      L1  H     1    17       P1  8028  0.72
      L1  H    15    31       P1  7949  0.02
      P1  H  7997  8008       L1     8  0.83
      P1  H 10752 10764       L1    15  0.03

> <Gold.Chemscore.Hbond.Weighted>
-11.2196

> <Gold.Chemscore.Metal.Weighted>
-0.0000

> <Gold.Chemscore.Lipo.Weighted>
-7.5928

> <Gold.Chemscore.Internal_Hbond.Weighted>
0.0000

> <Gold.Chemscore.DEClash.Weighted>
1.6123

> <Gold.Chemscore.DEInternal.Weighted>
3.0083

> <Gold.Chemscore.Rot.Weighted>
3.8295

> <Gold.Chemscore.Internal.Correction.Weighted>
   9.000000E+99

> <Gold.Protein.RotatedTorsions>
[ 6907 6896 6895 6894 ] final  119.17 input  -60.11 | X-H torsion
[ 7974 7965 7964 7962 ] final    0.26 input  175.53 | X-H torsion
[ 8008 7997 7996 7995 ] final  -16.60 input   59.86 | X-H torsion
[ 10167 10162 10161 10158 ] final -111.34 input  -65.29 | X-H torsion
[ 10718 10713 10712 10709 ] final -139.84 input   66.30 | X-H torsion
[ 10763 10752 10751 10750 ] final  -70.60 input  -60.55 | X-H torsion
[ 11005 11000 10999 10996 ] final  -44.61 input  -57.11 | X-H torsion

> <Gold.Protein.ActiveResidues>
 VAL166  LYS551  ARG553  GLY616  TRP617  ASP618  TYR619  PRO620  LYS621  CYS622 
 ASP623  PHE694  ASN695  SER759  ASP760  ASP761  ALA762  ILE779  LEU786  VAL792 
 PHE793  MET794  SER795  GLU796  ALA797  LYS798  CYS799  TRP800  GLU811  SER814 

> <Gold.Protein.RotatedAtoms>
  152.4491  133.7593  159.6737 H   0  0  0  0  0  0  0  0  0  0  0  0  # atno 6907 bound_to 6896
  150.8398  133.7944  159.3071 H   0  0  0  0  0  0  0  0  0  0  0  0  # atno 6908 bound_to 6896
  151.5573  135.1069  160.0016 H   0  0  0  0  0  0  0  0  0  0  0  0  # atno 6909 bound_to 6896
  146.2433  140.1165  142.8342 H   0  0  0  0  0  0  0  0  0  0  0  0  # atno 7974 bound_to 7965
  154.5041  140.2165  155.9287 H   0  0  0  0  0  0  0  0  0  0  0  0  # atno 8008 bound_to 7997
  156.1471  140.3168  155.8555 H   0  0  0  0  0  0  0  0  0  0  0  0  # atno 8009 bound_to 7997
  155.4010  140.0484  157.3027 H   0  0  0  0  0  0  0  0  0  0  0  0  # atno 8010 bound_to 7997
  140.1347  143.4330  152.1603 H   0  0  0  0  0  0  0  0  0  0  0  0  # atno 10167 bound_to 10162
  156.3154  130.7505  151.1590 H   0  0  0  0  0  0  0  0  0  0  0  0  # atno 10718 bound_to 10713
  154.4199  135.5989  153.6003 H   0  0  0  0  0  0  0  0  0  0  0  0  # atno 10763 bound_to 10752
  152.9793  135.5950  154.3967 H   0  0  0  0  0  0  0  0  0  0  0  0  # atno 10764 bound_to 10752
  154.3791  135.2841  155.2200 H   0  0  0  0  0  0  0  0  0  0  0  0  # atno 10765 bound_to 10752
  141.0462  133.6760  156.2897 H   0  0  0  0  0  0  0  0  0  0  0  0  # atno 11005 bound_to 11000
  145.0442  140.8969  143.5034 LP  0  0  0  0  0  0  0  0  0  0  0  0  # atno 17320 bound_to 7965
  145.1251  139.2668  143.5568 LP  0  0  0  0  0  0  0  0  0  0  0  0  # atno 17321 bound_to 7965
  139.5502  144.7331  151.4459 LP  0  0  0  0  0  0  0  0  0  0  0  0  # atno 17342 bound_to 10162
  140.6796  143.8112  150.7104 LP  0  0  0  0  0  0  0  0  0  0  0  0  # atno 17343 bound_to 10162
  157.7400  131.0522  150.5193 LP  0  0  0  0  0  0  0  0  0  0  0  0  # atno 17370 bound_to 10713
  156.5338  130.4191  149.6188 LP  0  0  0  0  0  0  0  0  0  0  0  0  # atno 17371 bound_to 10713
  140.6143  134.5427  157.5538 LP  0  0  0  0  0  0  0  0  0  0  0  0  # atno 17394 bound_to 11000
  139.9313  134.7958  156.0923 LP  0  0  0  0  0  0  0  0  0  0  0  0  # atno 17395 bound_to 11000

$$$$
