#       Name:                AV-unprocessed.smi:685
#       Creating user name   scv26
#       Creation time:       Fri Mar 27 00:30:50 2020


#       File generated by GOLD software.
#

@<TRIPOS>MOLECULE
AV-unprocessed.smi:685
    53    54     1
SMALL
NO_CHARGES


@<TRIPOS>ATOM
      1 ****        -2.4236   2.2229  -2.4648 C.3            1 S1                 0.0000
      2 ****        -2.2521   3.1569  -1.3139 C.2            1 S1                 0.0000
      3 ****        -2.8042   4.3977  -1.2424 N.pl3          1 S1                 1.0000
      4 ****        -2.4699   4.9875  -0.0855 N.pl3          1 S1                 0.0000
      5 ****        -2.9671   6.3348   0.1939 C.3            1 S1                 0.0000
      6 ****        -1.6757   4.1611   0.6528 C.2            1 S1                 0.0000
      7 ****        -1.1157   4.4986   1.9964 C.3            1 S1                 0.0000
      8 ****        -1.5382   3.0009  -0.1201 C.2            1 S1                 0.0000
      9 ****        -0.7573   1.7742   0.2591 C.3            1 S1                 0.0000
     10 ****         0.6037   1.6757  -0.4641 C.3            1 S1                 0.0000
     11 ****         1.5902   2.7691  -0.0255 C.3            1 S1                 0.0000
     12 ****         1.2082   0.3669  -0.2316 N.am           1 S1                 0.0000
     13 ****         0.8872  -0.7596  -0.8877 C.2            1 S1                 0.0000
     14 ****         0.0245  -0.8040  -1.7655 O.2            1 S1                 0.0000
     15 ****         1.6617  -2.0206  -0.4933 C.3            1 S1                 0.0000
     16 ****         0.7814  -3.2850  -0.4808 C.3            1 S1                 0.0000
     17 ****         1.5579  -4.5597  -0.1055 C.3            1 S1                 0.0000
     18 ****         0.7207  -5.8358  -0.2160 C.3            1 S1                 0.0000
     19 ****         1.4750  -6.8758   0.6181 C.3            1 S1                 0.0000
     20 ****         2.2981  -6.0846   1.6459 C.3            1 S1                 0.0000
     21 ****         2.0581  -4.6007   1.3422 C.3            1 S1                 0.0000
     22 ****        -2.6448   1.2171  -2.1073 H              1 S1                 0.0000
     23 ****        -1.5102   2.1867  -3.0586 H              1 S1                 0.0000
     24 ****        -3.2425   2.5491  -3.1064 H              1 S1                 0.0000
     25 ****        -3.2278   6.4098   1.2501 H              1 S1                 0.0000
     26 ****        -3.8527   6.5400  -0.4092 H              1 S1                 0.0000
     27 ****        -2.1861   7.0580  -0.0419 H              1 S1                 0.0000
     28 ****        -0.1896   3.9531   2.1758 H              1 S1                 0.0000
     29 ****        -1.8308   4.2370   2.7761 H              1 S1                 0.0000
     30 ****        -0.8988   5.5648   2.0645 H              1 S1                 0.0000
     31 ****        -0.6022   1.7361   1.3378 H              1 S1                 0.0000
     32 ****        -1.3582   0.8936   0.0292 H              1 S1                 0.0000
     33 ****         0.4444   1.7867  -1.5381 H              1 S1                 0.0000
     34 ****         1.2017   3.7651  -0.2387 H              1 S1                 0.0000
     35 ****         2.5405   2.6731  -0.5517 H              1 S1                 0.0000
     36 ****         1.7961   2.7133   1.0440 H              1 S1                 0.0000
     37 ****         1.9299   0.3148   0.4729 H              1 S1                 0.0000
     38 ****         2.4847  -2.1478  -1.1972 H              1 S1                 0.0000
     39 ****         2.1111  -1.8735   0.4895 H              1 S1                 0.0000
     40 ****        -0.0550  -3.1474   0.2063 H              1 S1                 0.0000
     41 ****         0.3419  -3.4291  -1.4691 H              1 S1                 0.0000
     42 ****         2.4166  -4.6626  -0.7712 H              1 S1                 0.0000
     43 ****        -0.2673  -5.6715   0.2169 H              1 S1                 0.0000
     44 ****         0.5790  -6.1542  -1.2493 H              1 S1                 0.0000
     45 ****         0.7921  -7.5803   1.0939 H              1 S1                 0.0000
     46 ****         2.1440  -7.4521  -0.0221 H              1 S1                 0.0000
     47 ****         2.0107  -6.3281   2.6692 H              1 S1                 0.0000
     48 ****         3.3559  -6.3280   1.5386 H              1 S1                 0.0000
     49 ****         2.9557  -3.9997   1.4916 H              1 S1                 0.0000
     50 ****         1.2884  -4.2148   2.0123 H              1 S1                 0.0000
     51 ****        -3.3917   4.8680  -1.9194 H              1 S1                 0.0000
     52 ****        -0.4739   0.0250  -2.0190 LP             1 S1                 0.0000
     53 ****        -0.1775  -1.6690  -2.2247 LP             1 S1                 0.0000
@<TRIPOS>BOND
    1    1    2 1     
    2    1   22 1     
    3    1   23 1     
    4    1   24 1     
    5    2    8 1     
    6    2    3 2     
    7    3    4 1     
    8    3   51 1     
    9    4    5 1     
   10    4    6 1     
   11    5   25 1     
   12    5   26 1     
   13    5   27 1     
   14    6    7 1     
   15    6    8 2     
   16    7   28 1     
   17    7   29 1     
   18    7   30 1     
   19    8    9 1     
   20    9   10 1     
   21    9   31 1     
   22    9   32 1     
   23   10   11 1     
   24   10   12 1     
   25   10   33 1     
   26   11   34 1     
   27   11   35 1     
   28   11   36 1     
   29   12   13 am    
   30   12   37 1     
   31   13   14 2     
   32   13   15 1     
   33   15   16 1     
   34   15   38 1     
   35   15   39 1     
   36   16   17 1     
   37   16   40 1     
   38   16   41 1     
   39   17   21 1     
   40   17   18 1     
   41   17   42 1     
   42   18   19 1     
   43   18   43 1     
   44   18   44 1     
   45   19   20 1     
   46   19   45 1     
   47   19   46 1     
   48   20   21 1     
   49   20   47 1     
   50   20   48 1     
   51   21   49 1     
   52   21   50 1     
   53   14   52 1     
   54   14   53 1     
@<TRIPOS>SUBSTRUCTURE
      1 S1             1
@<TRIPOS>SET
LONE_PAIRS      STATIC     ATOMS    <user>   **** ""
2 52 53
DONOR_HYDROGENS      STATIC     ATOMS    <user>   **** ""
2 51 37
ATOM$BLUE        STATIC     ATOMS    COLORGROUP SYSTEM
2 52 53
ATOM$RED        STATIC     ATOMS    COLORGROUP SYSTEM
2 51 37
