AV-unprocessed.smi:275|AV-procd|sdf|2067|dock9
  -GOLD-   2262021323D 1   1.00000     0.00000
 Structure written by MMmdl.
 65 69  0  0  0  0  0  0  0  0  1 V2000
  149.0137  144.6132  160.1499 C   0  0  0  0  0  0  0  0  0  0  0  0
  149.2794  143.8711  158.8321 C   0  0  0  0  0  0  0  0  0  0  0  0
  147.9713  143.2217  158.3275 C   0  0  0  0  0  0  0  0  0  0  0  0
  150.5126  142.9360  158.9512 C   0  0  1  0  0  0  0  0  0  0  0  0
  151.0080  142.5337  157.6325 N   0  0  0  0  0  0  0  0  0  0  0  0
  151.2423  141.1342  157.4237 C   0  0  0  0  0  0  0  0  0  0  0  0
  151.9640  140.4470  158.3509 N   0  0  0  0  0  0  0  0  0  0  0  0
  152.2239  139.1446  158.2143 C   0  0  0  0  0  0  0  0  0  0  0  0
  151.8747  138.3279  157.2226 N   0  0  0  0  0  0  0  0  0  0  0  0
  151.1783  138.9989  156.2639 C   0  0  0  0  0  0  0  0  0  0  0  0
  150.8305  140.3821  156.2803 C   0  0  0  0  0  0  0  0  0  0  0  0
  150.1368  140.6935  155.1157 N   0  0  0  0  0  0  0  0  0  0  0  0
  150.0663  139.5675  154.4618 C   0  0  0  0  0  0  0  0  0  0  0  0
  150.6582  138.4951  155.0847 N   0  0  0  0  0  0  0  0  0  0  0  0
  150.7225  137.1320  154.5867 C   0  0  0  0  0  0  0  0  0  0  0  0
  149.8920  136.1344  155.4322 C   0  0  2  0  0  0  0  0  0  0  0  0
  150.6424  135.6518  156.6979 C   0  0  0  0  0  0  0  0  0  0  0  0
  149.7434  135.2867  157.7249 O   0  0  0  0  0  0  0  0  0  0  0  0
  149.3721  134.9557  154.5708 C   0  0  1  0  0  0  0  0  0  0  0  0
  150.4093  133.8965  154.2412 C   0  0  0  0  0  0  0  0  0  0  0  0
  149.5406  132.7102  153.8377 C   0  0  0  0  0  0  0  0  0  0  0  0
  148.3574  132.8164  154.6211 O   0  0  0  0  0  0  0  0  0  0  0  0
  148.3010  134.0939  155.2479 C   0  0  0  0  0  0  0  0  0  0  0  0
  152.1951  143.3785  157.7545 C   0  0  0  0  0  0  0  0  0  0  0  0
  151.9470  143.4395  159.2677 C   0  0  0  0  0  0  0  0  0  0  0  0
  152.8246  142.4721  160.0935 C   0  0  0  0  0  0  0  0  0  0  0  0
  152.4420  142.4241  161.5823 C   0  0  0  0  0  0  0  0  0  0  0  0
  152.5358  143.8150  162.2186 C   0  0  0  0  0  0  0  0  0  0  0  0
  151.7222  144.8386  161.4193 C   0  0  0  0  0  0  0  0  0  0  0  0
  152.1121  144.8232  159.9299 C   0  0  0  0  0  0  0  0  0  0  0  0
  148.7296  143.9205  160.9426 H   0  0  0  0  0  0  0  0  0  0  0  0
  148.2064  145.3374  160.0387 H   0  0  0  0  0  0  0  0  0  0  0  0
  149.8974  145.1590  160.4809 H   0  0  0  0  0  0  0  0  0  0  0  0
  149.5278  144.6482  158.1105 H   0  0  0  0  0  0  0  0  0  0  0  0
  147.5945  142.4773  159.0295 H   0  0  0  0  0  0  0  0  0  0  0  0
  148.0855  142.7365  157.3611 H   0  0  0  0  0  0  0  0  0  0  0  0
  147.1908  143.9736  158.2099 H   0  0  0  0  0  0  0  0  0  0  0  0
  150.3010  142.0903  159.6036 H   0  0  0  0  0  0  0  0  0  0  0  0
  152.7933  138.6940  159.0136 H   0  0  0  0  0  0  0  0  0  0  0  0
  149.5739  139.4864  153.5036 H   0  0  0  0  0  0  0  0  0  0  0  0
  150.3730  137.1445  153.5541 H   0  0  0  0  0  0  0  0  0  0  0  0
  151.7668  136.8197  154.5521 H   0  0  0  0  0  0  0  0  0  0  0  0
  149.0168  136.6797  155.7882 H   0  0  0  0  0  0  0  0  0  0  0  0
  151.2819  134.7981  156.4738 H   0  0  0  0  0  0  0  0  0  0  0  0
  151.3062  136.4291  157.0759 H   0  0  0  0  0  0  0  0  0  0  0  0
  148.8961  135.1238  157.3395 H   0  0  0  0  0  0  0  0  0  0  0  0
  148.9623  135.3394  153.6347 H   0  0  0  0  0  0  0  0  0  0  0  0
  151.0958  134.1962  153.4488 H   0  0  0  0  0  0  0  0  0  0  0  0
  150.9957  133.6468  155.1268 H   0  0  0  0  0  0  0  0  0  0  0  0
  149.2672  132.7802  152.7842 H   0  0  0  0  0  0  0  0  0  0  0  0
  150.0397  131.7540  153.9961 H   0  0  0  0  0  0  0  0  0  0  0  0
  148.5221  133.9625  156.3081 H   0  0  0  0  0  0  0  0  0  0  0  0
  147.3035  134.5259  155.1635 H   0  0  0  0  0  0  0  0  0  0  0  0
  153.1544  142.9379  157.4833 H   0  0  0  0  0  0  0  0  0  0  0  0
  152.0569  144.3375  157.2557 H   0  0  0  0  0  0  0  0  0  0  0  0
  152.7676  141.4601  159.6924 H   0  0  0  0  0  0  0  0  0  0  0  0
  153.8742  142.7558  160.0048 H   0  0  0  0  0  0  0  0  0  0  0  0
  151.4281  142.0374  161.6913 H   0  0  0  0  0  0  0  0  0  0  0  0
  153.0949  141.7302  162.1124 H   0  0  0  0  0  0  0  0  0  0  0  0
  152.1887  143.7816  163.2518 H   0  0  0  0  0  0  0  0  0  0  0  0
  153.5800  144.1287  162.2517 H   0  0  0  0  0  0  0  0  0  0  0  0
  150.6603  144.6211  161.5301 H   0  0  0  0  0  0  0  0  0  0  0  0
  151.8756  145.8357  161.8330 H   0  0  0  0  0  0  0  0  0  0  0  0
  153.1477  145.1523  159.8352 H   0  0  0  0  0  0  0  0  0  0  0  0
  151.5302  145.5814  159.4117 H   0  0  0  0  0  0  0  0  0  0  0  0
  1  2  1  0  0  0  0
  1 31  1  0  0  0  0
  1 32  1  0  0  0  0
  1 33  1  0  0  0  0
  2  3  1  0  0  0  0
  2  4  1  0  0  0  0
  2 34  1  0  0  0  0
  3 35  1  0  0  0  0
  3 36  1  0  0  0  0
  3 37  1  0  0  0  0
  4 25  1  0  0  0  0
  4  5  1  0  0  0  0
  4 38  1  0  0  0  0
  5  6  1  0  0  0  0
  5 24  1  0  0  0  0
  6 11  1  0  0  0  0
  6  7  2  0  0  0  0
  7  8  1  0  0  0  0
  8  9  2  0  0  0  0
  8 39  1  0  0  0  0
  9 10  1  0  0  0  0
 10 14  1  0  0  0  0
 10 11  2  0  0  0  0
 11 12  1  0  0  0  0
 12 13  2  0  0  0  0
 13 14  1  0  0  0  0
 13 40  1  0  0  0  0
 14 15  1  0  0  0  0
 15 16  1  0  0  0  0
 15 41  1  0  0  0  0
 15 42  1  0  0  0  0
 16 17  1  0  0  0  0
 16 19  1  0  0  0  0
 16 43  1  0  0  0  0
 17 18  1  0  0  0  0
 17 44  1  0  0  0  0
 17 45  1  0  0  0  0
 18 46  1  0  0  0  0
 19 23  1  0  0  0  0
 19 20  1  0  0  0  0
 19 47  1  0  0  0  0
 20 21  1  0  0  0  0
 20 48  1  0  0  0  0
 20 49  1  0  0  0  0
 21 22  1  0  0  0  0
 21 50  1  0  0  0  0
 21 51  1  0  0  0  0
 22 23  1  0  0  0  0
 23 52  1  0  0  0  0
 23 53  1  0  0  0  0
 24 25  1  0  0  0  0
 24 54  1  0  0  0  0
 24 55  1  0  0  0  0
 25 30  1  0  0  0  0
 25 26  1  0  0  0  0
 26 27  1  0  0  0  0
 26 56  1  0  0  0  0
 26 57  1  0  0  0  0
 27 28  1  0  0  0  0
 27 58  1  0  0  0  0
 27 59  1  0  0  0  0
 28 29  1  0  0  0  0
 28 60  1  0  0  0  0
 28 61  1  0  0  0  0
 29 30  1  0  0  0  0
 29 62  1  0  0  0  0
 29 63  1  0  0  0  0
 30 64  1  0  0  0  0
 30 65  1  0  0  0  0
M  END
> <s_m_source_file>
AV-unprocessed.smi

> <i_m_source_file_index>
275

> <i_lp_mmshare_version>
43012

> <i_f3d_flags>
0

> <s_epik_input>
W0NIMl0xW0NIMl1bQ0gyXVtDSDJdW0NIMl1DMTJbQ0BIXShbQ0hdKFtDSDNdKVtDSDNdKU4oW0NIMl0yKWMobltjSF1uMyljKGMzNCluW2NIXW40W0NIMl1bQ0BIXShbQ0gyXVtPSF0pW0NAQEhdNVtDSDJdW0NIMl1PW0NIMl01

> <s_epik_cmdline>
J2VwaWtfcHl0aG9uJywgJy1waCcsICc3LjAnLCAnLXRuJywgJzgnLCAnLW1hJywgJzIwMCcsICctbWV0YWxfYmluZGluZycsICctaW1hZScsICc8aW5maWxlLm1hZT4nLCAnLW9tYWUnLCAnPG91dGZpbGUubWFlPic=

> <r_lp_tautomer_probability>
1

> <r_epik_Ionization_Penalty>
0.00375122

> <r_epik_Ionization_Penalty_Charging>
0

> <r_epik_Ionization_Penalty_Neutral>
0.00375122

> <r_epik_State_Penalty>
0.00260593

> <r_epik_Charging_Adjusted_Penalty>
0.00260593

> <i_epik_Tot_Q>
0

> <i_epik_Tot_abs_Q>
0

> <r_epik_Metal_State_Penalty>
-0

> <b_epik_Metal_Only>
0

> <s_lp_Force_Field>
OPLS_2005

> <r_lp_Energy>
69.8585

> <b_lp_Chiralities_Consistent>
1

> <s_lp_Variant>
AV-unprocessed.smi:275-6

> <Gold.Version>
5.8.1

> <Gold.Id.Protein>
6NUR|6NUR_protein|mol2

> <Gold.PLP.Fitness>
50.1298

> <Gold.PLP.PLP>
-45.8198

> <Gold.PLP.part.hbond>
-1.4686

> <Gold.PLP.part.metal>
0.0000

> <Gold.PLP.part.buried>
-2.1883

> <Gold.PLP.part.nonpolar>
-42.0135

> <Gold.PLP.part.repulsive>
0.1934

> <Gold.PLP.ligand.clash>
0.0091

> <Gold.PLP.ligand.torsion>
0.9952

> <Gold.PLP.Chemscore.Hbond>
0.9440

> <Gold.PLP.Chemscore.CHOScore>
0.9996

> <Gold.PLP.Chemscore.Metal>
0.0000

> <Gold.Chemscore.Hbonds>
donor molecule, donor type, donor heavy atom, donor atom, acceptor molecule, acceptor atom, score
      P1  H  6896  6909       L1    18  0.67
      L1  C    13    40       P1  7957  1.00

> <Gold.PLP.Chemscore.Internal.Correction>
0.4786

> <Gold.Rescore>
     Score         DG    S(hbond)    S(metal)    S(lipo)     H(rot)  DE(clash)    DE(int)     intcor
     11.49     -17.72       0.92        0.00     133.88       2.54       1.46       4.77       ----

> <Gold.Chemscore.Fitness>
11.4899

> <Gold.Chemscore.DG>
-17.7215

> <Gold.Chemscore.ZeroCoef>
-5.4800

> <Gold.Chemscore.Hbond>
0.9205

> <Gold.Chemscore.Metal>
0.0000

> <Gold.Chemscore.Lipo>
133.8775

> <Gold.Chemscore.Internal_Hbond>
0.0000

> <Gold.Chemscore.DEClash>
1.4625

> <Gold.Chemscore.DEInternal>
4.7690

> <Gold.Chemscore.Rot>
2.5377

> <Gold.Chemscore.Internal.Correction>
   9.000000E+99

> <Gold.Chemscore.Hbonds>
donor molecule, donor type, donor heavy atom, donor atom, acceptor molecule, acceptor atom, score
      P1  H  6896  6909       L1    18  0.58

> <Gold.Chemscore.Hbond.Weighted>
-3.0744

> <Gold.Chemscore.Metal.Weighted>
-0.0000

> <Gold.Chemscore.Lipo.Weighted>
-15.6637

> <Gold.Chemscore.Internal_Hbond.Weighted>
0.0000

> <Gold.Chemscore.DEClash.Weighted>
1.4625

> <Gold.Chemscore.DEInternal.Weighted>
4.7690

> <Gold.Chemscore.Rot.Weighted>
6.4966

> <Gold.Chemscore.Internal.Correction.Weighted>
   9.000000E+99

> <Gold.Protein.RotatedTorsions>
[ 6907 6896 6895 6894 ] final   35.20 input  -60.11 | X-H torsion
[ 7974 7965 7964 7962 ] final  -96.92 input  175.53 | X-H torsion
[ 8008 7997 7996 7995 ] final   35.68 input   59.86 | X-H torsion
[ 10167 10162 10161 10158 ] final  116.74 input  -65.29 | X-H torsion
[ 10718 10713 10712 10709 ] final  -78.73 input   66.30 | X-H torsion
[ 10763 10752 10751 10750 ] final   86.61 input  -60.55 | X-H torsion
[ 11005 11000 10999 10996 ] final  111.91 input  -57.11 | X-H torsion

> <Gold.Protein.ActiveResidues>
 VAL166  LYS551  ARG553  GLY616  TRP617  ASP618  TYR619  PRO620  LYS621  CYS622 
 ASP623  PHE694  ASN695  SER759  ASP760  ASP761  ALA762  ILE779  LEU786  VAL792 
 PHE793  MET794  SER795  GLU796  ALA797  LYS798  CYS799  TRP800  GLU811  SER814 

> <Gold.Protein.RotatedAtoms>
  152.1129  134.9261  160.0565 H   0  0  0  0  0  0  0  0  0  0  0  0  # atno 6907 bound_to 6896
  152.0432  133.3981  159.4354 H   0  0  0  0  0  0  0  0  0  0  0  0  # atno 6908 bound_to 6896
  150.6844  134.3312  159.4871 H   0  0  0  0  0  0  0  0  0  0  0  0  # atno 6909 bound_to 6896
  145.3405  140.9459  143.2610 H   0  0  0  0  0  0  0  0  0  0  0  0  # atno 7974 bound_to 7965
  155.1750  140.3295  155.4385 H   0  0  0  0  0  0  0  0  0  0  0  0  # atno 8008 bound_to 7997
  156.2497  140.1937  156.6801 H   0  0  0  0  0  0  0  0  0  0  0  0  # atno 8009 bound_to 7997
  154.6311  140.0582  156.9719 H   0  0  0  0  0  0  0  0  0  0  0  0  # atno 8010 bound_to 7997
  139.6226  144.7103  151.2601 H   0  0  0  0  0  0  0  0  0  0  0  0  # atno 10167 bound_to 10162
  156.0110  130.4526  150.3541 H   0  0  0  0  0  0  0  0  0  0  0  0  # atno 10718 bound_to 10713
  153.1587  135.4574  154.9741 H   0  0  0  0  0  0  0  0  0  0  0  0  # atno 10763 bound_to 10752
  154.7881  135.3211  154.7842 H   0  0  0  0  0  0  0  0  0  0  0  0  # atno 10764 bound_to 10752
  153.8336  135.6936  153.4866 H   0  0  0  0  0  0  0  0  0  0  0  0  # atno 10765 bound_to 10752
  139.8914  134.9518  156.6504 H   0  0  0  0  0  0  0  0  0  0  0  0  # atno 11005 bound_to 11000
  144.8794  139.4925  143.6730 LP  0  0  0  0  0  0  0  0  0  0  0  0  # atno 17320 bound_to 7965
  146.3009  139.7424  142.9092 LP  0  0  0  0  0  0  0  0  0  0  0  0  # atno 17321 bound_to 7965
  140.7391  143.6627  150.8150 LP  0  0  0  0  0  0  0  0  0  0  0  0  # atno 17342 bound_to 10162
  140.0240  143.5513  152.2788 LP  0  0  0  0  0  0  0  0  0  0  0  0  # atno 17343 bound_to 10162
  157.1632  131.0350  151.2831 LP  0  0  0  0  0  0  0  0  0  0  0  0  # atno 17370 bound_to 10713
  157.4293  130.7481  149.6977 LP  0  0  0  0  0  0  0  0  0  0  0  0  # atno 17371 bound_to 10713
  140.7524  133.8886  155.8357 LP  0  0  0  0  0  0  0  0  0  0  0  0  # atno 17394 bound_to 11000
  140.9989  134.1177  157.4336 LP  0  0  0  0  0  0  0  0  0  0  0  0  # atno 17395 bound_to 11000

$$$$
