AV-unprocessed.smi:3026|AV-procd|sdf|11513|dock3
  -GOLD-   2272016453D 1   1.00000     0.00000
 Structure written by MMmdl.
 33 34  0  0  0  0  0  0  0  0  1 V2000
  153.3056  141.7623  160.4210 C   0  0  0  0  0  0  0  0  0  0  0  0
  152.4771  142.2272  159.2428 C   0  0  0  0  0  0  0  0  0  0  0  0
  152.0847  143.5741  159.1018 C   0  0  0  0  0  0  0  0  0  0  0  0
  151.3125  143.8800  157.9634 C   0  0  0  0  0  0  0  0  0  0  0  0
  150.9706  142.9356  157.0602 N   0  0  0  0  0  0  0  0  0  0  0  0
  151.4039  141.6906  157.2858 C   0  0  0  0  0  0  0  0  0  0  0  0
  151.0179  140.7324  156.3565 N   0  0  0  0  0  0  0  0  0  0  0  0
  152.1583  140.0413  155.7612 C   0  0  0  0  0  0  0  0  0  0  0  0
  151.7084  138.7922  154.9951 C   0  0  0  0  0  0  0  0  0  0  0  0
  150.7696  139.1816  154.0051 O   0  0  0  0  0  0  0  0  0  0  0  0
  149.6022  139.7446  154.5887 C   0  0  0  0  0  0  0  0  0  0  0  0
  149.9396  141.0227  155.3968 C   0  0  1  0  0  0  0  0  0  0  0  0
  148.6649  141.5753  156.0937 C   0  0  0  0  0  0  0  0  0  0  0  0
  147.4697  141.8343  155.1595 C   0  0  0  0  0  0  0  0  0  0  0  0
  147.7836  142.8383  154.2178 O   0  0  0  0  0  0  0  0  0  0  0  0
  152.1296  141.2874  158.3372 N   0  0  0  0  0  0  0  0  0  0  0  0
  153.7612  142.6077  160.9373 H   0  0  0  0  0  0  0  0  0  0  0  0
  154.1036  141.0967  160.0905 H   0  0  0  0  0  0  0  0  0  0  0  0
  152.6789  141.2232  161.1316 H   0  0  0  0  0  0  0  0  0  0  0  0
  152.3569  144.3306  159.8231 H   0  0  0  0  0  0  0  0  0  0  0  0
  150.9662  144.8860  157.7779 H   0  0  0  0  0  0  0  0  0  0  0  0
  152.6773  140.7248  155.0880 H   0  0  0  0  0  0  0  0  0  0  0  0
  152.8720  139.7547  156.5348 H   0  0  0  0  0  0  0  0  0  0  0  0
  152.5626  138.3207  154.5094 H   0  0  0  0  0  0  0  0  0  0  0  0
  151.2726  138.0520  155.6681 H   0  0  0  0  0  0  0  0  0  0  0  0
  148.9132  139.9721  153.7765 H   0  0  0  0  0  0  0  0  0  0  0  0
  149.1120  139.0013  155.2200 H   0  0  0  0  0  0  0  0  0  0  0  0
  150.3190  141.7755  154.7045 H   0  0  0  0  0  0  0  0  0  0  0  0
  148.3575  140.8786  156.8748 H   0  0  0  0  0  0  0  0  0  0  0  0
  148.8759  142.5122  156.6080 H   0  0  0  0  0  0  0  0  0  0  0  0
  147.1537  140.9298  154.6415 H   0  0  0  0  0  0  0  0  0  0  0  0
  146.6138  142.1717  155.7443 H   0  0  0  0  0  0  0  0  0  0  0  0
  148.1412  143.5821  154.6786 H   0  0  0  0  0  0  0  0  0  0  0  0
  1  2  1  0  0  0  0
  1 17  1  0  0  0  0
  1 18  1  0  0  0  0
  1 19  1  0  0  0  0
  2 16  1  0  0  0  0
  2  3  2  0  0  0  0
  3  4  1  0  0  0  0
  3 20  1  0  0  0  0
  4  5  2  0  0  0  0
  4 21  1  0  0  0  0
  5  6  1  0  0  0  0
  6  7  1  0  0  0  0
  6 16  2  0  0  0  0
  7 12  1  0  0  0  0
  7  8  1  0  0  0  0
  8  9  1  0  0  0  0
  8 22  1  0  0  0  0
  8 23  1  0  0  0  0
  9 10  1  0  0  0  0
  9 24  1  0  0  0  0
  9 25  1  0  0  0  0
 10 11  1  0  0  0  0
 11 12  1  0  0  0  0
 11 26  1  0  0  0  0
 11 27  1  0  0  0  0
 12 13  1  0  0  0  0
 12 28  1  0  0  0  0
 13 14  1  0  0  0  0
 13 29  1  0  0  0  0
 13 30  1  0  0  0  0
 14 15  1  0  0  0  0
 14 31  1  0  0  0  0
 14 32  1  0  0  0  0
 15 33  1  0  0  0  0
M  END
> <s_m_source_file>
AV-unprocessed.smi

> <i_m_source_file_index>
3026

> <i_lp_mmshare_version>
43012

> <i_f3d_flags>
0

> <s_epik_input>
W0NIM11jMVtjSF1bY0hdbmMobjEpTjJbQ0gyXVtDSDJdT1tDSDJdW0NASF0yW0NIMl1bQ0gyXVtPSF0=

> <s_epik_cmdline>
J2VwaWtfcHl0aG9uJywgJy1waCcsICc3LjAnLCAnLXRuJywgJzgnLCAnLW1hJywgJzIwMCcsICctbWV0YWxfYmluZGluZycsICctaW1hZScsICc8aW5maWxlLm1hZT4nLCAnLW9tYWUnLCAnPG91dGZpbGUubWFlPic=

> <r_lp_tautomer_probability>
1

> <r_epik_Ionization_Penalty>
6.52665e-05

> <r_epik_Ionization_Penalty_Charging>
0

> <r_epik_Ionization_Penalty_Neutral>
6.52665e-05

> <r_epik_State_Penalty>
-0

> <r_epik_Charging_Adjusted_Penalty>
0

> <i_epik_Tot_Q>
0

> <i_epik_Tot_abs_Q>
0

> <r_epik_Metal_State_Penalty>
-0

> <b_epik_Metal_Only>
0

> <s_lp_Force_Field>
OPLS_2005

> <r_lp_Energy>
15.2375

> <b_lp_Chiralities_Consistent>
1

> <s_lp_Variant>
AV-unprocessed.smi:3026-1

> <Gold.Version>
5.8.1

> <Gold.Id.Protein>
6NUR|6NUR_protein|mol2

> <Gold.PLP.Fitness>
38.0113

> <Gold.PLP.PLP>
-32.7307

> <Gold.PLP.part.hbond>
-4.0000

> <Gold.PLP.part.metal>
0.0000

> <Gold.PLP.part.buried>
-0.4459

> <Gold.PLP.part.nonpolar>
-28.5865

> <Gold.PLP.part.repulsive>
0.6309

> <Gold.PLP.ligand.clash>
0.0000

> <Gold.PLP.ligand.torsion>
0.2162

> <Gold.PLP.Chemscore.Hbond>
1.8000

> <Gold.PLP.Chemscore.CHOScore>
0.0000

> <Gold.PLP.Chemscore.Metal>
0.0000

> <Gold.Chemscore.Hbonds>
donor molecule, donor type, donor heavy atom, donor atom, acceptor molecule, acceptor atom, score
      L1  H    15    33       P1  8028  1.00
      P1  H  7989  7998       L1    10  0.81

> <Gold.PLP.Chemscore.Internal.Correction>
0.3131

> <Gold.Rescore>
     Score         DG    S(hbond)    S(metal)    S(lipo)     H(rot)  DE(clash)    DE(int)     intcor
     11.93     -13.59       1.03        0.00      83.33       1.99       0.11       1.55       ----

> <Gold.Chemscore.Fitness>
11.9276

> <Gold.Chemscore.DG>
-13.5917

> <Gold.Chemscore.ZeroCoef>
-5.4800

> <Gold.Chemscore.Hbond>
1.0321

> <Gold.Chemscore.Metal>
0.0000

> <Gold.Chemscore.Lipo>
83.3294

> <Gold.Chemscore.Internal_Hbond>
0.0000

> <Gold.Chemscore.DEClash>
0.1143

> <Gold.Chemscore.DEInternal>
1.5499

> <Gold.Chemscore.Rot>
1.9864

> <Gold.Chemscore.Internal.Correction>
   9.000000E+99

> <Gold.Chemscore.Hbonds>
donor molecule, donor type, donor heavy atom, donor atom, acceptor molecule, acceptor atom, score
      L1  H    15    33       P1  8028  0.85
      P1  H  7989  7998       L1    10  0.03

> <Gold.Chemscore.Hbond.Weighted>
-3.4473

> <Gold.Chemscore.Metal.Weighted>
-0.0000

> <Gold.Chemscore.Lipo.Weighted>
-9.7495

> <Gold.Chemscore.Internal_Hbond.Weighted>
0.0000

> <Gold.Chemscore.DEClash.Weighted>
0.1143

> <Gold.Chemscore.DEInternal.Weighted>
1.5499

> <Gold.Chemscore.Rot.Weighted>
5.0851

> <Gold.Chemscore.Internal.Correction.Weighted>
   9.000000E+99

> <Gold.Protein.RotatedTorsions>
[ 6907 6896 6895 6894 ] final  -71.89 input  -60.11 | X-H torsion
[ 7974 7965 7964 7962 ] final   98.06 input  175.53 | X-H torsion
[ 8008 7997 7996 7995 ] final   -3.08 input   59.86 | X-H torsion
[ 10167 10162 10161 10158 ] final  -76.82 input  -65.29 | X-H torsion
[ 10718 10713 10712 10709 ] final    7.82 input   66.30 | X-H torsion
[ 10763 10752 10751 10750 ] final -145.21 input  -60.55 | X-H torsion
[ 11005 11000 10999 10996 ] final  -15.52 input  -57.11 | X-H torsion

> <Gold.Protein.ActiveResidues>
 VAL166  LYS551  ARG553  GLY616  TRP617  ASP618  TYR619  PRO620  LYS621  CYS622 
 ASP623  PHE694  ASN695  SER759  ASP760  ASP761  ALA762  ILE779  LEU786  VAL792 
 PHE793  MET794  SER795  GLU796  ALA797  LYS798  CYS799  TRP800  GLU811  SER814 

> <Gold.Protein.RotatedAtoms>
  150.7193  134.5242  159.5668 H   0  0  0  0  0  0  0  0  0  0  0  0  # atno 6907 bound_to 6896
  152.2790  134.7846  160.0409 H   0  0  0  0  0  0  0  0  0  0  0  0  # atno 6908 bound_to 6896
  151.8499  133.3403  159.3707 H   0  0  0  0  0  0  0  0  0  0  0  0  # atno 6909 bound_to 6896
  145.4172  139.2326  143.3216 H   0  0  0  0  0  0  0  0  0  0  0  0  # atno 7974 bound_to 7965
  154.6288  140.2518  155.7459 H   0  0  0  0  0  0  0  0  0  0  0  0  # atno 8008 bound_to 7997
  156.2468  140.2911  156.0550 H   0  0  0  0  0  0  0  0  0  0  0  0  # atno 8009 bound_to 7997
  155.1779  140.0388  157.2866 H   0  0  0  0  0  0  0  0  0  0  0  0  # atno 8010 bound_to 7997
  140.4824  143.2399  151.8037 H   0  0  0  0  0  0  0  0  0  0  0  0  # atno 10167 bound_to 10162
  156.9425  130.5866  149.5653 H   0  0  0  0  0  0  0  0  0  0  0  0  # atno 10718 bound_to 10713
  154.8393  135.3419  154.6469 H   0  0  0  0  0  0  0  0  0  0  0  0  # atno 10763 bound_to 10752
  153.7081  135.6965  153.5049 H   0  0  0  0  0  0  0  0  0  0  0  0  # atno 10764 bound_to 10752
  153.2472  135.4365  155.0714 H   0  0  0  0  0  0  0  0  0  0  0  0  # atno 10765 bound_to 10752
  140.7975  133.8239  155.9438 H   0  0  0  0  0  0  0  0  0  0  0  0  # atno 11005 bound_to 11000
  146.2675  140.4891  142.8828 LP  0  0  0  0  0  0  0  0  0  0  0  0  # atno 17320 bound_to 7965
  144.8269  140.6644  143.6316 LP  0  0  0  0  0  0  0  0  0  0  0  0  # atno 17321 bound_to 7965
  139.4836  144.4756  151.9371 LP  0  0  0  0  0  0  0  0  0  0  0  0  # atno 17342 bound_to 10162
  140.3841  144.2699  150.5905 LP  0  0  0  0  0  0  0  0  0  0  0  0  # atno 17343 bound_to 10162
  156.0398  130.5482  150.8743 LP  0  0  0  0  0  0  0  0  0  0  0  0  # atno 17370 bound_to 10713
  157.5776  131.0946  150.9322 LP  0  0  0  0  0  0  0  0  0  0  0  0  # atno 17371 bound_to 10713
  140.9328  134.2000  157.4852 LP  0  0  0  0  0  0  0  0  0  0  0  0  # atno 17394 bound_to 11000
  139.8725  134.9840  156.5220 LP  0  0  0  0  0  0  0  0  0  0  0  0  # atno 17395 bound_to 11000

$$$$
