#       Name:                AV-unprocessed.smi:2226
#       Creating user name   scv26
#       Creation time:       Fri Mar 27 12:22:01 2020


#       File generated by GOLD software.
#

@<TRIPOS>MOLECULE
AV-unprocessed.smi:2226
    45    47     1
SMALL
NO_CHARGES


@<TRIPOS>ATOM
      1 ****        -3.8201  -1.4706  -0.5383 C.3            1 S1                 0.0000
      2 ****        -2.3958  -1.8803  -0.5044 N.4            1 S1                 1.0000
      3 ****        -1.6093  -1.5000  -1.7019 C.3            1 S1                 0.0000
      4 ****        -0.3051  -2.3307  -1.7355 C.3            1 S1                 0.0000
      5 ****         0.5149  -2.2663  -0.4320 C.3            1 S1                 0.0000
      6 ****        -0.3701  -2.3319   0.8272 C.3            1 S1                 0.0000
      7 ****        -1.6661  -1.4949   0.7268 C.3            1 S1                 0.0000
      8 ****        -1.4692   0.0398   0.8137 C.3            1 S1                 0.0000
      9 ****        -0.9757   0.7369  -0.4828 C.3            1 S1                 0.0000
     10 ****         0.4621   0.9970  -0.4787 N.am           1 S1                 0.0000
     11 ****         1.0977   1.9455   0.2260 C.2            1 S1                 0.0000
     12 ****         0.4856   2.7214   0.9669 O.2            1 S1                 0.0000
     13 ****         2.4633   1.8686  -0.0046 N.2            1 S1                 0.0000
     14 ****         3.2865   2.5484   0.7338 C.2            1 S1                 0.0000
     15 ****         3.1050   3.4143   1.8092 N.pl3          1 S1                 0.0000
     16 ****         4.3345   3.8491   2.2185 C.2            1 S1                 0.0000
     17 ****         5.2515   3.2845   1.4389 C.2            1 S1                 0.0000
     18 ****         4.6404   2.4845   0.5206 O.3            1 S1                 0.0000
     19 ****        -1.4176   0.0349  -1.7903 C.3            1 S1                 0.0000
     20 ****        -3.9394  -0.3873  -0.5307 H              1 S1                 0.0000
     21 ****        -4.3514  -1.8747   0.3237 H              1 S1                 0.0000
     22 ****        -4.3052  -1.8573  -1.4348 H              1 S1                 0.0000
     23 ****        -2.1814  -1.8011  -2.5807 H              1 S1                 0.0000
     24 ****        -0.5724  -3.3731  -1.9141 H              1 S1                 0.0000
     25 ****         0.3144  -2.0340  -2.5825 H              1 S1                 0.0000
     26 ****         1.2324  -3.0873  -0.4144 H              1 S1                 0.0000
     27 ****         1.1292  -1.3727  -0.4140 H              1 S1                 0.0000
     28 ****        -0.6509  -3.3736   0.9888 H              1 S1                 0.0000
     29 ****         0.2063  -2.0397   1.7054 H              1 S1                 0.0000
     30 ****        -2.2806  -1.7871   1.5797 H              1 S1                 0.0000
     31 ****        -2.4350   0.4779   1.0674 H              1 S1                 0.0000
     32 ****        -0.8293   0.2862   1.6618 H              1 S1                 0.0000
     33 ****        -1.4381   1.7260  -0.5057 H              1 S1                 0.0000
     34 ****         1.0295   0.3991  -1.0623 H              1 S1                 0.0000
     35 ****         2.2393   3.7034   2.2413 H              1 S1                 0.0000
     36 ****         4.4235   4.5356   3.0476 H              1 S1                 0.0000
     37 ****         6.3292   3.3476   1.4098 H              1 S1                 0.0000
     38 ****        -0.7421   0.2842  -2.6101 H              1 S1                 0.0000
     39 ****        -2.3743   0.4671  -2.0852 H              1 S1                 0.0000
     40 ****        -2.4180  -2.8901  -0.5028 H              1 S1                 0.0000
     41 ****        -0.5082   2.6515   1.0525 LP             1 S1                 0.0000
     42 ****         0.9840   3.4195   1.4811 LP             1 S1                 0.0000
     43 ****         2.8140   1.2890  -0.7403 LP             1 S1                 0.0000
     44 ****         4.8537   2.8040  -0.4027 LP             1 S1                 0.0000
     45 ****         4.9565   1.5419   0.6284 LP             1 S1                 0.0000
@<TRIPOS>BOND
    1    1    2 1     
    2    1   20 1     
    3    1   21 1     
    4    1   22 1     
    5    2    7 1     
    6    2    3 1     
    7    2   40 1     
    8    3   19 1     
    9    3    4 1     
   10    3   23 1     
   11    4    5 1     
   12    4   24 1     
   13    4   25 1     
   14    5    6 1     
   15    5   26 1     
   16    5   27 1     
   17    6    7 1     
   18    6   28 1     
   19    6   29 1     
   20    7    8 1     
   21    7   30 1     
   22    8    9 1     
   23    8   31 1     
   24    8   32 1     
   25    9   10 1     
   26    9   19 1     
   27    9   33 1     
   28   10   34 1     
   29   10   11 am    
   30   11   13 1     
   31   11   12 2     
   32   13   14 2     
   33   14   18 1     
   34   14   15 1     
   35   15   35 1     
   36   15   16 1     
   37   16   36 1     
   38   16   17 2     
   39   17   37 1     
   40   17   18 1     
   41   19   38 1     
   42   19   39 1     
   43   12   41 1     
   44   12   42 1     
   45   13   43 1     
   46   18   44 1     
   47   18   45 1     
@<TRIPOS>SUBSTRUCTURE
      1 S1             1
@<TRIPOS>SET
LONE_PAIRS      STATIC     ATOMS    <user>   **** ""
5 41 42 43 44 45
DONOR_HYDROGENS      STATIC     ATOMS    <user>   **** ""
3 40 34 35
ATOM$BLUE        STATIC     ATOMS    COLORGROUP SYSTEM
5 41 42 43 44 45
ATOM$RED        STATIC     ATOMS    COLORGROUP SYSTEM
3 40 34 35
