AV-unprocessed.smi:1093|AV-procd|sdf|4741|dock8
  -GOLD-   22720 3273D 1   1.00000     0.00000
 Structure written by MMmdl.
 48 49  0  0  0  0  0  0  0  0  3 V2000
  143.9045  137.5687  153.8721 C   0  0  0  0  0  0  0  0  0  0  0  0
  144.8229  138.3559  154.8180 C   0  0  0  0  0  0  0  0  0  0  0  0
  145.6546  139.3574  154.1035 N   0  3  2  0  0  0  0  0  0  0  0  0
  146.4482  138.7452  153.0062 C   0  0  0  0  0  0  0  0  0  0  0  0
  147.1894  139.8174  152.1910 C   0  0  0  0  0  0  0  0  0  0  0  0
  148.0826  140.6781  153.0933 C   0  0  0  0  0  0  0  0  0  0  0  0
  147.2513  141.2761  154.2420 C   0  0  2  0  0  0  0  0  0  0  0  0
  148.1032  142.0322  155.1566 N   0  0  0  0  0  0  0  0  0  0  0  0
  148.9011  141.4938  156.0904 C   0  0  0  0  0  0  0  0  0  0  0  0
  148.9970  140.2819  156.2819 O   0  0  0  0  0  0  0  0  0  0  0  0
  149.5510  142.4439  156.7850 N   0  0  0  0  0  0  0  0  0  0  0  0
  150.5045  142.2817  157.8273 C   0  0  0  0  0  0  0  0  0  0  0  0
  150.9654  143.4408  158.4856 C   0  0  0  0  0  0  0  0  0  0  0  0
  151.9238  143.3311  159.5140 C   0  0  0  0  0  0  0  0  0  0  0  0
  152.4268  142.0573  159.8762 C   0  0  0  0  0  0  0  0  0  0  0  0
  153.3877  141.8654  160.8925 N   0  0  0  0  0  0  0  0  0  0  0  0
  153.2141  142.5170  162.1844 C   0  0  0  0  0  0  0  0  0  0  0  0
  154.4739  140.9129  160.6903 C   0  0  0  0  0  0  0  0  0  0  0  0
  151.9629  140.9741  159.2061 N   0  3  0  0  0  0  0  0  0  0  0  0
  151.0450  141.0332  158.2174 C   0  0  0  0  0  0  0  0  0  0  0  0
  146.5139  140.1638  155.0120 C   0  0  0  0  0  0  0  0  0  0  0  0
  143.3831  136.7797  154.4147 H   0  0  0  0  0  0  0  0  0  0  0  0
  144.4749  137.0960  153.0721 H   0  0  0  0  0  0  0  0  0  0  0  0
  143.1439  138.2015  153.4164 H   0  0  0  0  0  0  0  0  0  0  0  0
  144.2429  138.8415  155.6039 H   0  0  0  0  0  0  0  0  0  0  0  0
  145.4757  137.6376  155.3159 H   0  0  0  0  0  0  0  0  0  0  0  0
  147.1591  138.0305  153.4240 H   0  0  0  0  0  0  0  0  0  0  0  0
  145.7895  138.1853  152.3410 H   0  0  0  0  0  0  0  0  0  0  0  0
  147.7906  139.3451  151.4135 H   0  0  0  0  0  0  0  0  0  0  0  0
  146.4657  140.4531  151.6788 H   0  0  0  0  0  0  0  0  0  0  0  0
  148.8925  140.0676  153.4956 H   0  0  0  0  0  0  0  0  0  0  0  0
  148.5498  141.4696  152.5060 H   0  0  0  0  0  0  0  0  0  0  0  0
  146.4988  141.9458  153.8206 H   0  0  0  0  0  0  0  0  0  0  0  0
  148.0803  143.0383  155.0737 H   0  0  0  0  0  0  0  0  0  0  0  0
  149.3070  143.3989  156.5669 H   0  0  0  0  0  0  0  0  0  0  0  0
  150.5860  144.4140  158.2095 H   0  0  0  0  0  0  0  0  0  0  0  0
  152.2593  144.2308  160.0076 H   0  0  0  0  0  0  0  0  0  0  0  0
  153.2130  143.6018  162.0710 H   0  0  0  0  0  0  0  0  0  0  0  0
  154.0194  142.2566  162.8715 H   0  0  0  0  0  0  0  0  0  0  0  0
  152.2728  142.2127  162.6432 H   0  0  0  0  0  0  0  0  0  0  0  0
  155.0712  141.1904  159.8212 H   0  0  0  0  0  0  0  0  0  0  0  0
  154.0782  139.9090  160.5339 H   0  0  0  0  0  0  0  0  0  0  0  0
  155.1391  140.8793  161.5534 H   0  0  0  0  0  0  0  0  0  0  0  0
  150.7955  140.0802  157.7760 H   0  0  0  0  0  0  0  0  0  0  0  0
  145.9068  140.6196  155.7938 H   0  0  0  0  0  0  0  0  0  0  0  0
  147.2295  139.5073  155.5105 H   0  0  0  0  0  0  0  0  0  0  0  0
  145.0113  139.9977  153.6603 H   0  0  0  0  0  0  0  0  0  0  0  0
  152.3307  140.0574  159.4615 H   0  0  0  0  0  0  0  0  0  0  0  0
  1  2  1  0  0  0  0
  1 22  1  0  0  0  0
  1 23  1  0  0  0  0
  1 24  1  0  0  0  0
  2  3  1  0  0  0  0
  2 25  1  0  0  0  0
  2 26  1  0  0  0  0
  3 21  1  0  0  0  0
  3  4  1  0  0  0  0
  3 47  1  0  0  0  0
  4  5  1  0  0  0  0
  4 27  1  0  0  0  0
  4 28  1  0  0  0  0
  5  6  1  0  0  0  0
  5 29  1  0  0  0  0
  5 30  1  0  0  0  0
  6  7  1  0  0  0  0
  6 31  1  0  0  0  0
  6 32  1  0  0  0  0
  7  8  1  0  0  0  0
  7 21  1  0  0  0  0
  7 33  1  0  0  0  0
  8  9  1  0  0  0  0
  8 34  1  0  0  0  0
  9 10  2  0  0  0  0
  9 11  1  0  0  0  0
 11 12  1  0  0  0  0
 11 35  1  0  0  0  0
 12 20  1  0  0  0  0
 12 13  2  0  0  0  0
 13 14  1  0  0  0  0
 13 36  1  0  0  0  0
 14 15  2  0  0  0  0
 14 37  1  0  0  0  0
 15 16  1  0  0  0  0
 15 19  1  0  0  0  0
 16 17  1  0  0  0  0
 16 18  1  0  0  0  0
 17 38  1  0  0  0  0
 17 39  1  0  0  0  0
 17 40  1  0  0  0  0
 18 41  1  0  0  0  0
 18 42  1  0  0  0  0
 18 43  1  0  0  0  0
 19 20  2  0  0  0  0
 19 48  1  0  0  0  0
 20 44  1  0  0  0  0
 21 45  1  0  0  0  0
 21 46  1  0  0  0  0
M  CHG  1   3   1
M  CHG  1  19   1
M  END
> <s_m_source_file>
AV-unprocessed.smi

> <i_m_source_file_index>
1093

> <i_lp_mmshare_version>
43012

> <i_f3d_flags>
0

> <s_epik_input>
W0NIM11bQ0gyXU4xW0NIMl1bQ0gyXVtDSDJdW0NASF0oW0NIMl0xKVtOSF1DKD1PKVtOSF1jMltjSF1bY0hdYyhOKFtDSDNdKVtDSDNdKW5bY0hdMg==

> <s_epik_cmdline>
J2VwaWtfcHl0aG9uJywgJy1waCcsICc3LjAnLCAnLXRuJywgJzgnLCAnLW1hJywgJzIwMCcsICctbWV0YWxfYmluZGluZycsICctaW1hZScsICc8aW5maWxlLm1hZT4nLCAnLW9tYWUnLCAnPG91dGZpbGUubWFlPic=

> <r_lp_tautomer_probability>
0.999994

> <r_epik_Ionization_Penalty>
0.346711

> <r_epik_Ionization_Penalty_Charging>
0.346691

> <r_epik_Ionization_Penalty_Neutral>
1.93006e-05

> <r_epik_State_Penalty>
0.339838

> <r_epik_Charging_Adjusted_Penalty>
0.68653

> <i_epik_Tot_Q>
2

> <i_epik_Tot_abs_Q>
2

> <r_epik_Metal_State_Penalty>
0.600835

> <b_epik_Metal_Only>
0

> <s_lp_Force_Field>
OPLS_2005

> <r_lp_Energy>
27.882

> <b_lp_Chiralities_Consistent>
1

> <s_lp_Variant>
AV-unprocessed.smi:1093-4

> <Gold.Version>
5.8.1

> <Gold.Id.Protein>
6NUR|6NUR_protein|mol2

> <Gold.PLP.Fitness>
45.9052

> <Gold.PLP.PLP>
-36.0300

> <Gold.PLP.part.hbond>
-3.0000

> <Gold.PLP.part.metal>
0.0000

> <Gold.PLP.part.buried>
2.7351

> <Gold.PLP.part.nonpolar>
-36.3023

> <Gold.PLP.part.repulsive>
0.3067

> <Gold.PLP.ligand.clash>
0.0000

> <Gold.PLP.ligand.torsion>
0.9673

> <Gold.PLP.Chemscore.Hbond>
3.9280

> <Gold.PLP.Chemscore.CHOScore>
0.0000

> <Gold.PLP.Chemscore.Metal>
0.0000

> <Gold.Chemscore.Hbonds>
donor molecule, donor type, donor heavy atom, donor atom, acceptor molecule, acceptor atom, score
      L1  H     3    47       P1 10175  2.00
      L1  H     8    34       P1  8028  0.94
      L1  H    11    35       P1  8028  1.00

> <Gold.PLP.Chemscore.Internal.Correction>
0.0258

> <Gold.Rescore>
     Score         DG    S(hbond)    S(metal)    S(lipo)     H(rot)  DE(clash)    DE(int)     intcor
     16.30     -22.80       2.89        0.00      91.68       1.19       3.27       3.23       ----

> <Gold.Chemscore.Fitness>
16.2952

> <Gold.Chemscore.DG>
-22.8025

> <Gold.Chemscore.ZeroCoef>
-5.4800

> <Gold.Chemscore.Hbond>
2.8907

> <Gold.Chemscore.Metal>
0.0000

> <Gold.Chemscore.Lipo>
91.6783

> <Gold.Chemscore.Internal_Hbond>
0.0000

> <Gold.Chemscore.DEClash>
3.2731

> <Gold.Chemscore.DEInternal>
3.2342

> <Gold.Chemscore.Rot>
1.1949

> <Gold.Chemscore.Internal.Correction>
   9.000000E+99

> <Gold.Chemscore.Hbonds>
donor molecule, donor type, donor heavy atom, donor atom, acceptor molecule, acceptor atom, score
      L1  H     3    47       P1 10175  0.98
      L1  H     8    34       P1  8028  0.85
      L1  H    11    35       P1  8028  0.99

> <Gold.Chemscore.Hbond.Weighted>
-9.6551

> <Gold.Chemscore.Metal.Weighted>
-0.0000

> <Gold.Chemscore.Lipo.Weighted>
-10.7264

> <Gold.Chemscore.Internal_Hbond.Weighted>
0.0000

> <Gold.Chemscore.DEClash.Weighted>
3.2731

> <Gold.Chemscore.DEInternal.Weighted>
3.2342

> <Gold.Chemscore.Rot.Weighted>
3.0590

> <Gold.Chemscore.Internal.Correction.Weighted>
   9.000000E+99

> <Gold.Protein.RotatedTorsions>
[ 6907 6896 6895 6894 ] final  165.30 input  -60.11 | X-H torsion
[ 7974 7965 7964 7962 ] final  -22.22 input  175.53 | X-H torsion
[ 8008 7997 7996 7995 ] final  -57.98 input   59.86 | X-H torsion
[ 10167 10162 10161 10158 ] final   -4.67 input  -65.29 | X-H torsion
[ 10718 10713 10712 10709 ] final    2.28 input   66.30 | X-H torsion
[ 10763 10752 10751 10750 ] final    4.80 input  -60.55 | X-H torsion
[ 11005 11000 10999 10996 ] final   22.88 input  -57.11 | X-H torsion

> <Gold.Protein.ActiveResidues>
 VAL166  LYS551  ARG553  GLY616  TRP617  ASP618  TYR619  PRO620  LYS621  CYS622 
 ASP623  PHE694  ASN695  SER759  ASP760  ASP761  ALA762  ILE779  LEU786  VAL792 
 PHE793  MET794  SER795  GLU796  ALA797  LYS798  CYS799  TRP800  GLU811  SER814 

> <Gold.Protein.RotatedAtoms>
  151.8966  133.3528  159.3816 H   0  0  0  0  0  0  0  0  0  0  0  0  # atno 6907 bound_to 6896
  150.7090  134.4870  159.5507 H   0  0  0  0  0  0  0  0  0  0  0  0  # atno 6908 bound_to 6896
  152.2450  134.8190  160.0505 H   0  0  0  0  0  0  0  0  0  0  0  0  # atno 6909 bound_to 6896
  146.1688  140.4448  142.8541 H   0  0  0  0  0  0  0  0  0  0  0  0  # atno 7974 bound_to 7965
  154.4290  140.1094  156.5885 H   0  0  0  0  0  0  0  0  0  0  0  0  # atno 8008 bound_to 7997
  155.6037  140.3493  155.4583 H   0  0  0  0  0  0  0  0  0  0  0  0  # atno 8009 bound_to 7997
  156.0153  140.1228  157.0402 H   0  0  0  0  0  0  0  0  0  0  0  0  # atno 8010 bound_to 7997
  140.6936  143.6397  150.8447 H   0  0  0  0  0  0  0  0  0  0  0  0  # atno 10167 bound_to 10162
  156.8607  130.5585  149.5663 H   0  0  0  0  0  0  0  0  0  0  0  0  # atno 10718 bound_to 10713
  153.2669  135.6928  153.7520 H   0  0  0  0  0  0  0  0  0  0  0  0  # atno 10763 bound_to 10752
  153.6558  135.3369  155.3114 H   0  0  0  0  0  0  0  0  0  0  0  0  # atno 10764 bound_to 10752
  154.8450  135.4465  154.1679 H   0  0  0  0  0  0  0  0  0  0  0  0  # atno 10765 bound_to 10752
  140.3758  134.1974  155.7665 H   0  0  0  0  0  0  0  0  0  0  0  0  # atno 11005 bound_to 11000
  144.8132  140.6423  143.6401 LP  0  0  0  0  0  0  0  0  0  0  0  0  # atno 17320 bound_to 7965
  145.4395  139.1537  143.3978 LP  0  0  0  0  0  0  0  0  0  0  0  0  # atno 17321 bound_to 7965
  140.0113  143.5640  152.2838 LP  0  0  0  0  0  0  0  0  0  0  0  0  # atno 17342 bound_to 10162
  139.6365  144.7650  151.2428 LP  0  0  0  0  0  0  0  0  0  0  0  0  # atno 17343 bound_to 10162
  156.0778  130.5796  150.9507 LP  0  0  0  0  0  0  0  0  0  0  0  0  # atno 17370 bound_to 10713
  157.6252  131.0926  150.8548 LP  0  0  0  0  0  0  0  0  0  0  0  0  # atno 17371 bound_to 10713
  141.1940  133.8138  157.0776 LP  0  0  0  0  0  0  0  0  0  0  0  0  # atno 17394 bound_to 11000
  140.0517  134.9802  157.1148 LP  0  0  0  0  0  0  0  0  0  0  0  0  # atno 17395 bound_to 11000

$$$$
