AV-unprocessed.smi:153|AV-procd|sdf|1256|dock1
  -GOLD-   2262018493D 1   1.00000     0.00000
 Structure written by MMmdl.
 60 63  0  0  0  0  0  0  0  0  2 V2000
  151.2479  139.5396  155.3411 C   0  0  0  0  0  0  0  0  0  0  0  0
  150.4496  139.9318  156.5973 C   0  0  2  0  0  0  0  0  0  0  0  0
  150.0641  141.3038  156.5266 O   0  0  0  0  0  0  0  0  0  0  0  0
  150.6343  142.0234  157.6089 C   0  0  0  0  0  0  0  0  0  0  0  0
  150.7413  140.9882  158.7201 C   0  0  0  0  0  0  0  0  0  0  0  0
  151.1553  139.7343  157.9641 C   0  0  2  0  0  0  0  0  0  0  0  0
  152.5659  139.7605  157.8134 O   0  0  0  0  0  0  0  0  0  0  0  0
  150.7622  138.4357  158.7102 C   0  0  0  0  0  0  0  0  0  0  0  0
  150.8573  137.2427  157.8837 N   0  0  0  0  0  0  0  0  0  0  0  0
  152.0085  136.5830  157.5230 C   0  0  0  0  0  0  0  0  0  0  0  0
  151.8295  135.5159  156.7955 N   0  0  0  0  0  0  0  0  0  0  0  0
  150.4509  135.4373  156.6201 C   0  0  0  0  0  0  0  0  0  0  0  0
  149.5703  134.5272  155.9567 C   0  0  0  0  0  0  0  0  0  0  0  0
  149.9561  133.4111  155.2760 N   0  0  0  0  0  0  0  0  0  0  0  0
  150.3058  132.2011  156.0099 C   0  0  0  0  0  0  0  0  0  0  0  0
  149.5675  133.2732  153.8707 C   0  0  0  0  0  0  0  0  0  0  0  0
  148.0565  133.0138  153.6958 C   0  0  1  0  0  0  0  0  0  0  0  0
  147.3820  134.2564  153.7388 O   0  0  0  0  0  0  0  0  0  0  0  0
  147.7467  132.3703  152.3294 C   0  0  0  0  0  0  0  0  0  0  0  0
  146.3316  132.5568  151.9182 N   0  3  0  0  0  0  0  0  0  0  0  0
  146.1420  133.7466  151.0550 C   0  0  0  0  0  0  0  0  0  0  0  0
  144.6525  133.9339  150.7210 C   0  0  0  0  0  0  0  0  0  0  0  0
  144.1550  132.7595  150.0918 O   0  0  0  0  0  0  0  0  0  0  0  0
  144.2525  131.6205  150.9378 C   0  0  0  0  0  0  0  0  0  0  0  0
  145.7278  131.3576  151.2858 C   0  0  0  0  0  0  0  0  0  0  0  0
  148.2399  134.7994  156.0268 N   0  0  0  0  0  0  0  0  0  0  0  0
  147.7926  135.8705  156.6862 C   0  0  0  0  0  0  0  0  0  0  0  0
  148.4919  136.7912  157.3488 N   0  0  0  0  0  0  0  0  0  0  0  0
  149.8283  136.5291  157.2941 C   0  0  0  0  0  0  0  0  0  0  0  0
  151.5645  138.4974  155.3807 H   0  0  0  0  0  0  0  0  0  0  0  0
  152.1380  140.1578  155.2224 H   0  0  0  0  0  0  0  0  0  0  0  0
  150.6414  139.6663  154.4444 H   0  0  0  0  0  0  0  0  0  0  0  0
  149.5142  139.3712  156.5963 H   0  0  0  0  0  0  0  0  0  0  0  0
  151.6220  142.3853  157.3199 H   0  0  0  0  0  0  0  0  0  0  0  0
  150.0225  142.8817  157.8876 H   0  0  0  0  0  0  0  0  0  0  0  0
  151.4366  141.2763  159.5097 H   0  0  0  0  0  0  0  0  0  0  0  0
  149.7593  140.8512  159.1748 H   0  0  0  0  0  0  0  0  0  0  0  0
  152.9155  138.9337  158.1089 H   0  0  0  0  0  0  0  0  0  0  0  0
  151.3892  138.2976  159.5920 H   0  0  0  0  0  0  0  0  0  0  0  0
  149.7368  138.5085  159.0751 H   0  0  0  0  0  0  0  0  0  0  0  0
  152.9909  136.9101  157.8314 H   0  0  0  0  0  0  0  0  0  0  0  0
  150.9979  132.4249  156.8225 H   0  0  0  0  0  0  0  0  0  0  0  0
  150.7951  131.4798  155.3550 H   0  0  0  0  0  0  0  0  0  0  0  0
  149.4151  131.7274  156.4234 H   0  0  0  0  0  0  0  0  0  0  0  0
  149.8986  134.1183  153.2657 H   0  0  0  0  0  0  0  0  0  0  0  0
  150.1188  132.4181  153.4786 H   0  0  0  0  0  0  0  0  0  0  0  0
  147.6959  132.3777  154.5038 H   0  0  0  0  0  0  0  0  0  0  0  0
  147.7307  134.8117  153.0571 H   0  0  0  0  0  0  0  0  0  0  0  0
  148.4065  132.8129  151.5811 H   0  0  0  0  0  0  0  0  0  0  0  0
  147.9774  131.3039  152.3451 H   0  0  0  0  0  0  0  0  0  0  0  0
  146.5169  134.6370  151.5614 H   0  0  0  0  0  0  0  0  0  0  0  0
  146.7205  133.6305  150.1371 H   0  0  0  0  0  0  0  0  0  0  0  0
  144.0757  134.1521  151.6215 H   0  0  0  0  0  0  0  0  0  0  0  0
  144.5214  134.7801  150.0465 H   0  0  0  0  0  0  0  0  0  0  0  0
  143.6599  131.7713  151.8416 H   0  0  0  0  0  0  0  0  0  0  0  0
  143.8295  130.7593  150.4202 H   0  0  0  0  0  0  0  0  0  0  0  0
  146.2823  131.1014  150.3817 H   0  0  0  0  0  0  0  0  0  0  0  0
  145.7903  130.4983  151.9524 H   0  0  0  0  0  0  0  0  0  0  0  0
  146.7210  136.0059  156.6867 H   0  0  0  0  0  0  0  0  0  0  0  0
  145.8139  132.7392  152.7666 H   0  0  0  0  0  0  0  0  0  0  0  0
  1  2  1  0  0  0  0
  1 30  1  0  0  0  0
  1 31  1  0  0  0  0
  1 32  1  0  0  0  0
  2  6  1  0  0  0  0
  2  3  1  0  0  0  0
  2 33  1  0  0  0  0
  3  4  1  0  0  0  0
  4  5  1  0  0  0  0
  4 34  1  0  0  0  0
  4 35  1  0  0  0  0
  5  6  1  0  0  0  0
  5 36  1  0  0  0  0
  5 37  1  0  0  0  0
  6  7  1  0  0  0  0
  6  8  1  0  0  0  0
  7 38  1  0  0  0  0
  8  9  1  0  0  0  0
  8 39  1  0  0  0  0
  8 40  1  0  0  0  0
  9 29  1  0  0  0  0
  9 10  1  0  0  0  0
 10 11  2  0  0  0  0
 10 41  1  0  0  0  0
 11 12  1  0  0  0  0
 12 29  2  0  0  0  0
 12 13  1  0  0  0  0
 13 14  1  0  0  0  0
 13 26  2  0  0  0  0
 14 15  1  0  0  0  0
 14 16  1  0  0  0  0
 15 42  1  0  0  0  0
 15 43  1  0  0  0  0
 15 44  1  0  0  0  0
 16 17  1  0  0  0  0
 16 45  1  0  0  0  0
 16 46  1  0  0  0  0
 17 18  1  0  0  0  0
 17 19  1  0  0  0  0
 17 47  1  0  0  0  0
 18 48  1  0  0  0  0
 19 20  1  0  0  0  0
 19 49  1  0  0  0  0
 19 50  1  0  0  0  0
 20 25  1  0  0  0  0
 20 21  1  0  0  0  0
 20 60  1  0  0  0  0
 21 22  1  0  0  0  0
 21 51  1  0  0  0  0
 21 52  1  0  0  0  0
 22 23  1  0  0  0  0
 22 53  1  0  0  0  0
 22 54  1  0  0  0  0
 23 24  1  0  0  0  0
 24 25  1  0  0  0  0
 24 55  1  0  0  0  0
 24 56  1  0  0  0  0
 25 57  1  0  0  0  0
 25 58  1  0  0  0  0
 26 27  1  0  0  0  0
 27 28  2  0  0  0  0
 27 59  1  0  0  0  0
 28 29  1  0  0  0  0
M  CHG  1  20   1
M  END
> <s_m_source_file>
AV-unprocessed.smi

> <i_m_source_file_index>
153

> <i_lp_mmshare_version>
43012

> <i_f3d_flags>
0

> <s_epik_input>
W0NIMl0xW0NIMl1PW0NAQEhdKFtDSDNdKVtDQEBdMShbT0hdKVtDSDJdbihbY0hdbjIpYyhjMjMpbltjSF1uYzNOKFtDSDNdKVtDSDJdW0NASF0oW09IXSlbQ0gyXU40W0NIMl1bQ0gyXU9bQ0gyXVtDSDJdNA==

> <s_epik_cmdline>
J2VwaWtfcHl0aG9uJywgJy1waCcsICc3LjAnLCAnLXRuJywgJzgnLCAnLW1hJywgJzIwMCcsICctbWV0YWxfYmluZGluZycsICctaW1hZScsICc8aW5maWxlLm1hZT4nLCAnLW9tYWUnLCAnPG91dGZpbGUubWFlPic=

> <r_lp_tautomer_probability>
1

> <r_epik_Ionization_Penalty>
0.403509

> <r_epik_Ionization_Penalty_Charging>
0.40072

> <r_epik_Ionization_Penalty_Neutral>
0.00278876

> <r_epik_State_Penalty>
0.400058

> <r_epik_Charging_Adjusted_Penalty>
0.800778

> <i_epik_Tot_Q>
1

> <i_epik_Tot_abs_Q>
1

> <r_epik_Metal_State_Penalty>
0.400321

> <b_epik_Metal_Only>
0

> <s_lp_Force_Field>
OPLS_2005

> <r_lp_Energy>
47.9216

> <b_lp_Chiralities_Consistent>
1

> <s_lp_Variant>
AV-unprocessed.smi:153-7

> <Gold.Version>
5.8.1

> <Gold.Id.Protein>
6NUR|6NUR_protein|mol2

> <Gold.PLP.Fitness>
46.2566

> <Gold.PLP.PLP>
-42.0793

> <Gold.PLP.part.hbond>
-3.0000

> <Gold.PLP.part.metal>
0.0000

> <Gold.PLP.part.buried>
-6.1426

> <Gold.PLP.part.nonpolar>
-32.1371

> <Gold.PLP.part.repulsive>
0.2935

> <Gold.PLP.ligand.clash>
0.0000

> <Gold.PLP.ligand.torsion>
2.7467

> <Gold.PLP.Chemscore.Hbond>
3.0000

> <Gold.PLP.Chemscore.CHOScore>
0.0000

> <Gold.PLP.Chemscore.Metal>
0.0000

> <Gold.Chemscore.Hbonds>
donor molecule, donor type, donor heavy atom, donor atom, acceptor molecule, acceptor atom, score
      L1  H    18    48       P1  7948  0.59
      P1  H  7997  8008       L1     7  0.28
      P1  H 10752 10764       L1    11  0.68

> <Gold.PLP.Chemscore.Internal.Correction>
0.6708

> <Gold.Rescore>
     Score         DG    S(hbond)    S(metal)    S(lipo)     H(rot)  DE(clash)    DE(int)     intcor
      6.75     -13.44       1.92        0.00      92.34       3.62       0.50       6.19       ----

> <Gold.Chemscore.Fitness>
6.7482

> <Gold.Chemscore.DG>
-13.4426

> <Gold.Chemscore.ZeroCoef>
-5.4800

> <Gold.Chemscore.Hbond>
1.9224

> <Gold.Chemscore.Metal>
0.0000

> <Gold.Chemscore.Lipo>
92.3430

> <Gold.Chemscore.Internal_Hbond>
0.0000

> <Gold.Chemscore.DEClash>
0.5036

> <Gold.Chemscore.DEInternal>
6.1908

> <Gold.Chemscore.Rot>
3.6182

> <Gold.Chemscore.Internal.Correction>
   9.000000E+99

> <Gold.Chemscore.Hbonds>
donor molecule, donor type, donor heavy atom, donor atom, acceptor molecule, acceptor atom, score
      L1  H    18    48       P1  7948  0.56
      P1  H  7997  8008       L1     7  0.01
      P1  H 10752 10764       L1    11  0.54

> <Gold.Chemscore.Hbond.Weighted>
-6.4209

> <Gold.Chemscore.Metal.Weighted>
-0.0000

> <Gold.Chemscore.Lipo.Weighted>
-10.8041

> <Gold.Chemscore.Internal_Hbond.Weighted>
0.0000

> <Gold.Chemscore.DEClash.Weighted>
0.5036

> <Gold.Chemscore.DEInternal.Weighted>
6.1908

> <Gold.Chemscore.Rot.Weighted>
9.2625

> <Gold.Chemscore.Internal.Correction.Weighted>
   9.000000E+99

> <Gold.Protein.RotatedTorsions>
[ 6907 6896 6895 6894 ] final   14.49 input  -60.11 | X-H torsion
[ 7974 7965 7964 7962 ] final   85.59 input  175.53 | X-H torsion
[ 8008 7997 7996 7995 ] final  -67.88 input   59.86 | X-H torsion
[ 10167 10162 10161 10158 ] final  109.10 input  -65.29 | X-H torsion
[ 10718 10713 10712 10709 ] final  -38.05 input   66.30 | X-H torsion
[ 10763 10752 10751 10750 ] final  -22.82 input  -60.55 | X-H torsion
[ 11005 11000 10999 10996 ] final  106.30 input  -57.11 | X-H torsion

> <Gold.Protein.ActiveResidues>
 VAL166  LYS551  ARG553  GLY616  TRP617  ASP618  TYR619  PRO620  LYS621  CYS622 
 ASP623  PHE694  ASN695  SER759  ASP760  ASP761  ALA762  ILE779  LEU786  VAL792 
 PHE793  MET794  SER795  GLU796  ALA797  LYS798  CYS799  TRP800  GLU811  SER814 

> <Gold.Protein.RotatedAtoms>
  151.8030  135.0703  160.0402 H   0  0  0  0  0  0  0  0  0  0  0  0  # atno 6907 bound_to 6896
  152.3075  133.5714  159.5667 H   0  0  0  0  0  0  0  0  0  0  0  0  # atno 6908 bound_to 6896
  150.7303  134.0117  159.3714 H   0  0  0  0  0  0  0  0  0  0  0  0  # atno 6909 bound_to 6896
  145.5834  139.2328  143.2340 H   0  0  0  0  0  0  0  0  0  0  0  0  # atno 7974 bound_to 7965
  154.4830  140.0884  156.7421 H   0  0  0  0  0  0  0  0  0  0  0  0  # atno 8008 bound_to 7997
  155.4423  140.3454  155.4273 H   0  0  0  0  0  0  0  0  0  0  0  0  # atno 8009 bound_to 7997
  156.1219  140.1476  156.9180 H   0  0  0  0  0  0  0  0  0  0  0  0  # atno 8010 bound_to 7997
  139.6793  144.7119  151.1544 H   0  0  0  0  0  0  0  0  0  0  0  0  # atno 10167 bound_to 10162
  156.3082  130.4249  149.8076 H   0  0  0  0  0  0  0  0  0  0  0  0  # atno 10718 bound_to 10713
  153.6580  135.6978  153.5187 H   0  0  0  0  0  0  0  0  0  0  0  0  # atno 10763 bound_to 10752
  153.2654  135.4231  155.0935 H   0  0  0  0  0  0  0  0  0  0  0  0  # atno 10764 bound_to 10752
  154.8459  135.3565  154.6124 H   0  0  0  0  0  0  0  0  0  0  0  0  # atno 10765 bound_to 10752
  139.8812  134.9364  156.5645 H   0  0  0  0  0  0  0  0  0  0  0  0  # atno 11005 bound_to 11000
  146.1699  140.6661  142.9238 LP  0  0  0  0  0  0  0  0  0  0  0  0  # atno 17320 bound_to 7965
  144.7383  140.4872  143.6887 LP  0  0  0  0  0  0  0  0  0  0  0  0  # atno 17321 bound_to 7965
  140.7647  143.5723  150.8982 LP  0  0  0  0  0  0  0  0  0  0  0  0  # atno 17342 bound_to 10162
  139.9394  143.6400  152.3057 LP  0  0  0  0  0  0  0  0  0  0  0  0  # atno 17343 bound_to 10162
  156.5429  130.8308  151.3275 LP  0  0  0  0  0  0  0  0  0  0  0  0  # atno 17370 bound_to 10713
  157.7384  130.9814  150.2253 LP  0  0  0  0  0  0  0  0  0  0  0  0  # atno 17371 bound_to 10713
  140.8144  133.8403  155.8839 LP  0  0  0  0  0  0  0  0  0  0  0  0  # atno 17394 bound_to 11000
  140.9476  134.1820  157.4752 LP  0  0  0  0  0  0  0  0  0  0  0  0  # atno 17395 bound_to 11000

$$$$
