AV-unprocessed.smi:2514|AV-procd|sdf|9893|dock10
  -GOLD-   2272013533D 1   1.00000     0.00000
 Structure written by MMmdl.
 25 26  0  0  0  0  0  0  0  0  2 V2000
  153.0135  138.6442  154.7719 C   0  0  0  0  0  0  0  0  0  0  0  0
  151.6256  137.9948  154.8264 C   0  0  2  0  0  0  0  0  0  0  0  0
  151.5277  137.0089  153.8180 O   0  0  0  0  0  0  0  0  0  0  0  0
  150.5188  138.9858  154.5924 C   0  0  0  0  0  0  0  0  0  0  0  0
  149.2290  138.7894  154.1801 C   0  0  0  0  0  0  0  0  0  0  0  0
  148.7138  140.0666  154.1202 N   0  0  0  0  0  0  0  0  0  0  0  0
  147.3692  140.4543  153.8143 C   0  0  0  0  0  0  0  0  0  0  0  0
  146.9172  141.9028  153.9885 C   0  0  0  0  0  0  0  0  0  0  0  0
  145.6031  141.3863  154.3504 N   0  3  0  0  0  0  0  0  0  0  0  0
  146.2098  140.1243  154.7549 C   0  0  0  0  0  0  0  0  0  0  0  0
  149.6207  140.9894  154.5165 N   0  0  0  0  0  0  0  0  0  0  0  0
  150.7193  140.3542  154.7780 N   0  0  0  0  0  0  0  0  0  0  0  0
  153.1168  139.4105  155.5406 H   0  0  0  0  0  0  0  0  0  0  0  0
  153.1937  139.1162  153.8055 H   0  0  0  0  0  0  0  0  0  0  0  0
  153.7987  137.9052  154.9346 H   0  0  0  0  0  0  0  0  0  0  0  0
  151.4946  137.5032  155.7912 H   0  0  0  0  0  0  0  0  0  0  0  0
  150.8075  137.2345  153.2492 H   0  0  0  0  0  0  0  0  0  0  0  0
  148.6685  137.8993  153.9348 H   0  0  0  0  0  0  0  0  0  0  0  0
  147.1656  140.0992  152.8016 H   0  0  0  0  0  0  0  0  0  0  0  0
  147.4022  142.4148  154.8219 H   0  0  0  0  0  0  0  0  0  0  0  0
  146.9248  142.5006  153.0765 H   0  0  0  0  0  0  0  0  0  0  0  0
  145.1561  141.8888  155.1042 H   0  0  0  0  0  0  0  0  0  0  0  0
  145.6294  139.2432  154.4801 H   0  0  0  0  0  0  0  0  0  0  0  0
  146.4866  140.1228  155.8112 H   0  0  0  0  0  0  0  0  0  0  0  0
  145.0148  141.2702  153.5374 H   0  0  0  0  0  0  0  0  0  0  0  0
  1  2  1  0  0  0  0
  1 13  1  0  0  0  0
  1 14  1  0  0  0  0
  1 15  1  0  0  0  0
  2  3  1  0  0  0  0
  2  4  1  0  0  0  0
  2 16  1  0  0  0  0
  3 17  1  0  0  0  0
  4 12  1  0  0  0  0
  4  5  2  0  0  0  0
  5  6  1  0  0  0  0
  5 18  1  0  0  0  0
  6  7  1  0  0  0  0
  6 11  1  0  0  0  0
  7 10  1  0  0  0  0
  7  8  1  0  0  0  0
  7 19  1  0  0  0  0
  8  9  1  0  0  0  0
  8 20  1  0  0  0  0
  8 21  1  0  0  0  0
  9 10  1  0  0  0  0
  9 22  1  0  0  0  0
  9 25  1  0  0  0  0
 10 23  1  0  0  0  0
 10 24  1  0  0  0  0
 11 12  2  0  0  0  0
M  CHG  1   9   1
M  END
> <s_m_source_file>
AV-unprocessed.smi

> <i_m_source_file_index>
2514

> <i_lp_mmshare_version>
43012

> <i_f3d_flags>
0

> <s_epik_input>
W0NIM11bQ0BIXShbT0hdKWMxW2NIXW4obm4xKVtDSF0yW0NIMl1bTkhdW0NIMl0y

> <s_epik_cmdline>
J2VwaWtfcHl0aG9uJywgJy1waCcsICc3LjAnLCAnLXRuJywgJzgnLCAnLW1hJywgJzIwMCcsICctbWV0YWxfYmluZGluZycsICctaW1hZScsICc8aW5maWxlLm1hZT4nLCAnLW9tYWUnLCAnPG91dGZpbGUubWFlPic=

> <r_lp_tautomer_probability>
1

> <r_epik_Ionization_Penalty>
0.215039

> <r_epik_Ionization_Penalty_Charging>
0.215038

> <r_epik_Ionization_Penalty_Neutral>
9.39085e-07

> <r_epik_State_Penalty>
0.20523

> <r_epik_Charging_Adjusted_Penalty>
0.420268

> <i_epik_Tot_Q>
1

> <i_epik_Tot_abs_Q>
1

> <r_epik_Metal_State_Penalty>
0.205259

> <b_epik_Metal_Only>
0

> <s_lp_Force_Field>
OPLS_2005

> <r_lp_Energy>
12.5086

> <b_lp_Chiralities_Consistent>
1

> <s_lp_Variant>
AV-unprocessed.smi:2514-1

> <Gold.Version>
5.8.1

> <Gold.Id.Protein>
6NUR|6NUR_protein|mol2

> <Gold.PLP.Fitness>
39.3697

> <Gold.PLP.PLP>
-25.8148

> <Gold.PLP.part.hbond>
-5.0836

> <Gold.PLP.part.metal>
0.0000

> <Gold.PLP.part.buried>
-2.3327

> <Gold.PLP.part.nonpolar>
-19.3444

> <Gold.PLP.part.repulsive>
0.2132

> <Gold.PLP.ligand.clash>
0.0000

> <Gold.PLP.ligand.torsion>
0.7463

> <Gold.PLP.Chemscore.Hbond>
4.0229

> <Gold.PLP.Chemscore.CHOScore>
0.9004

> <Gold.PLP.Chemscore.Metal>
0.0000

> <Gold.Chemscore.Hbonds>
donor molecule, donor type, donor heavy atom, donor atom, acceptor molecule, acceptor atom, score
      L1  H     3    17       P1  7949  0.03
      L1  H     9    25       P1 10175  2.00
      P1  H  7989  7998       L1    12  0.95
      P1  H 10752 10763       L1     3  1.00
      L1  C     5    18       P1  7948  0.65

> <Gold.PLP.Chemscore.Internal.Correction>
0.2777

> <Gold.Rescore>
     Score         DG    S(hbond)    S(metal)    S(lipo)     H(rot)  DE(clash)    DE(int)     intcor
     13.45     -14.15       2.39        0.00      45.92       1.83       0.01       0.69       ----

> <Gold.Chemscore.Fitness>
13.4505

> <Gold.Chemscore.DG>
-14.1518

> <Gold.Chemscore.ZeroCoef>
-5.4800

> <Gold.Chemscore.Hbond>
2.3913

> <Gold.Chemscore.Metal>
0.0000

> <Gold.Chemscore.Lipo>
45.9222

> <Gold.Chemscore.Internal_Hbond>
0.0000

> <Gold.Chemscore.DEClash>
0.0089

> <Gold.Chemscore.DEInternal>
0.6924

> <Gold.Chemscore.Rot>
1.8312

> <Gold.Chemscore.Internal.Correction>
   9.000000E+99

> <Gold.Chemscore.Hbonds>
donor molecule, donor type, donor heavy atom, donor atom, acceptor molecule, acceptor atom, score
      L1  H     3    17       P1  7949  0.01
      L1  H     9    25       P1 10175  0.30
      P1  H  7989  7998       L1    12  0.13
      P1  H 10752 10763       L1     3  0.73

> <Gold.Chemscore.Hbond.Weighted>
-7.9868

> <Gold.Chemscore.Metal.Weighted>
-0.0000

> <Gold.Chemscore.Lipo.Weighted>
-5.3729

> <Gold.Chemscore.Internal_Hbond.Weighted>
0.0000

> <Gold.Chemscore.DEClash.Weighted>
0.0089

> <Gold.Chemscore.DEInternal.Weighted>
0.6924

> <Gold.Chemscore.Rot.Weighted>
4.6879

> <Gold.Chemscore.Internal.Correction.Weighted>
   9.000000E+99

> <Gold.Protein.RotatedTorsions>
[ 6907 6896 6895 6894 ] final -168.76 input  -60.11 | X-H torsion
[ 7974 7965 7964 7962 ] final  -69.95 input  175.53 | X-H torsion
[ 8008 7997 7996 7995 ] final  -88.73 input   59.86 | X-H torsion
[ 10167 10162 10161 10158 ] final   97.85 input  -65.29 | X-H torsion
[ 10718 10713 10712 10709 ] final -116.58 input   66.30 | X-H torsion
[ 10763 10752 10751 10750 ] final   18.42 input  -60.55 | X-H torsion
[ 11005 11000 10999 10996 ] final   94.79 input  -57.11 | X-H torsion

> <Gold.Protein.ActiveResidues>
 VAL166  LYS551  ARG553  GLY616  TRP617  ASP618  TYR619  PRO620  LYS621  CYS622 
 ASP623  PHE694  ASN695  SER759  ASP760  ASP761  ALA762  ILE779  LEU786  VAL792 
 PHE793  MET794  SER795  GLU796  ALA797  LYS798  CYS799  TRP800  GLU811  SER814 

> <Gold.Protein.RotatedAtoms>
  151.4807  133.3547  159.2837 H   0  0  0  0  0  0  0  0  0  0  0  0  # atno 6907 bound_to 6896
  150.8899  134.8303  159.7297 H   0  0  0  0  0  0  0  0  0  0  0  0  # atno 6908 bound_to 6896
  152.4816  134.4715  159.9689 H   0  0  0  0  0  0  0  0  0  0  0  0  # atno 6909 bound_to 6896
  145.6973  140.9130  143.0750 H   0  0  0  0  0  0  0  0  0  0  0  0  # atno 7974 bound_to 7965
  154.6782  140.0550  157.0238 H   0  0  0  0  0  0  0  0  0  0  0  0  # atno 8008 bound_to 7997
  155.0989  140.3227  155.4534 H   0  0  0  0  0  0  0  0  0  0  0  0  # atno 8009 bound_to 7997
  156.2684  140.2034  156.6116 H   0  0  0  0  0  0  0  0  0  0  0  0  # atno 8010 bound_to 7997
  139.7762  144.6905  151.0086 H   0  0  0  0  0  0  0  0  0  0  0  0  # atno 10167 bound_to 10162
  156.0974  130.6143  150.9055 H   0  0  0  0  0  0  0  0  0  0  0  0  # atno 10718 bound_to 10713
  153.1251  135.6728  153.9271 H   0  0  0  0  0  0  0  0  0  0  0  0  # atno 10763 bound_to 10752
  153.8775  135.3062  155.3445 H   0  0  0  0  0  0  0  0  0  0  0  0  # atno 10764 bound_to 10752
  154.7657  135.4965  153.9630 H   0  0  0  0  0  0  0  0  0  0  0  0  # atno 10765 bound_to 10752
  139.8795  134.8864  156.3915 H   0  0  0  0  0  0  0  0  0  0  0  0  # atno 11005 bound_to 11000
  144.6979  139.8900  143.7452 LP  0  0  0  0  0  0  0  0  0  0  0  0  # atno 17320 bound_to 7965
  146.0829  139.3817  143.0453 LP  0  0  0  0  0  0  0  0  0  0  0  0  # atno 17321 bound_to 7965
  140.7816  143.4533  151.0382 LP  0  0  0  0  0  0  0  0  0  0  0  0  # atno 17342 bound_to 10162
  139.8215  143.7813  152.3177 LP  0  0  0  0  0  0  0  0  0  0  0  0  # atno 17343 bound_to 10162
  157.6137  131.0934  150.8748 LP  0  0  0  0  0  0  0  0  0  0  0  0  # atno 17370 bound_to 10713
  156.8883  130.5204  149.5287 LP  0  0  0  0  0  0  0  0  0  0  0  0  # atno 17371 bound_to 10713
  140.9329  133.7566  156.0048 LP  0  0  0  0  0  0  0  0  0  0  0  0  # atno 17394 bound_to 11000
  140.8309  134.3179  157.5349 LP  0  0  0  0  0  0  0  0  0  0  0  0  # atno 17395 bound_to 11000

$$$$
