#       Name:                AV-unprocessed.smi:66
#       Creating user name   scv26
#       Creation time:       Thu Mar 26 16:51:40 2020


#       File generated by GOLD software.
#

@<TRIPOS>MOLECULE
AV-unprocessed.smi:66
    38    40     1
SMALL
NO_CHARGES


@<TRIPOS>ATOM
      1 ****        -2.8908  -0.7100  -1.2071 O.co2          1 S1                 0.0000
      2 ****        -1.7142  -0.8393  -1.6099 C.2            1 S1                 0.0000
      3 ****        -1.3028  -1.7507  -2.3623 O.co2          1 S1                -1.0000
      4 ****        -0.6993   0.2094  -1.1307 C.3            1 S1                 0.0000
      5 ****        -0.1227   1.0491  -2.2926 C.3            1 S1                 0.0000
      6 ****         1.3870   1.0452  -2.0518 C.3            1 S1                 0.0000
      7 ****         2.1261   1.1415  -3.2509 O.3            1 S1                 0.0000
      8 ****         1.6097  -0.2820  -1.3358 C.3            1 S1                 0.0000
      9 ****         0.4448  -0.4243  -0.4673 N.3            1 S1                 0.0000
     10 ****         0.5608  -0.2409   0.9300 C.ar           1 S1                 0.0000
     11 ****         1.7485   0.1268   1.4695 N.ar           1 S1                 0.0000
     12 ****         1.8234   0.2934   2.7965 C.ar           1 S1                 0.0000
     13 ****         0.8650   0.1455   3.7238 N.ar           1 S1                 0.0000
     14 ****        -0.3168  -0.2224   3.2120 C.ar           1 S1                 0.0000
     15 ****        -1.4816  -0.4525   3.9317 N.2            1 S1                 0.0000
     16 ****        -2.3383  -0.7889   2.9685 C.2            1 S1                 0.0000
     17 ****        -1.8535  -0.8012   1.7166 N.pl3          1 S1                 0.0000
     18 ****        -0.5225  -0.4300   1.8151 C.ar           1 S1                 0.0000
     19 ****        -2.3792  -1.0270   0.8820 H              1 S1                 0.0000
     20 ****        -1.1950   0.8893  -0.4359 H              1 S1                 0.0000
     21 ****        -0.3484   0.5963  -3.2602 H              1 S1                 0.0000
     22 ****        -0.5272   2.0615  -2.3088 H              1 S1                 0.0000
     23 ****         1.6578   1.8690  -1.3897 H              1 S1                 0.0000
     24 ****         1.8745   0.4238  -3.8123 H              1 S1                 0.0000
     25 ****         1.5915  -1.1091  -2.0474 H              1 S1                 0.0000
     26 ****         2.5789  -0.3220  -0.8389 H              1 S1                 0.0000
     27 ****         2.7916   0.5886   3.1728 H              1 S1                 0.0000
     28 ****        -3.3673  -1.0377   3.1824 H              1 S1                 0.0000
     29 ****        -3.5901  -1.3680  -1.4865 LP             1 S1                 0.0000
     30 ****        -3.1325   0.0513  -0.6055 LP             1 S1                 0.0000
     31 ****        -1.9356  -2.4523  -2.6901 LP             1 S1                 0.0000
     32 ****        -0.3413  -1.7775  -2.6357 LP             1 S1                 0.0000
     33 ****         3.1043   1.0874  -3.0506 LP             1 S1                 0.0000
     34 ****         1.9259   2.0107  -3.7028 LP             1 S1                 0.0000
     35 ****         0.2958  -1.4092  -0.3790 LP             1 S1                 0.0000
     36 ****         2.5507   0.2704   0.8901 LP             1 S1                 0.0000
     37 ****         1.0180   0.2951   4.7007 LP             1 S1                 0.0000
     38 ****        -1.6371  -0.3837   4.9172 LP             1 S1                 0.0000
@<TRIPOS>BOND
    1    1    2 ar    
    2    2    3 ar    
    3    2    4 1     
    4    4    9 1     
    5    4    5 1     
    6    4   20 1     
    7    5    6 1     
    8    5   21 1     
    9    5   22 1     
   10    6    7 1     
   11    6    8 1     
   12    6   23 1     
   13    7   24 1     
   14    8    9 1     
   15    8   25 1     
   16    8   26 1     
   17    9   10 1     
   18   10   18 ar    
   19   10   11 ar    
   20   11   12 ar    
   21   12   13 ar    
   22   12   27 1     
   23   13   14 ar    
   24   14   18 ar    
   25   14   15 1     
   26   15   16 2     
   27   16   17 1     
   28   16   28 1     
   29   17   19 1     
   30   17   18 1     
   31    1   29 1     
   32    1   30 1     
   33    3   31 1     
   34    3   32 1     
   35    7   33 1     
   36    7   34 1     
   37    9   35 1     
   38   11   36 1     
   39   13   37 1     
   40   15   38 1     
@<TRIPOS>SUBSTRUCTURE
      1 S1             1
@<TRIPOS>SET
LONE_PAIRS      STATIC     ATOMS    <user>   **** ""
10 29 30 31 32 33 34 35 36 37 38
DONOR_HYDROGENS      STATIC     ATOMS    <user>   **** ""
2 24 19
ATOM$BLUE        STATIC     ATOMS    COLORGROUP SYSTEM
10 29 30 31 32 33 34 35 36 37 38
ATOM$RED        STATIC     ATOMS    COLORGROUP SYSTEM
2 24 19
