AV-unprocessed.smi:73|AV-procd|sdf|762|dock6
  -GOLD-   2262017103D 1   1.00000     0.00000
 Structure written by MMmdl.
 35 36  0  0  0  0  0  0  0  0  2 V2000
  148.8622  139.7957  157.6565 C   0  0  0  0  0  0  0  0  0  0  0  0
  150.3091  139.3335  157.4215 C   0  0  0  0  0  0  0  0  0  0  0  0
  151.0472  140.0130  156.3370 N   0  0  0  0  0  0  0  0  0  0  0  0
  150.9102  141.4699  156.5146 C   0  0  0  0  0  0  0  0  0  0  0  0
  151.4462  141.9729  157.8181 C   0  0  0  0  0  0  0  0  0  0  0  0
  152.0910  141.2727  158.7547 N   0  0  0  0  0  0  0  0  0  0  0  0
  152.3758  142.1683  159.7614 N   0  0  0  0  0  0  0  0  0  0  0  0
  151.8830  143.3407  159.3549 C   0  0  0  0  0  0  0  0  0  0  0  0
  151.9325  144.6430  160.0779 C   0  0  0  0  0  0  0  0  0  0  0  0
  151.2868  143.2836  158.1358 O   0  0  0  0  0  0  0  0  0  0  0  0
  150.5808  139.6227  154.9863 C   0  0  1  0  0  0  0  0  0  0  0  0
  150.4786  138.0830  154.7868 C   0  0  0  0  0  0  0  0  0  0  0  0
  149.1037  137.7627  154.3738 N   0  3  0  0  0  0  0  0  0  0  0  0
  148.5570  138.9743  153.7660 C   0  0  0  0  0  0  0  0  0  0  0  0
  149.1639  140.1045  154.5908 C   0  0  2  0  0  0  0  0  0  0  0  0
  149.2076  141.2802  153.8078 O   0  0  0  0  0  0  0  0  0  0  0  0
  148.5377  140.2402  155.4721 H   0  0  0  0  0  0  0  0  0  0  0  0
  148.3256  139.0542  158.2490 H   0  0  0  0  0  0  0  0  0  0  0  0
  148.3259  139.9069  156.7136 H   0  0  0  0  0  0  0  0  0  0  0  0
  148.7913  140.7311  158.2054 H   0  0  0  0  0  0  0  0  0  0  0  0
  150.8768  139.3776  158.3518 H   0  0  0  0  0  0  0  0  0  0  0  0
  150.2259  138.2696  157.2003 H   0  0  0  0  0  0  0  0  0  0  0  0
  151.4377  142.0227  155.7403 H   0  0  0  0  0  0  0  0  0  0  0  0
  149.8623  141.7606  156.4250 H   0  0  0  0  0  0  0  0  0  0  0  0
  151.8603  144.4796  161.1534 H   0  0  0  0  0  0  0  0  0  0  0  0
  151.1058  145.2817  159.7655 H   0  0  0  0  0  0  0  0  0  0  0  0
  152.8716  145.1526  159.8618 H   0  0  0  0  0  0  0  0  0  0  0  0
  151.2903  139.9980  154.2461 H   0  0  0  0  0  0  0  0  0  0  0  0
  151.1723  137.7574  154.0109 H   0  0  0  0  0  0  0  0  0  0  0  0
  150.6903  137.5070  155.6877 H   0  0  0  0  0  0  0  0  0  0  0  0
  149.0756  136.9779  153.7387 H   0  0  0  0  0  0  0  0  0  0  0  0
  148.8950  139.0193  152.7292 H   0  0  0  0  0  0  0  0  0  0  0  0
  147.4666  138.9790  153.7713 H   0  0  0  0  0  0  0  0  0  0  0  0
  149.3778  141.0379  152.9098 H   0  0  0  0  0  0  0  0  0  0  0  0
  148.5651  137.5549  155.2028 H   0  0  0  0  0  0  0  0  0  0  0  0
  1  2  1  0  0  0  0
  1 18  1  0  0  0  0
  1 19  1  0  0  0  0
  1 20  1  0  0  0  0
  2  3  1  0  0  0  0
  2 21  1  0  0  0  0
  2 22  1  0  0  0  0
  3  4  1  0  0  0  0
  3 11  1  0  0  0  0
  4  5  1  0  0  0  0
  4 23  1  0  0  0  0
  4 24  1  0  0  0  0
  5 10  1  0  0  0  0
  5  6  2  0  0  0  0
  6  7  1  0  0  0  0
  7  8  2  0  0  0  0
  8  9  1  0  0  0  0
  8 10  1  0  0  0  0
  9 25  1  0  0  0  0
  9 26  1  0  0  0  0
  9 27  1  0  0  0  0
 11 15  1  0  0  0  0
 11 12  1  0  0  0  0
 11 28  1  0  0  0  0
 12 13  1  0  0  0  0
 12 29  1  0  0  0  0
 12 30  1  0  0  0  0
 13 14  1  0  0  0  0
 13 31  1  0  0  0  0
 13 35  1  0  0  0  0
 14 15  1  0  0  0  0
 14 32  1  0  0  0  0
 14 33  1  0  0  0  0
 15 17  1  0  0  0  0
 15 16  1  0  0  0  0
 16 34  1  0  0  0  0
M  CHG  1  13   1
M  END
> <s_m_source_file>
AV-unprocessed.smi

> <i_m_source_file_index>
73

> <i_lp_mmshare_version>
43012

> <i_f3d_flags>
0

> <s_epik_input>
W09IXVtDQEBIXTFbQ0gyXVtOSF1bQ0gyXVtDQEhdMU4oW0NIMl1bQ0gzXSlbQ0gyXWMybm5jKG8yKVtDSDNd

> <s_epik_cmdline>
J2VwaWtfcHl0aG9uJywgJy1waCcsICc3LjAnLCAnLXRuJywgJzgnLCAnLW1hJywgJzIwMCcsICctbWV0YWxfYmluZGluZycsICctaW1hZScsICc8aW5maWxlLm1hZT4nLCAnLW9tYWUnLCAnPG91dGZpbGUubWFlPic=

> <r_lp_tautomer_probability>
1

> <r_epik_Ionization_Penalty>
0.00160433

> <r_epik_Ionization_Penalty_Charging>
0.000122314

> <r_epik_Ionization_Penalty_Neutral>
0.00148202

> <r_epik_State_Penalty>
-0

> <r_epik_Charging_Adjusted_Penalty>
0.000122314

> <i_epik_Tot_Q>
1

> <i_epik_Tot_abs_Q>
1

> <r_epik_Metal_State_Penalty>
-0

> <b_epik_Metal_Only>
0

> <s_lp_Force_Field>
OPLS_2005

> <r_lp_Energy>
41.961

> <b_lp_Chiralities_Consistent>
1

> <s_lp_Variant>
AV-unprocessed.smi:73-4

> <Gold.Version>
5.8.1

> <Gold.Id.Protein>
6NUR|6NUR_protein|mol2

> <Gold.PLP.Fitness>
37.6750

> <Gold.PLP.PLP>
-28.9872

> <Gold.PLP.part.hbond>
-4.0000

> <Gold.PLP.part.metal>
0.0000

> <Gold.PLP.part.buried>
-4.1286

> <Gold.PLP.part.nonpolar>
-20.9681

> <Gold.PLP.part.repulsive>
0.0944

> <Gold.PLP.ligand.clash>
0.0000

> <Gold.PLP.ligand.torsion>
0.1698

> <Gold.PLP.Chemscore.Hbond>
3.0000

> <Gold.PLP.Chemscore.CHOScore>
0.0000

> <Gold.PLP.Chemscore.Metal>
0.0000

> <Gold.Chemscore.Hbonds>
donor molecule, donor type, donor heavy atom, donor atom, acceptor molecule, acceptor atom, score
      L1  H    13    31       P1  7948  2.00
      L1  H    16    34       P1  7957  1.00

> <Gold.PLP.Chemscore.Internal.Correction>
0.0275

> <Gold.Rescore>
     Score         DG    S(hbond)    S(metal)    S(lipo)     H(rot)  DE(clash)    DE(int)     intcor
     10.93     -11.51       1.94        0.00      50.98       2.51       0.21       0.36       ----

> <Gold.Chemscore.Fitness>
10.9278

> <Gold.Chemscore.DG>
-11.5074

> <Gold.Chemscore.ZeroCoef>
-5.4800

> <Gold.Chemscore.Hbond>
1.9387

> <Gold.Chemscore.Metal>
0.0000

> <Gold.Chemscore.Lipo>
50.9837

> <Gold.Chemscore.Internal_Hbond>
0.0000

> <Gold.Chemscore.DEClash>
0.2147

> <Gold.Chemscore.DEInternal>
0.3649

> <Gold.Chemscore.Rot>
2.5051

> <Gold.Chemscore.Internal.Correction>
   9.000000E+99

> <Gold.Chemscore.Hbonds>
donor molecule, donor type, donor heavy atom, donor atom, acceptor molecule, acceptor atom, score
      L1  H    13    31       P1  7948  0.91
      L1  H    16    34       P1  7957  0.94

> <Gold.Chemscore.Hbond.Weighted>
-6.4754

> <Gold.Chemscore.Metal.Weighted>
-0.0000

> <Gold.Chemscore.Lipo.Weighted>
-5.9651

> <Gold.Chemscore.Internal_Hbond.Weighted>
0.0000

> <Gold.Chemscore.DEClash.Weighted>
0.2147

> <Gold.Chemscore.DEInternal.Weighted>
0.3649

> <Gold.Chemscore.Rot.Weighted>
6.4131

> <Gold.Chemscore.Internal.Correction.Weighted>
   9.000000E+99

> <Gold.Protein.RotatedTorsions>
[ 6907 6896 6895 6894 ] final  -95.39 input  -60.11 | X-H torsion
[ 7974 7965 7964 7962 ] final  -53.11 input  175.53 | X-H torsion
[ 8008 7997 7996 7995 ] final  178.14 input   59.86 | X-H torsion
[ 10167 10162 10161 10158 ] final  113.25 input  -65.29 | X-H torsion
[ 10718 10713 10712 10709 ] final   49.13 input   66.30 | X-H torsion
[ 10763 10752 10751 10750 ] final  158.57 input  -60.55 | X-H torsion
[ 11005 11000 10999 10996 ] final  161.66 input  -57.11 | X-H torsion

> <Gold.Protein.ActiveResidues>
 VAL166  LYS551  ARG553  GLY616  TRP617  ASP618  TYR619  PRO620  LYS621  CYS622 
 ASP623  PHE694  ASN695  SER759  ASP760  ASP761  ALA762  ILE779  LEU786  VAL792 
 PHE793  MET794  SER795  GLU796  ALA797  LYS798  CYS799  TRP800  GLU811  SER814 

> <Gold.Protein.RotatedAtoms>
  150.6963  134.1664  159.4195 H   0  0  0  0  0  0  0  0  0  0  0  0  # atno 6907 bound_to 6896
  151.9643  135.0106  160.0558 H   0  0  0  0  0  0  0  0  0  0  0  0  # atno 6908 bound_to 6896
  152.1898  133.4730  159.5039 H   0  0  0  0  0  0  0  0  0  0  0  0  # atno 6909 bound_to 6896
  145.9004  140.7998  142.9746 H   0  0  0  0  0  0  0  0  0  0  0  0  # atno 7974 bound_to 7965
  156.0580  140.1341  156.9974 H   0  0  0  0  0  0  0  0  0  0  0  0  # atno 8008 bound_to 7997
  154.4467  140.0997  156.6545 H   0  0  0  0  0  0  0  0  0  0  0  0  # atno 8009 bound_to 7997
  155.5422  140.3461  155.4451 H   0  0  0  0  0  0  0  0  0  0  0  0  # atno 8010 bound_to 7997
  139.6475  144.7127  151.2114 H   0  0  0  0  0  0  0  0  0  0  0  0  # atno 10167 bound_to 10162
  157.4756  130.8282  149.8035 H   0  0  0  0  0  0  0  0  0  0  0  0  # atno 10718 bound_to 10713
  154.2182  135.2783  155.2934 H   0  0  0  0  0  0  0  0  0  0  0  0  # atno 10763 bound_to 10752
  154.5724  135.5614  153.7110 H   0  0  0  0  0  0  0  0  0  0  0  0  # atno 10764 bound_to 10752
  153.0048  135.6324  154.2321 H   0  0  0  0  0  0  0  0  0  0  0  0  # atno 10765 bound_to 10752
  140.2180  134.8217  157.3191 H   0  0  0  0  0  0  0  0  0  0  0  0  # atno 11005 bound_to 11000
  144.6735  140.1668  143.7417 LP  0  0  0  0  0  0  0  0  0  0  0  0  # atno 17320 bound_to 7965
  145.8798  139.2316  143.1612 LP  0  0  0  0  0  0  0  0  0  0  0  0  # atno 17321 bound_to 7965
  140.7522  143.6206  150.8517 LP  0  0  0  0  0  0  0  0  0  0  0  0  # atno 17342 bound_to 10162
  139.9851  143.5909  152.2930 LP  0  0  0  0  0  0  0  0  0  0  0  0  # atno 17343 bound_to 10162
  156.0095  130.3840  150.2314 LP  0  0  0  0  0  0  0  0  0  0  0  0  # atno 17370 bound_to 10713
  157.0498  131.0059  151.3257 LP  0  0  0  0  0  0  0  0  0  0  0  0  # atno 17371 bound_to 10713
  140.1879  134.4408  155.7733 LP  0  0  0  0  0  0  0  0  0  0  0  0  # atno 17394 bound_to 11000
  141.2224  133.7013  156.7979 LP  0  0  0  0  0  0  0  0  0  0  0  0  # atno 17395 bound_to 11000

$$$$
