AV-unprocessed.smi:1240|AV-procd|sdf|5201|dock7
  -GOLD-   22720 4293D 1   1.00000     0.00000
 Structure written by MMmdl.
 48 50  0  0  0  0  0  0  0  0  2 V2000
  145.1255  134.6644  153.9685 O   0  0  0  0  0  0  0  0  0  0  0  0
  146.0827  135.0599  153.3039 C   0  0  0  0  0  0  0  0  0  0  0  0
  146.9445  135.9876  153.7391 N   0  0  0  0  0  0  0  0  0  0  0  0
  146.8475  136.6576  155.0322 C   0  0  0  0  0  0  0  0  0  0  0  0
  148.2230  136.7381  155.7411 C   0  0  2  0  0  0  0  0  0  0  0  0
  148.0588  136.8962  157.2891 C   0  0  1  0  0  0  0  0  0  0  0  0
  147.2181  135.8061  157.9452 C   0  0  0  0  0  0  0  0  0  0  0  0
  147.6782  135.8531  159.3924 C   0  0  0  0  0  0  0  0  0  0  0  0
  149.0793  136.0111  159.2714 O   0  0  0  0  0  0  0  0  0  0  0  0
  149.3622  136.7837  158.1091 C   0  0  0  0  0  0  0  0  0  0  0  0
  149.0342  137.8021  155.0569 N   0  3  0  0  0  0  0  0  0  0  0  0
  148.6133  139.2189  155.2143 C   0  0  0  0  0  0  0  0  0  0  0  0
  149.4828  140.1383  154.3393 C   0  0  0  0  0  0  0  0  0  0  0  0
  150.8516  139.9765  154.6849 O   0  0  0  0  0  0  0  0  0  0  0  0
  151.2978  138.6458  154.4627 C   0  0  0  0  0  0  0  0  0  0  0  0
  150.4876  137.6791  155.3420 C   0  0  0  0  0  0  0  0  0  0  0  0
  146.4181  134.6196  152.0789 N   0  0  0  0  0  0  0  0  0  0  0  0
  145.7502  133.6591  151.2727 C   0  0  0  0  0  0  0  0  0  0  0  0
  144.3407  133.6364  151.3070 C   0  0  0  0  0  0  0  0  0  0  0  0
  143.6586  132.6802  150.5282 C   0  0  0  0  0  0  0  0  0  0  0  0
  144.2862  131.7702  149.7541 N   0  0  0  0  0  0  0  0  0  0  0  0
  145.6358  131.7830  149.7355 C   0  0  0  0  0  0  0  0  0  0  0  0
  146.4137  132.6973  150.4738 C   0  0  0  0  0  0  0  0  0  0  0  0
  147.6998  136.2640  153.1292 H   0  0  0  0  0  0  0  0  0  0  0  0
  146.4168  137.6494  154.8929 H   0  0  0  0  0  0  0  0  0  0  0  0
  146.1295  136.1203  155.6522 H   0  0  0  0  0  0  0  0  0  0  0  0
  148.7239  135.7818  155.5810 H   0  0  0  0  0  0  0  0  0  0  0  0
  147.5725  137.8451  157.5199 H   0  0  0  0  0  0  0  0  0  0  0  0
  146.1450  135.9740  157.8469 H   0  0  0  0  0  0  0  0  0  0  0  0
  147.4528  134.8289  157.5204 H   0  0  0  0  0  0  0  0  0  0  0  0
  147.2548  136.7154  159.9095 H   0  0  0  0  0  0  0  0  0  0  0  0
  147.4209  134.9520  159.9495 H   0  0  0  0  0  0  0  0  0  0  0  0
  150.1566  136.2878  157.5504 H   0  0  0  0  0  0  0  0  0  0  0  0
  149.7279  137.7643  158.4135 H   0  0  0  0  0  0  0  0  0  0  0  0
  147.5758  139.3544  154.9134 H   0  0  0  0  0  0  0  0  0  0  0  0
  148.7064  139.5215  156.2577 H   0  0  0  0  0  0  0  0  0  0  0  0
  149.3344  139.9238  153.2798 H   0  0  0  0  0  0  0  0  0  0  0  0
  149.2010  141.1799  154.4946 H   0  0  0  0  0  0  0  0  0  0  0  0
  151.2035  138.3863  153.4069 H   0  0  0  0  0  0  0  0  0  0  0  0
  152.3568  138.5830  154.7133 H   0  0  0  0  0  0  0  0  0  0  0  0
  150.6715  137.8933  156.3960 H   0  0  0  0  0  0  0  0  0  0  0  0
  150.8318  136.6611  155.1631 H   0  0  0  0  0  0  0  0  0  0  0  0
  147.2830  134.9742  151.6983 H   0  0  0  0  0  0  0  0  0  0  0  0
  143.7867  134.3398  151.9113 H   0  0  0  0  0  0  0  0  0  0  0  0
  142.5792  132.6450  150.5291 H   0  0  0  0  0  0  0  0  0  0  0  0
  146.1126  131.0366  149.1176 H   0  0  0  0  0  0  0  0  0  0  0  0
  147.4897  132.6336  150.4229 H   0  0  0  0  0  0  0  0  0  0  0  0
  148.9268  137.6115  154.0708 H   0  0  0  0  0  0  0  0  0  0  0  0
  1  2  2  0  0  0  0
  2  3  1  0  0  0  0
  2 17  1  0  0  0  0
  3  4  1  0  0  0  0
  3 24  1  0  0  0  0
  4  5  1  0  0  0  0
  4 25  1  0  0  0  0
  4 26  1  0  0  0  0
  5  6  1  0  0  0  0
  5 11  1  0  0  0  0
  5 27  1  0  0  0  0
  6 10  1  0  0  0  0
  6  7  1  0  0  0  0
  6 28  1  0  0  0  0
  7  8  1  0  0  0  0
  7 29  1  0  0  0  0
  7 30  1  0  0  0  0
  8  9  1  0  0  0  0
  8 31  1  0  0  0  0
  8 32  1  0  0  0  0
  9 10  1  0  0  0  0
 10 33  1  0  0  0  0
 10 34  1  0  0  0  0
 11 16  1  0  0  0  0
 11 12  1  0  0  0  0
 11 48  1  0  0  0  0
 12 13  1  0  0  0  0
 12 35  1  0  0  0  0
 12 36  1  0  0  0  0
 13 14  1  0  0  0  0
 13 37  1  0  0  0  0
 13 38  1  0  0  0  0
 14 15  1  0  0  0  0
 15 16  1  0  0  0  0
 15 39  1  0  0  0  0
 15 40  1  0  0  0  0
 16 41  1  0  0  0  0
 16 42  1  0  0  0  0
 17 18  1  0  0  0  0
 17 43  1  0  0  0  0
 18 23  1  0  0  0  0
 18 19  2  0  0  0  0
 19 20  1  0  0  0  0
 19 44  1  0  0  0  0
 20 21  2  0  0  0  0
 20 45  1  0  0  0  0
 21 22  1  0  0  0  0
 22 23  2  0  0  0  0
 22 46  1  0  0  0  0
 23 47  1  0  0  0  0
M  CHG  1  11   1
M  END
> <s_m_source_file>
AV-unprocessed.smi

> <i_m_source_file_index>
1240

> <i_lp_mmshare_version>
43012

> <i_f3d_flags>
0

> <s_epik_input>
W2NIXTFbY0hdbltjSF1bY0hdYzFbTkhdQyg9TylbTkhdW0NIMl1bQ0BIXShbQ0BASF0yW0NIMl1bQ0gyXU9bQ0gyXTIpTjNbQ0gyXVtDSDJdT1tDSDJdW0NIMl0z

> <s_epik_cmdline>
J2VwaWtfcHl0aG9uJywgJy1waCcsICc3LjAnLCAnLXRuJywgJzgnLCAnLW1hJywgJzIwMCcsICctbWV0YWxfYmluZGluZycsICctaW1hZScsICc8aW5maWxlLm1hZT4nLCAnLW9tYWUnLCAnPG91dGZpbGUubWFlPic=

> <r_epik_Ionization_Penalty>
1.08433

> <r_epik_Ionization_Penalty_Charging>
0.98326

> <r_epik_Ionization_Penalty_Neutral>
0.10107

> <r_epik_State_Penalty>
1.11265

> <r_epik_Charging_Adjusted_Penalty>
2.09591

> <i_epik_Tot_Q>
1

> <i_epik_Tot_abs_Q>
1

> <r_epik_Metal_State_Penalty>
1.10731

> <b_epik_Metal_Only>
0

> <s_lp_Force_Field>
OPLS_2005

> <r_lp_Energy>
52.9252

> <b_lp_Chiralities_Consistent>
1

> <s_lp_Variant>
AV-unprocessed.smi:1240-7

> <Gold.Version>
5.8.1

> <Gold.Id.Protein>
6NUR|6NUR_protein|mol2

> <Gold.PLP.Fitness>
45.8943

> <Gold.PLP.PLP>
-31.6724

> <Gold.PLP.part.hbond>
-5.0000

> <Gold.PLP.part.metal>
0.0000

> <Gold.PLP.part.buried>
-4.1069

> <Gold.PLP.part.nonpolar>
-21.9713

> <Gold.PLP.part.repulsive>
0.3593

> <Gold.PLP.ligand.clash>
0.0000

> <Gold.PLP.ligand.torsion>
0.7283

> <Gold.PLP.Chemscore.Hbond>
4.1893

> <Gold.PLP.Chemscore.CHOScore>
0.9995

> <Gold.PLP.Chemscore.Metal>
0.0000

> <Gold.Chemscore.Hbonds>
donor molecule, donor type, donor heavy atom, donor atom, acceptor molecule, acceptor atom, score
      L1  H     3    24       P1  7948  1.00
      L1  H    17    43       P1  7948  0.96
      P1  H  6896  6909       L1     9  0.44
      P1  H  7989  7998       L1    14  1.00
      P1  H 10785 10796       L1    21  0.36
      L1  C    20    45       P1 10186  0.87

> <Gold.PLP.Chemscore.Internal.Correction>
0.1122

> <Gold.Rescore>
     Score         DG    S(hbond)    S(metal)    S(lipo)     H(rot)  DE(clash)    DE(int)     intcor
     20.61     -23.29       3.78        0.00      81.62       1.70       0.72       1.96       ----

> <Gold.Chemscore.Fitness>
20.6121

> <Gold.Chemscore.DG>
-23.2895

> <Gold.Chemscore.ZeroCoef>
-5.4800

> <Gold.Chemscore.Hbond>
3.7776

> <Gold.Chemscore.Metal>
0.0000

> <Gold.Chemscore.Lipo>
81.6218

> <Gold.Chemscore.Internal_Hbond>
0.0000

> <Gold.Chemscore.DEClash>
0.7220

> <Gold.Chemscore.DEInternal>
1.9555

> <Gold.Chemscore.Rot>
1.7021

> <Gold.Chemscore.Internal.Correction>
   9.000000E+99

> <Gold.Chemscore.Hbonds>
donor molecule, donor type, donor heavy atom, donor atom, acceptor molecule, acceptor atom, score
      L1  H     3    24       P1  7948  1.00
      L1  H    17    43       P1  7948  0.74
      P1  H  6896  6909       L1     9  0.30
      P1  H  7989  7998       L1    14  0.16
      P1  H 10785 10796       L1    21  0.35

> <Gold.Chemscore.Hbond.Weighted>
-12.6173

> <Gold.Chemscore.Metal.Weighted>
-0.0000

> <Gold.Chemscore.Lipo.Weighted>
-9.5498

> <Gold.Chemscore.Internal_Hbond.Weighted>
0.0000

> <Gold.Chemscore.DEClash.Weighted>
0.7220

> <Gold.Chemscore.DEInternal.Weighted>
1.9555

> <Gold.Chemscore.Rot.Weighted>
4.3575

> <Gold.Chemscore.Internal.Correction.Weighted>
   9.000000E+99

> <Gold.Protein.RotatedTorsions>
[ 6907 6896 6895 6894 ] final   37.83 input  -60.11 | X-H torsion
[ 7974 7965 7964 7962 ] final  126.61 input  175.53 | X-H torsion
[ 8008 7997 7996 7995 ] final -147.16 input   59.86 | X-H torsion
[ 10167 10162 10161 10158 ] final   98.08 input  -65.29 | X-H torsion
[ 10718 10713 10712 10709 ] final -105.13 input   66.30 | X-H torsion
[ 10763 10752 10751 10750 ] final -136.52 input  -60.55 | X-H torsion
[ 11005 11000 10999 10996 ] final  -98.07 input  -57.11 | X-H torsion

> <Gold.Protein.ActiveResidues>
 VAL166  LYS551  ARG553  GLY616  TRP617  ASP618  TYR619  PRO620  LYS621  CYS622 
 ASP623  PHE694  ASN695  SER759  ASP760  ASP761  ALA762  ILE779  LEU786  VAL792 
 PHE793  MET794  SER795  GLU796  ALA797  LYS798  CYS799  TRP800  GLU811  SER814 

> <Gold.Protein.RotatedAtoms>
  152.1484  134.9008  160.0549 H   0  0  0  0  0  0  0  0  0  0  0  0  # atno 6907 bound_to 6896
  152.0049  133.3834  159.4205 H   0  0  0  0  0  0  0  0  0  0  0  0  # atno 6908 bound_to 6896
  150.6873  134.3715  159.5038 H   0  0  0  0  0  0  0  0  0  0  0  0  # atno 6909 bound_to 6896
  145.0597  139.3815  143.5012 H   0  0  0  0  0  0  0  0  0  0  0  0  # atno 7974 bound_to 7965
  155.5711  140.0634  157.2806 H   0  0  0  0  0  0  0  0  0  0  0  0  # atno 8008 bound_to 7997
  154.4361  140.1869  156.0926 H   0  0  0  0  0  0  0  0  0  0  0  0  # atno 8009 bound_to 7997
  156.0376  140.3299  155.7211 H   0  0  0  0  0  0  0  0  0  0  0  0  # atno 8010 bound_to 7997
  139.7742  144.6912  151.0113 H   0  0  0  0  0  0  0  0  0  0  0  0  # atno 10167 bound_to 10162
  156.0333  130.5549  150.7496 H   0  0  0  0  0  0  0  0  0  0  0  0  # atno 10718 bound_to 10713
  154.8682  135.3670  154.5074 H   0  0  0  0  0  0  0  0  0  0  0  0  # atno 10763 bound_to 10752
  153.5711  135.7020  153.5509 H   0  0  0  0  0  0  0  0  0  0  0  0  # atno 10764 bound_to 10752
  153.3541  135.4064  155.1631 H   0  0  0  0  0  0  0  0  0  0  0  0  # atno 10765 bound_to 10752
  141.1357  133.8218  157.0791 H   0  0  0  0  0  0  0  0  0  0  0  0  # atno 11005 bound_to 11000
  146.3523  140.0290  142.8652 LP  0  0  0  0  0  0  0  0  0  0  0  0  # atno 17320 bound_to 7965
  145.1423  140.9578  143.4481 LP  0  0  0  0  0  0  0  0  0  0  0  0  # atno 17321 bound_to 7965
  140.7815  143.4555  151.0352 LP  0  0  0  0  0  0  0  0  0  0  0  0  # atno 17342 bound_to 10162
  139.8237  143.7784  152.3178 LP  0  0  0  0  0  0  0  0  0  0  0  0  # atno 17343 bound_to 10162
  157.5043  131.0921  151.0276 LP  0  0  0  0  0  0  0  0  0  0  0  0  # atno 17370 bound_to 10713
  157.0648  130.5840  149.5392 LP  0  0  0  0  0  0  0  0  0  0  0  0  # atno 17371 bound_to 10713
  140.0463  134.9829  157.1055 LP  0  0  0  0  0  0  0  0  0  0  0  0  # atno 17394 bound_to 11000
  140.4058  134.2034  155.7163 LP  0  0  0  0  0  0  0  0  0  0  0  0  # atno 17395 bound_to 11000

$$$$
