AV-unprocessed.smi:484|AV-procd|sdf|2687|dock2
  -GOLD-   2262023113D 1   1.00000     0.00000
 Structure written by MMmdl.
 46 48  0  0  0  0  0  0  0  0  1 V2000
  151.8069  144.5187  160.0574 C   0  0  0  0  0  0  0  0  0  0  0  0
  152.5102  143.1570  160.0610 C   0  0  0  0  0  0  0  0  0  0  0  0
  152.1591  142.3272  158.8406 C   0  0  0  0  0  0  0  0  0  0  0  0
  151.2613  142.8280  157.8771 C   0  0  0  0  0  0  0  0  0  0  0  0
  150.9318  142.0536  156.7485 C   0  0  0  0  0  0  0  0  0  0  0  0
  151.4909  140.7730  156.5623 C   0  0  0  0  0  0  0  0  0  0  0  0
  151.1135  140.0857  155.4291 O   0  0  0  0  0  0  0  0  0  0  0  0
  151.5855  138.7549  155.2588 C   0  0  0  0  0  0  0  0  0  0  0  0
  150.4695  137.8742  154.6747 C   0  0  2  0  0  0  0  0  0  0  0  0
  149.8434  138.5637  153.6114 O   0  0  0  0  0  0  0  0  0  0  0  0
  149.4464  137.3949  155.7250 C   0  0  0  0  0  0  0  0  0  0  0  0
  149.8502  136.1557  156.3752 N   0  0  0  0  0  0  0  0  0  0  0  0
  150.0553  135.9313  157.6975 C   0  0  0  0  0  0  0  0  0  0  0  0
  149.8687  137.0022  158.7284 C   0  0  0  0  0  0  0  0  0  0  0  0
  150.1504  136.5533  160.0366 O   0  0  0  0  0  0  0  0  0  0  0  0
  150.4276  134.6937  158.0257 N   0  0  0  0  0  0  0  0  0  0  0  0
  150.4630  134.0530  156.8026 C   0  0  0  0  0  0  0  0  0  0  0  0
  150.7867  132.7167  156.4752 C   0  0  0  0  0  0  0  0  0  0  0  0
  150.7519  132.2818  155.1341 C   0  0  0  0  0  0  0  0  0  0  0  0
  150.3936  133.1746  154.1032 C   0  0  0  0  0  0  0  0  0  0  0  0
  150.0677  134.5102  154.4076 C   0  0  0  0  0  0  0  0  0  0  0  0
  150.1043  134.9397  155.7480 C   0  0  0  0  0  0  0  0  0  0  0  0
  152.3936  140.2742  157.5353 C   0  0  0  0  0  0  0  0  0  0  0  0
  152.7230  141.0477  158.6654 C   0  0  0  0  0  0  0  0  0  0  0  0
  152.0732  145.0959  160.9430 H   0  0  0  0  0  0  0  0  0  0  0  0
  150.7228  144.4015  160.0498 H   0  0  0  0  0  0  0  0  0  0  0  0
  152.0873  145.1045  159.1813 H   0  0  0  0  0  0  0  0  0  0  0  0
  153.5909  143.2981  160.0993 H   0  0  0  0  0  0  0  0  0  0  0  0
  152.2413  142.6049  160.9623 H   0  0  0  0  0  0  0  0  0  0  0  0
  150.8209  143.8066  158.0017 H   0  0  0  0  0  0  0  0  0  0  0  0
  150.2416  142.4474  156.0169 H   0  0  0  0  0  0  0  0  0  0  0  0
  152.4652  138.7295  154.6132 H   0  0  0  0  0  0  0  0  0  0  0  0
  151.8752  138.3527  156.2310 H   0  0  0  0  0  0  0  0  0  0  0  0
  150.9439  137.0023  154.2242 H   0  0  0  0  0  0  0  0  0  0  0  0
  149.4158  137.9301  153.0555 H   0  0  0  0  0  0  0  0  0  0  0  0
  149.2978  138.1620  156.4849 H   0  0  0  0  0  0  0  0  0  0  0  0
  148.4707  137.2372  155.2647 H   0  0  0  0  0  0  0  0  0  0  0  0
  150.5267  137.8414  158.4998 H   0  0  0  0  0  0  0  0  0  0  0  0
  148.8491  137.3843  158.6879 H   0  0  0  0  0  0  0  0  0  0  0  0
  150.9252  136.0134  160.0078 H   0  0  0  0  0  0  0  0  0  0  0  0
  151.0625  132.0256  157.2578 H   0  0  0  0  0  0  0  0  0  0  0  0
  151.0014  131.2582  154.8953 H   0  0  0  0  0  0  0  0  0  0  0  0
  150.3693  132.8335  153.0788 H   0  0  0  0  0  0  0  0  0  0  0  0
  149.7948  135.1968  153.6203 H   0  0  0  0  0  0  0  0  0  0  0  0
  152.8469  139.2994  157.4394 H   0  0  0  0  0  0  0  0  0  0  0  0
  153.4108  140.6536  159.3992 H   0  0  0  0  0  0  0  0  0  0  0  0
  1  2  1  0  0  0  0
  1 25  1  0  0  0  0
  1 26  1  0  0  0  0
  1 27  1  0  0  0  0
  2  3  1  0  0  0  0
  2 28  1  0  0  0  0
  2 29  1  0  0  0  0
  3 24  1  0  0  0  0
  3  4  2  0  0  0  0
  4  5  1  0  0  0  0
  4 30  1  0  0  0  0
  5  6  2  0  0  0  0
  5 31  1  0  0  0  0
  6  7  1  0  0  0  0
  6 23  1  0  0  0  0
  7  8  1  0  0  0  0
  8  9  1  0  0  0  0
  8 32  1  0  0  0  0
  8 33  1  0  0  0  0
  9 10  1  0  0  0  0
  9 11  1  0  0  0  0
  9 34  1  0  0  0  0
 10 35  1  0  0  0  0
 11 12  1  0  0  0  0
 11 36  1  0  0  0  0
 11 37  1  0  0  0  0
 12 22  1  0  0  0  0
 12 13  1  0  0  0  0
 13 14  1  0  0  0  0
 13 16  2  0  0  0  0
 14 15  1  0  0  0  0
 14 38  1  0  0  0  0
 14 39  1  0  0  0  0
 15 40  1  0  0  0  0
 16 17  1  0  0  0  0
 17 22  2  0  0  0  0
 17 18  1  0  0  0  0
 18 19  2  0  0  0  0
 18 41  1  0  0  0  0
 19 20  1  0  0  0  0
 19 42  1  0  0  0  0
 20 21  2  0  0  0  0
 20 43  1  0  0  0  0
 21 22  1  0  0  0  0
 21 44  1  0  0  0  0
 23 24  2  0  0  0  0
 23 45  1  0  0  0  0
 24 46  1  0  0  0  0
M  END
> <s_m_source_file>
AV-unprocessed.smi

> <i_m_source_file_index>
484

> <i_lp_mmshare_version>
43012

> <i_f3d_flags>
0

> <s_epik_input>
W0NIM11bQ0gyXWMxW2NIXVtjSF1jKFtjSF1bY0hdMSlPW0NIMl1bQ0BIXShbT0hdKVtDSDJdbihjKG4yKVtDSDJdW09IXSljKGMyMylbY0hdW2NIXVtjSF1bY0hdMw==

> <s_epik_cmdline>
J2VwaWtfcHl0aG9uJywgJy1waCcsICc3LjAnLCAnLXRuJywgJzgnLCAnLW1hJywgJzIwMCcsICctbWV0YWxfYmluZGluZycsICctaW1hZScsICc8aW5maWxlLm1hZT4nLCAnLW9tYWUnLCAnPG91dGZpbGUubWFlPic=

> <r_lp_tautomer_probability>
1

> <r_epik_Ionization_Penalty>
0.0555463

> <r_epik_Ionization_Penalty_Charging>
0

> <r_epik_Ionization_Penalty_Neutral>
0.0555463

> <r_epik_State_Penalty>
0.0477854

> <r_epik_Charging_Adjusted_Penalty>
0.0477854

> <i_epik_Tot_Q>
0

> <i_epik_Tot_abs_Q>
0

> <r_epik_Metal_State_Penalty>
4.97632e-05

> <b_epik_Metal_Only>
0

> <s_lp_Force_Field>
OPLS_2005

> <r_lp_Energy>
15.7427

> <b_lp_Chiralities_Consistent>
1

> <s_lp_Variant>
AV-unprocessed.smi:484-1

> <Gold.Version>
5.8.1

> <Gold.Id.Protein>
6NUR|6NUR_protein|mol2

> <Gold.PLP.Fitness>
52.9978

> <Gold.PLP.PLP>
-44.4024

> <Gold.PLP.part.hbond>
-5.0000

> <Gold.PLP.part.metal>
0.0000

> <Gold.PLP.part.buried>
-6.9080

> <Gold.PLP.part.nonpolar>
-32.9257

> <Gold.PLP.part.repulsive>
0.0300

> <Gold.PLP.ligand.clash>
0.0000

> <Gold.PLP.ligand.torsion>
0.8152

> <Gold.PLP.Chemscore.Hbond>
3.2974

> <Gold.PLP.Chemscore.CHOScore>
0.0000

> <Gold.PLP.Chemscore.Metal>
0.0000

> <Gold.Chemscore.Hbonds>
donor molecule, donor type, donor heavy atom, donor atom, acceptor molecule, acceptor atom, score
      L1  H    10    35       P1  7948  0.84
      P1  H  6896  6907       L1    16  0.50
      P1  H  7989  7998       L1     7  0.68

> <Gold.PLP.Chemscore.Internal.Correction>
0.3336

> <Gold.Rescore>
     Score         DG    S(hbond)    S(metal)    S(lipo)     H(rot)  DE(clash)    DE(int)     intcor
     19.86     -20.93       2.74        0.00     121.16       3.08       0.11       0.97       ----

> <Gold.Chemscore.Fitness>
19.8562

> <Gold.Chemscore.DG>
-20.9302

> <Gold.Chemscore.ZeroCoef>
-5.4800

> <Gold.Chemscore.Hbond>
2.7410

> <Gold.Chemscore.Metal>
0.0000

> <Gold.Chemscore.Lipo>
121.1593

> <Gold.Chemscore.Internal_Hbond>
0.0000

> <Gold.Chemscore.DEClash>
0.1078

> <Gold.Chemscore.DEInternal>
0.9662

> <Gold.Chemscore.Rot>
3.0783

> <Gold.Chemscore.Internal.Correction>
   9.000000E+99

> <Gold.Chemscore.Hbonds>
donor molecule, donor type, donor heavy atom, donor atom, acceptor molecule, acceptor atom, score
      L1  H    10    35       P1  7948  0.76
      P1  H  6896  6907       L1    16  0.41
      P1  H  7989  7998       L1     7  0.15

> <Gold.Chemscore.Hbond.Weighted>
-9.1551

> <Gold.Chemscore.Metal.Weighted>
-0.0000

> <Gold.Chemscore.Lipo.Weighted>
-14.1756

> <Gold.Chemscore.Internal_Hbond.Weighted>
0.0000

> <Gold.Chemscore.DEClash.Weighted>
0.1078

> <Gold.Chemscore.DEInternal.Weighted>
0.9662

> <Gold.Chemscore.Rot.Weighted>
7.8805

> <Gold.Chemscore.Internal.Correction.Weighted>
   9.000000E+99

> <Gold.Protein.RotatedTorsions>
[ 6907 6896 6895 6894 ] final  -74.51 input  -60.11 | X-H torsion
[ 7974 7965 7964 7962 ] final   85.48 input  175.53 | X-H torsion
[ 8008 7997 7996 7995 ] final  -41.75 input   59.86 | X-H torsion
[ 10167 10162 10161 10158 ] final  155.05 input  -65.29 | X-H torsion
[ 10718 10713 10712 10709 ] final -169.09 input   66.30 | X-H torsion
[ 10763 10752 10751 10750 ] final -152.89 input  -60.55 | X-H torsion
[ 11005 11000 10999 10996 ] final   95.08 input  -57.11 | X-H torsion

> <Gold.Protein.ActiveResidues>
 VAL166  LYS551  ARG553  GLY616  TRP617  ASP618  TYR619  PRO620  LYS621  CYS622 
 ASP623  PHE694  ASN695  SER759  ASP760  ASP761  ALA762  ILE779  LEU786  VAL792 
 PHE793  MET794  SER795  GLU796  ALA797  LYS798  CYS799  TRP800  GLU811  SER814 

> <Gold.Protein.RotatedAtoms>
  150.7091  134.4858  159.5491 H   0  0  0  0  0  0  0  0  0  0  0  0  # atno 6907 bound_to 6896
  152.2486  134.8153  160.0458 H   0  0  0  0  0  0  0  0  0  0  0  0  # atno 6908 bound_to 6896
  151.8908  133.3480  159.3834 H   0  0  0  0  0  0  0  0  0  0  0  0  # atno 6909 bound_to 6896
  145.5850  139.2330  143.2331 H   0  0  0  0  0  0  0  0  0  0  0  0  # atno 7974 bound_to 7965
  154.4002  140.1491  156.3243 H   0  0  0  0  0  0  0  0  0  0  0  0  # atno 8008 bound_to 7997
  155.8501  140.3458  155.5666 H   0  0  0  0  0  0  0  0  0  0  0  0  # atno 8009 bound_to 7997
  155.7993  140.0868  157.1956 H   0  0  0  0  0  0  0  0  0  0  0  0  # atno 8010 bound_to 7997
  139.4822  144.5133  151.7990 H   0  0  0  0  0  0  0  0  0  0  0  0  # atno 10167 bound_to 10162
  156.7065  130.9216  151.3085 H   0  0  0  0  0  0  0  0  0  0  0  0  # atno 10718 bound_to 10713
  154.7964  135.3225  154.7656 H   0  0  0  0  0  0  0  0  0  0  0  0  # atno 10763 bound_to 10752
  153.8334  135.6877  153.4816 H   0  0  0  0  0  0  0  0  0  0  0  0  # atno 10764 bound_to 10752
  153.1658  135.4643  154.9776 H   0  0  0  0  0  0  0  0  0  0  0  0  # atno 10765 bound_to 10752
  139.8792  134.8880  156.3958 H   0  0  0  0  0  0  0  0  0  0  0  0  # atno 11005 bound_to 11000
  146.1688  140.6676  142.9243 LP  0  0  0  0  0  0  0  0  0  0  0  0  # atno 17320 bound_to 7965
  144.7377  140.4854  143.6892 LP  0  0  0  0  0  0  0  0  0  0  0  0  # atno 17321 bound_to 7965
  140.4639  144.1683  150.5909 LP  0  0  0  0  0  0  0  0  0  0  0  0  # atno 17342 bound_to 10162
  140.4455  143.2508  151.9416 LP  0  0  0  0  0  0  0  0  0  0  0  0  # atno 17343 bound_to 10162
  157.6953  130.9275  150.0627 LP  0  0  0  0  0  0  0  0  0  0  0  0  # atno 17370 bound_to 10713
  156.1692  130.3646  149.9189 LP  0  0  0  0  0  0  0  0  0  0  0  0  # atno 17371 bound_to 10713
  140.9301  133.7585  156.0014 LP  0  0  0  0  0  0  0  0  0  0  0  0  # atno 17394 bound_to 11000
  140.8340  134.3144  157.5338 LP  0  0  0  0  0  0  0  0  0  0  0  0  # atno 17395 bound_to 11000

$$$$
