#       Name:                AV-unprocessed.smi:1809
#       Creating user name   scv26
#       Creation time:       Fri Mar 27 08:57:31 2020


#       File generated by GOLD software.
#

@<TRIPOS>MOLECULE
AV-unprocessed.smi:1809
    46    48     1
SMALL
NO_CHARGES


@<TRIPOS>ATOM
      1 ****        -7.0189   3.6082   0.9165 C.3            1 S1                 0.0000
      2 ****        -5.6819   2.9512   0.9678 C.2            1 S1                 0.0000
      3 ****        -5.5114   1.6366   0.7806 N.2            1 S1                 0.0000
      4 ****        -4.1783   1.2610   0.8695 N.2            1 S1                 0.0000
      5 ****        -3.3798   2.3075   1.1207 C.2            1 S1                 0.0000
      6 ****        -1.9700   2.2094   1.2601 N.am           1 S1                 0.0000
      7 ****        -1.1937   1.1188   1.1329 C.2            1 S1                 0.0000
      8 ****        -1.5966  -0.0135   0.8661 O.2            1 S1                 0.0000
      9 ****         0.0975   1.4197   1.3314 N.am           1 S1                 0.0000
     10 ****         1.2107   0.4818   1.2270 C.3            1 S1                 0.0000
     11 ****         1.9094   0.5905  -0.1446 C.3            1 S1                 0.0000
     12 ****         3.2106  -0.2435  -0.2258 C.3            1 S1                 0.0000
     13 ****         2.9106  -1.6551  -0.3734 N.3            1 S1                 0.0000
     14 ****         4.0354  -2.5430  -0.5572 C.3            1 S1                 0.0000
     15 ****         3.4088  -3.8452  -1.0841 C.3            1 S1                 0.0000
     16 ****         2.0394  -3.4109  -1.6515 C.3            1 S1                 0.0000
     17 ****         2.0872  -1.8865  -1.5286 C.3            1 S1                 0.0000
     18 ****         0.7504  -1.1462  -1.3959 C.3            1 S1                 0.0000
     19 ****         1.0225   0.2485  -1.2223 O.3            1 S1                 0.0000
     20 ****        -4.2015   3.8510   1.2751 S.3            1 S1                 0.0000
     21 ****        -7.8146   2.8625   0.9096 H              1 S1                 0.0000
     22 ****        -7.1000   4.2150   0.0146 H              1 S1                 0.0000
     23 ****        -7.1525   4.2521   1.7858 H              1 S1                 0.0000
     24 ****        -1.4954   3.0740   1.4733 H              1 S1                 0.0000
     25 ****         0.3332   2.3769   1.5484 H              1 S1                 0.0000
     26 ****         1.9203   0.7347   2.0150 H              1 S1                 0.0000
     27 ****         0.8899  -0.5404   1.4323 H              1 S1                 0.0000
     28 ****         2.1829   1.6367  -0.2866 H              1 S1                 0.0000
     29 ****         3.7977   0.0952  -1.0807 H              1 S1                 0.0000
     30 ****         3.8267  -0.0797   0.6589 H              1 S1                 0.0000
     31 ****         4.7207  -2.1340  -1.3017 H              1 S1                 0.0000
     32 ****         4.5900  -2.6882   0.3702 H              1 S1                 0.0000
     33 ****         4.0404  -4.3071  -1.8434 H              1 S1                 0.0000
     34 ****         3.2723  -4.5662  -0.2773 H              1 S1                 0.0000
     35 ****         1.8888  -3.7353  -2.6816 H              1 S1                 0.0000
     36 ****         1.2331  -3.8237  -1.0436 H              1 S1                 0.0000
     37 ****         2.6012  -1.4993  -2.4112 H              1 S1                 0.0000
     38 ****         0.1437  -1.2831  -2.2910 H              1 S1                 0.0000
     39 ****         0.1727  -1.5314  -0.5558 H              1 S1                 0.0000
     40 ****        -6.2591   0.9983   0.5976 LP             1 S1                 0.0000
     41 ****        -3.8527   0.3220   0.7593 LP             1 S1                 0.0000
     42 ****        -2.5732  -0.1765   0.7253 LP             1 S1                 0.0000
     43 ****        -0.9474  -0.7702   0.7902 LP             1 S1                 0.0000
     44 ****         2.4750  -1.8637   0.5022 LP             1 S1                 0.0000
     45 ****         1.4276   0.5887  -2.0709 LP             1 S1                 0.0000
     46 ****         0.1513   0.7118  -1.0597 LP             1 S1                 0.0000
@<TRIPOS>BOND
    1    1    2 1     
    2    1   21 1     
    3    1   22 1     
    4    1   23 1     
    5    2   20 1     
    6    2    3 2     
    7    3    4 1     
    8    4    5 2     
    9    5    6 1     
   10    5   20 1     
   11    6    7 am    
   12    6   24 1     
   13    7    8 2     
   14    7    9 am    
   15    9   10 1     
   16    9   25 1     
   17   10   11 1     
   18   10   26 1     
   19   10   27 1     
   20   11   19 1     
   21   11   12 1     
   22   11   28 1     
   23   12   13 1     
   24   12   29 1     
   25   12   30 1     
   26   13   17 1     
   27   13   14 1     
   28   14   15 1     
   29   14   31 1     
   30   14   32 1     
   31   15   16 1     
   32   15   33 1     
   33   15   34 1     
   34   16   17 1     
   35   16   35 1     
   36   16   36 1     
   37   17   18 1     
   38   17   37 1     
   39   18   19 1     
   40   18   38 1     
   41   18   39 1     
   42    3   40 1     
   43    4   41 1     
   44    8   42 1     
   45    8   43 1     
   46   13   44 1     
   47   19   45 1     
   48   19   46 1     
@<TRIPOS>SUBSTRUCTURE
      1 S1             1
@<TRIPOS>SET
LONE_PAIRS      STATIC     ATOMS    <user>   **** ""
7 40 41 42 43 44 45 46
DONOR_HYDROGENS      STATIC     ATOMS    <user>   **** ""
2 24 25
ATOM$BLUE        STATIC     ATOMS    COLORGROUP SYSTEM
7 40 41 42 43 44 45 46
ATOM$RED        STATIC     ATOMS    COLORGROUP SYSTEM
2 24 25
