AV-unprocessed.smi:1437|AV-procd|sdf|5864|dock7
  -GOLD-   22720 5533D 1   1.00000     0.00000
 Structure written by MMmdl.
 36 37  0  0  0  0  0  0  0  0  2 V2000
  153.7587  141.2588  159.9420 C   0  0  0  0  0  0  0  0  0  0  0  0
  152.8048  141.2005  158.7984 C   0  0  0  0  0  0  0  0  0  0  0  0
  151.8201  142.0434  158.3654 C   0  0  0  0  0  0  0  0  0  0  0  0
  151.3038  141.3726  157.2252 C   0  0  0  0  0  0  0  0  0  0  0  0
  150.2399  141.9312  156.4717 N   0  0  0  0  0  0  0  0  0  0  0  0
  149.6463  141.4101  155.3843 C   0  0  0  0  0  0  0  0  0  0  0  0
  149.9463  140.3395  154.8557 O   0  0  0  0  0  0  0  0  0  0  0  0
  148.6697  142.2097  154.9310 N   0  0  0  0  0  0  0  0  0  0  0  0
  147.8146  141.9268  153.7782 C   0  0  2  0  0  0  0  0  0  0  0  0
  146.5792  142.8494  153.7364 C   0  0  0  0  0  0  0  0  0  0  0  0
  145.5694  142.5119  154.8476 C   0  0  0  0  0  0  0  0  0  0  0  0
  145.1664  141.0850  154.7848 N   0  3  2  0  0  0  0  0  0  0  0  0
  144.1023  140.7567  155.7576 C   0  0  0  0  0  0  0  0  0  0  0  0
  146.3312  140.1719  154.8939 C   0  0  0  0  0  0  0  0  0  0  0  0
  147.3655  140.4545  153.7886 C   0  0  0  0  0  0  0  0  0  0  0  0
  151.9180  140.2247  156.9832 N   0  0  0  0  0  0  0  0  0  0  0  0
  152.8829  140.1081  157.9905 O   0  0  0  0  0  0  0  0  0  0  0  0
  153.8857  142.2839  160.2903 H   0  0  0  0  0  0  0  0  0  0  0  0
  154.7380  140.8775  159.6518 H   0  0  0  0  0  0  0  0  0  0  0  0
  153.3950  140.6600  160.7771 H   0  0  0  0  0  0  0  0  0  0  0  0
  151.5200  142.9861  158.7986 H   0  0  0  0  0  0  0  0  0  0  0  0
  149.8911  142.8190  156.8006 H   0  0  0  0  0  0  0  0  0  0  0  0
  148.4912  143.0677  155.4321 H   0  0  0  0  0  0  0  0  0  0  0  0
  148.4063  142.0915  152.8757 H   0  0  0  0  0  0  0  0  0  0  0  0
  146.8763  143.8965  153.8054 H   0  0  0  0  0  0  0  0  0  0  0  0
  146.0882  142.7418  152.7681 H   0  0  0  0  0  0  0  0  0  0  0  0
  145.9965  142.7305  155.8277 H   0  0  0  0  0  0  0  0  0  0  0  0
  144.6879  143.1451  154.7392 H   0  0  0  0  0  0  0  0  0  0  0  0
  144.4530  140.8913  156.7817 H   0  0  0  0  0  0  0  0  0  0  0  0
  143.7797  139.7216  155.6399 H   0  0  0  0  0  0  0  0  0  0  0  0
  143.2310  141.3948  155.6068 H   0  0  0  0  0  0  0  0  0  0  0  0
  146.7890  140.2788  155.8786 H   0  0  0  0  0  0  0  0  0  0  0  0
  145.9918  139.1384  154.8149 H   0  0  0  0  0  0  0  0  0  0  0  0
  146.9255  140.2096  152.8208 H   0  0  0  0  0  0  0  0  0  0  0  0
  148.2272  139.7956  153.9034 H   0  0  0  0  0  0  0  0  0  0  0  0
  144.7698  140.9388  153.8671 H   0  0  0  0  0  0  0  0  0  0  0  0
  1  2  1  0  0  0  0
  1 18  1  0  0  0  0
  1 19  1  0  0  0  0
  1 20  1  0  0  0  0
  2 17  1  0  0  0  0
  2  3  2  0  0  0  0
  3  4  1  0  0  0  0
  3 21  1  0  0  0  0
  4  5  1  0  0  0  0
  4 16  2  0  0  0  0
  5  6  1  0  0  0  0
  5 22  1  0  0  0  0
  6  7  2  0  0  0  0
  6  8  1  0  0  0  0
  8  9  1  0  0  0  0
  8 23  1  0  0  0  0
  9 15  1  0  0  0  0
  9 10  1  0  0  0  0
  9 24  1  0  0  0  0
 10 11  1  0  0  0  0
 10 25  1  0  0  0  0
 10 26  1  0  0  0  0
 11 12  1  0  0  0  0
 11 27  1  0  0  0  0
 11 28  1  0  0  0  0
 12 13  1  0  0  0  0
 12 14  1  0  0  0  0
 12 36  1  0  0  0  0
 13 29  1  0  0  0  0
 13 30  1  0  0  0  0
 13 31  1  0  0  0  0
 14 15  1  0  0  0  0
 14 32  1  0  0  0  0
 14 33  1  0  0  0  0
 15 34  1  0  0  0  0
 15 35  1  0  0  0  0
 16 17  1  0  0  0  0
M  CHG  1  12   1
M  END
> <s_m_source_file>
AV-unprocessed.smi

> <i_m_source_file_index>
1437

> <i_lp_mmshare_version>
43012

> <i_f3d_flags>
0

> <s_epik_input>
W0NIM11jMVtjSF1jKG5vMSlbTkhdQyg9TylbTkhdW0NIXTJbQ0gyXVtDSDJdTihbQ0gzXSlbQ0gyXVtDSDJdMg==

> <s_epik_cmdline>
J2VwaWtfcHl0aG9uJywgJy1waCcsICc3LjAnLCAnLXRuJywgJzgnLCAnLW1hJywgJzIwMCcsICctbWV0YWxfYmluZGluZycsICctaW1hZScsICc8aW5maWxlLm1hZT4nLCAnLW9tYWUnLCAnPG91dGZpbGUubWFlPic=

> <r_epik_Ionization_Penalty>
0.00408962

> <r_epik_Ionization_Penalty_Charging>
0.00405645

> <r_epik_Ionization_Penalty_Neutral>
3.31706e-05

> <r_epik_State_Penalty>
0.00290716

> <r_epik_Charging_Adjusted_Penalty>
0.00696361

> <i_epik_Tot_Q>
1

> <i_epik_Tot_abs_Q>
1

> <r_epik_Metal_State_Penalty>
0.0142111

> <b_epik_Metal_Only>
0

> <s_lp_Force_Field>
OPLS_2005

> <r_lp_Energy>
12.346

> <b_lp_Chiralities_Consistent>
1

> <s_lp_Variant>
AV-unprocessed.smi:1437-2

> <Gold.Version>
5.8.1

> <Gold.Id.Protein>
6NUR|6NUR_protein|mol2

> <Gold.PLP.Fitness>
41.3355

> <Gold.PLP.PLP>
-28.4463

> <Gold.PLP.part.hbond>
-4.6258

> <Gold.PLP.part.metal>
0.0000

> <Gold.PLP.part.buried>
-4.0844

> <Gold.PLP.part.nonpolar>
-18.6412

> <Gold.PLP.part.repulsive>
0.3625

> <Gold.PLP.ligand.clash>
0.0000

> <Gold.PLP.ligand.torsion>
0.2052

> <Gold.PLP.Chemscore.Hbond>
4.4319

> <Gold.PLP.Chemscore.CHOScore>
0.0000

> <Gold.PLP.Chemscore.Metal>
0.0000

> <Gold.Chemscore.Hbonds>
donor molecule, donor type, donor heavy atom, donor atom, acceptor molecule, acceptor atom, score
      L1  H     8    23       P1  8028  0.96
      L1  H    12    36       P1 10175  2.00
      P1  H  7989  7998       L1     7  0.51
      P1  H  7997  8008       L1    17  0.90

> <Gold.PLP.Chemscore.Internal.Correction>
0.0038

> <Gold.Rescore>
     Score         DG    S(hbond)    S(metal)    S(lipo)     H(rot)  DE(clash)    DE(int)     intcor
     16.54     -20.16       3.09        0.00      59.15       1.00       0.75       2.88       ----

> <Gold.Chemscore.Fitness>
16.5363

> <Gold.Chemscore.DG>
-20.1639

> <Gold.Chemscore.ZeroCoef>
-5.4800

> <Gold.Chemscore.Hbond>
3.0907

> <Gold.Chemscore.Metal>
0.0000

> <Gold.Chemscore.Lipo>
59.1532

> <Gold.Chemscore.Internal_Hbond>
0.0000

> <Gold.Chemscore.DEClash>
0.7506

> <Gold.Chemscore.DEInternal>
2.8769

> <Gold.Chemscore.Rot>
1.0000

> <Gold.Chemscore.Internal.Correction>
   9.000000E+99

> <Gold.Chemscore.Hbonds>
donor molecule, donor type, donor heavy atom, donor atom, acceptor molecule, acceptor atom, score
      L1  H     5    22       P1  8028  0.04
      L1  H     8    23       P1  8028  0.92
      L1  H    12    36       P1 10175  0.88
      P1  H  7989  7998       L1     7  0.19
      P1  H  7997  8008       L1    17  0.15

> <Gold.Chemscore.Hbond.Weighted>
-10.3230

> <Gold.Chemscore.Metal.Weighted>
-0.0000

> <Gold.Chemscore.Lipo.Weighted>
-6.9209

> <Gold.Chemscore.Internal_Hbond.Weighted>
0.0000

> <Gold.Chemscore.DEClash.Weighted>
0.7506

> <Gold.Chemscore.DEInternal.Weighted>
2.8769

> <Gold.Chemscore.Rot.Weighted>
2.5600

> <Gold.Chemscore.Internal.Correction.Weighted>
   9.000000E+99

> <Gold.Protein.RotatedTorsions>
[ 6907 6896 6895 6894 ] final  -26.50 input  -60.11 | X-H torsion
[ 7974 7965 7964 7962 ] final  163.64 input  175.53 | X-H torsion
[ 8008 7997 7996 7995 ] final  -72.40 input   59.86 | X-H torsion
[ 10167 10162 10161 10158 ] final   90.30 input  -65.29 | X-H torsion
[ 10718 10713 10712 10709 ] final -101.38 input   66.30 | X-H torsion
[ 10763 10752 10751 10750 ] final  -43.85 input  -60.55 | X-H torsion
[ 11005 11000 10999 10996 ] final -143.98 input  -57.11 | X-H torsion

> <Gold.Protein.ActiveResidues>
 VAL166  LYS551  ARG553  GLY616  TRP617  ASP618  TYR619  PRO620  LYS621  CYS622 
 ASP623  PHE694  ASN695  SER759  ASP760  ASP761  ALA762  ILE779  LEU786  VAL792 
 PHE793  MET794  SER795  GLU796  ALA797  LYS798  CYS799  TRP800  GLU811  SER814 

> <Gold.Protein.RotatedAtoms>
  151.1601  135.0269  159.8706 H   0  0  0  0  0  0  0  0  0  0  0  0  # atno 6907 bound_to 6896
  152.5451  134.1289  159.8440 H   0  0  0  0  0  0  0  0  0  0  0  0  # atno 6908 bound_to 6896
  151.1383  133.4943  159.2630 H   0  0  0  0  0  0  0  0  0  0  0  0  # atno 6909 bound_to 6896
  144.7580  139.8211  143.6343 H   0  0  0  0  0  0  0  0  0  0  0  0  # atno 7974 bound_to 7965
  154.5163  140.0798  156.8087 H   0  0  0  0  0  0  0  0  0  0  0  0  # atno 8008 bound_to 7997
  155.3673  140.3421  155.4224 H   0  0  0  0  0  0  0  0  0  0  0  0  # atno 8009 bound_to 7997
  156.1631  140.1595  156.8565 H   0  0  0  0  0  0  0  0  0  0  0  0  # atno 8010 bound_to 7997
  139.8487  144.6604  150.9195 H   0  0  0  0  0  0  0  0  0  0  0  0  # atno 10167 bound_to 10162
  156.0193  130.5371  150.6955 H   0  0  0  0  0  0  0  0  0  0  0  0  # atno 10718 bound_to 10713
  154.0024  135.6692  153.4760 H   0  0  0  0  0  0  0  0  0  0  0  0  # atno 10763 bound_to 10752
  153.0657  135.5002  154.8189 H   0  0  0  0  0  0  0  0  0  0  0  0  # atno 10764 bound_to 10752
  154.7045  135.3085  154.9255 H   0  0  0  0  0  0  0  0  0  0  0  0  # atno 10765 bound_to 10752
  140.8071  134.2789  157.4956 H   0  0  0  0  0  0  0  0  0  0  0  0  # atno 11005 bound_to 11000
  146.1613  139.4729  142.9986 LP  0  0  0  0  0  0  0  0  0  0  0  0  # atno 17320 bound_to 7965
  145.6712  141.0216  143.1656 LP  0  0  0  0  0  0  0  0  0  0  0  0  # atno 17321 bound_to 7965
  140.7790  143.3847  151.1415 LP  0  0  0  0  0  0  0  0  0  0  0  0  # atno 17342 bound_to 10162
  139.7487  143.8812  152.3070 LP  0  0  0  0  0  0  0  0  0  0  0  0  # atno 17343 bound_to 10162
  157.4627  131.0885  151.0728 LP  0  0  0  0  0  0  0  0  0  0  0  0  # atno 17370 bound_to 10713
  157.1212  130.6062  149.5505 LP  0  0  0  0  0  0  0  0  0  0  0  0  # atno 17371 bound_to 10713
  139.8717  134.9462  156.3931 LP  0  0  0  0  0  0  0  0  0  0  0  0  # atno 17394 bound_to 11000
  140.9236  133.7628  155.9937 LP  0  0  0  0  0  0  0  0  0  0  0  0  # atno 17395 bound_to 11000

$$$$
