AV-unprocessed.smi:2820|AV-procd|sdf|10855|dock9
  -GOLD-   2272015303D 1   1.00000     0.00000
 Structure written by MMmdl.
 30 31  0  0  0  0  0  0  0  0  2 V2000
  152.5384  143.5338  161.7128 C   0  0  0  0  0  0  0  0  0  0  0  0
  152.4339  144.1826  160.4162 N   0  0  0  0  0  0  0  0  0  0  0  0
  152.0243  143.4628  159.2857 C   0  0  0  0  0  0  0  0  0  0  0  0
  152.3822  142.1015  159.1769 C   0  0  0  0  0  0  0  0  0  0  0  0
  151.9801  141.3598  158.0471 C   0  0  0  0  0  0  0  0  0  0  0  0
  151.2214  141.9939  157.0367 C   0  0  0  0  0  0  0  0  0  0  0  0
  150.7778  141.3422  155.8786 N   0  0  0  0  0  0  0  0  0  0  0  0
  151.3449  140.0092  155.7191 C   0  0  0  0  0  0  0  0  0  0  0  0
  150.8965  139.4032  154.3779 C   0  0  0  0  0  0  0  0  0  0  0  0
  149.4735  139.4010  154.3092 O   0  0  0  0  0  0  0  0  0  0  0  0
  148.9316  140.7162  154.3872 C   0  0  0  0  0  0  0  0  0  0  0  0
  149.3281  141.3556  155.7292 C   0  0  0  0  0  0  0  0  0  0  0  0
  150.8985  143.2981  157.1763 N   0  3  0  0  0  0  0  0  0  0  0  0
  151.2640  144.0427  158.2425 C   0  0  0  0  0  0  0  0  0  0  0  0
  152.8712  144.2527  162.4616 H   0  0  0  0  0  0  0  0  0  0  0  0
  153.2611  142.7178  161.6818 H   0  0  0  0  0  0  0  0  0  0  0  0
  151.5724  143.1385  162.0284 H   0  0  0  0  0  0  0  0  0  0  0  0
  152.6634  145.1636  160.3407 H   0  0  0  0  0  0  0  0  0  0  0  0
  152.9625  141.6244  159.9534 H   0  0  0  0  0  0  0  0  0  0  0  0
  152.2541  140.3183  157.9622 H   0  0  0  0  0  0  0  0  0  0  0  0
  152.4337  140.0627  155.7596 H   0  0  0  0  0  0  0  0  0  0  0  0
  151.0211  139.3682  156.5402 H   0  0  0  0  0  0  0  0  0  0  0  0
  151.3111  139.9641  153.5386 H   0  0  0  0  0  0  0  0  0  0  0  0
  151.2588  138.3792  154.2871 H   0  0  0  0  0  0  0  0  0  0  0  0
  149.2861  141.3177  153.5486 H   0  0  0  0  0  0  0  0  0  0  0  0
  147.8464  140.6594  154.3027 H   0  0  0  0  0  0  0  0  0  0  0  0
  148.8651  140.8065  156.5501 H   0  0  0  0  0  0  0  0  0  0  0  0
  148.9606  142.3816  155.7775 H   0  0  0  0  0  0  0  0  0  0  0  0
  150.9347  145.0712  158.2189 H   0  0  0  0  0  0  0  0  0  0  0  0
  150.3508  143.7437  156.4398 H   0  0  0  0  0  0  0  0  0  0  0  0
  1  2  1  0  0  0  0
  1 15  1  0  0  0  0
  1 16  1  0  0  0  0
  1 17  1  0  0  0  0
  2  3  1  0  0  0  0
  2 18  1  0  0  0  0
  3 14  1  0  0  0  0
  3  4  2  0  0  0  0
  4  5  1  0  0  0  0
  4 19  1  0  0  0  0
  5  6  2  0  0  0  0
  5 20  1  0  0  0  0
  6  7  1  0  0  0  0
  6 13  1  0  0  0  0
  7 12  1  0  0  0  0
  7  8  1  0  0  0  0
  8  9  1  0  0  0  0
  8 21  1  0  0  0  0
  8 22  1  0  0  0  0
  9 10  1  0  0  0  0
  9 23  1  0  0  0  0
  9 24  1  0  0  0  0
 10 11  1  0  0  0  0
 11 12  1  0  0  0  0
 11 25  1  0  0  0  0
 11 26  1  0  0  0  0
 12 27  1  0  0  0  0
 12 28  1  0  0  0  0
 13 14  2  0  0  0  0
 13 30  1  0  0  0  0
 14 29  1  0  0  0  0
M  CHG  1  13   1
M  END
> <s_m_source_file>
AV-unprocessed.smi

> <i_m_source_file_index>
2820

> <i_lp_mmshare_version>
43012

> <i_f3d_flags>
0

> <s_epik_input>
W0NIM11bTkhdYzFbY0hdW2NIXWMobltjSF0xKU4yW0NIMl1bQ0gyXU9bQ0gyXVtDSDJdMg==

> <s_epik_cmdline>
J2VwaWtfcHl0aG9uJywgJy1waCcsICc3LjAnLCAnLXRuJywgJzgnLCAnLW1hJywgJzIwMCcsICctbWV0YWxfYmluZGluZycsICctaW1hZScsICc8aW5maWxlLm1hZT4nLCAnLW9tYWUnLCAnPG91dGZpbGUubWFlPic=

> <r_lp_tautomer_probability>
0.999846

> <r_epik_Ionization_Penalty>
1.60145

> <r_epik_Ionization_Penalty_Charging>
1.60145

> <r_epik_Ionization_Penalty_Neutral>
8.44735e-08

> <r_epik_State_Penalty>
1.69965

> <r_epik_Charging_Adjusted_Penalty>
3.3011

> <i_epik_Tot_Q>
1

> <i_epik_Tot_abs_Q>
1

> <r_epik_Metal_State_Penalty>
5.75781

> <b_epik_Metal_Only>
0

> <s_lp_Force_Field>
OPLS_2005

> <r_lp_Energy>
26.3697

> <b_lp_Chiralities_Consistent>
1

> <s_lp_Variant>
AV-unprocessed.smi:2820-2

> <Gold.Version>
5.8.1

> <Gold.Id.Protein>
6NUR|6NUR_protein|mol2

> <Gold.PLP.Fitness>
36.6517

> <Gold.PLP.PLP>
-31.1635

> <Gold.PLP.part.hbond>
-1.0634

> <Gold.PLP.part.metal>
0.0000

> <Gold.PLP.part.buried>
-3.5590

> <Gold.PLP.part.nonpolar>
-26.2756

> <Gold.PLP.part.repulsive>
0.2435

> <Gold.PLP.ligand.clash>
0.0000

> <Gold.PLP.ligand.torsion>
0.3032

> <Gold.PLP.Chemscore.Hbond>
2.0000

> <Gold.PLP.Chemscore.CHOScore>
0.0000

> <Gold.PLP.Chemscore.Metal>
0.0000

> <Gold.Chemscore.Hbonds>
donor molecule, donor type, donor heavy atom, donor atom, acceptor molecule, acceptor atom, score
      L1  H    13    30       P1  8028  2.00

> <Gold.PLP.Chemscore.Internal.Correction>
0.0946

> <Gold.Rescore>
     Score         DG    S(hbond)    S(metal)    S(lipo)     H(rot)  DE(clash)    DE(int)     intcor
     15.44     -15.79       1.00        0.00      81.54       1.00       0.06       0.28       ----

> <Gold.Chemscore.Fitness>
15.4389

> <Gold.Chemscore.DG>
-15.7852

> <Gold.Chemscore.ZeroCoef>
-5.4800

> <Gold.Chemscore.Hbond>
0.9955

> <Gold.Chemscore.Metal>
0.0000

> <Gold.Chemscore.Lipo>
81.5406

> <Gold.Chemscore.Internal_Hbond>
0.0000

> <Gold.Chemscore.DEClash>
0.0621

> <Gold.Chemscore.DEInternal>
0.2841

> <Gold.Chemscore.Rot>
1.0000

> <Gold.Chemscore.Internal.Correction>
   9.000000E+99

> <Gold.Chemscore.Hbonds>
donor molecule, donor type, donor heavy atom, donor atom, acceptor molecule, acceptor atom, score
      L1  H    13    30       P1  8028  0.99

> <Gold.Chemscore.Hbond.Weighted>
-3.3249

> <Gold.Chemscore.Metal.Weighted>
-0.0000

> <Gold.Chemscore.Lipo.Weighted>
-9.5402

> <Gold.Chemscore.Internal_Hbond.Weighted>
0.0000

> <Gold.Chemscore.DEClash.Weighted>
0.0621

> <Gold.Chemscore.DEInternal.Weighted>
0.2841

> <Gold.Chemscore.Rot.Weighted>
2.5600

> <Gold.Chemscore.Internal.Correction.Weighted>
   9.000000E+99

> <Gold.Protein.RotatedTorsions>
[ 6907 6896 6895 6894 ] final   51.06 input  -60.11 | X-H torsion
[ 7974 7965 7964 7962 ] final  -16.92 input  175.53 | X-H torsion
[ 8008 7997 7996 7995 ] final   43.59 input   59.86 | X-H torsion
[ 10167 10162 10161 10158 ] final  146.64 input  -65.29 | X-H torsion
[ 10718 10713 10712 10709 ] final -110.50 input   66.30 | X-H torsion
[ 10763 10752 10751 10750 ] final  -31.43 input  -60.55 | X-H torsion
[ 11005 11000 10999 10996 ] final  -73.56 input  -57.11 | X-H torsion

> <Gold.Protein.ActiveResidues>
 VAL166  LYS551  ARG553  GLY616  TRP617  ASP618  TYR619  PRO620  LYS621  CYS622 
 ASP623  PHE694  ASN695  SER759  ASP760  ASP761  ALA762  ILE779  LEU786  VAL792 
 PHE793  MET794  SER795  GLU796  ALA797  LYS798  CYS799  TRP800  GLU811  SER814 

> <Gold.Protein.RotatedAtoms>
  152.3086  134.7525  160.0341 H   0  0  0  0  0  0  0  0  0  0  0  0  # atno 6907 bound_to 6896
  151.8013  133.3365  159.3536 H   0  0  0  0  0  0  0  0  0  0  0  0  # atno 6908 bound_to 6896
  150.7309  134.5681  159.5921 H   0  0  0  0  0  0  0  0  0  0  0  0  # atno 6909 bound_to 6896
  146.1965  140.3705  142.8439 H   0  0  0  0  0  0  0  0  0  0  0  0  # atno 7974 bound_to 7965
  155.3052  140.3387  155.4246 H   0  0  0  0  0  0  0  0  0  0  0  0  # atno 8008 bound_to 7997
  156.1982  140.1723  156.7993 H   0  0  0  0  0  0  0  0  0  0  0  0  # atno 8009 bound_to 7997
  154.5525  140.0703  156.8675 H   0  0  0  0  0  0  0  0  0  0  0  0  # atno 8010 bound_to 7997
  139.4903  144.5814  151.6863 H   0  0  0  0  0  0  0  0  0  0  0  0  # atno 10167 bound_to 10162
  156.0594  130.5819  150.8246 H   0  0  0  0  0  0  0  0  0  0  0  0  # atno 10718 bound_to 10713
  153.7972  135.6893  153.4861 H   0  0  0  0  0  0  0  0  0  0  0  0  # atno 10763 bound_to 10752
  153.1711  135.4542  154.9902 H   0  0  0  0  0  0  0  0  0  0  0  0  # atno 10764 bound_to 10752
  154.8021  135.3342  154.7464 H   0  0  0  0  0  0  0  0  0  0  0  0  # atno 10765 bound_to 10752
  141.1624  133.6882  156.7230 H   0  0  0  0  0  0  0  0  0  0  0  0  # atno 11005 bound_to 11000
  144.8592  140.7114  143.6118 LP  0  0  0  0  0  0  0  0  0  0  0  0  # atno 17320 bound_to 7965
  145.3626  139.1678  143.4375 LP  0  0  0  0  0  0  0  0  0  0  0  0  # atno 17321 bound_to 7965
  140.5421  144.0562  150.6092 LP  0  0  0  0  0  0  0  0  0  0  0  0  # atno 17342 bound_to 10162
  140.3587  143.2920  152.0407 LP  0  0  0  0  0  0  0  0  0  0  0  0  # atno 17343 bound_to 10162
  157.5591  131.0945  150.9584 LP  0  0  0  0  0  0  0  0  0  0  0  0  # atno 17370 bound_to 10713
  156.9826  130.5533  149.5297 LP  0  0  0  0  0  0  0  0  0  0  0  0  # atno 17371 bound_to 10713
  140.2802  134.8323  157.3926 LP  0  0  0  0  0  0  0  0  0  0  0  0  # atno 17394 bound_to 11000
  140.1440  134.4935  155.8010 LP  0  0  0  0  0  0  0  0  0  0  0  0  # atno 17395 bound_to 11000

$$$$
