AV-unprocessed.smi:2124|AV-procd|sdf|8671|dock3
  -GOLD-   2272011423D 1   1.00000     0.00000
 Structure written by MMmdl.
 46 48  0  0  0  0  0  0  0  0  2 V2000
  149.8196  133.7484  154.4637 C   0  0  0  0  0  0  0  0  0  0  0  0
  150.0251  134.7802  155.5520 C   0  0  0  0  0  0  0  0  0  0  0  0
  149.2795  134.7504  156.5905 N   0  0  0  0  0  0  0  0  0  0  0  0
  149.4712  135.7019  157.6068 C   0  0  0  0  0  0  0  0  0  0  0  0
  148.5450  135.5897  158.8055 C   0  0  0  0  0  0  0  0  0  0  0  0
  150.4389  136.6577  157.5048 C   0  0  0  0  0  0  0  0  0  0  0  0
  150.6946  137.7094  158.5843 C   0  0  0  0  0  0  0  0  0  0  0  0
  150.3376  139.1541  158.2262 C   0  0  0  0  0  0  0  0  0  0  0  0
  149.1619  139.5136  158.1627 O   0  0  0  0  0  0  0  0  0  0  0  0
  151.3806  139.9721  158.0048 N   0  0  0  0  0  0  0  0  0  0  0  0
  151.3418  141.4015  157.6837 C   0  0  1  0  0  0  0  0  0  0  0  0
  150.1881  141.7112  156.7092 C   0  0  0  0  0  0  0  0  0  0  0  0
  151.3193  142.2962  158.9530 C   0  0  2  0  0  0  0  0  0  0  0  0
  150.8131  143.7347  158.6865 C   0  0  0  0  0  0  0  0  0  0  0  0
  151.9341  144.6176  159.2626 C   0  0  1  0  0  0  0  0  0  0  0  0
  151.9472  144.4998  160.7977 C   0  0  0  0  0  0  0  0  0  0  0  0
  152.5130  143.0853  161.0229 C   0  0  0  0  0  0  0  0  0  0  0  0
  152.7096  142.5658  159.5860 C   0  0  2  0  0  0  0  0  0  0  0  0
  153.1758  143.8291  158.8698 C   0  0  0  0  0  0  0  0  0  0  0  0
  151.2694  136.6639  156.2876 C   0  0  0  0  0  0  0  0  0  0  0  0
  152.1432  137.5172  156.1366 O   0  0  0  0  0  0  0  0  0  0  0  0
  151.0274  135.7025  155.3516 N   0  5  0  0  0  0  0  0  0  0  0  0
  148.8640  133.2363  154.5840 H   0  0  0  0  0  0  0  0  0  0  0  0
  150.6154  133.0040  154.4978 H   0  0  0  0  0  0  0  0  0  0  0  0
  149.8301  134.2210  153.4808 H   0  0  0  0  0  0  0  0  0  0  0  0
  149.1094  135.3244  159.6994 H   0  0  0  0  0  0  0  0  0  0  0  0
  147.7867  134.8220  158.6474 H   0  0  0  0  0  0  0  0  0  0  0  0
  148.0306  136.5336  158.9860 H   0  0  0  0  0  0  0  0  0  0  0  0
  150.1222  137.4366  159.4711 H   0  0  0  0  0  0  0  0  0  0  0  0
  151.7356  137.6787  158.9078 H   0  0  0  0  0  0  0  0  0  0  0  0
  152.3009  139.5638  158.0799 H   0  0  0  0  0  0  0  0  0  0  0  0
  152.2731  141.5943  157.1508 H   0  0  0  0  0  0  0  0  0  0  0  0
  150.2409  142.7355  156.3411 H   0  0  0  0  0  0  0  0  0  0  0  0
  149.2136  141.5862  157.1815 H   0  0  0  0  0  0  0  0  0  0  0  0
  150.2225  141.0538  155.8400 H   0  0  0  0  0  0  0  0  0  0  0  0
  150.6728  141.8242  159.6939 H   0  0  0  0  0  0  0  0  0  0  0  0
  150.7032  143.9305  157.6192 H   0  0  0  0  0  0  0  0  0  0  0  0
  149.8484  143.9283  159.1570 H   0  0  0  0  0  0  0  0  0  0  0  0
  151.9083  145.6464  158.9022 H   0  0  0  0  0  0  0  0  0  0  0  0
  152.6023  145.2502  161.2416 H   0  0  0  0  0  0  0  0  0  0  0  0
  150.9531  144.6241  161.2287 H   0  0  0  0  0  0  0  0  0  0  0  0
  153.4676  143.1347  161.5484 H   0  0  0  0  0  0  0  0  0  0  0  0
  151.8440  142.4540  161.6088 H   0  0  0  0  0  0  0  0  0  0  0  0
  153.4059  141.7286  159.5350 H   0  0  0  0  0  0  0  0  0  0  0  0
  153.2880  143.7042  157.7918 H   0  0  0  0  0  0  0  0  0  0  0  0
  154.0988  144.2437  159.2792 H   0  0  0  0  0  0  0  0  0  0  0  0
  1  2  1  0  0  0  0
  1 23  1  0  0  0  0
  1 24  1  0  0  0  0
  1 25  1  0  0  0  0
  2 22  1  0  0  0  0
  2  3  2  0  0  0  0
  3  4  1  0  0  0  0
  4  5  1  0  0  0  0
  4  6  2  0  0  0  0
  5 26  1  0  0  0  0
  5 27  1  0  0  0  0
  5 28  1  0  0  0  0
  6  7  1  0  0  0  0
  6 20  1  0  0  0  0
  7  8  1  0  0  0  0
  7 29  1  0  0  0  0
  7 30  1  0  0  0  0
  8  9  2  0  0  0  0
  8 10  1  0  0  0  0
 10 11  1  0  0  0  0
 10 31  1  0  0  0  0
 11 12  1  0  0  0  0
 11 13  1  0  0  0  0
 11 32  1  0  0  0  0
 12 33  1  0  0  0  0
 12 34  1  0  0  0  0
 12 35  1  0  0  0  0
 13 18  1  0  0  0  0
 13 14  1  0  0  0  0
 13 36  1  0  0  0  0
 14 15  1  0  0  0  0
 14 37  1  0  0  0  0
 14 38  1  0  0  0  0
 15 19  1  0  0  0  0
 15 16  1  0  0  0  0
 15 39  1  0  0  0  0
 16 17  1  0  0  0  0
 16 40  1  0  0  0  0
 16 41  1  0  0  0  0
 17 18  1  0  0  0  0
 17 42  1  0  0  0  0
 17 43  1  0  0  0  0
 18 19  1  0  0  0  0
 18 44  1  0  0  0  0
 19 45  1  0  0  0  0
 19 46  1  0  0  0  0
 20 21  2  0  0  0  0
 20 22  1  0  0  0  0
M  CHG  1  22  -1
M  END
> <s_m_source_file>
AV-unprocessed.smi

> <i_m_source_file_index>
2124

> <i_lp_mmshare_version>
43012

> <i_f3d_flags>
0

> <s_epik_input>
W0NIM11jMW5jKFtDSDNdKWMoYyg9TylbbkhdMSlbQ0gyXUMoPU8pW05IXVtDQEhdKFtDSDNdKVtDQEhdKFtDSDJdW0NASF0yMylbQ0BIXShbQ0gyXTMpW0NIMl1bQ0gyXTI=

> <s_epik_cmdline>
J2VwaWtfcHl0aG9uJywgJy1waCcsICc3LjAnLCAnLXRuJywgJzgnLCAnLW1hJywgJzIwMCcsICctbWV0YWxfYmluZGluZycsICctaW1hZScsICc8aW5maWxlLm1hZT4nLCAnLW9tYWUnLCAnPG91dGZpbGUubWFlPic=

> <r_lp_tautomer_probability>
0.839158

> <r_epik_Ionization_Penalty>
6.63797

> <r_epik_Ionization_Penalty_Charging>
7.48558e-08

> <r_epik_Ionization_Penalty_Neutral>
6.63797

> <r_epik_State_Penalty>
4.49496

> <r_epik_Charging_Adjusted_Penalty>
4.49496

> <i_epik_Tot_Q>
-1

> <i_epik_Tot_abs_Q>
1

> <r_epik_Metal_State_Penalty>
0.841241

> <b_epik_Metal_Only>
1

> <s_lp_Force_Field>
OPLS_2005

> <r_lp_Energy>
55.5878

> <b_lp_Chiralities_Consistent>
1

> <s_lp_Variant>
AV-unprocessed.smi:2124-22

> <Gold.Version>
5.8.1

> <Gold.Id.Protein>
6NUR|6NUR_protein|mol2

> <Gold.PLP.Fitness>
43.7113

> <Gold.PLP.PLP>
-39.8047

> <Gold.PLP.part.hbond>
-1.0000

> <Gold.PLP.part.metal>
0.0000

> <Gold.PLP.part.buried>
-6.6510

> <Gold.PLP.part.nonpolar>
-32.7626

> <Gold.PLP.part.repulsive>
0.1949

> <Gold.PLP.ligand.clash>
0.0000

> <Gold.PLP.ligand.torsion>
1.0812

> <Gold.PLP.Chemscore.Hbond>
2.0000

> <Gold.PLP.Chemscore.CHOScore>
0.0000

> <Gold.PLP.Chemscore.Metal>
0.0000

> <Gold.Chemscore.Hbonds>
donor molecule, donor type, donor heavy atom, donor atom, acceptor molecule, acceptor atom, score
      P1  H 10752 10764       L1    22  1.73

> <Gold.PLP.Chemscore.Internal.Correction>
0.0690

> <Gold.Rescore>
     Score         DG    S(hbond)    S(metal)    S(lipo)     H(rot)  DE(clash)    DE(int)     intcor
     14.90     -17.50       0.77        0.00     116.00       1.61       0.12       2.48       ----

> <Gold.Chemscore.Fitness>
14.9023

> <Gold.Chemscore.DG>
-17.5000

> <Gold.Chemscore.ZeroCoef>
-5.4800

> <Gold.Chemscore.Hbond>
0.7655

> <Gold.Chemscore.Metal>
0.0000

> <Gold.Chemscore.Lipo>
116.0010

> <Gold.Chemscore.Internal_Hbond>
0.0000

> <Gold.Chemscore.DEClash>
0.1210

> <Gold.Chemscore.DEInternal>
2.4767

> <Gold.Chemscore.Rot>
1.6051

> <Gold.Chemscore.Internal.Correction>
   9.000000E+99

> <Gold.Chemscore.Hbonds>
donor molecule, donor type, donor heavy atom, donor atom, acceptor molecule, acceptor atom, score
      P1  H 10752 10764       L1    22  0.19

> <Gold.Chemscore.Hbond.Weighted>
-2.5569

> <Gold.Chemscore.Metal.Weighted>
-0.0000

> <Gold.Chemscore.Lipo.Weighted>
-13.5721

> <Gold.Chemscore.Internal_Hbond.Weighted>
0.0000

> <Gold.Chemscore.DEClash.Weighted>
0.1210

> <Gold.Chemscore.DEInternal.Weighted>
2.4767

> <Gold.Chemscore.Rot.Weighted>
4.1090

> <Gold.Chemscore.Internal.Correction.Weighted>
   9.000000E+99

> <Gold.Protein.RotatedTorsions>
[ 6907 6896 6895 6894 ] final -163.29 input  -60.11 | X-H torsion
[ 7974 7965 7964 7962 ] final  -29.21 input  175.53 | X-H torsion
[ 8008 7997 7996 7995 ] final -137.58 input   59.86 | X-H torsion
[ 10167 10162 10161 10158 ] final   10.33 input  -65.29 | X-H torsion
[ 10718 10713 10712 10709 ] final  -15.69 input   66.30 | X-H torsion
[ 10763 10752 10751 10750 ] final  -63.85 input  -60.55 | X-H torsion
[ 11005 11000 10999 10996 ] final -146.46 input  -57.11 | X-H torsion

> <Gold.Protein.ActiveResidues>
 VAL166  LYS551  ARG553  GLY616  TRP617  ASP618  TYR619  PRO620  LYS621  CYS622 
 ASP623  PHE694  ASN695  SER759  ASP760  ASP761  ALA762  ILE779  LEU786  VAL792 
 PHE793  MET794  SER795  GLU796  ALA797  LYS798  CYS799  TRP800  GLU811  SER814 

> <Gold.Protein.RotatedAtoms>
  151.3937  133.3780  159.2723 H   0  0  0  0  0  0  0  0  0  0  0  0  # atno 6907 bound_to 6896
  150.9486  134.8889  159.7668 H   0  0  0  0  0  0  0  0  0  0  0  0  # atno 6908 bound_to 6896
  152.5102  134.3891  159.9430 H   0  0  0  0  0  0  0  0  0  0  0  0  # atno 6909 bound_to 6896
  146.1233  140.5383  142.8726 H   0  0  0  0  0  0  0  0  0  0  0  0  # atno 7974 bound_to 7965
  155.4141  140.0514  157.3030 H   0  0  0  0  0  0  0  0  0  0  0  0  # atno 8008 bound_to 7997
  154.4932  140.2128  155.9462 H   0  0  0  0  0  0  0  0  0  0  0  0  # atno 8009 bound_to 7997
  156.1371  140.3161  155.8442 H   0  0  0  0  0  0  0  0  0  0  0  0  # atno 8010 bound_to 7997
  140.6201  143.8223  150.7165 H   0  0  0  0  0  0  0  0  0  0  0  0  # atno 10167 bound_to 10162
  156.5981  130.4817  149.6251 H   0  0  0  0  0  0  0  0  0  0  0  0  # atno 10718 bound_to 10713
  154.3213  135.6195  153.5509 H   0  0  0  0  0  0  0  0  0  0  0  0  # atno 10763 bound_to 10752
  152.9819  135.5724  154.5066 H   0  0  0  0  0  0  0  0  0  0  0  0  # atno 10764 bound_to 10752
  154.4735  135.2860  155.1601 H   0  0  0  0  0  0  0  0  0  0  0  0  # atno 10765 bound_to 10752
  140.7818  134.3071  157.5043 H   0  0  0  0  0  0  0  0  0  0  0  0  # atno 11005 bound_to 11000
  144.7618  140.5438  143.6730 LP  0  0  0  0  0  0  0  0  0  0  0  0  # atno 17320 bound_to 7965
  145.5420  139.1475  143.3442 LP  0  0  0  0  0  0  0  0  0  0  0  0  # atno 17321 bound_to 7965
  140.1811  143.4114  152.1932 LP  0  0  0  0  0  0  0  0  0  0  0  0  # atno 17342 bound_to 10162
  139.5431  144.7275  151.4669 LP  0  0  0  0  0  0  0  0  0  0  0  0  # atno 17343 bound_to 10162
  156.2492  130.6897  151.1629 LP  0  0  0  0  0  0  0  0  0  0  0  0  # atno 17370 bound_to 10713
  157.7286  131.0630  150.5810 LP  0  0  0  0  0  0  0  0  0  0  0  0  # atno 17371 bound_to 10713
  139.8741  134.9322  156.3549 LP  0  0  0  0  0  0  0  0  0  0  0  0  # atno 17394 bound_to 11000
  140.9475  133.7473  156.0228 LP  0  0  0  0  0  0  0  0  0  0  0  0  # atno 17395 bound_to 11000

$$$$
