#       Name:                AV-unprocessed.smi:1575
#       Creating user name   scv26
#       Creation time:       Fri Mar 27 06:55:54 2020


#       File generated by GOLD software.
#

@<TRIPOS>MOLECULE
AV-unprocessed.smi:1575
    49    49     1
SMALL
NO_CHARGES


@<TRIPOS>ATOM
      1 ****        -1.4489  -3.4985   3.3462 C.3            1 S1                 0.0000
      2 ****        -1.0924  -2.9521   2.0461 N.am           1 S1                 0.0000
      3 ****        -0.7331  -1.6776   1.8359 C.2            1 S1                 0.0000
      4 ****        -0.6652  -0.8412   2.7385 O.2            1 S1                 0.0000
      5 ****        -0.3773  -1.3016   0.3874 C.3            1 S1                 0.0000
      6 ****         1.1656  -1.2905   0.2620 C.3            1 S1                 0.0000
      7 ****         1.7174  -0.8825  -1.1246 C.3            1 S1                 0.0000
      8 ****         1.2797  -1.8444  -2.2412 C.3            1 S1                 0.0000
      9 ****         3.2486  -0.7678  -1.0830 C.3            1 S1                 0.0000
     10 ****        -0.8748   0.0350   0.0728 N.am           1 S1                 0.0000
     11 ****        -2.1248   0.3471  -0.3083 C.2            1 S1                 0.0000
     12 ****        -3.0268  -0.4865  -0.3867 O.2            1 S1                 0.0000
     13 ****        -2.4189   1.8130  -0.6710 C.3            1 S1                 0.0000
     14 ****        -1.2296   2.6849  -0.7098 N.am           1 S1                 0.0000
     15 ****        -0.9511   3.4597   0.4301 C.2            1 S1                 0.0000
     16 ****         0.1253   4.2663   0.4952 C.2            1 S1                 0.0000
     17 ****         1.0152   4.3248  -0.6578 C.2            1 S1                 0.0000
     18 ****         2.0036   5.0548  -0.6155 O.2            1 S1                 0.0000
     19 ****         0.7022   3.5546  -1.7407 N.pl3          1 S1                -1.0000
     20 ****        -0.3951   2.7376  -1.7925 C.2            1 S1                 0.0000
     21 ****        -0.6518   2.0410  -2.7748 O.2            1 S1                 0.0000
     22 ****        -1.7476  -4.5413   3.2415 H              1 S1                 0.0000
     23 ****        -2.2813  -2.9475   3.7862 H              1 S1                 0.0000
     24 ****        -0.6005  -3.4534   4.0302 H              1 S1                 0.0000
     25 ****        -1.1234  -3.5792   1.2553 H              1 S1                 0.0000
     26 ****        -0.8097  -2.0316  -0.2988 H              1 S1                 0.0000
     27 ****         1.5790  -0.6090   1.0083 H              1 S1                 0.0000
     28 ****         1.5546  -2.2779   0.5163 H              1 S1                 0.0000
     29 ****         1.3382   0.1088  -1.3756 H              1 S1                 0.0000
     30 ****         1.5900  -2.8677  -2.0287 H              1 S1                 0.0000
     31 ****         1.7165  -1.5563  -3.1978 H              1 S1                 0.0000
     32 ****         0.1979  -1.8406  -2.3722 H              1 S1                 0.0000
     33 ****         3.7119  -1.7249  -0.8421 H              1 S1                 0.0000
     34 ****         3.5686  -0.0438  -0.3330 H              1 S1                 0.0000
     35 ****         3.6446  -0.4379  -2.0439 H              1 S1                 0.0000
     36 ****        -0.2010   0.7864   0.1112 H              1 S1                 0.0000
     37 ****        -2.9330   1.8380  -1.6334 H              1 S1                 0.0000
     38 ****        -3.1441   2.1979   0.0471 H              1 S1                 0.0000
     39 ****        -1.6550   3.3529   1.2423 H              1 S1                 0.0000
     40 ****         0.3272   4.8523   1.3797 H              1 S1                 0.0000
     41 ****        -0.8835  -1.1017   3.6790 LP             1 S1                 0.0000
     42 ****        -0.3919   0.0979   2.5304 LP             1 S1                 0.0000
     43 ****        -2.8441  -1.4436  -0.1618 LP             1 S1                 0.0000
     44 ****        -3.9425  -0.2068  -0.6754 LP             1 S1                 0.0000
     45 ****         2.1887   5.5989   0.2028 LP             1 S1                 0.0000
     46 ****         2.6224   5.1044  -1.3995 LP             1 S1                 0.0000
     47 ****         1.3057   3.5890  -2.5373 LP             1 S1                 0.0000
     48 ****        -1.4586   1.4502  -2.7717 LP             1 S1                 0.0000
     49 ****        -0.0535   2.0660  -3.5757 LP             1 S1                 0.0000
@<TRIPOS>BOND
    1    1    2 1     
    2    1   22 1     
    3    1   23 1     
    4    1   24 1     
    5    2    3 am    
    6    2   25 1     
    7    3    4 2     
    8    3    5 1     
    9    5    6 1     
   10    5   10 1     
   11    5   26 1     
   12    6    7 1     
   13    6   27 1     
   14    6   28 1     
   15    7    8 1     
   16    7    9 1     
   17    7   29 1     
   18    8   30 1     
   19    8   31 1     
   20    8   32 1     
   21    9   33 1     
   22    9   34 1     
   23    9   35 1     
   24   10   11 am    
   25   10   36 1     
   26   11   12 2     
   27   11   13 1     
   28   13   14 1     
   29   13   37 1     
   30   13   38 1     
   31   14   20 am    
   32   14   15 1     
   33   15   16 2     
   34   15   39 1     
   35   16   17 1     
   36   16   40 1     
   37   17   18 2     
   38   17   19 1     
   39   19   20 1     
   40   20   21 2     
   41    4   41 1     
   42    4   42 1     
   43   12   43 1     
   44   12   44 1     
   45   18   45 1     
   46   18   46 1     
   47   19   47 1     
   48   21   48 1     
   49   21   49 1     
@<TRIPOS>SUBSTRUCTURE
      1 S1             1
@<TRIPOS>SET
LONE_PAIRS      STATIC     ATOMS    <user>   **** ""
9 41 42 43 44 45 46 47 48 49
DONOR_HYDROGENS      STATIC     ATOMS    <user>   **** ""
2 25 36
ATOM$BLUE        STATIC     ATOMS    COLORGROUP SYSTEM
9 41 42 43 44 45 46 47 48 49
ATOM$RED        STATIC     ATOMS    COLORGROUP SYSTEM
2 25 36
