#       Name:                AV-unprocessed.smi:4
#       Creating user name   scv26
#       Creation time:       Thu Mar 26 15:15:07 2020


#       File generated by GOLD software.
#

@<TRIPOS>MOLECULE
AV-unprocessed.smi:4
    50    51     1
SMALL
NO_CHARGES


@<TRIPOS>ATOM
      1 ****         0.3859   2.7848  -1.0473 C.3            1 S1                 0.0000
      2 ****        -1.0337   3.2338  -0.6063 C.3            1 S1                 0.0000
      3 ****        -0.8082   4.3781   0.4133 C.3            1 S1                 0.0000
      4 ****        -1.7087   3.7771  -1.8920 C.3            1 S1                 0.0000
      5 ****        -1.8687   2.1371   0.0100 N.am           1 S1                 0.0000
      6 ****        -1.3229   0.8370   0.1730 C.2            1 S1                 0.0000
      7 ****        -2.0007  -0.2041   0.7081 C.2            1 S1                 0.0000
      8 ****        -1.4230  -1.6073   0.8951 C.3            1 S1                 0.0000
      9 ****         0.0215  -1.6802   0.6762 N.3            1 S1                 0.0000
     10 ****         0.5529  -3.0381   0.7465 C.3            1 S1                 0.0000
     11 ****         2.0742  -3.0491   0.5678 C.3            1 S1                 0.0000
     12 ****         2.6026  -2.6918   1.8303 O.3            1 S1                 0.0000
     13 ****         2.7008  -4.3261  -0.0218 C.3            1 S1                 0.0000
     14 ****         3.6440  -3.4567  -0.8545 C.3            1 S1                 0.0000
     15 ****         2.6795  -2.2917  -0.6301 C.3            1 S1                 0.0000
     16 ****        -3.3753   0.0479   1.1339 C.2            1 S1                 0.0000
     17 ****        -4.0456  -0.8656   1.6147 O.2            1 S1                 0.0000
     18 ****        -3.8695   1.3051   0.9778 N.pl3          1 S1                -1.0000
     19 ****        -3.1617   2.3424   0.4393 C.2            1 S1                 0.0000
     20 ****        -3.6763   3.4550   0.3377 O.2            1 S1                 0.0000
     21 ****         0.9398   3.6102  -1.4962 H              1 S1                 0.0000
     22 ****         0.3504   1.9949  -1.7990 H              1 S1                 0.0000
     23 ****         0.9869   2.4388  -0.2051 H              1 S1                 0.0000
     24 ****        -0.3747   3.9982   1.3390 H              1 S1                 0.0000
     25 ****        -1.7214   4.9104   0.6737 H              1 S1                 0.0000
     26 ****        -0.1231   5.1290   0.0184 H              1 S1                 0.0000
     27 ****        -1.0584   4.4801  -2.4135 H              1 S1                 0.0000
     28 ****        -2.6353   4.3154  -1.7001 H              1 S1                 0.0000
     29 ****        -1.9359   2.9685  -2.5877 H              1 S1                 0.0000
     30 ****        -0.3116   0.6956  -0.1568 H              1 S1                 0.0000
     31 ****        -1.6543  -1.9507   1.9045 H              1 S1                 0.0000
     32 ****        -1.9402  -2.2784   0.2081 H              1 S1                 0.0000
     33 ****         0.4937  -1.1094   1.3703 H              1 S1                 0.0000
     34 ****         0.2746  -3.5041   1.6931 H              1 S1                 0.0000
     35 ****         0.0839  -3.6414  -0.0316 H              1 S1                 0.0000
     36 ****         3.5438  -2.6957   1.7464 H              1 S1                 0.0000
     37 ****         3.2055  -4.9676   0.7015 H              1 S1                 0.0000
     38 ****         2.0058  -4.8974  -0.6393 H              1 S1                 0.0000
     39 ****         4.6109  -3.3030  -0.3733 H              1 S1                 0.0000
     40 ****         3.7510  -3.7661  -1.8944 H              1 S1                 0.0000
     41 ****         1.9744  -2.1665  -1.4538 H              1 S1                 0.0000
     42 ****         3.1653  -1.3486  -0.3774 H              1 S1                 0.0000
     43 ****         0.1881  -1.3456  -0.2513 LP             1 S1                 0.0000
     44 ****         2.3167  -3.3545   2.5225 LP             1 S1                 0.0000
     45 ****         2.2847  -1.7800   2.0903 LP             1 S1                 0.0000
     46 ****        -3.6491  -1.7783   1.7133 LP             1 S1                 0.0000
     47 ****        -4.9866  -0.6950   1.9068 LP             1 S1                 0.0000
     48 ****        -4.8079   1.4811   1.2752 LP             1 S1                 0.0000
     49 ****        -3.1560   4.2124  -0.0570 LP             1 S1                 0.0000
     50 ****        -4.6148   3.6022   0.6499 LP             1 S1                 0.0000
@<TRIPOS>BOND
    1    1    2 1     
    2    1   21 1     
    3    1   22 1     
    4    1   23 1     
    5    2    3 1     
    6    2    4 1     
    7    2    5 1     
    8    3   24 1     
    9    3   25 1     
   10    3   26 1     
   11    4   27 1     
   12    4   28 1     
   13    4   29 1     
   14    5   19 am    
   15    5    6 1     
   16    6    7 2     
   17    6   30 1     
   18    7    8 1     
   19    7   16 1     
   20    8    9 1     
   21    8   31 1     
   22    8   32 1     
   23    9   10 1     
   24    9   33 1     
   25   10   11 1     
   26   10   34 1     
   27   10   35 1     
   28   11   15 1     
   29   11   12 1     
   30   11   13 1     
   31   12   36 1     
   32   13   14 1     
   33   13   37 1     
   34   13   38 1     
   35   14   15 1     
   36   14   39 1     
   37   14   40 1     
   38   15   41 1     
   39   15   42 1     
   40   16   17 2     
   41   16   18 1     
   42   18   19 1     
   43   19   20 2     
   44    9   43 1     
   45   12   44 1     
   46   12   45 1     
   47   17   46 1     
   48   17   47 1     
   49   18   48 1     
   50   20   49 1     
   51   20   50 1     
@<TRIPOS>SUBSTRUCTURE
      1 S1             1
@<TRIPOS>SET
LONE_PAIRS      STATIC     ATOMS    <user>   **** ""
8 43 44 45 46 47 48 49 50
DONOR_HYDROGENS      STATIC     ATOMS    <user>   **** ""
2 33 36
ATOM$BLUE        STATIC     ATOMS    COLORGROUP SYSTEM
8 43 44 45 46 47 48 49 50
ATOM$RED        STATIC     ATOMS    COLORGROUP SYSTEM
2 33 36
