AV-unprocessed.smi:891|AV-procd|sdf|4063|dock8
  -GOLD-   22720 1553D 1   1.00000     0.00000
 Structure written by MMmdl.
 38 38  0  0  0  0  0  0  0  0  1 V2000
  154.3514  141.0160  160.4544 C   0  0  0  0  0  0  0  0  0  0  0  0
  153.2889  141.9834  160.0215 C   0  0  0  0  0  0  0  0  0  0  0  0
  152.8276  141.9572  158.7805 N   0  0  0  0  0  0  0  0  0  0  0  0
  151.9075  142.9538  158.7132 N   0  0  0  0  0  0  0  0  0  0  0  0
  151.2599  143.2219  157.4361 C   0  0  0  0  0  0  0  0  0  0  0  0
  150.5179  141.9757  156.9514 C   0  0  0  0  0  0  0  0  0  0  0  0
  150.8956  140.8572  157.2982 O   0  0  0  0  0  0  0  0  0  0  0  0
  149.5017  142.1904  156.1022 N   0  0  0  0  0  0  0  0  0  0  0  0
  148.8590  141.1794  155.2702 C   0  0  0  0  0  0  0  0  0  0  0  0
  147.7438  141.8044  154.4021 C   0  0  2  0  0  0  0  0  0  0  0  0
  146.5193  142.1309  155.2738 C   0  0  0  0  0  0  0  0  0  0  0  0
  147.3644  140.9153  153.1920 C   0  0  0  0  0  0  0  0  0  0  0  0
  146.9961  139.4713  153.5660 C   0  0  0  0  0  0  0  0  0  0  0  0
  146.1354  138.9330  152.5853 O   0  0  0  0  0  0  0  0  0  0  0  0
  151.7644  143.6127  159.9267 C   0  0  0  0  0  0  0  0  0  0  0  0
  150.8276  144.7559  160.1493 C   0  0  0  0  0  0  0  0  0  0  0  0
  152.6474  143.0040  160.7683 C   0  0  0  0  0  0  0  0  0  0  0  0
  152.9442  143.4089  162.4196 Cl  0  0  0  0  0  0  0  0  0  0  0  0
  153.9138  140.1676  160.9804 H   0  0  0  0  0  0  0  0  0  0  0  0
  155.0637  141.4937  161.1273 H   0  0  0  0  0  0  0  0  0  0  0  0
  154.9120  140.6283  159.6032 H   0  0  0  0  0  0  0  0  0  0  0  0
  150.5619  144.0525  157.5527 H   0  0  0  0  0  0  0  0  0  0  0  0
  152.0043  143.5312  156.7021 H   0  0  0  0  0  0  0  0  0  0  0  0
  149.2554  143.1498  155.9073 H   0  0  0  0  0  0  0  0  0  0  0  0
  149.5803  140.6599  154.6371 H   0  0  0  0  0  0  0  0  0  0  0  0
  148.4360  140.4261  155.9357 H   0  0  0  0  0  0  0  0  0  0  0  0
  148.1301  142.7481  154.0141 H   0  0  0  0  0  0  0  0  0  0  0  0
  146.0615  141.2233  155.6684 H   0  0  0  0  0  0  0  0  0  0  0  0
  145.7577  142.6729  154.7138 H   0  0  0  0  0  0  0  0  0  0  0  0
  146.7977  142.7565  156.1223 H   0  0  0  0  0  0  0  0  0  0  0  0
  146.5046  141.3390  152.6751 H   0  0  0  0  0  0  0  0  0  0  0  0
  148.1772  140.9170  152.4643 H   0  0  0  0  0  0  0  0  0  0  0  0
  147.8822  138.8413  153.6380 H   0  0  0  0  0  0  0  0  0  0  0  0
  146.4892  139.4415  154.5310 H   0  0  0  0  0  0  0  0  0  0  0  0
  145.4731  139.5753  152.3803 H   0  0  0  0  0  0  0  0  0  0  0  0
  150.7027  144.9557  161.2134 H   0  0  0  0  0  0  0  0  0  0  0  0
  149.8416  144.5458  159.7363 H   0  0  0  0  0  0  0  0  0  0  0  0
  151.2081  145.6649  159.6844 H   0  0  0  0  0  0  0  0  0  0  0  0
  1  2  1  0  0  0  0
  1 19  1  0  0  0  0
  1 20  1  0  0  0  0
  1 21  1  0  0  0  0
  2 17  1  0  0  0  0
  2  3  2  0  0  0  0
  3  4  1  0  0  0  0
  4  5  1  0  0  0  0
  4 15  1  0  0  0  0
  5  6  1  0  0  0  0
  5 22  1  0  0  0  0
  5 23  1  0  0  0  0
  6  7  2  0  0  0  0
  6  8  1  0  0  0  0
  8  9  1  0  0  0  0
  8 24  1  0  0  0  0
  9 10  1  0  0  0  0
  9 25  1  0  0  0  0
  9 26  1  0  0  0  0
 10 11  1  0  0  0  0
 10 12  1  0  0  0  0
 10 27  1  0  0  0  0
 11 28  1  0  0  0  0
 11 29  1  0  0  0  0
 11 30  1  0  0  0  0
 12 13  1  0  0  0  0
 12 31  1  0  0  0  0
 12 32  1  0  0  0  0
 13 14  1  0  0  0  0
 13 33  1  0  0  0  0
 13 34  1  0  0  0  0
 14 35  1  0  0  0  0
 15 16  1  0  0  0  0
 15 17  2  0  0  0  0
 16 36  1  0  0  0  0
 16 37  1  0  0  0  0
 16 38  1  0  0  0  0
 17 18  1  0  0  0  0
M  END
> <s_m_source_file>
AV-unprocessed.smi

> <i_m_source_file_index>
891

> <i_lp_mmshare_version>
43012

> <i_f3d_flags>
0

> <s_epik_input>
W0NIM11jMW5uKGMoW0NIM10pYzFDbClbQ0gyXUMoPU8pW05IXVtDSDJdW0NASF0oW0NIM10pW0NIMl1bQ0gyXVtPSF0=

> <s_epik_cmdline>
J2VwaWtfcHl0aG9uJywgJy1waCcsICc3LjAnLCAnLXRuJywgJzgnLCAnLW1hJywgJzIwMCcsICctbWV0YWxfYmluZGluZycsICctaW1hZScsICc8aW5maWxlLm1hZT4nLCAnLW9tYWUnLCAnPG91dGZpbGUubWFlPic=

> <r_lp_tautomer_probability>
1

> <r_epik_Ionization_Penalty>
4.9564e-06

> <r_epik_Ionization_Penalty_Charging>
0

> <r_epik_Ionization_Penalty_Neutral>
4.9564e-06

> <r_epik_State_Penalty>
-0

> <r_epik_Charging_Adjusted_Penalty>
0

> <i_epik_Tot_Q>
0

> <i_epik_Tot_abs_Q>
0

> <r_epik_Metal_State_Penalty>
-0

> <b_epik_Metal_Only>
0

> <s_lp_Force_Field>
OPLS_2005

> <r_lp_Energy>
6.31297

> <b_lp_Chiralities_Consistent>
1

> <s_lp_Variant>
AV-unprocessed.smi:891-1

> <Gold.Version>
5.8.1

> <Gold.Id.Protein>
6NUR|6NUR_protein|mol2

> <Gold.PLP.Fitness>
48.3554

> <Gold.PLP.PLP>
-43.6390

> <Gold.PLP.part.hbond>
-2.0000

> <Gold.PLP.part.metal>
0.0000

> <Gold.PLP.part.buried>
-6.4413

> <Gold.PLP.part.nonpolar>
-36.5782

> <Gold.PLP.part.repulsive>
0.1162

> <Gold.PLP.ligand.clash>
0.0000

> <Gold.PLP.ligand.torsion>
0.6806

> <Gold.PLP.Chemscore.Hbond>
1.9920

> <Gold.PLP.Chemscore.CHOScore>
0.0000

> <Gold.PLP.Chemscore.Metal>
0.0000

> <Gold.Chemscore.Hbonds>
donor molecule, donor type, donor heavy atom, donor atom, acceptor molecule, acceptor atom, score
      L1  H     8    24       P1  8028  1.00
      L1  H    14    35       P1 10175  1.00

> <Gold.PLP.Chemscore.Internal.Correction>
0.1016

> <Gold.Rescore>
     Score         DG    S(hbond)    S(metal)    S(lipo)     H(rot)  DE(clash)    DE(int)     intcor
     15.31     -17.49       1.97        0.00     103.82       2.62       0.02       2.16       ----

> <Gold.Chemscore.Fitness>
15.3092

> <Gold.Chemscore.DG>
-17.4876

> <Gold.Chemscore.ZeroCoef>
-5.4800

> <Gold.Chemscore.Hbond>
1.9698

> <Gold.Chemscore.Metal>
0.0000

> <Gold.Chemscore.Lipo>
103.8248

> <Gold.Chemscore.Internal_Hbond>
0.0000

> <Gold.Chemscore.DEClash>
0.0173

> <Gold.Chemscore.DEInternal>
2.1611

> <Gold.Chemscore.Rot>
2.6247

> <Gold.Chemscore.Internal.Correction>
   9.000000E+99

> <Gold.Chemscore.Hbonds>
donor molecule, donor type, donor heavy atom, donor atom, acceptor molecule, acceptor atom, score
      L1  H     8    24       P1  8028  1.00
      L1  H    14    35       P1 10175  0.95

> <Gold.Chemscore.Hbond.Weighted>
-6.5793

> <Gold.Chemscore.Metal.Weighted>
-0.0000

> <Gold.Chemscore.Lipo.Weighted>
-12.1475

> <Gold.Chemscore.Internal_Hbond.Weighted>
0.0000

> <Gold.Chemscore.DEClash.Weighted>
0.0173

> <Gold.Chemscore.DEInternal.Weighted>
2.1611

> <Gold.Chemscore.Rot.Weighted>
6.7192

> <Gold.Chemscore.Internal.Correction.Weighted>
   9.000000E+99

> <Gold.Protein.RotatedTorsions>
[ 6907 6896 6895 6894 ] final -156.73 input  -60.11 | X-H torsion
[ 7974 7965 7964 7962 ] final  -50.29 input  175.53 | X-H torsion
[ 8008 7997 7996 7995 ] final   -3.51 input   59.86 | X-H torsion
[ 10167 10162 10161 10158 ] final -165.03 input  -65.29 | X-H torsion
[ 10718 10713 10712 10709 ] final  140.75 input   66.30 | X-H torsion
[ 10763 10752 10751 10750 ] final  168.96 input  -60.55 | X-H torsion
[ 11005 11000 10999 10996 ] final    7.28 input  -57.11 | X-H torsion

> <Gold.Protein.ActiveResidues>
 VAL166  LYS551  ARG553  GLY616  TRP617  ASP618  TYR619  PRO620  LYS621  CYS622 
 ASP623  PHE694  ASN695  SER759  ASP760  ASP761  ALA762  ILE779  LEU786  VAL792 
 PHE793  MET794  SER795  GLU796  ALA797  LYS798  CYS799  TRP800  GLU811  SER814 

> <Gold.Protein.RotatedAtoms>
  151.2921  133.4160  159.2633 H   0  0  0  0  0  0  0  0  0  0  0  0  # atno 6907 bound_to 6896
  151.0268  134.9510  159.8100 H   0  0  0  0  0  0  0  0  0  0  0  0  # atno 6908 bound_to 6896
  152.5337  134.2883  159.9086 H   0  0  0  0  0  0  0  0  0  0  0  0  # atno 6909 bound_to 6896
  145.9314  140.7746  142.9598 H   0  0  0  0  0  0  0  0  0  0  0  0  # atno 7974 bound_to 7965
  154.6241  140.2507  155.7513 H   0  0  0  0  0  0  0  0  0  0  0  0  # atno 8008 bound_to 7997
  156.2443  140.2920  156.0483 H   0  0  0  0  0  0  0  0  0  0  0  0  # atno 8009 bound_to 7997
  155.1849  140.0390  157.2879 H   0  0  0  0  0  0  0  0  0  0  0  0  # atno 8010 bound_to 7997
  139.6210  144.0625  152.1932 H   0  0  0  0  0  0  0  0  0  0  0  0  # atno 10167 bound_to 10162
  157.3998  131.1015  151.0563 H   0  0  0  0  0  0  0  0  0  0  0  0  # atno 10718 bound_to 10713
  154.3762  135.2753  155.2238 H   0  0  0  0  0  0  0  0  0  0  0  0  # atno 10763 bound_to 10752
  154.4364  135.5965  153.6105 H   0  0  0  0  0  0  0  0  0  0  0  0  # atno 10764 bound_to 10752
  152.9836  135.6008  154.3999 H   0  0  0  0  0  0  0  0  0  0  0  0  # atno 10765 bound_to 10752
  140.5500  134.0292  155.7933 H   0  0  0  0  0  0  0  0  0  0  0  0  # atno 11005 bound_to 11000
  144.6765  140.2133  143.7374 LP  0  0  0  0  0  0  0  0  0  0  0  0  # atno 17320 bound_to 7965
  145.8421  139.2135  143.1821 LP  0  0  0  0  0  0  0  0  0  0  0  0  # atno 17321 bound_to 7965
  140.0267  144.6112  150.7521 LP  0  0  0  0  0  0  0  0  0  0  0  0  # atno 17342 bound_to 10162
  140.7381  143.2774  151.3699 LP  0  0  0  0  0  0  0  0  0  0  0  0  # atno 17343 bound_to 10162
  157.1566  130.6207  149.5598 LP  0  0  0  0  0  0  0  0  0  0  0  0  # atno 17370 bound_to 10713
  155.9820  130.4831  150.6858 LP  0  0  0  0  0  0  0  0  0  0  0  0  # atno 17371 bound_to 10713
  141.1177  133.9513  157.2790 LP  0  0  0  0  0  0  0  0  0  0  0  0  # atno 17394 bound_to 11000
  139.9460  135.0184  156.8853 LP  0  0  0  0  0  0  0  0  0  0  0  0  # atno 17395 bound_to 11000

$$$$
