#       Name:                AV-unprocessed.smi:3254
#       Creating user name   scv26
#       Creation time:       Fri Mar 27 18:34:56 2020


#       File generated by GOLD software.
#

@<TRIPOS>MOLECULE
AV-unprocessed.smi:3254
    41    42     1
SMALL
NO_CHARGES


@<TRIPOS>ATOM
      1 ****        -3.3093  -4.1037   1.0788 C.3            1 S1                 0.0000
      2 ****        -3.8099  -2.6586   1.2074 C.3            1 S1                 0.0000
      3 ****        -3.0034  -1.7399   0.4090 N.am           1 S1                 0.0000
      4 ****        -2.0367  -0.8593   1.0430 C.3            1 S1                 0.0000
      5 ****        -1.2591  -0.1939  -0.1135 C.3            1 S1                 0.0000
      6 ****         0.1887  -0.7000  -0.2124 C.2            1 S1                 0.0000
      7 ****         0.4168  -1.9035  -0.3369 O.2            1 S1                 0.0000
      8 ****         1.1517   0.2319  -0.1519 N.am           1 S1                 0.0000
      9 ****         2.5870  -0.0263  -0.2213 C.3            1 S1                 0.0000
     10 ****         3.3013   1.0216  -1.0901 C.3            1 S1                 0.0000
     11 ****         3.2379   2.3694  -0.5159 N.pl3          1 S1                 0.0000
     12 ****         3.9403   2.8472   0.5607 C.2            1 S1                 0.0000
     13 ****         3.5594   4.1538   0.7273 C.2            1 S1                 0.0000
     14 ****         2.6447   4.4195  -0.2563 N.pl3          1 S1                 1.0000
     15 ****         2.4525   3.3341  -1.0129 C.2            1 S1                 0.0000
     16 ****        -2.0642  -0.5326  -1.3842 C.3            1 S1                 0.0000
     17 ****        -3.0780  -1.5627  -0.9145 C.2            1 S1                 0.0000
     18 ****        -3.8429  -2.1436  -1.6829 O.2            1 S1                 0.0000
     19 ****        -3.9041  -4.7766   1.6966 H              1 S1                 0.0000
     20 ****        -2.2705  -4.1891   1.3990 H              1 S1                 0.0000
     21 ****        -3.3726  -4.4573   0.0493 H              1 S1                 0.0000
     22 ****        -4.8535  -2.5952   0.8955 H              1 S1                 0.0000
     23 ****        -3.7829  -2.3514   2.2536 H              1 S1                 0.0000
     24 ****        -2.5643  -0.1106   1.6353 H              1 S1                 0.0000
     25 ****        -1.3954  -1.4236   1.7227 H              1 S1                 0.0000
     26 ****        -1.2475   0.8874   0.0348 H              1 S1                 0.0000
     27 ****         0.8665   1.1937  -0.0402 H              1 S1                 0.0000
     28 ****         2.9942  -0.0257   0.7903 H              1 S1                 0.0000
     29 ****         2.7852  -1.0164  -0.6348 H              1 S1                 0.0000
     30 ****         4.3556   0.7636  -1.1955 H              1 S1                 0.0000
     31 ****         2.8790   1.0451  -2.0961 H              1 S1                 0.0000
     32 ****         4.6398   2.2375   1.1142 H              1 S1                 0.0000
     33 ****         3.8637   4.8950   1.4519 H              1 S1                 0.0000
     34 ****         1.7917   3.2538  -1.8577 H              1 S1                 0.0000
     35 ****        -2.5883   0.3451  -1.7639 H              1 S1                 0.0000
     36 ****        -1.4563  -0.9386  -2.1945 H              1 S1                 0.0000
     37 ****         2.1823   5.3094  -0.3952 H              1 S1                 0.0000
     38 ****        -0.3411  -2.5548  -0.3739 LP             1 S1                 0.0000
     39 ****         1.3600  -2.2296  -0.4009 LP             1 S1                 0.0000
     40 ****        -4.4878  -2.8210  -1.3291 LP             1 S1                 0.0000
     41 ****        -3.8198  -1.9384  -2.6613 LP             1 S1                 0.0000
@<TRIPOS>BOND
    1    1    2 1     
    2    1   19 1     
    3    1   20 1     
    4    1   21 1     
    5    2    3 1     
    6    2   22 1     
    7    2   23 1     
    8    3   17 am    
    9    3    4 1     
   10    4    5 1     
   11    4   24 1     
   12    4   25 1     
   13    5    6 1     
   14    5   16 1     
   15    5   26 1     
   16    6    7 2     
   17    6    8 am    
   18    8    9 1     
   19    8   27 1     
   20    9   10 1     
   21    9   28 1     
   22    9   29 1     
   23   10   11 1     
   24   10   30 1     
   25   10   31 1     
   26   11   15 1     
   27   11   12 1     
   28   12   13 2     
   29   12   32 1     
   30   13   14 1     
   31   13   33 1     
   32   14   15 2     
   33   14   37 1     
   34   15   34 1     
   35   16   17 1     
   36   16   35 1     
   37   16   36 1     
   38   17   18 2     
   39    7   38 1     
   40    7   39 1     
   41   18   40 1     
   42   18   41 1     
@<TRIPOS>SUBSTRUCTURE
      1 S1             1
@<TRIPOS>SET
LONE_PAIRS      STATIC     ATOMS    <user>   **** ""
4 38 39 40 41
DONOR_HYDROGENS      STATIC     ATOMS    <user>   **** ""
2 27 37
ATOM$BLUE        STATIC     ATOMS    COLORGROUP SYSTEM
4 38 39 40 41
ATOM$RED        STATIC     ATOMS    COLORGROUP SYSTEM
2 27 37
