#       Name:                AV-unprocessed.smi:861
#       Creating user name   scv26
#       Creation time:       Fri Mar 27 01:44:47 2020


#       File generated by GOLD software.
#

@<TRIPOS>MOLECULE
AV-unprocessed.smi:861
    48    49     1
SMALL
NO_CHARGES


@<TRIPOS>ATOM
      1 ****         9.0073  -2.5155  -4.9468 C.3            1 S1                 0.0000
      2 ****         9.5006  -1.0709  -4.7542 C.3            1 S1                 0.0000
      3 ****        11.0234  -0.9993  -4.9488 C.3            1 S1                 0.0000
      4 ****         9.0975  -0.4837  -3.3852 C.3            1 S1                 0.0000
      5 ****         7.5846  -0.2267  -3.2336 C.3            1 S1                 0.0000
      6 ****         7.2259   0.3097  -1.8955 N.4            1 S1                 1.0000
      7 ****         7.6139   1.7288  -1.7008 C.3            1 S1                 0.0000
      8 ****         7.2321   2.2029  -0.2900 C.3            1 S1                 0.0000
      9 ****         5.8382   2.0128  -0.0855 O.3            1 S1                 0.0000
     10 ****         5.4582   0.6441  -0.1663 C.3            1 S1                 0.0000
     11 ****         3.9550   0.5729   0.1624 C.3            1 S1                 0.0000
     12 ****         3.4603  -0.7922   0.2841 N.pl3          1 S1                 0.0000
     13 ****         3.6184  -1.5374   1.4616 C.ar           1 S1                 0.0000
     14 ****         3.1626  -2.8652   1.6379 C.ar           1 S1                 0.0000
     15 ****         3.3918  -3.4901   2.8757 C.ar           1 S1                 0.0000
     16 ****         4.0645  -2.7509   3.8646 C.ar           1 S1                 0.0000
     17 ****         4.4933  -1.4831   3.6766 N.ar           1 S1                 0.0000
     18 ****         4.2592  -0.9130   2.4816 N.pl3          1 S1                 1.0000
     19 ****         5.7879   0.1221  -1.5817 C.3            1 S1                 0.0000
     20 ****         9.3983  -3.1749  -4.1710 H              1 S1                 0.0000
     21 ****         9.3305  -2.9126  -5.9097 H              1 S1                 0.0000
     22 ****         7.9201  -2.5808  -4.9253 H              1 S1                 0.0000
     23 ****         9.0485  -0.4555  -5.5332 H              1 S1                 0.0000
     24 ****        11.5476  -1.5897  -4.1964 H              1 S1                 0.0000
     25 ****        11.3832   0.0275  -4.8768 H              1 S1                 0.0000
     26 ****        11.3136  -1.3771  -5.9299 H              1 S1                 0.0000
     27 ****         9.4421  -1.1440  -2.5882 H              1 S1                 0.0000
     28 ****         9.6340   0.4551  -3.2518 H              1 S1                 0.0000
     29 ****         7.2269   0.4495  -4.0114 H              1 S1                 0.0000
     30 ****         7.0557  -1.1689  -3.3768 H              1 S1                 0.0000
     31 ****         8.6864   1.8586  -1.8386 H              1 S1                 0.0000
     32 ****         7.1177   2.3501  -2.4480 H              1 S1                 0.0000
     33 ****         7.8019   1.6677   0.4713 H              1 S1                 0.0000
     34 ****         7.4644   3.2618  -0.1755 H              1 S1                 0.0000
     35 ****         6.0217   0.0793   0.5785 H              1 S1                 0.0000
     36 ****         3.7408   1.1200   1.0808 H              1 S1                 0.0000
     37 ****         3.3846   1.0730  -0.6206 H              1 S1                 0.0000
     38 ****         2.9404  -1.1857  -0.4876 H              1 S1                 0.0000
     39 ****         2.6485  -3.4048   0.8570 H              1 S1                 0.0000
     40 ****         3.0647  -4.5025   3.0628 H              1 S1                 0.0000
     41 ****         4.2650  -3.1865   4.8325 H              1 S1                 0.0000
     42 ****         5.1841   0.6433  -2.3268 H              1 S1                 0.0000
     43 ****         5.5375  -0.9373  -1.6511 H              1 S1                 0.0000
     44 ****         7.7401  -0.2351  -1.2178 H              1 S1                 0.0000
     45 ****         4.5841   0.0427   2.3328 H              1 S1                 0.0000
     46 ****         5.3385   2.5262  -0.7832 LP             1 S1                 0.0000
     47 ****         5.5965   2.3599   0.8207 LP             1 S1                 0.0000
     48 ****         4.9689  -0.9856   4.4021 LP             1 S1                 0.0000
@<TRIPOS>BOND
    1    1    2 1     
    2    1   20 1     
    3    1   21 1     
    4    1   22 1     
    5    2    3 1     
    6    2    4 1     
    7    2   23 1     
    8    3   24 1     
    9    3   25 1     
   10    3   26 1     
   11    4    5 1     
   12    4   27 1     
   13    4   28 1     
   14    5    6 1     
   15    5   29 1     
   16    5   30 1     
   17    6   19 1     
   18    6    7 1     
   19    6   44 1     
   20    7    8 1     
   21    7   31 1     
   22    7   32 1     
   23    8    9 1     
   24    8   33 1     
   25    8   34 1     
   26    9   10 1     
   27   10   11 1     
   28   10   19 1     
   29   10   35 1     
   30   11   12 1     
   31   11   36 1     
   32   11   37 1     
   33   12   13 1     
   34   12   38 1     
   35   13   18 ar    
   36   13   14 ar    
   37   14   15 ar    
   38   14   39 1     
   39   15   16 ar    
   40   15   40 1     
   41   16   17 ar    
   42   16   41 1     
   43   17   18 ar    
   44   18   45 1     
   45   19   42 1     
   46   19   43 1     
   47    9   46 1     
   48    9   47 1     
   49   17   48 1     
@<TRIPOS>SUBSTRUCTURE
      1 S1             1
@<TRIPOS>SET
LONE_PAIRS      STATIC     ATOMS    <user>   **** ""
3 46 47 48
DONOR_HYDROGENS      STATIC     ATOMS    <user>   **** ""
3 44 38 45
ATOM$BLUE        STATIC     ATOMS    COLORGROUP SYSTEM
3 46 47 48
ATOM$RED        STATIC     ATOMS    COLORGROUP SYSTEM
3 44 38 45
