AV-unprocessed.smi:3046|AV-procd|sdf|11620|dock10
  -GOLD-   2272017 03D 1   1.00000     0.00000
 Structure written by MMmdl.
 37 37  0  0  0  0  0  0  0  0  1 V2000
  152.2329  139.2009  154.0847 C   0  0  0  0  0  0  0  0  0  0  0  0
  151.0135  138.8527  153.6476 C   0  0  0  0  0  0  0  0  0  0  0  0
  149.9613  138.1686  154.4978 C   0  0  0  0  0  0  0  0  0  0  0  0
  148.7368  137.9352  153.7433 N   0  0  0  0  0  0  0  0  0  0  0  0
  147.5008  138.2643  154.1529 C   0  0  0  0  0  0  0  0  0  0  0  0
  147.2759  138.7951  155.2415 O   0  0  0  0  0  0  0  0  0  0  0  0
  146.3590  137.9401  153.1765 C   0  0  1  0  0  0  0  0  0  0  0  0
  146.5074  138.6980  151.8415 C   0  0  0  0  0  0  0  0  0  0  0  0
  146.2997  136.4879  152.9406 N   0  0  0  0  0  0  0  0  0  0  0  0
  145.1258  136.0154  152.2093 C   0  0  1  0  0  0  0  0  0  0  0  0
  145.3775  135.9841  150.6891 C   0  0  0  0  0  0  0  0  0  0  0  0
  144.7129  134.6389  152.7803 C   0  0  0  0  0  0  0  0  0  0  0  0
  144.9193  133.5291  151.8622 N   0  0  0  0  0  0  0  0  0  0  0  0
  143.9736  132.7036  151.2899 C   0  0  0  0  0  0  0  0  0  0  0  0
  144.6375  131.8082  150.5016 C   0  0  0  0  0  0  0  0  0  0  0  0
  146.0052  132.1666  150.6617 C   0  0  0  0  0  0  0  0  0  0  0  0
  146.1708  133.1944  151.4783 N   0  0  0  0  0  0  0  0  0  0  0  0
  152.5401  139.0090  155.1023 H   0  0  0  0  0  0  0  0  0  0  0  0
  152.9404  139.6851  153.4277 H   0  0  0  0  0  0  0  0  0  0  0  0
  150.7421  139.0599  152.6226 H   0  0  0  0  0  0  0  0  0  0  0  0
  150.3520  137.2055  154.8259 H   0  0  0  0  0  0  0  0  0  0  0  0
  149.7539  138.7500  155.3980 H   0  0  0  0  0  0  0  0  0  0  0  0
  148.8339  137.5084  152.8335 H   0  0  0  0  0  0  0  0  0  0  0  0
  145.4416  138.2758  153.6631 H   0  0  0  0  0  0  0  0  0  0  0  0
  146.5581  139.7756  152.0017 H   0  0  0  0  0  0  0  0  0  0  0  0
  145.6639  138.5148  151.1772 H   0  0  0  0  0  0  0  0  0  0  0  0
  147.4108  138.3978  151.3090 H   0  0  0  0  0  0  0  0  0  0  0  0
  147.1523  136.1264  152.5362 H   0  0  0  0  0  0  0  0  0  0  0  0
  144.3048  136.7042  152.4142 H   0  0  0  0  0  0  0  0  0  0  0  0
  144.5379  135.5231  150.1685 H   0  0  0  0  0  0  0  0  0  0  0  0
  146.2750  135.4177  150.4377 H   0  0  0  0  0  0  0  0  0  0  0  0
  145.4905  136.9881  150.2804 H   0  0  0  0  0  0  0  0  0  0  0  0
  145.2422  134.4308  153.7118 H   0  0  0  0  0  0  0  0  0  0  0  0
  143.6531  134.6608  153.0368 H   0  0  0  0  0  0  0  0  0  0  0  0
  142.9183  132.8235  151.4868 H   0  0  0  0  0  0  0  0  0  0  0  0
  144.2115  131.0174  149.9024 H   0  0  0  0  0  0  0  0  0  0  0  0
  146.8768  131.7134  150.2129 H   0  0  0  0  0  0  0  0  0  0  0  0
  1  2  2  0  0  0  0
  1 18  1  0  0  0  0
  1 19  1  0  0  0  0
  2  3  1  0  0  0  0
  2 20  1  0  0  0  0
  3  4  1  0  0  0  0
  3 21  1  0  0  0  0
  3 22  1  0  0  0  0
  4  5  1  0  0  0  0
  4 23  1  0  0  0  0
  5  6  2  0  0  0  0
  5  7  1  0  0  0  0
  7  8  1  0  0  0  0
  7  9  1  0  0  0  0
  7 24  1  0  0  0  0
  8 25  1  0  0  0  0
  8 26  1  0  0  0  0
  8 27  1  0  0  0  0
  9 10  1  0  0  0  0
  9 28  1  0  0  0  0
 10 11  1  0  0  0  0
 10 12  1  0  0  0  0
 10 29  1  0  0  0  0
 11 30  1  0  0  0  0
 11 31  1  0  0  0  0
 11 32  1  0  0  0  0
 12 13  1  0  0  0  0
 12 33  1  0  0  0  0
 12 34  1  0  0  0  0
 13 17  1  0  0  0  0
 13 14  1  0  0  0  0
 14 15  2  0  0  0  0
 14 35  1  0  0  0  0
 15 16  1  0  0  0  0
 15 36  1  0  0  0  0
 16 17  2  0  0  0  0
 16 37  1  0  0  0  0
M  END
> <s_m_source_file>
AV-unprocessed.smi

> <i_m_source_file_index>
3046

> <i_lp_mmshare_version>
43012

> <i_f3d_flags>
0

> <s_epik_input>
W0NIMl09W0NIXVtDSDJdW05IXUMoPU8pW0NASF0oW0NIM10pW05IXVtDQEhdKFtDSDNdKVtDSDJdbjFbY0hdW2NIXVtjSF1uMQ==

> <s_epik_cmdline>
J2VwaWtfcHl0aG9uJywgJy1waCcsICc3LjAnLCAnLXRuJywgJzgnLCAnLW1hJywgJzIwMCcsICctbWV0YWxfYmluZGluZycsICctaW1hZScsICc8aW5maWxlLm1hZT4nLCAnLW9tYWUnLCAnPG91dGZpbGUubWFlPic=

> <r_lp_tautomer_probability>
1

> <r_epik_Ionization_Penalty>
0.950627

> <r_epik_Ionization_Penalty_Charging>
0

> <r_epik_Ionization_Penalty_Neutral>
0.950627

> <r_epik_State_Penalty>
0.994814

> <r_epik_Charging_Adjusted_Penalty>
0.994814

> <i_epik_Tot_Q>
0

> <i_epik_Tot_abs_Q>
0

> <r_epik_Metal_State_Penalty>
0.994788

> <b_epik_Metal_Only>
0

> <s_lp_Force_Field>
OPLS_2005

> <r_lp_Energy>
8.07161

> <b_lp_Chiralities_Consistent>
1

> <s_lp_Variant>
AV-unprocessed.smi:3046-8

> <Gold.Version>
5.8.1

> <Gold.Id.Protein>
6NUR|6NUR_protein|mol2

> <Gold.PLP.Fitness>
41.9726

> <Gold.PLP.PLP>
-32.2522

> <Gold.PLP.part.hbond>
-2.0000

> <Gold.PLP.part.metal>
0.0000

> <Gold.PLP.part.buried>
-3.8742

> <Gold.PLP.part.nonpolar>
-27.6723

> <Gold.PLP.part.repulsive>
0.1892

> <Gold.PLP.ligand.clash>
0.0000

> <Gold.PLP.ligand.torsion>
1.2362

> <Gold.PLP.Chemscore.Hbond>
2.0000

> <Gold.PLP.Chemscore.CHOScore>
2.0000

> <Gold.PLP.Chemscore.Metal>
0.0000

> <Gold.Chemscore.Hbonds>
donor molecule, donor type, donor heavy atom, donor atom, acceptor molecule, acceptor atom, score
      L1  H     4    23       P1  7948  1.00
      L1  H     9    28       P1  7948  1.00
      L1  C    16    37       P1 10747  1.00

> <Gold.PLP.Chemscore.Internal.Correction>
0.1928

> <Gold.Rescore>
     Score         DG    S(hbond)    S(metal)    S(lipo)     H(rot)  DE(clash)    DE(int)     intcor
     14.05     -15.93       1.94        0.00      81.43       2.17       0.46       1.43       ----

> <Gold.Chemscore.Fitness>
14.0518

> <Gold.Chemscore.DG>
-15.9339

> <Gold.Chemscore.ZeroCoef>
-5.4800

> <Gold.Chemscore.Hbond>
1.9435

> <Gold.Chemscore.Metal>
0.0000

> <Gold.Chemscore.Lipo>
81.4326

> <Gold.Chemscore.Internal_Hbond>
0.0000

> <Gold.Chemscore.DEClash>
0.4570

> <Gold.Chemscore.DEInternal>
1.4251

> <Gold.Chemscore.Rot>
2.1739

> <Gold.Chemscore.Internal.Correction>
   9.000000E+99

> <Gold.Chemscore.Hbonds>
donor molecule, donor type, donor heavy atom, donor atom, acceptor molecule, acceptor atom, score
      L1  H     4    23       P1  7948  0.95
      L1  H     9    28       P1  7948  0.98

> <Gold.Chemscore.Hbond.Weighted>
-6.4914

> <Gold.Chemscore.Metal.Weighted>
-0.0000

> <Gold.Chemscore.Lipo.Weighted>
-9.5276

> <Gold.Chemscore.Internal_Hbond.Weighted>
0.0000

> <Gold.Chemscore.DEClash.Weighted>
0.4570

> <Gold.Chemscore.DEInternal.Weighted>
1.4251

> <Gold.Chemscore.Rot.Weighted>
5.5652

> <Gold.Chemscore.Internal.Correction.Weighted>
   9.000000E+99

> <Gold.Protein.RotatedTorsions>
[ 6907 6896 6895 6894 ] final  158.78 input  -60.11 | X-H torsion
[ 7974 7965 7964 7962 ] final  -99.08 input  175.53 | X-H torsion
[ 8008 7997 7996 7995 ] final  -96.42 input   59.86 | X-H torsion
[ 10167 10162 10161 10158 ] final  168.06 input  -65.29 | X-H torsion
[ 10718 10713 10712 10709 ] final  -63.15 input   66.30 | X-H torsion
[ 10763 10752 10751 10750 ] final  -49.48 input  -60.55 | X-H torsion
[ 11005 11000 10999 10996 ] final  -59.57 input  -57.11 | X-H torsion

> <Gold.Protein.ActiveResidues>
 VAL166  LYS551  ARG553  GLY616  TRP617  ASP618  TYR619  PRO620  LYS621  CYS622 
 ASP623  PHE694  ASN695  SER759  ASP760  ASP761  ALA762  ILE779  LEU786  VAL792 
 PHE793  MET794  SER795  GLU796  ALA797  LYS798  CYS799  TRP800  GLU811  SER814 

> <Gold.Protein.RotatedAtoms>
  151.9953  133.3805  159.4159 H   0  0  0  0  0  0  0  0  0  0  0  0  # atno 6907 bound_to 6896
  150.6916  134.3893  159.5078 H   0  0  0  0  0  0  0  0  0  0  0  0  # atno 6908 bound_to 6896
  152.1632  134.8895  160.0591 H   0  0  0  0  0  0  0  0  0  0  0  0  # atno 6909 bound_to 6896
  145.3122  140.9403  143.2763 H   0  0  0  0  0  0  0  0  0  0  0  0  # atno 7974 bound_to 7965
  154.7742  140.0471  157.1076 H   0  0  0  0  0  0  0  0  0  0  0  0  # atno 8008 bound_to 7997
  154.9783  140.3098  155.4938 H   0  0  0  0  0  0  0  0  0  0  0  0  # atno 8009 bound_to 7997
  156.2926  140.2240  156.4880 H   0  0  0  0  0  0  0  0  0  0  0  0  # atno 8010 bound_to 7997
  139.4959  144.3855  151.9575 H   0  0  0  0  0  0  0  0  0  0  0  0  # atno 10167 bound_to 10162
  156.0809  130.4217  150.1237 H   0  0  0  0  0  0  0  0  0  0  0  0  # atno 10718 bound_to 10713
  154.0947  135.6572  153.4858 H   0  0  0  0  0  0  0  0  0  0  0  0  # atno 10763 bound_to 10752
  153.0309  135.5211  154.7345 H   0  0  0  0  0  0  0  0  0  0  0  0  # atno 10764 bound_to 10752
  154.6480  135.2997  154.9991 H   0  0  0  0  0  0  0  0  0  0  0  0  # atno 10765 bound_to 10752
  141.1253  133.6617  156.5092 H   0  0  0  0  0  0  0  0  0  0  0  0  # atno 11005 bound_to 11000
  144.9007  139.4654  143.6634 LP  0  0  0  0  0  0  0  0  0  0  0  0  # atno 17320 bound_to 7965
  146.3114  139.7759  142.9017 LP  0  0  0  0  0  0  0  0  0  0  0  0  # atno 17321 bound_to 7965
  140.3291  144.3337  150.5991 LP  0  0  0  0  0  0  0  0  0  0  0  0  # atno 17342 bound_to 10162
  140.5659  143.2186  151.7684 LP  0  0  0  0  0  0  0  0  0  0  0  0  # atno 17343 bound_to 10162
  156.9268  130.9701  151.3539 LP  0  0  0  0  0  0  0  0  0  0  0  0  # atno 17370 bound_to 10713
  157.5925  130.8454  149.8680 LP  0  0  0  0  0  0  0  0  0  0  0  0  # atno 17371 bound_to 10713
  140.4383  134.7039  157.4978 LP  0  0  0  0  0  0  0  0  0  0  0  0  # atno 17394 bound_to 11000
  140.0246  134.6495  155.9190 LP  0  0  0  0  0  0  0  0  0  0  0  0  # atno 17395 bound_to 11000

$$$$
