AV-unprocessed.smi:2098|AV-procd|sdf|8565|dock1
  -GOLD-   2272011293D 1   1.00000     0.00000
 Structure written by MMmdl.
 36 38  0  0  0  0  0  0  0  0  1 V2000
  149.7825  140.8583  153.7334 O   0  0  0  0  0  0  0  0  0  0  0  0
  148.8084  141.4403  154.5778 C   0  0  2  0  0  0  0  0  0  0  0  0
  147.6692  141.9847  153.7016 C   0  0  0  0  0  0  0  0  0  0  0  0
  146.7633  142.7124  154.5207 O   0  0  0  0  0  0  0  0  0  0  0  0
  146.0824  143.7715  153.9592 C   0  0  0  0  0  0  0  0  0  0  0  0
  145.1908  144.4743  154.7961 C   0  0  0  0  0  0  0  0  0  0  0  0
  144.4510  145.5676  154.3055 C   0  0  0  0  0  0  0  0  0  0  0  0
  144.5966  145.9704  152.9654 C   0  0  0  0  0  0  0  0  0  0  0  0
  143.8845  147.0198  152.4910 F   0  0  0  0  0  0  0  0  0  0  0  0
  145.4842  145.2802  152.1193 C   0  0  0  0  0  0  0  0  0  0  0  0
  146.2248  144.1872  152.6106 C   0  0  0  0  0  0  0  0  0  0  0  0
  149.4685  142.5543  155.4135 C   0  0  0  0  0  0  0  0  0  0  0  0
  149.9997  142.0685  156.6751 N   0  0  0  0  0  0  0  0  0  0  0  0
  149.8998  140.8189  157.1676 C   0  0  0  0  0  0  0  0  0  0  0  0
  150.4563  140.5838  158.3525 N   0  0  0  0  0  0  0  0  0  0  0  0
  150.9787  141.8267  158.6667 C   0  0  0  0  0  0  0  0  0  0  0  0
  151.6982  142.2577  159.8046 C   0  0  0  0  0  0  0  0  0  0  0  0
  152.1375  143.5941  159.9084 C   0  0  0  0  0  0  0  0  0  0  0  0
  151.8653  144.5180  158.8786 C   0  0  0  0  0  0  0  0  0  0  0  0
  151.1495  144.1122  157.7358 C   0  0  0  0  0  0  0  0  0  0  0  0
  150.7114  142.7784  157.6366 C   0  0  0  0  0  0  0  0  0  0  0  0
  149.3487  140.2548  153.1494 H   0  0  0  0  0  0  0  0  0  0  0  0
  148.4210  140.6745  155.2512 H   0  0  0  0  0  0  0  0  0  0  0  0
  148.0800  142.6685  152.9566 H   0  0  0  0  0  0  0  0  0  0  0  0
  147.1716  141.1715  153.1700 H   0  0  0  0  0  0  0  0  0  0  0  0
  145.0722  144.1716  155.8263 H   0  0  0  0  0  0  0  0  0  0  0  0
  143.7715  146.0961  154.9578 H   0  0  0  0  0  0  0  0  0  0  0  0
  145.5976  145.5886  151.0905 H   0  0  0  0  0  0  0  0  0  0  0  0
  146.8957  143.6845  151.9308 H   0  0  0  0  0  0  0  0  0  0  0  0
  150.2756  143.0259  154.8513 H   0  0  0  0  0  0  0  0  0  0  0  0
  148.7437  143.3395  155.6321 H   0  0  0  0  0  0  0  0  0  0  0  0
  149.3884  140.0372  156.6248 H   0  0  0  0  0  0  0  0  0  0  0  0
  151.9126  141.5585  160.5991 H   0  0  0  0  0  0  0  0  0  0  0  0
  152.6864  143.9120  160.7827 H   0  0  0  0  0  0  0  0  0  0  0  0
  152.2064  145.5390  158.9666 H   0  0  0  0  0  0  0  0  0  0  0  0
  150.9415  144.8167  156.9444 H   0  0  0  0  0  0  0  0  0  0  0  0
  1  2  1  0  0  0  0
  1 22  1  0  0  0  0
  2  3  1  0  0  0  0
  2 12  1  0  0  0  0
  2 23  1  0  0  0  0
  3  4  1  0  0  0  0
  3 24  1  0  0  0  0
  3 25  1  0  0  0  0
  4  5  1  0  0  0  0
  5 11  1  0  0  0  0
  5  6  2  0  0  0  0
  6  7  1  0  0  0  0
  6 26  1  0  0  0  0
  7  8  2  0  0  0  0
  7 27  1  0  0  0  0
  8  9  1  0  0  0  0
  8 10  1  0  0  0  0
 10 11  2  0  0  0  0
 10 28  1  0  0  0  0
 11 29  1  0  0  0  0
 12 13  1  0  0  0  0
 12 30  1  0  0  0  0
 12 31  1  0  0  0  0
 13 21  1  0  0  0  0
 13 14  1  0  0  0  0
 14 15  2  0  0  0  0
 14 32  1  0  0  0  0
 15 16  1  0  0  0  0
 16 21  2  0  0  0  0
 16 17  1  0  0  0  0
 17 18  2  0  0  0  0
 17 33  1  0  0  0  0
 18 19  1  0  0  0  0
 18 34  1  0  0  0  0
 19 20  2  0  0  0  0
 19 35  1  0  0  0  0
 20 21  1  0  0  0  0
 20 36  1  0  0  0  0
M  END
> <s_m_source_file>
AV-unprocessed.smi

> <i_m_source_file_index>
2098

> <i_lp_mmshare_version>
43012

> <i_f3d_flags>
0

> <s_epik_input>
W2NIXTFbY0hdW2NIXVtjSF1jKGMxMiluKFtjSF1uMilbQ0gyXVtDQEhdKFtPSF0pW0NIMl1PYzNbY0hdW2NIXWMoRilbY0hdW2NIXTM=

> <s_epik_cmdline>
J2VwaWtfcHl0aG9uJywgJy1waCcsICc3LjAnLCAnLXRuJywgJzgnLCAnLW1hJywgJzIwMCcsICctbWV0YWxfYmluZGluZycsICctaW1hZScsICc8aW5maWxlLm1hZT4nLCAnLW9tYWUnLCAnPG91dGZpbGUubWFlPic=

> <r_lp_tautomer_probability>
1

> <r_epik_Ionization_Penalty>
0.0603575

> <r_epik_Ionization_Penalty_Charging>
0

> <r_epik_Ionization_Penalty_Neutral>
0.0603575

> <r_epik_State_Penalty>
0.0523204

> <r_epik_Charging_Adjusted_Penalty>
0.0523204

> <i_epik_Tot_Q>
0

> <i_epik_Tot_abs_Q>
0

> <r_epik_Metal_State_Penalty>
5.46976e-05

> <b_epik_Metal_Only>
0

> <s_lp_Force_Field>
OPLS_2005

> <r_lp_Energy>
15.3662

> <b_lp_Chiralities_Consistent>
1

> <s_lp_Variant>
AV-unprocessed.smi:2098-1

> <Gold.Version>
5.8.1

> <Gold.Id.Protein>
6NUR|6NUR_protein|mol2

> <Gold.PLP.Fitness>
55.6189

> <Gold.PLP.PLP>
-51.2725

> <Gold.PLP.part.hbond>
-2.7527

> <Gold.PLP.part.metal>
0.0000

> <Gold.PLP.part.buried>
-1.1147

> <Gold.PLP.part.nonpolar>
-47.4373

> <Gold.PLP.part.repulsive>
0.1507

> <Gold.PLP.ligand.clash>
0.0000

> <Gold.PLP.ligand.torsion>
0.6103

> <Gold.PLP.Chemscore.Hbond>
1.8160

> <Gold.PLP.Chemscore.CHOScore>
0.0000

> <Gold.PLP.Chemscore.Metal>
0.0000

> <Gold.Chemscore.Hbonds>
donor molecule, donor type, donor heavy atom, donor atom, acceptor molecule, acceptor atom, score
      L1  H     1    22       P1  7957  0.56
      P1  H  7989  7998       L1     1  0.42
      P1  H  8011  8017       L1     1  0.47

> <Gold.PLP.Chemscore.Internal.Correction>
0.1191

> <Gold.Rescore>
     Score         DG    S(hbond)    S(metal)    S(lipo)     H(rot)  DE(clash)    DE(int)     intcor
     15.25     -17.91       1.12        0.00     126.25       2.37       1.79       0.87       ----

> <Gold.Chemscore.Fitness>
15.2467

> <Gold.Chemscore.DG>
-17.9065

> <Gold.Chemscore.ZeroCoef>
-5.4800

> <Gold.Chemscore.Hbond>
1.1172

> <Gold.Chemscore.Metal>
0.0000

> <Gold.Chemscore.Lipo>
126.2485

> <Gold.Chemscore.Internal_Hbond>
0.0000

> <Gold.Chemscore.DEClash>
1.7939

> <Gold.Chemscore.DEInternal>
0.8659

> <Gold.Chemscore.Rot>
2.3735

> <Gold.Chemscore.Internal.Correction>
   9.000000E+99

> <Gold.Chemscore.Hbonds>
donor molecule, donor type, donor heavy atom, donor atom, acceptor molecule, acceptor atom, score
      L1  H     1    22       P1  7957  0.53
      P1  H  7989  7998       L1     1  0.34
      P1  H  8011  8017       L1     1  0.01

> <Gold.Chemscore.Hbond.Weighted>
-3.7316

> <Gold.Chemscore.Metal.Weighted>
-0.0000

> <Gold.Chemscore.Lipo.Weighted>
-14.7711

> <Gold.Chemscore.Internal_Hbond.Weighted>
0.0000

> <Gold.Chemscore.DEClash.Weighted>
1.7939

> <Gold.Chemscore.DEInternal.Weighted>
0.8659

> <Gold.Chemscore.Rot.Weighted>
6.0762

> <Gold.Chemscore.Internal.Correction.Weighted>
   9.000000E+99

> <Gold.Protein.RotatedTorsions>
[ 6907 6896 6895 6894 ] final  -56.16 input  -60.11 | X-H torsion
[ 7974 7965 7964 7962 ] final   59.11 input  175.53 | X-H torsion
[ 8008 7997 7996 7995 ] final   28.79 input   59.86 | X-H torsion
[ 10167 10162 10161 10158 ] final -163.87 input  -65.29 | X-H torsion
[ 10718 10713 10712 10709 ] final   29.51 input   66.30 | X-H torsion
[ 10763 10752 10751 10750 ] final  169.30 input  -60.55 | X-H torsion
[ 11005 11000 10999 10996 ] final    0.95 input  -57.11 | X-H torsion

> <Gold.Protein.ActiveResidues>
 VAL166  LYS551  ARG553  GLY616  TRP617  ASP618  TYR619  PRO620  LYS621  CYS622 
 ASP623  PHE694  ASN695  SER759  ASP760  ASP761  ALA762  ILE779  LEU786  VAL792 
 PHE793  MET794  SER795  GLU796  ALA797  LYS798  CYS799  TRP800  GLU811  SER814 

> <Gold.Protein.RotatedAtoms>
  150.8191  134.7389  159.6756 H   0  0  0  0  0  0  0  0  0  0  0  0  # atno 6907 bound_to 6896
  152.4308  134.5778  159.9949 H   0  0  0  0  0  0  0  0  0  0  0  0  # atno 6908 bound_to 6896
  151.5967  133.3323  159.3075 H   0  0  0  0  0  0  0  0  0  0  0  0  # atno 6909 bound_to 6896
  145.9107  139.3652  143.0537 H   0  0  0  0  0  0  0  0  0  0  0  0  # atno 7974 bound_to 7965
  155.0643  140.3193  155.4650 H   0  0  0  0  0  0  0  0  0  0  0  0  # atno 8008 bound_to 7997
  156.2806  140.2123  156.5715 H   0  0  0  0  0  0  0  0  0  0  0  0  # atno 8009 bound_to 7997
  154.7106  140.0498  157.0534 H   0  0  0  0  0  0  0  0  0  0  0  0  # atno 8010 bound_to 7997
  139.6291  144.0475  152.2000 H   0  0  0  0  0  0  0  0  0  0  0  0  # atno 10167 bound_to 10162
  157.2475  130.7099  149.6389 H   0  0  0  0  0  0  0  0  0  0  0  0  # atno 10718 bound_to 10713
  154.3812  135.2753  155.2210 H   0  0  0  0  0  0  0  0  0  0  0  0  # atno 10763 bound_to 10752
  154.4316  135.5976  153.6076 H   0  0  0  0  0  0  0  0  0  0  0  0  # atno 10764 bound_to 10752
  152.9834  135.5997  154.4055 H   0  0  0  0  0  0  0  0  0  0  0  0  # atno 10765 bound_to 10752
  140.6209  133.9662  155.8224 H   0  0  0  0  0  0  0  0  0  0  0  0  # atno 11005 bound_to 11000
  145.8675  140.9439  143.0668 LP  0  0  0  0  0  0  0  0  0  0  0  0  # atno 17320 bound_to 7965
  144.6743  140.0611  143.7476 LP  0  0  0  0  0  0  0  0  0  0  0  0  # atno 17321 bound_to 7965
  140.0136  144.6205  150.7626 LP  0  0  0  0  0  0  0  0  0  0  0  0  # atno 17342 bound_to 10162
  140.7428  143.2837  151.3524 LP  0  0  0  0  0  0  0  0  0  0  0  0  # atno 17343 bound_to 10162
  155.9667  130.4438  150.5436 LP  0  0  0  0  0  0  0  0  0  0  0  0  # atno 17370 bound_to 10713
  157.3313  131.0700  151.1858 LP  0  0  0  0  0  0  0  0  0  0  0  0  # atno 17371 bound_to 10713
  141.0743  134.0158  157.3480 LP  0  0  0  0  0  0  0  0  0  0  0  0  # atno 17394 bound_to 11000
  139.9154  135.0196  156.7859 LP  0  0  0  0  0  0  0  0  0  0  0  0  # atno 17395 bound_to 11000

$$$$
