AV-unprocessed.smi:725|AV-procd|sdf|3509|dock3
  -GOLD-   22720 0503D 1   1.00000     0.00000
 Structure written by MMmdl.
 47 48  0  0  0  0  0  0  0  0  1 V2000
  154.9545  136.4191  164.7235 C   0  0  0  0  0  0  0  0  0  0  0  0
  154.5803  137.2546  163.4942 C   0  0  0  0  0  0  0  0  0  0  0  0
  155.0384  136.5957  162.1776 C   0  0  0  0  0  0  0  0  0  0  0  0
  154.7048  137.3672  160.8756 C   0  0  2  0  0  0  0  0  0  0  0  0
  153.1860  137.5901  160.7077 C   0  0  0  0  0  0  0  0  0  0  0  0
  155.1669  136.5859  159.7897 O   0  0  0  0  0  0  0  0  0  0  0  0
  155.5159  138.6884  160.8578 C   0  0  0  0  0  0  0  0  0  0  0  0
  154.6915  139.8830  161.0330 N   0  0  0  0  0  0  0  0  0  0  0  0
  153.9206  140.4507  160.0908 C   0  0  0  0  0  0  0  0  0  0  0  0
  153.8111  140.0142  158.9446 O   0  0  0  0  0  0  0  0  0  0  0  0
  153.1566  141.6676  160.5431 C   0  0  0  0  0  0  0  0  0  0  0  0
  153.6173  142.3953  161.6651 C   0  0  0  0  0  0  0  0  0  0  0  0
  152.9380  143.5586  162.0665 C   0  0  0  0  0  0  0  0  0  0  0  0
  151.8178  143.9637  161.3221 C   0  0  0  0  0  0  0  0  0  0  0  0
  151.3640  143.2877  160.2477 N   0  0  0  0  0  0  0  0  0  0  0  0
  152.0093  142.1615  159.8530 C   0  0  0  0  0  0  0  0  0  0  0  0
  151.4613  141.4775  158.7489 N   0  0  0  0  0  0  0  0  0  0  0  0
  150.5117  142.2025  157.9108 C   0  0  0  0  0  0  0  0  0  0  0  0
  150.2168  141.3928  156.6365 C   0  0  0  0  0  0  0  0  0  0  0  0
  149.7502  140.0943  156.9928 O   0  0  0  0  0  0  0  0  0  0  0  0
  150.7149  139.3664  157.7482 C   0  0  0  0  0  0  0  0  0  0  0  0
  151.0268  140.1195  159.0525 C   0  0  0  0  0  0  0  0  0  0  0  0
  154.6235  136.9072  165.6403 H   0  0  0  0  0  0  0  0  0  0  0  0
  156.0336  136.2801  164.7917 H   0  0  0  0  0  0  0  0  0  0  0  0
  154.4907  135.4331  164.6860 H   0  0  0  0  0  0  0  0  0  0  0  0
  153.5004  137.4033  163.4848 H   0  0  0  0  0  0  0  0  0  0  0  0
  155.0291  138.2417  163.5992 H   0  0  0  0  0  0  0  0  0  0  0  0
  156.1163  136.4364  162.2287 H   0  0  0  0  0  0  0  0  0  0  0  0
  154.5965  135.5998  162.1195 H   0  0  0  0  0  0  0  0  0  0  0  0
  152.7873  138.1932  161.5237 H   0  0  0  0  0  0  0  0  0  0  0  0
  152.6350  136.6505  160.6894 H   0  0  0  0  0  0  0  0  0  0  0  0
  152.9480  138.0997  159.7741 H   0  0  0  0  0  0  0  0  0  0  0  0
  156.0464  136.2983  159.9804 H   0  0  0  0  0  0  0  0  0  0  0  0
  156.2874  138.6556  161.6290 H   0  0  0  0  0  0  0  0  0  0  0  0
  156.0531  138.7877  159.9137 H   0  0  0  0  0  0  0  0  0  0  0  0
  154.7027  140.3073  161.9491 H   0  0  0  0  0  0  0  0  0  0  0  0
  154.4917  142.0762  162.2139 H   0  0  0  0  0  0  0  0  0  0  0  0
  153.2725  144.1301  162.9197 H   0  0  0  0  0  0  0  0  0  0  0  0
  151.2706  144.8536  161.5960 H   0  0  0  0  0  0  0  0  0  0  0  0
  149.5854  142.3707  158.4621 H   0  0  0  0  0  0  0  0  0  0  0  0
  150.9185  143.1798  157.6482 H   0  0  0  0  0  0  0  0  0  0  0  0
  149.4543  141.8940  156.0405 H   0  0  0  0  0  0  0  0  0  0  0  0
  151.1084  141.3114  156.0124 H   0  0  0  0  0  0  0  0  0  0  0  0
  150.3183  138.3760  157.9714 H   0  0  0  0  0  0  0  0  0  0  0  0
  151.6211  139.2218  157.1575 H   0  0  0  0  0  0  0  0  0  0  0  0
  151.7908  139.5839  159.6161 H   0  0  0  0  0  0  0  0  0  0  0  0
  150.1371  140.1622  159.6822 H   0  0  0  0  0  0  0  0  0  0  0  0
  1  2  1  0  0  0  0
  1 23  1  0  0  0  0
  1 24  1  0  0  0  0
  1 25  1  0  0  0  0
  2  3  1  0  0  0  0
  2 26  1  0  0  0  0
  2 27  1  0  0  0  0
  3  4  1  0  0  0  0
  3 28  1  0  0  0  0
  3 29  1  0  0  0  0
  4  5  1  0  0  0  0
  4  6  1  0  0  0  0
  4  7  1  0  0  0  0
  5 30  1  0  0  0  0
  5 31  1  0  0  0  0
  5 32  1  0  0  0  0
  6 33  1  0  0  0  0
  7  8  1  0  0  0  0
  7 34  1  0  0  0  0
  7 35  1  0  0  0  0
  8  9  1  0  0  0  0
  8 36  1  0  0  0  0
  9 10  2  0  0  0  0
  9 11  1  0  0  0  0
 11 16  1  0  0  0  0
 11 12  2  0  0  0  0
 12 13  1  0  0  0  0
 12 37  1  0  0  0  0
 13 14  2  0  0  0  0
 13 38  1  0  0  0  0
 14 15  1  0  0  0  0
 14 39  1  0  0  0  0
 15 16  2  0  0  0  0
 16 17  1  0  0  0  0
 17 22  1  0  0  0  0
 17 18  1  0  0  0  0
 18 19  1  0  0  0  0
 18 40  1  0  0  0  0
 18 41  1  0  0  0  0
 19 20  1  0  0  0  0
 19 42  1  0  0  0  0
 19 43  1  0  0  0  0
 20 21  1  0  0  0  0
 21 22  1  0  0  0  0
 21 44  1  0  0  0  0
 21 45  1  0  0  0  0
 22 46  1  0  0  0  0
 22 47  1  0  0  0  0
M  END
> <s_m_source_file>
AV-unprocessed.smi

> <i_m_source_file_index>
725

> <i_lp_mmshare_version>
43012

> <i_f3d_flags>
0

> <s_epik_input>
W0NIM11bQ0gyXVtDSDJdW0NAQF0oW0NIM10pKFtPSF0pW0NIMl1bTkhdQyg9TyljMVtjSF1bY0hdW2NIXW5jMU4yW0NIMl1bQ0gyXU9bQ0gyXVtDSDJdMg==

> <s_epik_cmdline>
J2VwaWtfcHl0aG9uJywgJy1waCcsICc3LjAnLCAnLXRuJywgJzgnLCAnLW1hJywgJzIwMCcsICctbWV0YWxfYmluZGluZycsICctaW1hZScsICc8aW5maWxlLm1hZT4nLCAnLW9tYWUnLCAnPG91dGZpbGUubWFlPic=

> <r_lp_tautomer_probability>
1

> <r_epik_Ionization_Penalty>
1.23446e-05

> <r_epik_Ionization_Penalty_Charging>
0

> <r_epik_Ionization_Penalty_Neutral>
1.23446e-05

> <r_epik_State_Penalty>
-0

> <r_epik_Charging_Adjusted_Penalty>
0

> <i_epik_Tot_Q>
0

> <i_epik_Tot_abs_Q>
0

> <r_epik_Metal_State_Penalty>
-0

> <b_epik_Metal_Only>
0

> <s_lp_Force_Field>
OPLS_2005

> <r_lp_Energy>
29.6434

> <b_lp_Chiralities_Consistent>
1

> <s_lp_Variant>
AV-unprocessed.smi:725-2

> <Gold.Version>
5.8.1

> <Gold.Id.Protein>
6NUR|6NUR_protein|mol2

> <Gold.PLP.Fitness>
45.8988

> <Gold.PLP.PLP>
-45.6188

> <Gold.PLP.part.hbond>
-1.0000

> <Gold.PLP.part.metal>
0.0000

> <Gold.PLP.part.buried>
-5.5675

> <Gold.PLP.part.nonpolar>
-38.0855

> <Gold.PLP.part.repulsive>
0.0914

> <Gold.PLP.ligand.clash>
0.0000

> <Gold.PLP.ligand.torsion>
1.5022

> <Gold.PLP.Chemscore.Hbond>
0.9920

> <Gold.PLP.Chemscore.CHOScore>
0.0000

> <Gold.PLP.Chemscore.Metal>
0.0000

> <Gold.Chemscore.Hbonds>
donor molecule, donor type, donor heavy atom, donor atom, acceptor molecule, acceptor atom, score
      P1  H  7997  8009       L1    10  1.00

> <Gold.PLP.Chemscore.Internal.Correction>
0.3085

> <Gold.Rescore>
     Score         DG    S(hbond)    S(metal)    S(lipo)     H(rot)  DE(clash)    DE(int)     intcor
     12.64     -16.00       0.95        0.00     110.70       2.19       0.03       3.34       ----

> <Gold.Chemscore.Fitness>
12.6385

> <Gold.Chemscore.DG>
-16.0021

> <Gold.Chemscore.ZeroCoef>
-5.4800

> <Gold.Chemscore.Hbond>
0.9537

> <Gold.Chemscore.Metal>
0.0000

> <Gold.Chemscore.Lipo>
110.6971

> <Gold.Chemscore.Internal_Hbond>
0.0000

> <Gold.Chemscore.DEClash>
0.0255

> <Gold.Chemscore.DEInternal>
3.3381

> <Gold.Chemscore.Rot>
2.1933

> <Gold.Chemscore.Internal.Correction>
   9.000000E+99

> <Gold.Chemscore.Hbonds>
donor molecule, donor type, donor heavy atom, donor atom, acceptor molecule, acceptor atom, score
      P1  H  7997  8009       L1    10  0.93

> <Gold.Chemscore.Hbond.Weighted>
-3.1854

> <Gold.Chemscore.Metal.Weighted>
-0.0000

> <Gold.Chemscore.Lipo.Weighted>
-12.9516

> <Gold.Chemscore.Internal_Hbond.Weighted>
0.0000

> <Gold.Chemscore.DEClash.Weighted>
0.0255

> <Gold.Chemscore.DEInternal.Weighted>
3.3381

> <Gold.Chemscore.Rot.Weighted>
5.6149

> <Gold.Chemscore.Internal.Correction.Weighted>
   9.000000E+99

> <Gold.Protein.RotatedTorsions>
[ 6907 6896 6895 6894 ] final  122.75 input  -60.11 | X-H torsion
[ 7974 7965 7964 7962 ] final  159.24 input  175.53 | X-H torsion
[ 8008 7997 7996 7995 ] final  134.91 input   59.86 | X-H torsion
[ 10167 10162 10161 10158 ] final   41.15 input  -65.29 | X-H torsion
[ 10718 10713 10712 10709 ] final   37.93 input   66.30 | X-H torsion
[ 10763 10752 10751 10750 ] final  141.34 input  -60.55 | X-H torsion
[ 11005 11000 10999 10996 ] final  -97.38 input  -57.11 | X-H torsion

> <Gold.Protein.ActiveResidues>
 VAL166  LYS551  ARG553  GLY616  TRP617  ASP618  TYR619  PRO620  LYS621  CYS622 
 ASP623  PHE694  ASN695  SER759  ASP760  ASP761  ALA762  ILE779  LEU786  VAL792 
 PHE793  MET794  SER795  GLU796  ALA797  LYS798  CYS799  TRP800  GLU811  SER814 

> <Gold.Protein.RotatedAtoms>
  152.4218  133.7128  159.6488 H   0  0  0  0  0  0  0  0  0  0  0  0  # atno 6907 bound_to 6896
  150.8094  133.8439  159.3195 H   0  0  0  0  0  0  0  0  0  0  0  0  # atno 6908 bound_to 6896
  151.6154  135.1039  160.0142 H   0  0  0  0  0  0  0  0  0  0  0  0  # atno 6909 bound_to 6896
  144.7801  139.7590  143.6263 H   0  0  0  0  0  0  0  0  0  0  0  0  # atno 7974 bound_to 7965
  156.3001  140.2484  156.3495 H   0  0  0  0  0  0  0  0  0  0  0  0  # atno 8008 bound_to 7997
  154.8979  140.0407  157.1895 H   0  0  0  0  0  0  0  0  0  0  0  0  # atno 8009 bound_to 7997
  154.8531  140.2909  155.5590 H   0  0  0  0  0  0  0  0  0  0  0  0  # atno 8010 bound_to 7997
  140.3672  144.2152  150.6135 H   0  0  0  0  0  0  0  0  0  0  0  0  # atno 10167 bound_to 10162
  157.3527  130.7607  149.6990 H   0  0  0  0  0  0  0  0  0  0  0  0  # atno 10718 bound_to 10713
  153.9376  135.2983  155.3444 H   0  0  0  0  0  0  0  0  0  0  0  0  # atno 10763 bound_to 10752
  154.7494  135.4987  153.9265 H   0  0  0  0  0  0  0  0  0  0  0  0  # atno 10764 bound_to 10752
  153.1059  135.6746  153.9694 H   0  0  0  0  0  0  0  0  0  0  0  0  # atno 10765 bound_to 10752
  141.1381  133.8166  157.0698 H   0  0  0  0  0  0  0  0  0  0  0  0  # atno 11005 bound_to 11000
  146.2004  139.5295  142.9747 LP  0  0  0  0  0  0  0  0  0  0  0  0  # atno 17320 bound_to 7965
  145.6075  141.0345  143.1985 LP  0  0  0  0  0  0  0  0  0  0  0  0  # atno 17321 bound_to 7965
  140.5069  143.2301  151.8594 LP  0  0  0  0  0  0  0  0  0  0  0  0  # atno 17342 bound_to 10162
  139.4807  144.4995  151.9079 LP  0  0  0  0  0  0  0  0  0  0  0  0  # atno 17343 bound_to 10162
  155.9724  130.4136  150.4089 LP  0  0  0  0  0  0  0  0  0  0  0  0  # atno 17370 bound_to 10713
  157.2155  131.0470  151.2576 LP  0  0  0  0  0  0  0  0  0  0  0  0  # atno 17371 bound_to 10713
  140.0518  134.9801  157.1150 LP  0  0  0  0  0  0  0  0  0  0  0  0  # atno 17394 bound_to 11000
  140.3978  134.2115  155.7164 LP  0  0  0  0  0  0  0  0  0  0  0  0  # atno 17395 bound_to 11000

$$$$
