AV-unprocessed.smi:490|AV-procd|sdf|2703|dock2
  -GOLD-   2262023143D 1   1.00000     0.00000
 Structure written by MMmdl.
 49 51  0  0  0  0  0  0  0  0  1 V2000
  152.0534  144.7174  160.3679 C   0  0  0  0  0  0  0  0  0  0  0  0
  151.9163  143.6655  159.2806 C   0  0  0  0  0  0  0  0  0  0  0  0
  151.1895  143.9802  158.1145 C   0  0  0  0  0  0  0  0  0  0  0  0
  151.0444  143.0312  157.0878 C   0  0  0  0  0  0  0  0  0  0  0  0
  151.6155  141.7510  157.2213 C   0  0  0  0  0  0  0  0  0  0  0  0
  151.4526  140.7364  156.1049 C   0  0  0  0  0  0  0  0  0  0  0  0
  152.3317  141.4193  158.3942 C   0  0  0  0  0  0  0  0  0  0  0  0
  152.8721  140.1649  158.5156 O   0  0  0  0  0  0  0  0  0  0  0  0
  151.8994  139.1331  158.6015 C   0  0  0  0  0  0  0  0  0  0  0  0
  152.6159  137.7871  158.7750 C   0  0  2  0  0  0  0  0  0  0  0  0
  151.7084  136.8644  159.3436 O   0  0  0  0  0  0  0  0  0  0  0  0
  153.8764  137.9028  159.6563 C   0  0  0  0  0  0  0  0  0  0  0  0
  154.2575  136.6339  160.2614 N   0  0  0  0  0  0  0  0  0  0  0  0
  154.8242  135.5595  159.6568 C   0  0  0  0  0  0  0  0  0  0  0  0
  155.1540  135.5706  158.1906 C   0  0  0  0  0  0  0  0  0  0  0  0
  154.1873  134.9344  157.3793 O   0  0  0  0  0  0  0  0  0  0  0  0
  155.0756  134.5169  160.4522 N   0  0  0  0  0  0  0  0  0  0  0  0
  154.6289  134.9554  161.6832 C   0  0  0  0  0  0  0  0  0  0  0  0
  154.6162  134.3078  162.9391 C   0  0  0  0  0  0  0  0  0  0  0  0
  154.1046  134.9660  164.0767 C   0  0  0  0  0  0  0  0  0  0  0  0
  153.5998  136.2785  163.9747 C   0  0  0  0  0  0  0  0  0  0  0  0
  153.6021  136.9413  162.7322 C   0  0  0  0  0  0  0  0  0  0  0  0
  154.1133  136.2795  161.5995 C   0  0  0  0  0  0  0  0  0  0  0  0
  152.5036  142.3830  159.4201 C   0  0  0  0  0  0  0  0  0  0  0  0
  153.3137  142.0420  160.6637 C   0  0  0  0  0  0  0  0  0  0  0  0
  151.4171  145.5802  160.1684 H   0  0  0  0  0  0  0  0  0  0  0  0
  153.0837  145.0677  160.4302 H   0  0  0  0  0  0  0  0  0  0  0  0
  151.7646  144.3097  161.3369 H   0  0  0  0  0  0  0  0  0  0  0  0
  150.7415  144.9563  157.9989 H   0  0  0  0  0  0  0  0  0  0  0  0
  150.4898  143.2908  156.1980 H   0  0  0  0  0  0  0  0  0  0  0  0
  152.4058  140.2585  155.8774 H   0  0  0  0  0  0  0  0  0  0  0  0
  151.0872  141.2072  155.1920 H   0  0  0  0  0  0  0  0  0  0  0  0
  150.7411  139.9641  156.3969 H   0  0  0  0  0  0  0  0  0  0  0  0
  151.2115  139.3091  159.4302 H   0  0  0  0  0  0  0  0  0  0  0  0
  151.3052  139.1241  157.6863 H   0  0  0  0  0  0  0  0  0  0  0  0
  152.8865  137.4058  157.7902 H   0  0  0  0  0  0  0  0  0  0  0  0
  151.0893  137.3399  159.8759 H   0  0  0  0  0  0  0  0  0  0  0  0
  154.7173  138.2752  159.0707 H   0  0  0  0  0  0  0  0  0  0  0  0
  153.7183  138.6342  160.4496 H   0  0  0  0  0  0  0  0  0  0  0  0
  155.2586  136.5990  157.8464 H   0  0  0  0  0  0  0  0  0  0  0  0
  156.1151  135.0778  158.0415 H   0  0  0  0  0  0  0  0  0  0  0  0
  153.5399  134.5357  157.9401 H   0  0  0  0  0  0  0  0  0  0  0  0
  155.0010  133.3025  163.0270 H   0  0  0  0  0  0  0  0  0  0  0  0
  154.0993  134.4611  165.0315 H   0  0  0  0  0  0  0  0  0  0  0  0
  153.2098  136.7756  164.8509 H   0  0  0  0  0  0  0  0  0  0  0  0
  153.2129  137.9451  162.6508 H   0  0  0  0  0  0  0  0  0  0  0  0
  153.9467  141.1680  160.5145 H   0  0  0  0  0  0  0  0  0  0  0  0
  152.6465  141.8387  161.5014 H   0  0  0  0  0  0  0  0  0  0  0  0
  153.9725  142.8649  160.9398 H   0  0  0  0  0  0  0  0  0  0  0  0
  1  2  1  0  0  0  0
  1 26  1  0  0  0  0
  1 27  1  0  0  0  0
  1 28  1  0  0  0  0
  2 24  1  0  0  0  0
  2  3  2  0  0  0  0
  3  4  1  0  0  0  0
  3 29  1  0  0  0  0
  4  5  2  0  0  0  0
  4 30  1  0  0  0  0
  5  6  1  0  0  0  0
  5  7  1  0  0  0  0
  6 31  1  0  0  0  0
  6 32  1  0  0  0  0
  6 33  1  0  0  0  0
  7  8  1  0  0  0  0
  7 24  2  0  0  0  0
  8  9  1  0  0  0  0
  9 10  1  0  0  0  0
  9 34  1  0  0  0  0
  9 35  1  0  0  0  0
 10 11  1  0  0  0  0
 10 12  1  0  0  0  0
 10 36  1  0  0  0  0
 11 37  1  0  0  0  0
 12 13  1  0  0  0  0
 12 38  1  0  0  0  0
 12 39  1  0  0  0  0
 13 23  1  0  0  0  0
 13 14  1  0  0  0  0
 14 15  1  0  0  0  0
 14 17  2  0  0  0  0
 15 16  1  0  0  0  0
 15 40  1  0  0  0  0
 15 41  1  0  0  0  0
 16 42  1  0  0  0  0
 17 18  1  0  0  0  0
 18 23  2  0  0  0  0
 18 19  1  0  0  0  0
 19 20  2  0  0  0  0
 19 43  1  0  0  0  0
 20 21  1  0  0  0  0
 20 44  1  0  0  0  0
 21 22  2  0  0  0  0
 21 45  1  0  0  0  0
 22 23  1  0  0  0  0
 22 46  1  0  0  0  0
 24 25  1  0  0  0  0
 25 47  1  0  0  0  0
 25 48  1  0  0  0  0
 25 49  1  0  0  0  0
M  END
> <s_m_source_file>
AV-unprocessed.smi

> <i_m_source_file_index>
490

> <i_lp_mmshare_version>
43012

> <i_f3d_flags>
0

> <s_epik_input>
W0NIM11jMVtjSF1bY0hdYyhbQ0gzXSljKGMxW0NIM10pT1tDSDJdW0NASF0oW09IXSlbQ0gyXW4oYyhuMilbQ0gyXVtPSF0pYyhjMjMpW2NIXVtjSF1bY0hdW2NIXTM=

> <s_epik_cmdline>
J2VwaWtfcHl0aG9uJywgJy1waCcsICc3LjAnLCAnLXRuJywgJzgnLCAnLW1hJywgJzIwMCcsICctbWV0YWxfYmluZGluZycsICctaW1hZScsICc8aW5maWxlLm1hZT4nLCAnLW9tYWUnLCAnPG91dGZpbGUubWFlPic=

> <r_lp_tautomer_probability>
1

> <r_epik_Ionization_Penalty>
0.0555874

> <r_epik_Ionization_Penalty_Charging>
0

> <r_epik_Ionization_Penalty_Neutral>
0.0555874

> <r_epik_State_Penalty>
0.0478234

> <r_epik_Charging_Adjusted_Penalty>
0.0478234

> <i_epik_Tot_Q>
0

> <i_epik_Tot_abs_Q>
0

> <r_epik_Metal_State_Penalty>
4.98044e-05

> <b_epik_Metal_Only>
0

> <s_lp_Force_Field>
OPLS_2005

> <r_lp_Energy>
19.7492

> <b_lp_Chiralities_Consistent>
1

> <s_lp_Variant>
AV-unprocessed.smi:490-1

> <Gold.Version>
5.8.1

> <Gold.Id.Protein>
6NUR|6NUR_protein|mol2

> <Gold.PLP.Fitness>
55.7836

> <Gold.PLP.PLP>
-49.5580

> <Gold.PLP.part.hbond>
-2.7980

> <Gold.PLP.part.metal>
0.0000

> <Gold.PLP.part.buried>
-4.6228

> <Gold.PLP.part.nonpolar>
-40.5871

> <Gold.PLP.part.repulsive>
0.0000

> <Gold.PLP.ligand.clash>
0.0000

> <Gold.PLP.ligand.torsion>
0.9737

> <Gold.PLP.Chemscore.Hbond>
2.6126

> <Gold.PLP.Chemscore.CHOScore>
0.0000

> <Gold.PLP.Chemscore.Metal>
0.0000

> <Gold.Chemscore.Hbonds>
donor molecule, donor type, donor heavy atom, donor atom, acceptor molecule, acceptor atom, score
      P1  H  6896  6908       L1    11  1.00
      P1  H  7997  8008       L1     8  0.39
      P1  H 10752 10763       L1    16  1.00

> <Gold.PLP.Chemscore.Internal.Correction>
0.3353

> <Gold.Rescore>
     Score         DG    S(hbond)    S(metal)    S(lipo)     H(rot)  DE(clash)    DE(int)     intcor
     20.53     -21.82       2.02        0.00     146.15       2.93       0.13       1.16       ----

> <Gold.Chemscore.Fitness>
20.5270

> <Gold.Chemscore.DG>
-21.8172

> <Gold.Chemscore.ZeroCoef>
-5.4800

> <Gold.Chemscore.Hbond>
2.0160

> <Gold.Chemscore.Metal>
0.0000

> <Gold.Chemscore.Lipo>
146.1467

> <Gold.Chemscore.Internal_Hbond>
0.0000

> <Gold.Chemscore.DEClash>
0.1308

> <Gold.Chemscore.DEInternal>
1.1595

> <Gold.Chemscore.Rot>
2.9279

> <Gold.Chemscore.Internal.Correction>
   9.000000E+99

> <Gold.Chemscore.Hbonds>
donor molecule, donor type, donor heavy atom, donor atom, acceptor molecule, acceptor atom, score
      P1  H  6896  6908       L1    11  0.34
      P1  H  7997  8008       L1     8  0.20
      P1  H 10752 10763       L1    16  0.94

> <Gold.Chemscore.Hbond.Weighted>
-6.7335

> <Gold.Chemscore.Metal.Weighted>
-0.0000

> <Gold.Chemscore.Lipo.Weighted>
-17.0992

> <Gold.Chemscore.Internal_Hbond.Weighted>
0.0000

> <Gold.Chemscore.DEClash.Weighted>
0.1308

> <Gold.Chemscore.DEInternal.Weighted>
1.1595

> <Gold.Chemscore.Rot.Weighted>
7.4954

> <Gold.Chemscore.Internal.Correction.Weighted>
   9.000000E+99

> <Gold.Protein.RotatedTorsions>
[ 6907 6896 6895 6894 ] final -122.78 input  -60.11 | X-H torsion
[ 7974 7965 7964 7962 ] final   78.94 input  175.53 | X-H torsion
[ 8008 7997 7996 7995 ] final  -85.86 input   59.86 | X-H torsion
[ 10167 10162 10161 10158 ] final    2.33 input  -65.29 | X-H torsion
[ 10718 10713 10712 10709 ] final -105.78 input   66.30 | X-H torsion
[ 10763 10752 10751 10750 ] final  146.23 input  -60.55 | X-H torsion
[ 11005 11000 10999 10996 ] final  125.12 input  -57.11 | X-H torsion

> <Gold.Protein.ActiveResidues>
 VAL166  LYS551  ARG553  GLY616  TRP617  ASP618  TYR619  PRO620  LYS621  CYS622 
 ASP623  PHE694  ASN695  SER759  ASP760  ASP761  ALA762  ILE779  LEU786  VAL792 
 PHE793  MET794  SER795  GLU796  ALA797  LYS798  CYS799  TRP800  GLU811  SER814 

> <Gold.Protein.RotatedAtoms>
  150.8608  133.7646  159.2992 H   0  0  0  0  0  0  0  0  0  0  0  0  # atno 6907 bound_to 6896
  151.5289  135.1066  159.9907 H   0  0  0  0  0  0  0  0  0  0  0  0  # atno 6908 bound_to 6896
  152.4625  133.7808  159.6905 H   0  0  0  0  0  0  0  0  0  0  0  0  # atno 6909 bound_to 6896
  145.6707  139.2496  143.1870 H   0  0  0  0  0  0  0  0  0  0  0  0  # atno 7974 bound_to 7965
  154.6454  140.0586  156.9894 H   0  0  0  0  0  0  0  0  0  0  0  0  # atno 8008 bound_to 7997
  155.1452  140.3269  155.4424 H   0  0  0  0  0  0  0  0  0  0  0  0  # atno 8009 bound_to 7997
  156.2551  140.1957  156.6566 H   0  0  0  0  0  0  0  0  0  0  0  0  # atno 8010 bound_to 7997
  140.6640  143.7229  150.7792 H   0  0  0  0  0  0  0  0  0  0  0  0  # atno 10167 bound_to 10162
  156.0361  130.5580  150.7587 H   0  0  0  0  0  0  0  0  0  0  0  0  # atno 10718 bound_to 10713
  154.0185  135.2908  155.3384 H   0  0  0  0  0  0  0  0  0  0  0  0  # atno 10763 bound_to 10752
  154.7060  135.5169  153.8600 H   0  0  0  0  0  0  0  0  0  0  0  0  # atno 10764 bound_to 10752
  153.0692  135.6641  154.0409 H   0  0  0  0  0  0  0  0  0  0  0  0  # atno 10765 bound_to 10752
  139.9391  134.9637  156.8511 H   0  0  0  0  0  0  0  0  0  0  0  0  # atno 11005 bound_to 11000
  146.1048  140.7501  142.9532 LP  0  0  0  0  0  0  0  0  0  0  0  0  # atno 17320 bound_to 7965
  144.7058  140.3844  143.7119 LP  0  0  0  0  0  0  0  0  0  0  0  0  # atno 17321 bound_to 7965
  140.0902  143.4884  152.2482 LP  0  0  0  0  0  0  0  0  0  0  0  0  # atno 17342 bound_to 10162
  139.5883  144.7540  151.3465 LP  0  0  0  0  0  0  0  0  0  0  0  0  # atno 17343 bound_to 10162
  157.5112  131.0925  151.0195 LP  0  0  0  0  0  0  0  0  0  0  0  0  # atno 17370 bound_to 10713
  157.0550  130.5802  149.5376 LP  0  0  0  0  0  0  0  0  0  0  0  0  # atno 17371 bound_to 10713
  140.5998  134.0183  155.7532 LP  0  0  0  0  0  0  0  0  0  0  0  0  # atno 17394 bound_to 11000
  141.1018  133.9756  157.3066 LP  0  0  0  0  0  0  0  0  0  0  0  0  # atno 17395 bound_to 11000

$$$$
