AV-unprocessed.smi:1047|AV-procd|sdf|4592|dock6
  -GOLD-   22720 3 73D 1   1.00000     0.00000
 Structure written by MMmdl.
 55 57  0  0  0  0  0  0  0  0  1 V2000
  147.9168  130.3477  153.5338 C   0  0  0  0  0  0  0  0  0  0  0  0
  149.3240  130.4279  154.1426 C   0  0  0  0  0  0  0  0  0  0  0  0
  149.5204  131.5169  155.0977 N   0  0  0  0  0  0  0  0  0  0  0  0
  150.8495  131.4554  155.6948 C   0  0  0  0  0  0  0  0  0  0  0  0
  151.0779  132.5937  156.7028 C   0  0  0  0  0  0  0  0  0  0  0  0
  150.8668  133.8457  156.0584 O   0  0  0  0  0  0  0  0  0  0  0  0
  149.5596  133.9759  155.5055 C   0  0  1  0  0  0  0  0  0  0  0  0
  149.4604  135.3658  154.8592 C   0  0  0  0  0  0  0  0  0  0  0  0
  150.2561  136.3507  155.5859 N   0  0  0  0  0  0  0  0  0  0  0  0
  150.8861  137.3414  154.7183 C   0  0  0  0  0  0  0  0  0  0  0  0
  150.4992  138.7721  155.1288 C   0  0  2  0  0  0  0  0  0  0  0  0
  150.7546  139.6324  154.0358 O   0  0  0  0  0  0  0  0  0  0  0  0
  151.3116  139.2525  156.3468 C   0  0  0  0  0  0  0  0  0  0  0  0
  150.8520  140.5321  156.8580 N   0  0  0  0  0  0  0  0  0  0  0  0
  149.8007  141.2487  156.4166 C   0  0  0  0  0  0  0  0  0  0  0  0
  149.5455  142.3994  157.0324 N   0  0  0  0  0  0  0  0  0  0  0  0
  150.5498  142.4339  157.9848 C   0  0  0  0  0  0  0  0  0  0  0  0
  150.8418  143.3988  158.9736 C   0  0  0  0  0  0  0  0  0  0  0  0
  151.9341  143.2276  159.8536 C   0  0  0  0  0  0  0  0  0  0  0  0
  152.2103  144.2892  160.9038 C   0  0  0  0  0  0  0  0  0  0  0  0
  152.7566  142.0770  159.7493 C   0  0  0  0  0  0  0  0  0  0  0  0
  153.9394  141.8742  160.6797 C   0  0  0  0  0  0  0  0  0  0  0  0
  152.4774  141.1021  158.7687 C   0  0  0  0  0  0  0  0  0  0  0  0
  151.3858  141.2821  157.9010 C   0  0  0  0  0  0  0  0  0  0  0  0
  149.3351  132.8337  154.4919 C   0  0  0  0  0  0  0  0  0  0  0  0
  147.8154  129.4510  152.9222 H   0  0  0  0  0  0  0  0  0  0  0  0
  147.6995  131.2016  152.8931 H   0  0  0  0  0  0  0  0  0  0  0  0
  147.1544  130.3052  154.3119 H   0  0  0  0  0  0  0  0  0  0  0  0
  149.5144  129.4799  154.6473 H   0  0  0  0  0  0  0  0  0  0  0  0
  150.0637  130.4960  153.3437 H   0  0  0  0  0  0  0  0  0  0  0  0
  150.9859  130.4971  156.1975 H   0  0  0  0  0  0  0  0  0  0  0  0
  151.6096  131.5090  154.9136 H   0  0  0  0  0  0  0  0  0  0  0  0
  150.4056  132.4961  157.5568 H   0  0  0  0  0  0  0  0  0  0  0  0
  152.0959  132.5589  157.0907 H   0  0  0  0  0  0  0  0  0  0  0  0
  148.8341  133.9026  156.3184 H   0  0  0  0  0  0  0  0  0  0  0  0
  149.8202  135.3025  153.8315 H   0  0  0  0  0  0  0  0  0  0  0  0
  148.4176  135.6806  154.8033 H   0  0  0  0  0  0  0  0  0  0  0  0
  150.9646  135.8776  156.1377 H   0  0  0  0  0  0  0  0  0  0  0  0
  151.9689  137.2341  154.7943 H   0  0  0  0  0  0  0  0  0  0  0  0
  150.6325  137.1608  153.6727 H   0  0  0  0  0  0  0  0  0  0  0  0
  149.4365  138.8166  155.3724 H   0  0  0  0  0  0  0  0  0  0  0  0
  150.3174  139.2830  153.2742 H   0  0  0  0  0  0  0  0  0  0  0  0
  151.2438  138.5227  157.1548 H   0  0  0  0  0  0  0  0  0  0  0  0
  152.3693  139.3353  156.0934 H   0  0  0  0  0  0  0  0  0  0  0  0
  149.1872  140.9043  155.5969 H   0  0  0  0  0  0  0  0  0  0  0  0
  150.2162  144.2756  159.0511 H   0  0  0  0  0  0  0  0  0  0  0  0
  152.1735  143.8561  161.9036 H   0  0  0  0  0  0  0  0  0  0  0  0
  151.4747  145.0930  160.8609 H   0  0  0  0  0  0  0  0  0  0  0  0
  153.1962  144.7287  160.7523 H   0  0  0  0  0  0  0  0  0  0  0  0
  154.4817  140.9595  160.4397 H   0  0  0  0  0  0  0  0  0  0  0  0
  153.6037  141.8033  161.7145 H   0  0  0  0  0  0  0  0  0  0  0  0
  154.6382  142.7070  160.5978 H   0  0  0  0  0  0  0  0  0  0  0  0
  153.0961  140.2216  158.6773 H   0  0  0  0  0  0  0  0  0  0  0  0
  150.0210  132.9527  153.6516 H   0  0  0  0  0  0  0  0  0  0  0  0
  148.3277  132.9196  154.0857 H   0  0  0  0  0  0  0  0  0  0  0  0
  1  2  1  0  0  0  0
  1 26  1  0  0  0  0
  1 27  1  0  0  0  0
  1 28  1  0  0  0  0
  2  3  1  0  0  0  0
  2 29  1  0  0  0  0
  2 30  1  0  0  0  0
  3 25  1  0  0  0  0
  3  4  1  0  0  0  0
  4  5  1  0  0  0  0
  4 31  1  0  0  0  0
  4 32  1  0  0  0  0
  5  6  1  0  0  0  0
  5 33  1  0  0  0  0
  5 34  1  0  0  0  0
  6  7  1  0  0  0  0
  7  8  1  0  0  0  0
  7 25  1  0  0  0  0
  7 35  1  0  0  0  0
  8  9  1  0  0  0  0
  8 36  1  0  0  0  0
  8 37  1  0  0  0  0
  9 10  1  0  0  0  0
  9 38  1  0  0  0  0
 10 11  1  0  0  0  0
 10 39  1  0  0  0  0
 10 40  1  0  0  0  0
 11 12  1  0  0  0  0
 11 13  1  0  0  0  0
 11 41  1  0  0  0  0
 12 42  1  0  0  0  0
 13 14  1  0  0  0  0
 13 43  1  0  0  0  0
 13 44  1  0  0  0  0
 14 24  1  0  0  0  0
 14 15  1  0  0  0  0
 15 16  2  0  0  0  0
 15 45  1  0  0  0  0
 16 17  1  0  0  0  0
 17 24  2  0  0  0  0
 17 18  1  0  0  0  0
 18 19  2  0  0  0  0
 18 46  1  0  0  0  0
 19 20  1  0  0  0  0
 19 21  1  0  0  0  0
 20 47  1  0  0  0  0
 20 48  1  0  0  0  0
 20 49  1  0  0  0  0
 21 22  1  0  0  0  0
 21 23  2  0  0  0  0
 22 50  1  0  0  0  0
 22 51  1  0  0  0  0
 22 52  1  0  0  0  0
 23 24  1  0  0  0  0
 23 53  1  0  0  0  0
 25 54  1  0  0  0  0
 25 55  1  0  0  0  0
M  END
> <s_m_source_file>
AV-unprocessed.smi

> <i_m_source_file_index>
1047

> <i_lp_mmshare_version>
43012

> <i_f3d_flags>
0

> <s_epik_input>
W0NIM11bQ0gyXU4xW0NIMl1bQ0gyXU9bQ0BIXShbQ0gyXTEpW0NIMl1bTkhdW0NIMl1bQ0BIXShbT0hdKVtDSDJdbihbY0hdbjIpYyhjMjMpW2NIXWMoW0NIM10pYyhbY0hdMylbQ0gzXQ==

> <s_epik_cmdline>
J2VwaWtfcHl0aG9uJywgJy1waCcsICc3LjAnLCAnLXRuJywgJzgnLCAnLW1hJywgJzIwMCcsICctbWV0YWxfYmluZGluZycsICctaW1hZScsICc8aW5maWxlLm1hZT4nLCAnLW9tYWUnLCAnPG91dGZpbGUubWFlPic=

> <r_epik_Ionization_Penalty>
2.74124

> <r_epik_Ionization_Penalty_Charging>
0

> <r_epik_Ionization_Penalty_Neutral>
2.74124

> <r_epik_State_Penalty>
2.37482

> <r_epik_Charging_Adjusted_Penalty>
2.37482

> <i_epik_Tot_Q>
0

> <i_epik_Tot_abs_Q>
0

> <r_epik_Metal_State_Penalty>
2.25944

> <b_epik_Metal_Only>
0

> <s_lp_Force_Field>
OPLS_2005

> <r_lp_Energy>
35.4924

> <b_lp_Chiralities_Consistent>
1

> <s_lp_Variant>
AV-unprocessed.smi:1047-33

> <Gold.Version>
5.8.1

> <Gold.Id.Protein>
6NUR|6NUR_protein|mol2

> <Gold.PLP.Fitness>
46.2481

> <Gold.PLP.PLP>
-44.9928

> <Gold.PLP.part.hbond>
-1.7797

> <Gold.PLP.part.metal>
0.0000

> <Gold.PLP.part.buried>
-4.9708

> <Gold.PLP.part.nonpolar>
-39.1130

> <Gold.PLP.part.repulsive>
1.8334

> <Gold.PLP.ligand.clash>
0.0000

> <Gold.PLP.ligand.torsion>
1.1461

> <Gold.PLP.Chemscore.Hbond>
1.1674

> <Gold.PLP.Chemscore.CHOScore>
0.0000

> <Gold.PLP.Chemscore.Metal>
0.0000

> <Gold.Chemscore.Hbonds>
donor molecule, donor type, donor heavy atom, donor atom, acceptor molecule, acceptor atom, score
      L1  H    12    42       P1  7957  0.17
      P1  H  7989  7998       L1    12  1.00

> <Gold.PLP.Chemscore.Internal.Correction>
0.0451

> <Gold.Rescore>
     Score         DG    S(hbond)    S(metal)    S(lipo)     H(rot)  DE(clash)    DE(int)     intcor
     16.54     -17.99       1.24        0.00     126.75       2.52       0.20       1.25       ----

> <Gold.Chemscore.Fitness>
16.5448

> <Gold.Chemscore.DG>
-17.9916

> <Gold.Chemscore.ZeroCoef>
-5.4800

> <Gold.Chemscore.Hbond>
1.2401

> <Gold.Chemscore.Metal>
0.0000

> <Gold.Chemscore.Lipo>
126.7540

> <Gold.Chemscore.Internal_Hbond>
0.0000

> <Gold.Chemscore.DEClash>
0.2013

> <Gold.Chemscore.DEInternal>
1.2455

> <Gold.Chemscore.Rot>
2.5237

> <Gold.Chemscore.Internal.Correction>
   9.000000E+99

> <Gold.Chemscore.Hbonds>
donor molecule, donor type, donor heavy atom, donor atom, acceptor molecule, acceptor atom, score
      L1  H    12    42       P1  7957  0.16
      P1  H  7989  7998       L1    12  0.44

> <Gold.Chemscore.Hbond.Weighted>
-4.1421

> <Gold.Chemscore.Metal.Weighted>
-0.0000

> <Gold.Chemscore.Lipo.Weighted>
-14.8302

> <Gold.Chemscore.Internal_Hbond.Weighted>
0.0000

> <Gold.Chemscore.DEClash.Weighted>
0.2013

> <Gold.Chemscore.DEInternal.Weighted>
1.2455

> <Gold.Chemscore.Rot.Weighted>
6.4607

> <Gold.Chemscore.Internal.Correction.Weighted>
   9.000000E+99

> <Gold.Protein.RotatedTorsions>
[ 6907 6896 6895 6894 ] final  -92.50 input  -60.11 | X-H torsion
[ 7974 7965 7964 7962 ] final   84.81 input  175.53 | X-H torsion
[ 8008 7997 7996 7995 ] final -110.82 input   59.86 | X-H torsion
[ 10167 10162 10161 10158 ] final   91.87 input  -65.29 | X-H torsion
[ 10718 10713 10712 10709 ] final -168.97 input   66.30 | X-H torsion
[ 10763 10752 10751 10750 ] final   -1.03 input  -60.55 | X-H torsion
[ 11005 11000 10999 10996 ] final  149.72 input  -57.11 | X-H torsion

> <Gold.Protein.ActiveResidues>
 VAL166  LYS551  ARG553  GLY616  TRP617  ASP618  TYR619  PRO620  LYS621  CYS622 
 ASP623  PHE694  ASN695  SER759  ASP760  ASP761  ALA762  ILE779  LEU786  VAL792 
 PHE793  MET794  SER795  GLU796  ALA797  LYS798  CYS799  TRP800  GLU811  SER814 

> <Gold.Protein.RotatedAtoms>
  150.6907  134.2112  159.4359 H   0  0  0  0  0  0  0  0  0  0  0  0  # atno 6907 bound_to 6896
  152.0074  134.9893  160.0576 H   0  0  0  0  0  0  0  0  0  0  0  0  # atno 6908 bound_to 6896
  152.1521  133.4493  159.4855 H   0  0  0  0  0  0  0  0  0  0  0  0  # atno 6909 bound_to 6896
  145.5938  139.2342  143.2284 H   0  0  0  0  0  0  0  0  0  0  0  0  # atno 7974 bound_to 7965
  154.9804  140.0396  157.2275 H   0  0  0  0  0  0  0  0  0  0  0  0  # atno 8008 bound_to 7997
  154.7719  140.2803  155.6108 H   0  0  0  0  0  0  0  0  0  0  0  0  # atno 8009 bound_to 7997
  156.2922  140.2608  156.2524 H   0  0  0  0  0  0  0  0  0  0  0  0  # atno 8010 bound_to 7997
  139.8332  144.6677  150.9374 H   0  0  0  0  0  0  0  0  0  0  0  0  # atno 10167 bound_to 10162
  156.7048  130.9210  151.3083 H   0  0  0  0  0  0  0  0  0  0  0  0  # atno 10718 bound_to 10713
  153.3395  135.6980  153.6879 H   0  0  0  0  0  0  0  0  0  0  0  0  # atno 10763 bound_to 10752
  153.5649  135.3527  155.2815 H   0  0  0  0  0  0  0  0  0  0  0  0  # atno 10764 bound_to 10752
  154.8634  135.4258  154.2604 H   0  0  0  0  0  0  0  0  0  0  0  0  # atno 10765 bound_to 10752
  140.1069  134.8948  157.1879 H   0  0  0  0  0  0  0  0  0  0  0  0  # atno 11005 bound_to 11000
  146.1627  140.6764  142.9270 LP  0  0  0  0  0  0  0  0  0  0  0  0  # atno 17320 bound_to 7965
  144.7339  140.4753  143.6917 LP  0  0  0  0  0  0  0  0  0  0  0  0  # atno 17321 bound_to 7965
  140.7805  143.3981  151.1195 LP  0  0  0  0  0  0  0  0  0  0  0  0  # atno 17342 bound_to 10162
  139.7633  143.8602  152.3105 LP  0  0  0  0  0  0  0  0  0  0  0  0  # atno 17343 bound_to 10162
  157.6959  130.9281  150.0644 LP  0  0  0  0  0  0  0  0  0  0  0  0  # atno 17370 bound_to 10713
  156.1703  130.3646  149.9174 LP  0  0  0  0  0  0  0  0  0  0  0  0  # atno 17371 bound_to 10713
  140.3144  134.2988  155.7260 LP  0  0  0  0  0  0  0  0  0  0  0  0  # atno 17394 bound_to 11000
  141.2120  133.7670  156.9822 LP  0  0  0  0  0  0  0  0  0  0  0  0  # atno 17395 bound_to 11000

$$$$
