AV-unprocessed.smi:1757|AV-procd|sdf|7076|dock2
  -GOLD-   22720 8293D 1   1.00000     0.00000
 Structure written by MMmdl.
 40 41  0  0  0  0  0  0  0  0  2 V2000
  148.0742  133.7204  153.8265 C   0  0  0  0  0  0  0  0  0  0  0  0
  148.8809  134.0030  155.0333 N   0  3  2  0  0  0  0  0  0  0  0  0
  148.1888  134.9173  155.9753 C   0  0  0  0  0  0  0  0  0  0  0  0
  148.9929  135.0826  157.2778 C   0  0  0  0  0  0  0  0  0  0  0  0
  150.4372  135.5458  157.0131 C   0  0  2  0  0  0  0  0  0  0  0  0
  150.4597  136.9406  156.5701 N   0  0  0  0  0  0  0  0  0  0  0  0
  150.6991  138.0108  157.3424 C   0  0  0  0  0  0  0  0  0  0  0  0
  150.9433  137.9382  158.5462 O   0  0  0  0  0  0  0  0  0  0  0  0
  150.6111  139.1458  156.6247 N   0  0  0  0  0  0  0  0  0  0  0  0
  150.7956  140.4758  157.0387 C   0  0  0  0  0  0  0  0  0  0  0  0
  151.6082  140.8675  158.0550 C   0  0  0  0  0  0  0  0  0  0  0  0
  151.7570  142.2657  158.4264 C   0  0  0  0  0  0  0  0  0  0  0  0
  152.6476  142.7149  159.5739 C   0  0  0  0  0  0  0  0  0  0  0  0
  153.2275  141.6598  160.1457 F   0  0  0  0  0  0  0  0  0  0  0  0
  153.6105  143.5184  159.1225 F   0  0  0  0  0  0  0  0  0  0  0  0
  151.9579  143.3708  160.5073 F   0  0  0  0  0  0  0  0  0  0  0  0
  151.0558  143.1572  157.7034 C   0  0  0  0  0  0  0  0  0  0  0  0
  150.2285  142.7636  156.6493 N   0  0  0  0  0  0  0  0  0  0  0  0
  150.0506  141.4808  156.2622 C   0  0  0  0  0  0  0  0  0  0  0  0
  149.3064  141.2135  155.3191 O   0  0  0  0  0  0  0  0  0  0  0  0
  151.1049  134.6311  155.9704 C   0  0  0  0  0  0  0  0  0  0  0  0
  150.2474  134.4773  154.7011 C   0  0  0  0  0  0  0  0  0  0  0  0
  149.7385  143.4937  156.1528 H   0  0  0  0  0  0  0  0  0  0  0  0
  147.9164  134.6261  153.2394 H   0  0  0  0  0  0  0  0  0  0  0  0
  147.0993  133.3154  154.1003 H   0  0  0  0  0  0  0  0  0  0  0  0
  148.5726  132.9848  153.1944 H   0  0  0  0  0  0  0  0  0  0  0  0
  148.0337  135.8866  155.4984 H   0  0  0  0  0  0  0  0  0  0  0  0
  147.2005  134.5198  156.2093 H   0  0  0  0  0  0  0  0  0  0  0  0
  148.4873  135.7811  157.9456 H   0  0  0  0  0  0  0  0  0  0  0  0
  149.0160  134.1268  157.8030 H   0  0  0  0  0  0  0  0  0  0  0  0
  150.9943  135.4497  157.9464 H   0  0  0  0  0  0  0  0  0  0  0  0
  150.2664  137.1069  155.5934 H   0  0  0  0  0  0  0  0  0  0  0  0
  150.3308  139.0462  155.6599 H   0  0  0  0  0  0  0  0  0  0  0  0
  152.1845  140.1449  158.6088 H   0  0  0  0  0  0  0  0  0  0  0  0
  151.0737  144.2235  157.8757 H   0  0  0  0  0  0  0  0  0  0  0  0
  152.0945  135.0102  155.7123 H   0  0  0  0  0  0  0  0  0  0  0  0
  151.2644  133.6462  156.4112 H   0  0  0  0  0  0  0  0  0  0  0  0
  150.7258  133.7668  154.0258 H   0  0  0  0  0  0  0  0  0  0  0  0
  150.1859  135.4269  154.1672 H   0  0  0  0  0  0  0  0  0  0  0  0
  148.9907  133.1222  155.5159 H   0  0  0  0  0  0  0  0  0  0  0  0
  1  2  1  0  0  0  0
  1 24  1  0  0  0  0
  1 25  1  0  0  0  0
  1 26  1  0  0  0  0
  2 22  1  0  0  0  0
  2  3  1  0  0  0  0
  2 40  1  0  0  0  0
  3  4  1  0  0  0  0
  3 27  1  0  0  0  0
  3 28  1  0  0  0  0
  4  5  1  0  0  0  0
  4 29  1  0  0  0  0
  4 30  1  0  0  0  0
  5  6  1  0  0  0  0
  5 21  1  0  0  0  0
  5 31  1  0  0  0  0
  6  7  1  0  0  0  0
  6 32  1  0  0  0  0
  7  8  2  0  0  0  0
  7  9  1  0  0  0  0
  9 10  1  0  0  0  0
  9 33  1  0  0  0  0
 10 19  1  0  0  0  0
 10 11  2  0  0  0  0
 11 12  1  0  0  0  0
 11 34  1  0  0  0  0
 12 13  1  0  0  0  0
 12 17  2  0  0  0  0
 13 14  1  0  0  0  0
 13 15  1  0  0  0  0
 13 16  1  0  0  0  0
 17 18  1  0  0  0  0
 17 35  1  0  0  0  0
 18 23  1  0  0  0  0
 18 19  1  0  0  0  0
 19 20  2  0  0  0  0
 21 22  1  0  0  0  0
 21 36  1  0  0  0  0
 21 37  1  0  0  0  0
 22 38  1  0  0  0  0
 22 39  1  0  0  0  0
M  CHG  1   2   1
M  END
> <s_m_source_file>
AV-unprocessed.smi

> <i_m_source_file_index>
1757

> <i_lp_mmshare_version>
43012

> <i_f3d_flags>
0

> <s_epik_input>
W0NIM11OMVtDSDJdW0NIMl1bQ0hdKFtDSDJdW0NIMl0xKVtOSF1DKD1PKVtOSF1jMltjSF1jKEMoRikoRilGKVtjSF1bbkhdYzI9Tw==

> <s_epik_cmdline>
J2VwaWtfcHl0aG9uJywgJy1waCcsICc3LjAnLCAnLXRuJywgJzgnLCAnLW1hJywgJzIwMCcsICctbWV0YWxfYmluZGluZycsICctaW1hZScsICc8aW5maWxlLm1hZT4nLCAnLW9tYWUnLCAnPG91dGZpbGUubWFlPic=

> <r_lp_tautomer_probability>
1

> <r_epik_Ionization_Penalty>
0.00859077

> <r_epik_Ionization_Penalty_Charging>
0.00857233

> <r_epik_Ionization_Penalty_Neutral>
1.84472e-05

> <r_epik_State_Penalty>
-0

> <r_epik_Charging_Adjusted_Penalty>
0.00857233

> <i_epik_Tot_Q>
1

> <i_epik_Tot_abs_Q>
1

> <r_epik_Metal_State_Penalty>
0.377538

> <b_epik_Metal_Only>
0

> <s_lp_Force_Field>
OPLS_2005

> <r_lp_Energy>
26.4268

> <b_lp_Chiralities_Consistent>
1

> <s_lp_Variant>
AV-unprocessed.smi:1757-2

> <Gold.Version>
5.8.1

> <Gold.Id.Protein>
6NUR|6NUR_protein|mol2

> <Gold.PLP.Fitness>
33.8202

> <Gold.PLP.PLP>
-31.7422

> <Gold.PLP.part.hbond>
-1.0000

> <Gold.PLP.part.metal>
0.0000

> <Gold.PLP.part.buried>
-5.5408

> <Gold.PLP.part.nonpolar>
-25.4119

> <Gold.PLP.part.repulsive>
0.2349

> <Gold.PLP.ligand.clash>
0.0000

> <Gold.PLP.ligand.torsion>
0.4672

> <Gold.PLP.Chemscore.Hbond>
1.0000

> <Gold.PLP.Chemscore.CHOScore>
0.0000

> <Gold.PLP.Chemscore.Metal>
0.0000

> <Gold.Chemscore.Hbonds>
donor molecule, donor type, donor heavy atom, donor atom, acceptor molecule, acceptor atom, score
      L1  H    18    23       P1  8028  1.00

> <Gold.PLP.Chemscore.Internal.Correction>
0.0124

> <Gold.Rescore>
     Score         DG    S(hbond)    S(metal)    S(lipo)     H(rot)  DE(clash)    DE(int)     intcor
     12.42     -13.64       0.97        0.00      64.05       1.00       0.01       1.21       ----

> <Gold.Chemscore.Fitness>
12.4177

> <Gold.Chemscore.DG>
-13.6422

> <Gold.Chemscore.ZeroCoef>
-5.4800

> <Gold.Chemscore.Hbond>
0.9666

> <Gold.Chemscore.Metal>
0.0000

> <Gold.Chemscore.Lipo>
64.0488

> <Gold.Chemscore.Internal_Hbond>
0.0000

> <Gold.Chemscore.DEClash>
0.0123

> <Gold.Chemscore.DEInternal>
1.2123

> <Gold.Chemscore.Rot>
1.0000

> <Gold.Chemscore.Internal.Correction>
   9.000000E+99

> <Gold.Chemscore.Hbonds>
donor molecule, donor type, donor heavy atom, donor atom, acceptor molecule, acceptor atom, score
      L1  H    18    23       P1  8028  0.97

> <Gold.Chemscore.Hbond.Weighted>
-3.2285

> <Gold.Chemscore.Metal.Weighted>
-0.0000

> <Gold.Chemscore.Lipo.Weighted>
-7.4937

> <Gold.Chemscore.Internal_Hbond.Weighted>
0.0000

> <Gold.Chemscore.DEClash.Weighted>
0.0123

> <Gold.Chemscore.DEInternal.Weighted>
1.2123

> <Gold.Chemscore.Rot.Weighted>
2.5600

> <Gold.Chemscore.Internal.Correction.Weighted>
   9.000000E+99

> <Gold.Protein.RotatedTorsions>
[ 6907 6896 6895 6894 ] final  117.08 input  -60.11 | X-H torsion
[ 7974 7965 7964 7962 ] final  132.80 input  175.53 | X-H torsion
[ 8008 7997 7996 7995 ] final  155.96 input   59.86 | X-H torsion
[ 10167 10162 10161 10158 ] final -153.70 input  -65.29 | X-H torsion
[ 10718 10713 10712 10709 ] final -149.32 input   66.30 | X-H torsion
[ 10763 10752 10751 10750 ] final   89.39 input  -60.55 | X-H torsion
[ 11005 11000 10999 10996 ] final -104.27 input  -57.11 | X-H torsion

> <Gold.Protein.ActiveResidues>
 VAL166  LYS551  ARG553  GLY616  TRP617  ASP618  TYR619  PRO620  LYS621  CYS622 
 ASP623  PHE694  ASN695  SER759  ASP760  ASP761  ALA762  ILE779  LEU786  VAL792 
 PHE793  MET794  SER795  GLU796  ALA797  LYS798  CYS799  TRP800  GLU811  SER814 

> <Gold.Protein.RotatedAtoms>
  152.4635  133.7873  159.6882 H   0  0  0  0  0  0  0  0  0  0  0  0  # atno 6907 bound_to 6896
  150.8589  133.7663  159.3005 H   0  0  0  0  0  0  0  0  0  0  0  0  # atno 6908 bound_to 6896
  151.5234  135.1070  159.9936 H   0  0  0  0  0  0  0  0  0  0  0  0  # atno 6909 bound_to 6896
  144.9931  139.4387  143.5329 H   0  0  0  0  0  0  0  0  0  0  0  0  # atno 7974 bound_to 7965
  156.2449  140.1925  156.6882 H   0  0  0  0  0  0  0  0  0  0  0  0  # atno 8008 bound_to 7997
  154.6271  140.0600  156.9713 H   0  0  0  0  0  0  0  0  0  0  0  0  # atno 8009 bound_to 7997
  155.1769  140.3273  155.4385 H   0  0  0  0  0  0  0  0  0  0  0  0  # atno 8010 bound_to 7997
  139.7075  143.9163  152.2454 H   0  0  0  0  0  0  0  0  0  0  0  0  # atno 10167 bound_to 10162
  156.4316  130.8078  151.2305 H   0  0  0  0  0  0  0  0  0  0  0  0  # atno 10718 bound_to 10713
  153.1866  135.4472  155.0096 H   0  0  0  0  0  0  0  0  0  0  0  0  # atno 10763 bound_to 10752
  154.8064  135.3276  154.7422 H   0  0  0  0  0  0  0  0  0  0  0  0  # atno 10764 bound_to 10752
  153.7881  135.6972  153.4931 H   0  0  0  0  0  0  0  0  0  0  0  0  # atno 10765 bound_to 10752
  141.1108  133.8709  157.1589 H   0  0  0  0  0  0  0  0  0  0  0  0  # atno 11005 bound_to 11000
  146.3436  139.9274  142.8758 LP  0  0  0  0  0  0  0  0  0  0  0  0  # atno 17320 bound_to 7965
  145.2258  140.9953  143.4019 LP  0  0  0  0  0  0  0  0  0  0  0  0  # atno 17321 bound_to 7965
  139.9022  144.6905  150.8652 LP  0  0  0  0  0  0  0  0  0  0  0  0  # atno 17342 bound_to 10162
  140.7725  143.3505  151.2024 LP  0  0  0  0  0  0  0  0  0  0  0  0  # atno 17343 bound_to 10162
  157.7508  131.0196  150.3676 LP  0  0  0  0  0  0  0  0  0  0  0  0  # atno 17370 bound_to 10713
  156.4014  130.3916  149.6957 LP  0  0  0  0  0  0  0  0  0  0  0  0  # atno 17371 bound_to 10713
  140.0001  135.0031  157.0171 LP  0  0  0  0  0  0  0  0  0  0  0  0  # atno 17394 bound_to 11000
  140.4780  134.1319  155.7212 LP  0  0  0  0  0  0  0  0  0  0  0  0  # atno 17395 bound_to 11000

$$$$
