AV-unprocessed.smi:644|AV-procd|sdf|3158|dock9
  -GOLD-   22720 0 83D 1   1.00000     0.00000
 Structure written by MMmdl.
 38 40  0  0  0  0  0  0  0  0  2 V2000
  152.2328  143.8272  160.2451 C   0  0  0  0  0  0  0  0  0  0  0  0
  151.9904  142.7916  159.1603 C   0  0  0  0  0  0  0  0  0  0  0  0
  151.0716  143.0958  158.1302 C   0  0  0  0  0  0  0  0  0  0  0  0
  150.8700  142.1276  157.1536 C   0  0  0  0  0  0  0  0  0  0  0  0
  150.0435  142.1197  156.0275 N   0  3  0  0  0  0  0  0  0  0  0  0
  150.1863  140.9370  155.3672 C   0  0  0  0  0  0  0  0  0  0  0  0
  151.0927  140.1911  156.0553 N   0  0  0  0  0  0  0  0  0  0  0  0
  151.6042  138.8409  155.7870 C   0  0  0  0  0  0  0  0  0  0  0  0
  150.9178  138.1730  154.5800 C   0  0  1  0  0  0  0  0  0  0  0  0
  151.8124  137.2559  153.9794 O   0  0  0  0  0  0  0  0  0  0  0  0
  149.6300  137.4388  154.9843 C   0  0  0  0  0  0  0  0  0  0  0  0
  149.9802  135.9165  155.9176 S   0  0  0  0  0  0  0  0  0  0  0  0
  148.9320  134.7804  155.0668 C   0  0  0  0  0  0  0  0  0  0  0  0
  147.6135  134.9362  154.8783 N   0  0  0  0  0  0  0  0  0  0  0  0
  147.0520  133.8800  154.1733 N   0  0  0  0  0  0  0  0  0  0  0  0
  147.9689  132.9635  153.8543 C   0  0  0  0  0  0  0  0  0  0  0  0
  149.6052  133.3041  154.3853 S   0  0  0  0  0  0  0  0  0  0  0  0
  151.5464  140.8928  157.1764 C   0  0  0  0  0  0  0  0  0  0  0  0
  152.4553  140.5766  158.1827 C   0  0  0  0  0  0  0  0  0  0  0  0
  152.6734  141.5477  159.1860 C   0  0  0  0  0  0  0  0  0  0  0  0
  153.6586  141.2307  160.2984 C   0  0  0  0  0  0  0  0  0  0  0  0
  151.6313  144.7223  160.0841 H   0  0  0  0  0  0  0  0  0  0  0  0
  153.2806  144.1283  160.2600 H   0  0  0  0  0  0  0  0  0  0  0  0
  151.9737  143.4241  161.2244 H   0  0  0  0  0  0  0  0  0  0  0  0
  150.5474  144.0400  158.1047 H   0  0  0  0  0  0  0  0  0  0  0  0
  149.6704  140.6414  154.4650 H   0  0  0  0  0  0  0  0  0  0  0  0
  152.6781  138.9251  155.6143 H   0  0  0  0  0  0  0  0  0  0  0  0
  151.4816  138.2410  156.6897 H   0  0  0  0  0  0  0  0  0  0  0  0
  150.6720  138.9353  153.8398 H   0  0  0  0  0  0  0  0  0  0  0  0
  151.5126  137.0782  153.1006 H   0  0  0  0  0  0  0  0  0  0  0  0
  148.9916  138.0933  155.5794 H   0  0  0  0  0  0  0  0  0  0  0  0
  149.0693  137.1684  154.0888 H   0  0  0  0  0  0  0  0  0  0  0  0
  147.6798  132.0811  153.3029 H   0  0  0  0  0  0  0  0  0  0  0  0
  152.9731  139.6290  158.2016 H   0  0  0  0  0  0  0  0  0  0  0  0
  154.0880  140.2355  160.1798 H   0  0  0  0  0  0  0  0  0  0  0  0
  153.1644  141.2657  161.2696 H   0  0  0  0  0  0  0  0  0  0  0  0
  154.4786  141.9493  160.3002 H   0  0  0  0  0  0  0  0  0  0  0  0
  149.4245  142.8632  155.7305 H   0  0  0  0  0  0  0  0  0  0  0  0
  1  2  1  0  0  0  0
  1 22  1  0  0  0  0
  1 23  1  0  0  0  0
  1 24  1  0  0  0  0
  2 20  1  0  0  0  0
  2  3  2  0  0  0  0
  3  4  1  0  0  0  0
  3 25  1  0  0  0  0
  4 18  2  0  0  0  0
  4  5  1  0  0  0  0
  5  6  2  0  0  0  0
  5 38  1  0  0  0  0
  6  7  1  0  0  0  0
  6 26  1  0  0  0  0
  7  8  1  0  0  0  0
  7 18  1  0  0  0  0
  8  9  1  0  0  0  0
  8 27  1  0  0  0  0
  8 28  1  0  0  0  0
  9 10  1  0  0  0  0
  9 11  1  0  0  0  0
  9 29  1  0  0  0  0
 10 30  1  0  0  0  0
 11 12  1  0  0  0  0
 11 31  1  0  0  0  0
 11 32  1  0  0  0  0
 12 13  1  0  0  0  0
 13 17  1  0  0  0  0
 13 14  2  0  0  0  0
 14 15  1  0  0  0  0
 15 16  2  0  0  0  0
 16 17  1  0  0  0  0
 16 33  1  0  0  0  0
 18 19  1  0  0  0  0
 19 20  2  0  0  0  0
 19 34  1  0  0  0  0
 20 21  1  0  0  0  0
 21 35  1  0  0  0  0
 21 36  1  0  0  0  0
 21 37  1  0  0  0  0
M  CHG  1   5   1
M  END
> <s_m_source_file>
AV-unprocessed.smi

> <i_m_source_file_index>
644

> <i_lp_mmshare_version>
43012

> <i_f3d_flags>
0

> <s_epik_input>
W0NIM11jKFtjSF0xKWMoW0NIM10pW2NIXWMoYzEyKW4oW2NIXW4yKVtDSDJdW0NASF0oW09IXSlbQ0gyXVNjM25uW2NIXXMz

> <s_epik_cmdline>
J2VwaWtfcHl0aG9uJywgJy1waCcsICc3LjAnLCAnLXRuJywgJzgnLCAnLW1hJywgJzIwMCcsICctbWV0YWxfYmluZGluZycsICctaW1hZScsICc8aW5maWxlLm1hZT4nLCAnLW9tYWUnLCAnPG91dGZpbGUubWFlPic=

> <r_lp_tautomer_probability>
1

> <r_epik_Ionization_Penalty>
1.07492

> <r_epik_Ionization_Penalty_Charging>
1.07491

> <r_epik_Ionization_Penalty_Neutral>
3.80549e-06

> <r_epik_State_Penalty>
1.12982

> <r_epik_Charging_Adjusted_Penalty>
2.20473

> <i_epik_Tot_Q>
1

> <i_epik_Tot_abs_Q>
1

> <r_epik_Metal_State_Penalty>
1.2206

> <b_epik_Metal_Only>
0

> <s_lp_Force_Field>
OPLS_2005

> <r_lp_Energy>
12.6095

> <b_lp_Chiralities_Consistent>
1

> <s_lp_Variant>
AV-unprocessed.smi:644-4

> <Gold.Version>
5.8.1

> <Gold.Id.Protein>
6NUR|6NUR_protein|mol2

> <Gold.PLP.Fitness>
53.8103

> <Gold.PLP.PLP>
-43.3074

> <Gold.PLP.part.hbond>
-3.0000

> <Gold.PLP.part.metal>
0.0000

> <Gold.PLP.part.buried>
-3.7399

> <Gold.PLP.part.nonpolar>
-35.9023

> <Gold.PLP.part.repulsive>
0.3008

> <Gold.PLP.ligand.clash>
0.0000

> <Gold.PLP.ligand.torsion>
0.7782

> <Gold.PLP.Chemscore.Hbond>
4.0000

> <Gold.PLP.Chemscore.CHOScore>
0.0000

> <Gold.PLP.Chemscore.Metal>
0.0000

> <Gold.Chemscore.Hbonds>
donor molecule, donor type, donor heavy atom, donor atom, acceptor molecule, acceptor atom, score
      L1  H     5    38       P1  8028  2.00
      L1  H    10    30       P1  7949  1.00
      P1  H 10752 10764       L1    10  0.85

> <Gold.PLP.Chemscore.Internal.Correction>
0.0594

> <Gold.Rescore>
     Score         DG    S(hbond)    S(metal)    S(lipo)     H(rot)  DE(clash)    DE(int)     intcor
     18.42     -19.18       2.15        0.00     110.97       2.53       0.03       0.74       ----

> <Gold.Chemscore.Fitness>
18.4168

> <Gold.Chemscore.DG>
-19.1769

> <Gold.Chemscore.ZeroCoef>
-5.4800

> <Gold.Chemscore.Hbond>
2.1538

> <Gold.Chemscore.Metal>
0.0000

> <Gold.Chemscore.Lipo>
110.9734

> <Gold.Chemscore.Internal_Hbond>
0.0000

> <Gold.Chemscore.DEClash>
0.0251

> <Gold.Chemscore.DEInternal>
0.7350

> <Gold.Chemscore.Rot>
2.5315

> <Gold.Chemscore.Internal.Correction>
   9.000000E+99

> <Gold.Chemscore.Hbonds>
donor molecule, donor type, donor heavy atom, donor atom, acceptor molecule, acceptor atom, score
      L1  H     5    38       P1  8028  0.96
      L1  H    10    30       P1  7949  0.88
      P1  H 10752 10764       L1    10  0.14

> <Gold.Chemscore.Hbond.Weighted>
-7.1936

> <Gold.Chemscore.Metal.Weighted>
-0.0000

> <Gold.Chemscore.Lipo.Weighted>
-12.9839

> <Gold.Chemscore.Internal_Hbond.Weighted>
0.0000

> <Gold.Chemscore.DEClash.Weighted>
0.0251

> <Gold.Chemscore.DEInternal.Weighted>
0.7350

> <Gold.Chemscore.Rot.Weighted>
6.4805

> <Gold.Chemscore.Internal.Correction.Weighted>
   9.000000E+99

> <Gold.Protein.RotatedTorsions>
[ 6907 6896 6895 6894 ] final  -35.36 input  -60.11 | X-H torsion
[ 7974 7965 7964 7962 ] final  142.04 input  175.53 | X-H torsion
[ 8008 7997 7996 7995 ] final -126.57 input   59.86 | X-H torsion
[ 10167 10162 10161 10158 ] final   88.54 input  -65.29 | X-H torsion
[ 10718 10713 10712 10709 ] final   65.16 input   66.30 | X-H torsion
[ 10763 10752 10751 10750 ] final  -85.54 input  -60.55 | X-H torsion
[ 11005 11000 10999 10996 ] final  -88.10 input  -57.11 | X-H torsion

> <Gold.Protein.ActiveResidues>
 VAL166  LYS551  ARG553  GLY616  TRP617  ASP618  TYR619  PRO620  LYS621  CYS622 
 ASP623  PHE694  ASN695  SER759  ASP760  ASP761  ALA762  ILE779  LEU786  VAL792 
 PHE793  MET794  SER795  GLU796  ALA797  LYS798  CYS799  TRP800  GLU811  SER814 

> <Gold.Protein.RotatedAtoms>
  151.0408  134.9605  159.8160 H   0  0  0  0  0  0  0  0  0  0  0  0  # atno 6907 bound_to 6896
  152.5363  134.2661  159.8963 H   0  0  0  0  0  0  0  0  0  0  0  0  # atno 6908 bound_to 6896
  151.2673  133.4230  159.2653 H   0  0  0  0  0  0  0  0  0  0  0  0  # atno 6909 bound_to 6896
  144.9042  139.5380  143.5739 H   0  0  0  0  0  0  0  0  0  0  0  0  # atno 7974 bound_to 7965
  155.2318  140.0425  157.2963 H   0  0  0  0  0  0  0  0  0  0  0  0  # atno 8008 bound_to 7997
  154.5883  140.2420  155.7926 H   0  0  0  0  0  0  0  0  0  0  0  0  # atno 8009 bound_to 7997
  156.2242  140.2960  156.0034 H   0  0  0  0  0  0  0  0  0  0  0  0  # atno 8010 bound_to 7997
  139.8663  144.6517  150.9000 H   0  0  0  0  0  0  0  0  0  0  0  0  # atno 10167 bound_to 10162
  157.6087  130.9199  149.9940 H   0  0  0  0  0  0  0  0  0  0  0  0  # atno 10718 bound_to 10713
  154.6122  135.5481  153.7485 H   0  0  0  0  0  0  0  0  0  0  0  0  # atno 10763 bound_to 10752
  153.0200  135.6392  154.1562 H   0  0  0  0  0  0  0  0  0  0  0  0  # atno 10764 bound_to 10752
  154.1499  135.2903  155.3118 H   0  0  0  0  0  0  0  0  0  0  0  0  # atno 10765 bound_to 10752
  141.1607  133.7550  156.9403 H   0  0  0  0  0  0  0  0  0  0  0  0  # atno 11005 bound_to 11000
  146.3125  139.7797  142.9009 LP  0  0  0  0  0  0  0  0  0  0  0  0  # atno 17320 bound_to 7965
  145.3563  141.0317  143.3310 LP  0  0  0  0  0  0  0  0  0  0  0  0  # atno 17321 bound_to 7965
  140.7767  143.3701  151.1664 LP  0  0  0  0  0  0  0  0  0  0  0  0  # atno 17342 bound_to 10162
  139.7326  143.9049  152.3024 LP  0  0  0  0  0  0  0  0  0  0  0  0  # atno 17343 bound_to 10162
  156.1182  130.3647  149.9932 LP  0  0  0  0  0  0  0  0  0  0  0  0  # atno 17370 bound_to 10713
  156.8017  130.9293  151.3646 LP  0  0  0  0  0  0  0  0  0  0  0  0  # atno 17371 bound_to 10713
  140.1326  134.9346  157.2358 LP  0  0  0  0  0  0  0  0  0  0  0  0  # atno 17394 bound_to 11000
  140.2934  134.3214  155.7309 LP  0  0  0  0  0  0  0  0  0  0  0  0  # atno 17395 bound_to 11000

$$$$
