AV-unprocessed.smi:2528|AV-procd|sdf|9954|dock3
  -GOLD-   2272013593D 1   1.00000     0.00000
 Structure written by MMmdl.
 44 46  0  0  0  0  0  0  0  0  2 V2000
  144.4877  136.6960  152.1097 O   0  0  0  0  0  0  0  0  0  0  0  0
  145.6806  136.4240  151.9704 C   0  0  0  0  0  0  0  0  0  0  0  0
  146.6668  137.2984  152.2173 N   0  0  0  0  0  0  0  0  0  0  0  0
  146.4669  138.6669  152.6818 C   0  0  0  0  0  0  0  0  0  0  0  0
  147.1086  138.8993  154.0689 C   0  0  2  0  0  0  0  0  0  0  0  0
  146.0871  139.2684  155.1610 C   0  0  0  0  0  0  0  0  0  0  0  0
  145.5852  140.6515  154.9880 N   0  3  1  0  0  0  0  0  0  0  0  0
  144.5701  141.0097  156.0113 C   0  0  0  0  0  0  0  0  0  0  0  0
  144.0034  142.4160  155.7635 C   0  0  0  0  0  0  0  0  0  0  0  0
  145.1306  143.4551  155.7272 C   0  0  0  0  0  0  0  0  0  0  0  0
  146.1761  143.0550  154.6781 C   0  0  0  0  0  0  0  0  0  0  0  0
  146.7066  141.6279  154.9258 C   0  0  2  0  0  0  0  0  0  0  0  0
  147.7052  141.2115  153.8292 C   0  0  0  0  0  0  0  0  0  0  0  0
  148.1502  139.8756  154.0391 O   0  0  0  0  0  0  0  0  0  0  0  0
  146.1671  135.2378  151.5653 N   0  0  0  0  0  0  0  0  0  0  0  0
  145.4429  134.0725  151.1965 C   0  0  0  0  0  0  0  0  0  0  0  0
  146.2384  132.9707  150.8088 C   0  0  0  0  0  0  0  0  0  0  0  0
  145.6157  131.7682  150.4220 C   0  0  0  0  0  0  0  0  0  0  0  0
  144.2112  131.6981  150.4324 C   0  0  0  0  0  0  0  0  0  0  0  0
  143.4935  132.8401  150.8325 C   0  0  0  0  0  0  0  0  0  0  0  0
  144.0883  133.9938  151.2036 N   0  0  0  0  0  0  0  0  0  0  0  0
  147.6202  136.9956  152.0800 H   0  0  0  0  0  0  0  0  0  0  0  0
  146.8736  139.3479  151.9352 H   0  0  0  0  0  0  0  0  0  0  0  0
  145.3981  138.8833  152.7256 H   0  0  0  0  0  0  0  0  0  0  0  0
  147.5778  137.9632  154.3738 H   0  0  0  0  0  0  0  0  0  0  0  0
  145.2541  138.5641  155.1494 H   0  0  0  0  0  0  0  0  0  0  0  0
  146.5574  139.1819  156.1420 H   0  0  0  0  0  0  0  0  0  0  0  0
  143.7584  140.2815  155.9897 H   0  0  0  0  0  0  0  0  0  0  0  0
  145.0176  140.9571  157.0053 H   0  0  0  0  0  0  0  0  0  0  0  0
  143.4571  142.4318  154.8193 H   0  0  0  0  0  0  0  0  0  0  0  0
  143.2845  142.6719  156.5423 H   0  0  0  0  0  0  0  0  0  0  0  0
  144.7264  144.4424  155.5011 H   0  0  0  0  0  0  0  0  0  0  0  0
  145.6000  143.5259  156.7094 H   0  0  0  0  0  0  0  0  0  0  0  0
  145.7319  143.1179  153.6836 H   0  0  0  0  0  0  0  0  0  0  0  0
  147.0011  143.7681  154.6924 H   0  0  0  0  0  0  0  0  0  0  0  0
  147.2234  141.6102  155.8871 H   0  0  0  0  0  0  0  0  0  0  0  0
  147.2681  141.3176  152.8362 H   0  0  0  0  0  0  0  0  0  0  0  0
  148.5757  141.8676  153.8504 H   0  0  0  0  0  0  0  0  0  0  0  0
  147.1715  135.1590  151.5082 H   0  0  0  0  0  0  0  0  0  0  0  0
  147.3165  133.0415  150.8059 H   0  0  0  0  0  0  0  0  0  0  0  0
  146.2063  130.9152  150.1217 H   0  0  0  0  0  0  0  0  0  0  0  0
  143.6977  130.7935  150.1418 H   0  0  0  0  0  0  0  0  0  0  0  0
  142.4140  132.8282  150.8546 H   0  0  0  0  0  0  0  0  0  0  0  0
  145.1196  140.6842  154.0923 H   0  0  0  0  0  0  0  0  0  0  0  0
  1  2  2  0  0  0  0
  2  3  1  0  0  0  0
  2 15  1  0  0  0  0
  3  4  1  0  0  0  0
  3 22  1  0  0  0  0
  4  5  1  0  0  0  0
  4 23  1  0  0  0  0
  4 24  1  0  0  0  0
  5 14  1  0  0  0  0
  5  6  1  0  0  0  0
  5 25  1  0  0  0  0
  6  7  1  0  0  0  0
  6 26  1  0  0  0  0
  6 27  1  0  0  0  0
  7 12  1  0  0  0  0
  7  8  1  0  0  0  0
  7 44  1  0  0  0  0
  8  9  1  0  0  0  0
  8 28  1  0  0  0  0
  8 29  1  0  0  0  0
  9 10  1  0  0  0  0
  9 30  1  0  0  0  0
  9 31  1  0  0  0  0
 10 11  1  0  0  0  0
 10 32  1  0  0  0  0
 10 33  1  0  0  0  0
 11 12  1  0  0  0  0
 11 34  1  0  0  0  0
 11 35  1  0  0  0  0
 12 13  1  0  0  0  0
 12 36  1  0  0  0  0
 13 14  1  0  0  0  0
 13 37  1  0  0  0  0
 13 38  1  0  0  0  0
 15 16  1  0  0  0  0
 15 39  1  0  0  0  0
 16 21  1  0  0  0  0
 16 17  2  0  0  0  0
 17 18  1  0  0  0  0
 17 40  1  0  0  0  0
 18 19  2  0  0  0  0
 18 41  1  0  0  0  0
 19 20  1  0  0  0  0
 19 42  1  0  0  0  0
 20 21  2  0  0  0  0
 20 43  1  0  0  0  0
M  CHG  1   7   1
M  END
> <s_m_source_file>
AV-unprocessed.smi

> <i_m_source_file_index>
2528

> <i_lp_mmshare_version>
43012

> <i_f3d_flags>
0

> <s_epik_input>
bjFbY0hdW2NIXVtjSF1bY0hdYzFbTkhdQyg9TylbTkhdW0NIMl1bQ0BIXShbQ0gyXTIpT1tDSDJdW0NAQEhdKE4yMylbQ0gyXVtDSDJdW0NIMl1bQ0gyXTM=

> <s_epik_cmdline>
J2VwaWtfcHl0aG9uJywgJy1waCcsICc3LjAnLCAnLXRuJywgJzgnLCAnLW1hJywgJzIwMCcsICctbWV0YWxfYmluZGluZycsICctaW1hZScsICc8aW5maWxlLm1hZT4nLCAnLW9tYWUnLCAnPG91dGZpbGUubWFlPic=

> <r_epik_Ionization_Penalty>
0.0932337

> <r_epik_Ionization_Penalty_Charging>
0.0931942

> <r_epik_Ionization_Penalty_Neutral>
3.9565e-05

> <r_epik_State_Penalty>
0.0834605

> <r_epik_Charging_Adjusted_Penalty>
0.176655

> <i_epik_Tot_Q>
1

> <i_epik_Tot_abs_Q>
1

> <r_epik_Metal_State_Penalty>
0.0834607

> <b_epik_Metal_Only>
0

> <s_lp_Force_Field>
OPLS_2005

> <r_lp_Energy>
28.0782

> <b_lp_Chiralities_Consistent>
1

> <s_lp_Variant>
AV-unprocessed.smi:2528-7

> <Gold.Version>
5.8.1

> <Gold.Id.Protein>
6NUR|6NUR_protein|mol2

> <Gold.PLP.Fitness>
48.5491

> <Gold.PLP.PLP>
-35.7201

> <Gold.PLP.part.hbond>
-2.9519

> <Gold.PLP.part.metal>
0.0000

> <Gold.PLP.part.buried>
-7.3722

> <Gold.PLP.part.nonpolar>
-28.7051

> <Gold.PLP.part.repulsive>
2.8414

> <Gold.PLP.ligand.clash>
0.0000

> <Gold.PLP.ligand.torsion>
0.7485

> <Gold.PLP.Chemscore.Hbond>
3.8713

> <Gold.PLP.Chemscore.CHOScore>
0.9011

> <Gold.PLP.Chemscore.Metal>
0.0000

> <Gold.Chemscore.Hbonds>
donor molecule, donor type, donor heavy atom, donor atom, acceptor molecule, acceptor atom, score
      L1  H     3    22       P1  7948  1.00
      L1  H     7    44       P1 10175  1.33
      L1  H    15    39       P1  7948  0.82
      L1  C    20    43       P1 10186  0.88

> <Gold.PLP.Chemscore.Internal.Correction>
0.0091

> <Gold.Rescore>
     Score         DG    S(hbond)    S(metal)    S(lipo)     H(rot)  DE(clash)    DE(int)     intcor
     18.12     -20.26       2.77        0.00      75.47       1.29       0.07       2.07       ----

> <Gold.Chemscore.Fitness>
18.1213

> <Gold.Chemscore.DG>
-20.2583

> <Gold.Chemscore.ZeroCoef>
-5.4800

> <Gold.Chemscore.Hbond>
2.7674

> <Gold.Chemscore.Metal>
0.0000

> <Gold.Chemscore.Lipo>
75.4714

> <Gold.Chemscore.Internal_Hbond>
0.0000

> <Gold.Chemscore.DEClash>
0.0709

> <Gold.Chemscore.DEInternal>
2.0661

> <Gold.Chemscore.Rot>
1.2870

> <Gold.Chemscore.Internal.Correction>
   9.000000E+99

> <Gold.Chemscore.Hbonds>
donor molecule, donor type, donor heavy atom, donor atom, acceptor molecule, acceptor atom, score
      L1  H     3    22       P1  7948  0.93
      L1  H     7    44       P1 10175  0.66
      L1  H    15    39       P1  7948  0.68

> <Gold.Chemscore.Hbond.Weighted>
-9.2430

> <Gold.Chemscore.Metal.Weighted>
-0.0000

> <Gold.Chemscore.Lipo.Weighted>
-8.8301

> <Gold.Chemscore.Internal_Hbond.Weighted>
0.0000

> <Gold.Chemscore.DEClash.Weighted>
0.0709

> <Gold.Chemscore.DEInternal.Weighted>
2.0661

> <Gold.Chemscore.Rot.Weighted>
3.2948

> <Gold.Chemscore.Internal.Correction.Weighted>
   9.000000E+99

> <Gold.Protein.RotatedTorsions>
[ 6907 6896 6895 6894 ] final   35.96 input  -60.11 | X-H torsion
[ 7974 7965 7964 7962 ] final   69.40 input  175.53 | X-H torsion
[ 8008 7997 7996 7995 ] final  -97.65 input   59.86 | X-H torsion
[ 10167 10162 10161 10158 ] final    9.00 input  -65.29 | X-H torsion
[ 10718 10713 10712 10709 ] final  133.14 input   66.30 | X-H torsion
[ 10763 10752 10751 10750 ] final  -36.86 input  -60.55 | X-H torsion
[ 11005 11000 10999 10996 ] final -113.39 input  -57.11 | X-H torsion

> <Gold.Protein.ActiveResidues>
 VAL166  LYS551  ARG553  GLY616  TRP617  ASP618  TYR619  PRO620  LYS621  CYS622 
 ASP623  PHE694  ASN695  SER759  ASP760  ASP761  ALA762  ILE779  LEU786  VAL792 
 PHE793  MET794  SER795  GLU796  ALA797  LYS798  CYS799  TRP800  GLU811  SER814 

> <Gold.Protein.RotatedAtoms>
  152.1233  134.9189  160.0561 H   0  0  0  0  0  0  0  0  0  0  0  0  # atno 6907 bound_to 6896
  152.0322  133.3937  159.4310 H   0  0  0  0  0  0  0  0  0  0  0  0  # atno 6908 bound_to 6896
  150.6850  134.3429  159.4919 H   0  0  0  0  0  0  0  0  0  0  0  0  # atno 6909 bound_to 6896
  145.7909  139.2933  143.1211 H   0  0  0  0  0  0  0  0  0  0  0  0  # atno 7974 bound_to 7965
  154.7907  140.0461  157.1198 H   0  0  0  0  0  0  0  0  0  0  0  0  # atno 8008 bound_to 7997
  154.9595  140.3075  155.5018 H   0  0  0  0  0  0  0  0  0  0  0  0  # atno 8009 bound_to 7997
  156.2949  140.2273  156.4679 H   0  0  0  0  0  0  0  0  0  0  0  0  # atno 8010 bound_to 7997
  140.6281  143.8055  150.7259 H   0  0  0  0  0  0  0  0  0  0  0  0  # atno 10167 bound_to 10162
  157.4802  131.1085  150.9691 H   0  0  0  0  0  0  0  0  0  0  0  0  # atno 10718 bound_to 10713
  153.8867  135.6816  153.4763 H   0  0  0  0  0  0  0  0  0  0  0  0  # atno 10763 bound_to 10752
  153.1203  135.4742  154.9182 H   0  0  0  0  0  0  0  0  0  0  0  0  # atno 10764 bound_to 10752
  154.7642  135.3219  154.8271 H   0  0  0  0  0  0  0  0  0  0  0  0  # atno 10765 bound_to 10752
  141.0617  133.9525  157.2655 H   0  0  0  0  0  0  0  0  0  0  0  0  # atno 11005 bound_to 11000
  145.9978  140.8547  143.0034 LP  0  0  0  0  0  0  0  0  0  0  0  0  # atno 17320 bound_to 7965
  144.6782  140.2308  143.7355 LP  0  0  0  0  0  0  0  0  0  0  0  0  # atno 17321 bound_to 7965
  140.1660  143.4235  152.2034 LP  0  0  0  0  0  0  0  0  0  0  0  0  # atno 17342 bound_to 10162
  139.5499  144.7329  151.4468 LP  0  0  0  0  0  0  0  0  0  0  0  0  # atno 17343 bound_to 10162
  157.0427  130.5755  149.5358 LP  0  0  0  0  0  0  0  0  0  0  0  0  # atno 17370 bound_to 10713
  156.0117  130.5209  150.8011 LP  0  0  0  0  0  0  0  0  0  0  0  0  # atno 17371 bound_to 10713
  139.9439  135.0187  156.8791 LP  0  0  0  0  0  0  0  0  0  0  0  0  # atno 17394 bound_to 11000
  140.5855  134.0311  155.7480 LP  0  0  0  0  0  0  0  0  0  0  0  0  # atno 17395 bound_to 11000

$$$$
