AV-unprocessed.smi:3173|AV-procd|sdf|12118|dock1
  -GOLD-   2272017553D 1   1.00000     0.00000
 Structure written by MMmdl.
 35 36  0  0  0  0  0  0  0  0  1 V2000
  153.5383  139.5110  158.0808 O   0  0  0  0  0  0  0  0  0  0  0  0
  152.4931  140.1617  158.0634 C   0  0  0  0  0  0  0  0  0  0  0  0
  151.9839  140.8517  159.3338 C   0  0  0  0  0  0  0  0  0  0  0  0
  152.8073  142.0933  159.7370 C   0  0  1  0  0  0  0  0  0  0  0  0
  152.5146  143.2815  158.8574 C   0  0  0  0  0  0  0  0  0  0  0  0
  152.2219  144.3782  159.5527 C   0  0  0  0  0  0  0  0  0  0  0  0
  152.2578  144.1447  161.0372 C   0  0  0  0  0  0  0  0  0  0  0  0
  152.5132  142.6266  161.1653 C   0  0  0  0  0  0  0  0  0  0  0  0
  151.7437  140.3188  156.9615 N   0  0  0  0  0  0  0  0  0  0  0  0
  152.0476  139.7492  155.6538 C   0  0  0  0  0  0  0  0  0  0  0  0
  150.9362  138.7994  155.1765 C   0  0  0  0  0  0  0  0  0  0  0  0
  149.7454  139.5482  154.6090 C   0  0  0  0  0  0  0  0  0  0  0  0
  148.6123  138.8500  154.1395 C   0  0  0  0  0  0  0  0  0  0  0  0
  147.5310  139.5929  153.6270 C   0  0  0  0  0  0  0  0  0  0  0  0
  147.6234  140.9979  153.6051 C   0  0  0  0  0  0  0  0  0  0  0  0
  148.7977  141.6003  154.0993 C   0  0  0  0  0  0  0  0  0  0  0  0
  149.8404  140.8972  154.5923 N   0  0  0  0  0  0  0  0  0  0  0  0
  150.9461  141.1398  159.1624 H   0  0  0  0  0  0  0  0  0  0  0  0
  151.9727  140.1354  160.1572 H   0  0  0  0  0  0  0  0  0  0  0  0
  153.8727  141.8808  159.6354 H   0  0  0  0  0  0  0  0  0  0  0  0
  152.5614  143.2250  157.7797 H   0  0  0  0  0  0  0  0  0  0  0  0
  151.9945  145.3442  159.1264 H   0  0  0  0  0  0  0  0  0  0  0  0
  153.0631  144.7287  161.4835 H   0  0  0  0  0  0  0  0  0  0  0  0
  151.3148  144.4385  161.4990 H   0  0  0  0  0  0  0  0  0  0  0  0
  151.6257  142.1483  161.5815 H   0  0  0  0  0  0  0  0  0  0  0  0
  153.3380  142.4148  161.8466 H   0  0  0  0  0  0  0  0  0  0  0  0
  150.9017  140.8713  157.0344 H   0  0  0  0  0  0  0  0  0  0  0  0
  152.2080  140.5464  154.9258 H   0  0  0  0  0  0  0  0  0  0  0  0
  152.9908  139.2081  155.7331 H   0  0  0  0  0  0  0  0  0  0  0  0
  151.3245  138.1228  154.4138 H   0  0  0  0  0  0  0  0  0  0  0  0
  150.5988  138.1693  156.0005 H   0  0  0  0  0  0  0  0  0  0  0  0
  148.5704  137.7710  154.1713 H   0  0  0  0  0  0  0  0  0  0  0  0
  146.6471  139.0941  153.2581 H   0  0  0  0  0  0  0  0  0  0  0  0
  146.8137  141.5997  153.2200 H   0  0  0  0  0  0  0  0  0  0  0  0
  148.9020  142.6752  154.0996 H   0  0  0  0  0  0  0  0  0  0  0  0
  1  2  2  0  0  0  0
  2  3  1  0  0  0  0
  2  9  1  0  0  0  0
  3  4  1  0  0  0  0
  3 18  1  0  0  0  0
  3 19  1  0  0  0  0
  4  8  1  0  0  0  0
  4  5  1  0  0  0  0
  4 20  1  0  0  0  0
  5  6  2  0  0  0  0
  5 21  1  0  0  0  0
  6  7  1  0  0  0  0
  6 22  1  0  0  0  0
  7  8  1  0  0  0  0
  7 23  1  0  0  0  0
  7 24  1  0  0  0  0
  8 25  1  0  0  0  0
  8 26  1  0  0  0  0
  9 10  1  0  0  0  0
  9 27  1  0  0  0  0
 10 11  1  0  0  0  0
 10 28  1  0  0  0  0
 10 29  1  0  0  0  0
 11 12  1  0  0  0  0
 11 30  1  0  0  0  0
 11 31  1  0  0  0  0
 12 17  1  0  0  0  0
 12 13  2  0  0  0  0
 13 14  1  0  0  0  0
 13 32  1  0  0  0  0
 14 15  2  0  0  0  0
 14 33  1  0  0  0  0
 15 16  1  0  0  0  0
 15 34  1  0  0  0  0
 16 17  2  0  0  0  0
 16 35  1  0  0  0  0
M  END
> <s_m_source_file>
AV-unprocessed.smi

> <i_m_source_file_index>
3173

> <i_lp_mmshare_version>
43012

> <i_f3d_flags>
0

> <s_epik_input>
W0NIMl0xW0NIMl1bQ0hdPVtDSF1bQ0BIXTFbQ0gyXUMoPU8pW05IXVtDSDJdW0NIMl1jMltjSF1bY0hdW2NIXVtjSF1uMg==

> <s_epik_cmdline>
J2VwaWtfcHl0aG9uJywgJy1waCcsICc3LjAnLCAnLXRuJywgJzgnLCAnLW1hJywgJzIwMCcsICctbWV0YWxfYmluZGluZycsICctaW1hZScsICc8aW5maWxlLm1hZT4nLCAnLW9tYWUnLCAnPG91dGZpbGUubWFlPic=

> <r_epik_Ionization_Penalty>
0.0258754

> <r_epik_Ionization_Penalty_Charging>
0

> <r_epik_Ionization_Penalty_Neutral>
0.0258754

> <r_epik_State_Penalty>
0.0210899

> <r_epik_Charging_Adjusted_Penalty>
0.0210899

> <i_epik_Tot_Q>
0

> <i_epik_Tot_abs_Q>
0

> <r_epik_Metal_State_Penalty>
0.0202045

> <b_epik_Metal_Only>
0

> <s_lp_Force_Field>
OPLS_2005

> <r_lp_Energy>
13.8907

> <b_lp_Chiralities_Consistent>
1

> <s_lp_Variant>
AV-unprocessed.smi:3173-2

> <Gold.Version>
5.8.1

> <Gold.Id.Protein>
6NUR|6NUR_protein|mol2

> <Gold.PLP.Fitness>
48.6313

> <Gold.PLP.PLP>
-42.0091

> <Gold.PLP.part.hbond>
-2.0000

> <Gold.PLP.part.metal>
0.0000

> <Gold.PLP.part.buried>
-0.7287

> <Gold.PLP.part.nonpolar>
-38.7496

> <Gold.PLP.part.repulsive>
0.2386

> <Gold.PLP.ligand.clash>
0.0000

> <Gold.PLP.ligand.torsion>
0.3258

> <Gold.PLP.Chemscore.Hbond>
1.3950

> <Gold.PLP.Chemscore.CHOScore>
1.0000

> <Gold.PLP.Chemscore.Metal>
0.0000

> <Gold.Chemscore.Hbonds>
donor molecule, donor type, donor heavy atom, donor atom, acceptor molecule, acceptor atom, score
      P1  H  7989  7998       L1    17  0.40
      P1  H  7997  8008       L1     1  1.00
      L1  C    16    35       P1  8028  0.97

> <Gold.PLP.Chemscore.Internal.Correction>
0.0890

> <Gold.Rescore>
     Score         DG    S(hbond)    S(metal)    S(lipo)     H(rot)  DE(clash)    DE(int)     intcor
     17.93     -18.44       1.06        0.00     113.49       1.50       0.22       0.29       ----

> <Gold.Chemscore.Fitness>
17.9287

> <Gold.Chemscore.DG>
-18.4408

> <Gold.Chemscore.ZeroCoef>
-5.4800

> <Gold.Chemscore.Hbond>
1.0573

> <Gold.Chemscore.Metal>
0.0000

> <Gold.Chemscore.Lipo>
113.4941

> <Gold.Chemscore.Internal_Hbond>
0.0000

> <Gold.Chemscore.DEClash>
0.2213

> <Gold.Chemscore.DEInternal>
0.2907

> <Gold.Chemscore.Rot>
1.5037

> <Gold.Chemscore.Internal.Correction>
   9.000000E+99

> <Gold.Chemscore.Hbonds>
donor molecule, donor type, donor heavy atom, donor atom, acceptor molecule, acceptor atom, score
      P1  H  7989  7998       L1    17  0.04
      P1  H  7997  8008       L1     1  0.69

> <Gold.Chemscore.Hbond.Weighted>
-3.5314

> <Gold.Chemscore.Metal.Weighted>
-0.0000

> <Gold.Chemscore.Lipo.Weighted>
-13.2788

> <Gold.Chemscore.Internal_Hbond.Weighted>
0.0000

> <Gold.Chemscore.DEClash.Weighted>
0.2213

> <Gold.Chemscore.DEInternal.Weighted>
0.2907

> <Gold.Chemscore.Rot.Weighted>
3.8494

> <Gold.Chemscore.Internal.Correction.Weighted>
   9.000000E+99

> <Gold.Protein.RotatedTorsions>
[ 6907 6896 6895 6894 ] final  137.59 input  -60.11 | X-H torsion
[ 7974 7965 7964 7962 ] final   26.75 input  175.53 | X-H torsion
[ 8008 7997 7996 7995 ] final  -76.52 input   59.86 | X-H torsion
[ 10167 10162 10161 10158 ] final   27.62 input  -65.29 | X-H torsion
[ 10718 10713 10712 10709 ] final  -70.29 input   66.30 | X-H torsion
[ 10763 10752 10751 10750 ] final  -28.65 input  -60.55 | X-H torsion
[ 11005 11000 10999 10996 ] final  -20.23 input  -57.11 | X-H torsion

> <Gold.Protein.ActiveResidues>
 VAL166  LYS551  ARG553  GLY616  TRP617  ASP618  TYR619  PRO620  LYS621  CYS622 
 ASP623  PHE694  ASN695  SER759  ASP760  ASP761  ALA762  ILE779  LEU786  VAL792 
 PHE793  MET794  SER795  GLU796  ALA797  LYS798  CYS799  TRP800  GLU811  SER814 

> <Gold.Protein.RotatedAtoms>
  152.2763  133.5429  159.5470 H   0  0  0  0  0  0  0  0  0  0  0  0  # atno 6907 bound_to 6896
  150.7178  134.0626  159.3845 H   0  0  0  0  0  0  0  0  0  0  0  0  # atno 6908 bound_to 6896
  151.8539  135.0548  160.0513 H   0  0  0  0  0  0  0  0  0  0  0  0  # atno 6909 bound_to 6896
  146.1821  139.7286  142.8893 H   0  0  0  0  0  0  0  0  0  0  0  0  # atno 7974 bound_to 7965
  154.5513  140.0725  156.8672 H   0  0  0  0  0  0  0  0  0  0  0  0  # atno 8008 bound_to 7997
  155.2988  140.3383  155.4230 H   0  0  0  0  0  0  0  0  0  0  0  0  # atno 8009 bound_to 7997
  156.1963  140.1705  156.7976 H   0  0  0  0  0  0  0  0  0  0  0  0  # atno 8010 bound_to 7997
  140.4923  144.0447  150.6301 H   0  0  0  0  0  0  0  0  0  0  0  0  # atno 10167 bound_to 10162
  156.0415  130.4329  150.2274 H   0  0  0  0  0  0  0  0  0  0  0  0  # atno 10718 bound_to 10713
  153.7519  135.6925  153.4944 H   0  0  0  0  0  0  0  0  0  0  0  0  # atno 10763 bound_to 10752
  153.1998  135.4441  155.0251 H   0  0  0  0  0  0  0  0  0  0  0  0  # atno 10764 bound_to 10752
  154.8184  135.3410  154.7039 H   0  0  0  0  0  0  0  0  0  0  0  0  # atno 10765 bound_to 10752
  140.8444  133.7902  155.9897 H   0  0  0  0  0  0  0  0  0  0  0  0  # atno 11005 bound_to 11000
  145.4046  141.0389  143.3051 LP  0  0  0  0  0  0  0  0  0  0  0  0  # atno 17320 bound_to 7965
  144.8333  139.5592  143.6934 LP  0  0  0  0  0  0  0  0  0  0  0  0  # atno 17321 bound_to 7965
  140.3720  143.2849  152.0268 LP  0  0  0  0  0  0  0  0  0  0  0  0  # atno 17342 bound_to 10162
  139.4854  144.6223  151.7232 LP  0  0  0  0  0  0  0  0  0  0  0  0  # atno 17343 bound_to 10162
  157.0369  131.0023  151.3295 LP  0  0  0  0  0  0  0  0  0  0  0  0  # atno 17370 bound_to 10713
  157.5238  130.8014  149.7838 LP  0  0  0  0  0  0  0  0  0  0  0  0  # atno 17371 bound_to 10713
  140.8859  134.2554  157.5120 LP  0  0  0  0  0  0  0  0  0  0  0  0  # atno 17394 bound_to 11000
  139.8703  134.9638  156.4473 LP  0  0  0  0  0  0  0  0  0  0  0  0  # atno 17395 bound_to 11000

$$$$
