#       Name:                AV-unprocessed.smi:2822
#       Creating user name   scv26
#       Creation time:       Fri Mar 27 15:31:32 2020


#       File generated by GOLD software.
#

@<TRIPOS>MOLECULE
AV-unprocessed.smi:2822
    43    45     1
SMALL
NO_CHARGES


@<TRIPOS>ATOM
      1 ****        -5.2703   0.8882   0.7707 Cl             1 S1                 0.0000
      2 ****        -4.3829   2.3724   0.7416 C.ar           1 S1                 0.0000
      3 ****        -5.0738   3.5987   0.6571 C.ar           1 S1                 0.0000
      4 ****        -4.4581   4.7992   0.6276 N.ar           1 S1                 0.0000
      5 ****        -3.1102   4.8150   0.6830 C.ar           1 S1                 0.0000
      6 ****        -2.3233   3.6492   0.7686 C.ar           1 S1                 0.0000
      7 ****        -2.9701   2.3910   0.7980 C.ar           1 S1                 0.0000
      8 ****        -2.2638   1.1810   0.8822 N.pl3          1 S1                 0.0000
      9 ****        -0.8240   1.1491   0.6755 C.3            1 S1                 0.0000
     10 ****        -0.2849  -0.2881   0.6571 C.3            1 S1                 0.0000
     11 ****         1.2544  -0.3148   0.6306 C.3            1 S1                 0.0000
     12 ****         1.7520  -1.7090   0.5252 N.4            1 S1                 1.0000
     13 ****         3.2338  -1.8229   0.5519 C.3            1 S1                 0.0000
     14 ****         3.8759  -1.3921  -0.7807 C.3            1 S1                 0.0000
     15 ****         3.2700  -2.1640  -1.9607 C.3            1 S1                 0.0000
     16 ****         1.7413  -2.0204  -1.9661 C.3            1 S1                 0.0000
     17 ****         1.1364  -2.4492  -0.6108 C.3            1 S1                 0.0000
     18 ****        -0.3979  -2.3037  -0.5718 C.3            1 S1                 0.0000
     19 ****        -0.7624  -0.9299  -0.5207 O.3            1 S1                 0.0000
     20 ****        -6.1528   3.6168   0.6114 H              1 S1                 0.0000
     21 ****        -2.6422   5.7880   0.6596 H              1 S1                 0.0000
     22 ****        -1.2485   3.7412   0.8125 H              1 S1                 0.0000
     23 ****        -2.7791   0.3150   0.8094 H              1 S1                 0.0000
     24 ****        -0.5715   1.6573  -0.2561 H              1 S1                 0.0000
     25 ****        -0.3499   1.7024   1.4870 H              1 S1                 0.0000
     26 ****        -0.6442  -0.8180   1.5417 H              1 S1                 0.0000
     27 ****         1.6198   0.2841  -0.2040 H              1 S1                 0.0000
     28 ****         1.6475   0.1398   1.5409 H              1 S1                 0.0000
     29 ****         3.6384  -1.2374   1.3783 H              1 S1                 0.0000
     30 ****         3.4924  -2.8623   0.7573 H              1 S1                 0.0000
     31 ****         3.7426  -0.3209  -0.9340 H              1 S1                 0.0000
     32 ****         4.9525  -1.5602  -0.7433 H              1 S1                 0.0000
     33 ****         3.6857  -1.8007  -2.9010 H              1 S1                 0.0000
     34 ****         3.5402  -3.2182  -1.8868 H              1 S1                 0.0000
     35 ****         1.4709  -0.9889  -2.1949 H              1 S1                 0.0000
     36 ****         1.3223  -2.6284  -2.7687 H              1 S1                 0.0000
     37 ****         1.3688  -3.5058  -0.4690 H              1 S1                 0.0000
     38 ****        -0.8474  -2.7596  -1.4545 H              1 S1                 0.0000
     39 ****        -0.8119  -2.8256   0.2927 H              1 S1                 0.0000
     40 ****         1.4257  -2.1688   1.3633 H              1 S1                 0.0000
     41 ****        -4.9831   5.6482   0.5667 LP             1 S1                 0.0000
     42 ****        -0.3782  -0.4653  -1.3185 LP             1 S1                 0.0000
     43 ****        -1.7598  -0.8607  -0.5429 LP             1 S1                 0.0000
@<TRIPOS>BOND
    1    1    2 1     
    2    2    7 ar    
    3    2    3 ar    
    4    3    4 ar    
    5    3   20 1     
    6    4    5 ar    
    7    5    6 ar    
    8    5   21 1     
    9    6    7 ar    
   10    6   22 1     
   11    7    8 1     
   12    8    9 1     
   13    8   23 1     
   14    9   10 1     
   15    9   24 1     
   16    9   25 1     
   17   10   19 1     
   18   10   11 1     
   19   10   26 1     
   20   11   12 1     
   21   11   27 1     
   22   11   28 1     
   23   12   17 1     
   24   12   13 1     
   25   12   40 1     
   26   13   14 1     
   27   13   29 1     
   28   13   30 1     
   29   14   15 1     
   30   14   31 1     
   31   14   32 1     
   32   15   16 1     
   33   15   33 1     
   34   15   34 1     
   35   16   17 1     
   36   16   35 1     
   37   16   36 1     
   38   17   18 1     
   39   17   37 1     
   40   18   19 1     
   41   18   38 1     
   42   18   39 1     
   43    4   41 1     
   44   19   42 1     
   45   19   43 1     
@<TRIPOS>SUBSTRUCTURE
      1 S1             1
@<TRIPOS>SET
LONE_PAIRS      STATIC     ATOMS    <user>   **** ""
3 41 42 43
DONOR_HYDROGENS      STATIC     ATOMS    <user>   **** ""
2 23 40
ATOM$BLUE        STATIC     ATOMS    COLORGROUP SYSTEM
3 41 42 43
ATOM$RED        STATIC     ATOMS    COLORGROUP SYSTEM
2 23 40
