AV-unprocessed.smi:3011|AV-procd|sdf|11460|dock9
  -GOLD-   2272016393D 1   1.00000     0.00000
 Structure written by MMmdl.
 47 49  0  0  0  0  0  0  0  0  2 V2000
  151.8845  145.6852  159.6814 C   0  0  0  0  0  0  0  0  0  0  0  0
  151.3404  144.4561  159.2242 O   0  0  0  0  0  0  0  0  0  0  0  0
  152.0511  143.2974  159.4597 C   0  0  0  0  0  0  0  0  0  0  0  0
  153.1938  143.2340  160.2970 C   0  0  0  0  0  0  0  0  0  0  0  0
  153.8648  142.0145  160.4986 C   0  0  0  0  0  0  0  0  0  0  0  0
  153.4023  140.8462  159.8698 C   0  0  0  0  0  0  0  0  0  0  0  0
  152.2705  140.8975  159.0362 C   0  0  0  0  0  0  0  0  0  0  0  0
  151.5891  142.1225  158.8223 C   0  0  0  0  0  0  0  0  0  0  0  0
  150.4801  142.2486  158.0122 O   0  0  0  0  0  0  0  0  0  0  0  0
  149.9853  141.0923  157.3507 C   0  0  0  0  0  0  0  0  0  0  0  0
  150.9030  140.7677  156.1647 C   0  0  0  0  0  0  0  0  0  0  0  0
  150.2065  140.0019  155.1194 N   0  0  0  0  0  0  0  0  0  0  0  0
  150.4745  138.7742  154.5828 C   0  0  0  0  0  0  0  0  0  0  0  0
  151.6138  137.8593  154.9279 C   0  0  1  0  0  0  0  0  0  0  0  0
  152.9635  138.5733  154.7610 C   0  0  0  0  0  0  0  0  0  0  0  0
  151.4992  137.3505  156.2889 N   0  0  0  0  0  0  0  0  0  0  0  0
  152.4744  136.7025  156.9377 C   0  0  0  0  0  0  0  0  0  0  0  0
  153.5739  136.4740  156.4405 O   0  0  0  0  0  0  0  0  0  0  0  0
  149.5229  138.5371  153.6345 N   0  3  0  0  0  0  0  0  0  0  0  0
  148.6260  139.6033  153.5826 C   0  0  0  0  0  0  0  0  0  0  0  0
  147.4985  139.8080  152.7931 C   0  0  0  0  0  0  0  0  0  0  0  0
  146.7943  141.0127  152.9964 C   0  0  0  0  0  0  0  0  0  0  0  0
  147.2178  141.9580  153.9531 C   0  0  0  0  0  0  0  0  0  0  0  0
  148.3643  141.7401  154.7455 C   0  0  0  0  0  0  0  0  0  0  0  0
  149.0556  140.5466  154.5374 C   0  0  0  0  0  0  0  0  0  0  0  0
  151.2031  146.4962  159.4251 H   0  0  0  0  0  0  0  0  0  0  0  0
  152.8428  145.8979  159.2061 H   0  0  0  0  0  0  0  0  0  0  0  0
  152.0079  145.6889  160.7652 H   0  0  0  0  0  0  0  0  0  0  0  0
  153.5770  144.1092  160.7990 H   0  0  0  0  0  0  0  0  0  0  0  0
  154.7344  141.9754  161.1380 H   0  0  0  0  0  0  0  0  0  0  0  0
  153.9169  139.9096  160.0259 H   0  0  0  0  0  0  0  0  0  0  0  0
  151.9465  139.9800  158.5695 H   0  0  0  0  0  0  0  0  0  0  0  0
  149.9563  140.2421  158.0337 H   0  0  0  0  0  0  0  0  0  0  0  0
  148.9717  141.2727  156.9901 H   0  0  0  0  0  0  0  0  0  0  0  0
  151.3101  141.6787  155.7258 H   0  0  0  0  0  0  0  0  0  0  0  0
  151.7604  140.1851  156.5001 H   0  0  0  0  0  0  0  0  0  0  0  0
  151.6059  137.0124  154.2403 H   0  0  0  0  0  0  0  0  0  0  0  0
  153.0781  138.9618  153.7487 H   0  0  0  0  0  0  0  0  0  0  0  0
  153.7931  137.8905  154.9471 H   0  0  0  0  0  0  0  0  0  0  0  0
  153.0650  139.4123  155.4502 H   0  0  0  0  0  0  0  0  0  0  0  0
  150.6236  137.5007  156.7690 H   0  0  0  0  0  0  0  0  0  0  0  0
  152.1696  136.4088  157.9542 H   0  0  0  0  0  0  0  0  0  0  0  0
  147.1714  139.0844  152.0610 H   0  0  0  0  0  0  0  0  0  0  0  0
  145.9110  141.2150  152.4080 H   0  0  0  0  0  0  0  0  0  0  0  0
  146.6514  142.8689  154.0821 H   0  0  0  0  0  0  0  0  0  0  0  0
  148.6780  142.4704  155.4766 H   0  0  0  0  0  0  0  0  0  0  0  0
  149.4891  137.6983  153.0699 H   0  0  0  0  0  0  0  0  0  0  0  0
  1  2  1  0  0  0  0
  1 26  1  0  0  0  0
  1 27  1  0  0  0  0
  1 28  1  0  0  0  0
  2  3  1  0  0  0  0
  3  8  1  0  0  0  0
  3  4  2  0  0  0  0
  4  5  1  0  0  0  0
  4 29  1  0  0  0  0
  5  6  2  0  0  0  0
  5 30  1  0  0  0  0
  6  7  1  0  0  0  0
  6 31  1  0  0  0  0
  7  8  2  0  0  0  0
  7 32  1  0  0  0  0
  8  9  1  0  0  0  0
  9 10  1  0  0  0  0
 10 11  1  0  0  0  0
 10 33  1  0  0  0  0
 10 34  1  0  0  0  0
 11 12  1  0  0  0  0
 11 35  1  0  0  0  0
 11 36  1  0  0  0  0
 12 25  1  0  0  0  0
 12 13  1  0  0  0  0
 13 14  1  0  0  0  0
 13 19  2  0  0  0  0
 14 15  1  0  0  0  0
 14 16  1  0  0  0  0
 14 37  1  0  0  0  0
 15 38  1  0  0  0  0
 15 39  1  0  0  0  0
 15 40  1  0  0  0  0
 16 17  1  0  0  0  0
 16 41  1  0  0  0  0
 17 18  2  0  0  0  0
 17 42  1  0  0  0  0
 19 20  1  0  0  0  0
 19 47  1  0  0  0  0
 20 25  2  0  0  0  0
 20 21  1  0  0  0  0
 21 22  2  0  0  0  0
 21 43  1  0  0  0  0
 22 23  1  0  0  0  0
 22 44  1  0  0  0  0
 23 24  2  0  0  0  0
 23 45  1  0  0  0  0
 24 25  1  0  0  0  0
 24 46  1  0  0  0  0
M  CHG  1  19   1
M  END
> <s_m_source_file>
AV-unprocessed.smi

> <i_m_source_file_index>
3011

> <i_lp_mmshare_version>
43012

> <i_f3d_flags>
0

> <s_epik_input>
W0NIM11PYzFbY0hdW2NIXVtjSF1bY0hdYzFPW0NIMl1bQ0gyXW4oYyhuMilbQ0BIXShbQ0gzXSlbTkhdW0NIXT1PKWMoYzIzKVtjSF1bY0hdW2NIXVtjSF0z

> <s_epik_cmdline>
J2VwaWtfcHl0aG9uJywgJy1waCcsICc3LjAnLCAnLXRuJywgJzgnLCAnLW1hJywgJzIwMCcsICctbWV0YWxfYmluZGluZycsICctaW1hZScsICc8aW5maWxlLm1hZT4nLCAnLW9tYWUnLCAnPG91dGZpbGUubWFlPic=

> <r_lp_tautomer_probability>
1

> <r_epik_Ionization_Penalty>
1.14644

> <r_epik_Ionization_Penalty_Charging>
1.14644

> <r_epik_Ionization_Penalty_Neutral>
5.5802e-08

> <r_epik_State_Penalty>
1.20743

> <r_epik_Charging_Adjusted_Penalty>
2.35387

> <i_epik_Tot_Q>
1

> <i_epik_Tot_abs_Q>
1

> <r_epik_Metal_State_Penalty>
1.28856

> <b_epik_Metal_Only>
0

> <s_lp_Force_Field>
OPLS_2005

> <r_lp_Energy>
19.9928

> <b_lp_Chiralities_Consistent>
1

> <s_lp_Variant>
AV-unprocessed.smi:3011-4

> <Gold.Version>
5.8.1

> <Gold.Id.Protein>
6NUR|6NUR_protein|mol2

> <Gold.PLP.Fitness>
59.8525

> <Gold.PLP.PLP>
-51.7744

> <Gold.PLP.part.hbond>
-2.8124

> <Gold.PLP.part.metal>
0.0000

> <Gold.PLP.part.buried>
-0.0697

> <Gold.PLP.part.nonpolar>
-50.4487

> <Gold.PLP.part.repulsive>
0.3202

> <Gold.PLP.ligand.clash>
0.0000

> <Gold.PLP.ligand.torsion>
0.4880

> <Gold.PLP.Chemscore.Hbond>
2.9920

> <Gold.PLP.Chemscore.CHOScore>
0.0000

> <Gold.PLP.Chemscore.Metal>
0.0000

> <Gold.Chemscore.Hbonds>
donor molecule, donor type, donor heavy atom, donor atom, acceptor molecule, acceptor atom, score
      L1  H    19    47       P1  7948  2.00
      P1  H 10752 10765       L1    18  0.88

> <Gold.PLP.Chemscore.Internal.Correction>
0.0780

> <Gold.Rescore>
     Score         DG    S(hbond)    S(metal)    S(lipo)     H(rot)  DE(clash)    DE(int)     intcor
     17.57     -21.34       1.95        0.00     138.11       2.66       1.71       2.07       ----

> <Gold.Chemscore.Fitness>
17.5668

> <Gold.Chemscore.DG>
-21.3422

> <Gold.Chemscore.ZeroCoef>
-5.4800

> <Gold.Chemscore.Hbond>
1.9503

> <Gold.Chemscore.Metal>
0.0000

> <Gold.Chemscore.Lipo>
138.1094

> <Gold.Chemscore.Internal_Hbond>
0.0000

> <Gold.Chemscore.DEClash>
1.7059

> <Gold.Chemscore.DEInternal>
2.0695

> <Gold.Chemscore.Rot>
2.6604

> <Gold.Chemscore.Internal.Correction>
   9.000000E+99

> <Gold.Chemscore.Hbonds>
donor molecule, donor type, donor heavy atom, donor atom, acceptor molecule, acceptor atom, score
      L1  H    19    47       P1  7948  0.87
      P1  H 10752 10765       L1    18  0.76

> <Gold.Chemscore.Hbond.Weighted>
-6.5140

> <Gold.Chemscore.Metal.Weighted>
-0.0000

> <Gold.Chemscore.Lipo.Weighted>
-16.1588

> <Gold.Chemscore.Internal_Hbond.Weighted>
0.0000

> <Gold.Chemscore.DEClash.Weighted>
1.7059

> <Gold.Chemscore.DEInternal.Weighted>
2.0695

> <Gold.Chemscore.Rot.Weighted>
6.8106

> <Gold.Chemscore.Internal.Correction.Weighted>
   9.000000E+99

> <Gold.Protein.RotatedTorsions>
[ 6907 6896 6895 6894 ] final -169.20 input  -60.11 | X-H torsion
[ 7974 7965 7964 7962 ] final   93.83 input  175.53 | X-H torsion
[ 8008 7997 7996 7995 ] final  -27.38 input   59.86 | X-H torsion
[ 10167 10162 10161 10158 ] final -174.87 input  -65.29 | X-H torsion
[ 10718 10713 10712 10709 ] final  162.72 input   66.30 | X-H torsion
[ 10763 10752 10751 10750 ] final -117.28 input  -60.55 | X-H torsion
[ 11005 11000 10999 10996 ] final   96.78 input  -57.11 | X-H torsion

> <Gold.Protein.ActiveResidues>
 VAL166  LYS551  ARG553  GLY616  TRP617  ASP618  TYR619  PRO620  LYS621  CYS622 
 ASP623  PHE694  ASN695  SER759  ASP760  ASP761  ALA762  ILE779  LEU786  VAL792 
 PHE793  MET794  SER795  GLU796  ALA797  LYS798  CYS799  TRP800  GLU811  SER814 

> <Gold.Protein.RotatedAtoms>
  151.4878  133.3531  159.2848 H   0  0  0  0  0  0  0  0  0  0  0  0  # atno 6907 bound_to 6896
  150.8854  134.8254  159.7266 H   0  0  0  0  0  0  0  0  0  0  0  0  # atno 6908 bound_to 6896
  152.4790  134.4781  159.9709 H   0  0  0  0  0  0  0  0  0  0  0  0  # atno 6909 bound_to 6896
  145.4736  139.2281  143.2921 H   0  0  0  0  0  0  0  0  0  0  0  0  # atno 7974 bound_to 7965
  154.4380  140.1874  156.0923 H   0  0  0  0  0  0  0  0  0  0  0  0  # atno 8008 bound_to 7997
  156.0356  140.3325  155.7161 H   0  0  0  0  0  0  0  0  0  0  0  0  # atno 8009 bound_to 7997
  155.5775  140.0618  157.2782 H   0  0  0  0  0  0  0  0  0  0  0  0  # atno 8010 bound_to 7997
  139.5611  144.1868  152.1239 H   0  0  0  0  0  0  0  0  0  0  0  0  # atno 10167 bound_to 10162
  157.1186  131.0486  151.2425 H   0  0  0  0  0  0  0  0  0  0  0  0  # atno 10718 bound_to 10713
  154.8549  135.4315  154.1955 H   0  0  0  0  0  0  0  0  0  0  0  0  # atno 10763 bound_to 10752
  153.3014  135.6969  153.7206 H   0  0  0  0  0  0  0  0  0  0  0  0  # atno 10764 bound_to 10752
  153.6334  135.3481  155.3023 H   0  0  0  0  0  0  0  0  0  0  0  0  # atno 10765 bound_to 10752
  139.8779  134.8968  156.4210 H   0  0  0  0  0  0  0  0  0  0  0  0  # atno 11005 bound_to 11000
  146.2382  140.5517  142.8945 LP  0  0  0  0  0  0  0  0  0  0  0  0  # atno 17320 bound_to 7965
  144.7930  140.6069  143.6529 LP  0  0  0  0  0  0  0  0  0  0  0  0  # atno 17321 bound_to 7965
  140.1382  144.5226  150.6760 LP  0  0  0  0  0  0  0  0  0  0  0  0  # atno 17342 bound_to 10162
  140.6890  143.2365  151.5182 LP  0  0  0  0  0  0  0  0  0  0  0  0  # atno 17343 bound_to 10162
  157.4496  130.7591  149.7140 LP  0  0  0  0  0  0  0  0  0  0  0  0  # atno 17370 bound_to 10713
  155.9833  130.4001  150.3368 LP  0  0  0  0  0  0  0  0  0  0  0  0  # atno 17371 bound_to 10713
  140.9134  133.7696  155.9818 LP  0  0  0  0  0  0  0  0  0  0  0  0  # atno 17394 bound_to 11000
  140.8521  134.2941  157.5271 LP  0  0  0  0  0  0  0  0  0  0  0  0  # atno 17395 bound_to 11000

$$$$
