AV-unprocessed.smi:1751|AV-procd|sdf|7057|dock3
  -GOLD-   22720 8273D 1   1.00000     0.00000
 Structure written by MMmdl.
 35 36  0  0  0  0  0  0  0  0  1 V2000
  150.2148  142.2295  157.6452 C   0  0  0  0  0  0  0  0  0  0  0  0
  150.7877  141.7988  156.4155 O   0  0  0  0  0  0  0  0  0  0  0  0
  150.1063  140.8599  155.6686 C   0  0  0  0  0  0  0  0  0  0  0  0
  148.7482  140.6248  155.9588 C   0  0  0  0  0  0  0  0  0  0  0  0
  148.0510  139.6627  155.2044 C   0  0  0  0  0  0  0  0  0  0  0  0
  148.7272  138.9603  154.1866 C   0  0  0  0  0  0  0  0  0  0  0  0
  147.9843  138.0023  153.4430 N   0  0  0  0  0  0  0  0  0  0  0  0
  146.6542  137.8153  153.3861 C   0  0  0  0  0  0  0  0  0  0  0  0
  145.8122  138.4710  153.9981 O   0  0  0  0  0  0  0  0  0  0  0  0
  146.3469  136.8083  152.5565 N   0  0  0  0  0  0  0  0  0  0  0  0
  144.9988  136.3295  152.2668 C   0  0  0  0  0  0  0  0  0  0  0  0
  145.0077  135.2098  151.2128 C   0  0  1  0  0  0  0  0  0  0  0  0
  146.1110  134.1665  151.3840 C   0  0  0  0  0  0  0  0  0  0  0  0
  145.5340  132.9934  150.6259 C   0  0  0  0  0  0  0  0  0  0  0  0
  144.0484  133.0918  150.9659 C   0  0  0  0  0  0  0  0  0  0  0  0
  143.7980  134.4613  151.2764 O   0  0  0  0  0  0  0  0  0  0  0  0
  150.0898  139.2784  153.9631 C   0  0  0  0  0  0  0  0  0  0  0  0
  150.7644  140.2000  154.6839 N   0  0  0  0  0  0  0  0  0  0  0  0
  150.8643  142.9748  158.1041 H   0  0  0  0  0  0  0  0  0  0  0  0
  150.1119  141.4020  158.3486 H   0  0  0  0  0  0  0  0  0  0  0  0
  149.2390  142.6921  157.4907 H   0  0  0  0  0  0  0  0  0  0  0  0
  148.2513  141.1714  156.7467 H   0  0  0  0  0  0  0  0  0  0  0  0
  147.0087  139.4662  155.4102 H   0  0  0  0  0  0  0  0  0  0  0  0
  148.5351  137.4072  152.8418 H   0  0  0  0  0  0  0  0  0  0  0  0
  147.1045  136.3286  152.0930 H   0  0  0  0  0  0  0  0  0  0  0  0
  144.4929  135.9972  153.1752 H   0  0  0  0  0  0  0  0  0  0  0  0
  144.4226  137.1752  151.8911 H   0  0  0  0  0  0  0  0  0  0  0  0
  145.0727  135.6406  150.2121 H   0  0  0  0  0  0  0  0  0  0  0  0
  147.0747  134.4955  150.9944 H   0  0  0  0  0  0  0  0  0  0  0  0
  146.2350  133.9068  152.4365 H   0  0  0  0  0  0  0  0  0  0  0  0
  145.6837  133.1331  149.5545 H   0  0  0  0  0  0  0  0  0  0  0  0
  145.9752  132.0380  150.9108 H   0  0  0  0  0  0  0  0  0  0  0  0
  143.4172  132.7501  150.1450 H   0  0  0  0  0  0  0  0  0  0  0  0
  143.8148  132.4901  151.8449 H   0  0  0  0  0  0  0  0  0  0  0  0
  150.6727  138.8107  153.1862 H   0  0  0  0  0  0  0  0  0  0  0  0
  1  2  1  0  0  0  0
  1 19  1  0  0  0  0
  1 20  1  0  0  0  0
  1 21  1  0  0  0  0
  2  3  1  0  0  0  0
  3 18  1  0  0  0  0
  3  4  2  0  0  0  0
  4  5  1  0  0  0  0
  4 22  1  0  0  0  0
  5  6  2  0  0  0  0
  5 23  1  0  0  0  0
  6  7  1  0  0  0  0
  6 17  1  0  0  0  0
  7  8  1  0  0  0  0
  7 24  1  0  0  0  0
  8  9  2  0  0  0  0
  8 10  1  0  0  0  0
 10 11  1  0  0  0  0
 10 25  1  0  0  0  0
 11 12  1  0  0  0  0
 11 26  1  0  0  0  0
 11 27  1  0  0  0  0
 12 16  1  0  0  0  0
 12 13  1  0  0  0  0
 12 28  1  0  0  0  0
 13 14  1  0  0  0  0
 13 29  1  0  0  0  0
 13 30  1  0  0  0  0
 14 15  1  0  0  0  0
 14 31  1  0  0  0  0
 14 32  1  0  0  0  0
 15 16  1  0  0  0  0
 15 33  1  0  0  0  0
 15 34  1  0  0  0  0
 17 18  2  0  0  0  0
 17 35  1  0  0  0  0
M  END
> <s_m_source_file>
AV-unprocessed.smi

> <i_m_source_file_index>
1751

> <i_lp_mmshare_version>
43012

> <i_f3d_flags>
0

> <s_epik_input>
W0NIM11PYzFbY0hdW2NIXWMoW2NIXW4xKVtOSF1DKD1PKVtOSF1bQ0gyXVtDQEBIXTJbQ0gyXVtDSDJdW0NIMl1PMg==

> <s_epik_cmdline>
J2VwaWtfcHl0aG9uJywgJy1waCcsICc3LjAnLCAnLXRuJywgJzgnLCAnLW1hJywgJzIwMCcsICctbWV0YWxfYmluZGluZycsICctaW1hZScsICc8aW5maWxlLm1hZT4nLCAnLW9tYWUnLCAnPG91dGZpbGUubWFlPic=

> <r_lp_tautomer_probability>
1

> <r_epik_Ionization_Penalty>
9.01694e-05

> <r_epik_Ionization_Penalty_Charging>
0

> <r_epik_Ionization_Penalty_Neutral>
9.01694e-05

> <r_epik_State_Penalty>
-0

> <r_epik_Charging_Adjusted_Penalty>
0

> <i_epik_Tot_Q>
0

> <i_epik_Tot_abs_Q>
0

> <r_epik_Metal_State_Penalty>
-0

> <b_epik_Metal_Only>
0

> <s_lp_Force_Field>
OPLS_2005

> <r_lp_Energy>
20.1941

> <b_lp_Chiralities_Consistent>
1

> <s_lp_Variant>
AV-unprocessed.smi:1751-2

> <Gold.Version>
5.8.1

> <Gold.Id.Protein>
6NUR|6NUR_protein|mol2

> <Gold.PLP.Fitness>
34.2810

> <Gold.PLP.PLP>
-25.4614

> <Gold.PLP.part.hbond>
-3.0000

> <Gold.PLP.part.metal>
0.0000

> <Gold.PLP.part.buried>
-3.0604

> <Gold.PLP.part.nonpolar>
-19.8897

> <Gold.PLP.part.repulsive>
0.5683

> <Gold.PLP.ligand.clash>
0.0000

> <Gold.PLP.ligand.torsion>
0.4248

> <Gold.PLP.Chemscore.Hbond>
2.8940

> <Gold.PLP.Chemscore.CHOScore>
0.3271

> <Gold.PLP.Chemscore.Metal>
0.0000

> <Gold.Chemscore.Hbonds>
donor molecule, donor type, donor heavy atom, donor atom, acceptor molecule, acceptor atom, score
      L1  H     7    24       P1  7948  1.00
      L1  H    10    25       P1  7948  0.94
      P1  H  7989  7998       L1    18  0.95
      L1  C    17    35       P1  7957  0.33

> <Gold.PLP.Chemscore.Internal.Correction>
0.0060

> <Gold.Rescore>
     Score         DG    S(hbond)    S(metal)    S(lipo)     H(rot)  DE(clash)    DE(int)     intcor
     13.39     -15.01       2.03        0.00      56.30       1.50       0.01       1.61       ----

> <Gold.Chemscore.Fitness>
13.3910

> <Gold.Chemscore.DG>
-15.0108

> <Gold.Chemscore.ZeroCoef>
-5.4800

> <Gold.Chemscore.Hbond>
2.0289

> <Gold.Chemscore.Metal>
0.0000

> <Gold.Chemscore.Lipo>
56.2964

> <Gold.Chemscore.Internal_Hbond>
0.0000

> <Gold.Chemscore.DEClash>
0.0069

> <Gold.Chemscore.DEInternal>
1.6128

> <Gold.Chemscore.Rot>
1.4971

> <Gold.Chemscore.Internal.Correction>
   9.000000E+99

> <Gold.Chemscore.Hbonds>
donor molecule, donor type, donor heavy atom, donor atom, acceptor molecule, acceptor atom, score
      L1  H     7    24       P1  7948  0.97
      L1  H    10    25       P1  7948  0.91
      P1  H  7989  7998       L1    18  0.21

> <Gold.Chemscore.Hbond.Weighted>
-6.7767

> <Gold.Chemscore.Metal.Weighted>
-0.0000

> <Gold.Chemscore.Lipo.Weighted>
-6.5867

> <Gold.Chemscore.Internal_Hbond.Weighted>
0.0000

> <Gold.Chemscore.DEClash.Weighted>
0.0069

> <Gold.Chemscore.DEInternal.Weighted>
1.6128

> <Gold.Chemscore.Rot.Weighted>
3.8326

> <Gold.Chemscore.Internal.Correction.Weighted>
   9.000000E+99

> <Gold.Protein.RotatedTorsions>
[ 6907 6896 6895 6894 ] final -178.05 input  -60.11 | X-H torsion
[ 7974 7965 7964 7962 ] final  114.31 input  175.53 | X-H torsion
[ 8008 7997 7996 7995 ] final   38.38 input   59.86 | X-H torsion
[ 10167 10162 10161 10158 ] final -151.63 input  -65.29 | X-H torsion
[ 10718 10713 10712 10709 ] final   -0.13 input   66.30 | X-H torsion
[ 10763 10752 10751 10750 ] final -108.87 input  -60.55 | X-H torsion
[ 11005 11000 10999 10996 ] final   71.42 input  -57.11 | X-H torsion

> <Gold.Protein.ActiveResidues>
 VAL166  LYS551  ARG553  GLY616  TRP617  ASP618  TYR619  PRO620  LYS621  CYS622 
 ASP623  PHE694  ASN695  SER759  ASP760  ASP761  ALA762  ILE779  LEU786  VAL792 
 PHE793  MET794  SER795  GLU796  ALA797  LYS798  CYS799  TRP800  GLU811  SER814 

> <Gold.Protein.RotatedAtoms>
  151.6309  133.3332  159.3108 H   0  0  0  0  0  0  0  0  0  0  0  0  # atno 6907 bound_to 6896
  150.8057  134.7184  159.6653 H   0  0  0  0  0  0  0  0  0  0  0  0  # atno 6908 bound_to 6896
  152.4152  134.6059  160.0064 H   0  0  0  0  0  0  0  0  0  0  0  0  # atno 6909 bound_to 6896
  145.2060  139.2929  143.4293 H   0  0  0  0  0  0  0  0  0  0  0  0  # atno 7974 bound_to 7965
  155.2193  140.3329  155.4318 H   0  0  0  0  0  0  0  0  0  0  0  0  # atno 8008 bound_to 7997
  156.2340  140.1863  156.7217 H   0  0  0  0  0  0  0  0  0  0  0  0  # atno 8009 bound_to 7997
  154.6026  140.0621  156.9374 H   0  0  0  0  0  0  0  0  0  0  0  0  # atno 8010 bound_to 7997
  139.7251  143.8896  152.2516 H   0  0  0  0  0  0  0  0  0  0  0  0  # atno 10167 bound_to 10162
  156.8249  130.5469  149.5693 H   0  0  0  0  0  0  0  0  0  0  0  0  # atno 10718 bound_to 10713
  154.8161  135.4622  154.0646 H   0  0  0  0  0  0  0  0  0  0  0  0  # atno 10763 bound_to 10752
  153.2038  135.6872  153.8204 H   0  0  0  0  0  0  0  0  0  0  0  0  # atno 10764 bound_to 10752
  153.7680  135.3274  155.3324 H   0  0  0  0  0  0  0  0  0  0  0  0  # atno 10765 bound_to 10752
  139.9545  134.7169  156.0786 H   0  0  0  0  0  0  0  0  0  0  0  0  # atno 11005 bound_to 11000
  146.3408  140.2320  142.8593 LP  0  0  0  0  0  0  0  0  0  0  0  0  # atno 17320 bound_to 7965
  144.9902  140.8540  143.5344 LP  0  0  0  0  0  0  0  0  0  0  0  0  # atno 17321 bound_to 7965
  139.8803  144.7021  150.8886 LP  0  0  0  0  0  0  0  0  0  0  0  0  # atno 17342 bound_to 10162
  140.7761  143.3667  151.1726 LP  0  0  0  0  0  0  0  0  0  0  0  0  # atno 17343 bound_to 10162
  156.0967  130.5938  150.9826 LP  0  0  0  0  0  0  0  0  0  0  0  0  # atno 17370 bound_to 10713
  157.6437  131.0907  150.8198 LP  0  0  0  0  0  0  0  0  0  0  0  0  # atno 17371 bound_to 10713
  141.1214  133.6612  156.3223 LP  0  0  0  0  0  0  0  0  0  0  0  0  # atno 17394 bound_to 11000
  140.5642  134.5904  157.5441 LP  0  0  0  0  0  0  0  0  0  0  0  0  # atno 17395 bound_to 11000

$$$$
