AV-unprocessed.smi:3331|AV-procd|sdf|12825|dock6
  -GOLD-   2272019203D 1   1.00000     0.00000
 Structure written by MMmdl.
 46 47  0  0  0  0  0  0  0  0  1 V2000
  148.6909  141.1679  157.6874 C   0  0  0  0  0  0  0  0  0  0  0  0
  150.1312  141.5720  157.3265 C   0  0  1  0  0  0  0  0  0  0  0  0
  151.1770  140.6050  157.9251 C   0  0  0  0  0  0  0  0  0  0  0  0
  151.2787  139.2736  157.1474 C   0  0  2  0  0  0  0  0  0  0  0  0
  152.4168  138.3957  157.6862 C   0  0  0  0  0  0  0  0  0  0  0  0
  151.4394  139.5481  155.6378 C   0  0  0  0  0  0  0  0  0  0  0  0
  150.3192  140.3785  155.1735 N   0  0  0  0  0  0  0  0  0  0  0  0
  149.3657  139.9101  154.3268 C   0  0  0  0  0  0  0  0  0  0  0  0
  149.4143  138.7689  153.8636 O   0  0  0  0  0  0  0  0  0  0  0  0
  148.1897  140.8214  153.9141 C   0  0  2  0  0  0  0  0  0  0  0  0
  147.1589  140.9801  155.0532 C   0  0  0  0  0  0  0  0  0  0  0  0
  147.5542  140.2954  152.6948 N   0  0  0  0  0  0  0  0  0  0  0  0
  146.8385  139.0473  152.9195 C   0  0  0  0  0  0  0  0  0  0  0  0
  146.7193  138.2854  151.5918 C   0  0  0  0  0  0  0  0  0  0  0  0
  145.8230  137.1511  151.7059 N   0  0  0  0  0  0  0  0  0  0  0  0
  145.5940  136.1444  150.7919 C   0  0  0  0  0  0  0  0  0  0  0  0
  144.6740  135.2982  151.3420 C   0  0  0  0  0  0  0  0  0  0  0  0
  144.3964  135.8794  152.6111 C   0  0  0  0  0  0  0  0  0  0  0  0
  145.0847  136.9892  152.8255 N   0  0  0  0  0  0  0  0  0  0  0  0
  150.3474  141.7077  155.8035 C   0  0  0  0  0  0  0  0  0  0  0  0
  148.4300  140.1865  157.2912 H   0  0  0  0  0  0  0  0  0  0  0  0
  147.9735  141.8863  157.2901 H   0  0  0  0  0  0  0  0  0  0  0  0
  148.5538  141.1340  158.7684 H   0  0  0  0  0  0  0  0  0  0  0  0
  150.2991  142.5533  157.7718 H   0  0  0  0  0  0  0  0  0  0  0  0
  152.1510  141.0961  157.9048 H   0  0  0  0  0  0  0  0  0  0  0  0
  150.9591  140.4153  158.9768 H   0  0  0  0  0  0  0  0  0  0  0  0
  150.3484  138.7223  157.2909 H   0  0  0  0  0  0  0  0  0  0  0  0
  153.3847  138.8840  157.5682 H   0  0  0  0  0  0  0  0  0  0  0  0
  152.4589  137.4413  157.1607 H   0  0  0  0  0  0  0  0  0  0  0  0
  152.2782  138.1819  158.7463 H   0  0  0  0  0  0  0  0  0  0  0  0
  152.3775  140.0711  155.4462 H   0  0  0  0  0  0  0  0  0  0  0  0
  151.5171  138.6038  155.0974 H   0  0  0  0  0  0  0  0  0  0  0  0
  148.5994  141.8127  153.7197 H   0  0  0  0  0  0  0  0  0  0  0  0
  147.6411  141.2837  155.9835 H   0  0  0  0  0  0  0  0  0  0  0  0
  146.6230  140.0493  155.2448 H   0  0  0  0  0  0  0  0  0  0  0  0
  146.4183  141.7455  154.8228 H   0  0  0  0  0  0  0  0  0  0  0  0
  148.2215  140.1826  151.9451 H   0  0  0  0  0  0  0  0  0  0  0  0
  147.3654  138.4330  153.6496 H   0  0  0  0  0  0  0  0  0  0  0  0
  145.8449  139.2563  153.3193 H   0  0  0  0  0  0  0  0  0  0  0  0
  146.3503  138.9428  150.8026 H   0  0  0  0  0  0  0  0  0  0  0  0
  147.6965  137.9222  151.2705 H   0  0  0  0  0  0  0  0  0  0  0  0
  146.1001  136.1133  149.8381 H   0  0  0  0  0  0  0  0  0  0  0  0
  144.2624  134.4002  150.9054 H   0  0  0  0  0  0  0  0  0  0  0  0
  143.7202  135.5302  153.3775 H   0  0  0  0  0  0  0  0  0  0  0  0
  149.6317  142.4138  155.3879 H   0  0  0  0  0  0  0  0  0  0  0  0
  151.3222  142.1591  155.6135 H   0  0  0  0  0  0  0  0  0  0  0  0
  1  2  1  0  0  0  0
  1 21  1  0  0  0  0
  1 22  1  0  0  0  0
  1 23  1  0  0  0  0
  2 20  1  0  0  0  0
  2  3  1  0  0  0  0
  2 24  1  0  0  0  0
  3  4  1  0  0  0  0
  3 25  1  0  0  0  0
  3 26  1  0  0  0  0
  4  5  1  0  0  0  0
  4  6  1  0  0  0  0
  4 27  1  0  0  0  0
  5 28  1  0  0  0  0
  5 29  1  0  0  0  0
  5 30  1  0  0  0  0
  6  7  1  0  0  0  0
  6 31  1  0  0  0  0
  6 32  1  0  0  0  0
  7  8  1  0  0  0  0
  7 20  1  0  0  0  0
  8  9  2  0  0  0  0
  8 10  1  0  0  0  0
 10 11  1  0  0  0  0
 10 12  1  0  0  0  0
 10 33  1  0  0  0  0
 11 34  1  0  0  0  0
 11 35  1  0  0  0  0
 11 36  1  0  0  0  0
 12 13  1  0  0  0  0
 12 37  1  0  0  0  0
 13 14  1  0  0  0  0
 13 38  1  0  0  0  0
 13 39  1  0  0  0  0
 14 15  1  0  0  0  0
 14 40  1  0  0  0  0
 14 41  1  0  0  0  0
 15 19  1  0  0  0  0
 15 16  1  0  0  0  0
 16 17  2  0  0  0  0
 16 42  1  0  0  0  0
 17 18  1  0  0  0  0
 17 43  1  0  0  0  0
 18 19  2  0  0  0  0
 18 44  1  0  0  0  0
 20 45  1  0  0  0  0
 20 46  1  0  0  0  0
M  END
> <s_m_source_file>
AV-unprocessed.smi

> <i_m_source_file_index>
3331

> <i_lp_mmshare_version>
43012

> <i_f3d_flags>
0

> <s_epik_input>
W0NIM11bQ0BASF0xW0NIMl1bQ0BASF0oW0NIM10pW0NIMl1OKFtDSDJdMSlDKD1PKVtDQEhdKFtDSDNdKVtOSF1bQ0gyXVtDSDJdbjJbY0hdW2NIXVtjSF1uMg==

> <s_epik_cmdline>
J2VwaWtfcHl0aG9uJywgJy1waCcsICc3LjAnLCAnLXRuJywgJzgnLCAnLW1hJywgJzIwMCcsICctbWV0YWxfYmluZGluZycsICctaW1hZScsICc8aW5maWxlLm1hZT4nLCAnLW9tYWUnLCAnPG91dGZpbGUubWFlPic=

> <r_lp_tautomer_probability>
1

> <r_epik_Ionization_Penalty>
0.767994

> <r_epik_Ionization_Penalty_Charging>
0

> <r_epik_Ionization_Penalty_Neutral>
0.767994

> <r_epik_State_Penalty>
0.795453

> <r_epik_Charging_Adjusted_Penalty>
0.795453

> <i_epik_Tot_Q>
0

> <i_epik_Tot_abs_Q>
0

> <r_epik_Metal_State_Penalty>
0.794784

> <b_epik_Metal_Only>
0

> <s_lp_Force_Field>
OPLS_2005

> <r_lp_Energy>
29.2756

> <b_lp_Chiralities_Consistent>
1

> <s_lp_Variant>
AV-unprocessed.smi:3331-9

> <Gold.Version>
5.8.1

> <Gold.Id.Protein>
6NUR|6NUR_protein|mol2

> <Gold.PLP.Fitness>
39.3655

> <Gold.PLP.PLP>
-34.6747

> <Gold.PLP.part.hbond>
-1.0000

> <Gold.PLP.part.metal>
0.0000

> <Gold.PLP.part.buried>
0.6669

> <Gold.PLP.part.nonpolar>
-35.6668

> <Gold.PLP.part.repulsive>
1.2939

> <Gold.PLP.ligand.clash>
0.0000

> <Gold.PLP.ligand.torsion>
0.6788

> <Gold.PLP.Chemscore.Hbond>
1.0000

> <Gold.PLP.Chemscore.CHOScore>
0.9911

> <Gold.PLP.Chemscore.Metal>
0.0000

> <Gold.Chemscore.Hbonds>
donor molecule, donor type, donor heavy atom, donor atom, acceptor molecule, acceptor atom, score
      L1  H    12    37       P1  7957  1.00
      L1  C    16    42       P1  7921  0.99

> <Gold.PLP.Chemscore.Internal.Correction>
0.0752

> <Gold.Rescore>
     Score         DG    S(hbond)    S(metal)    S(lipo)     H(rot)  DE(clash)    DE(int)     intcor
     10.68     -13.80       1.00        0.00      79.06       1.66       0.18       2.94       ----

> <Gold.Chemscore.Fitness>
10.6812

> <Gold.Chemscore.DG>
-13.8018

> <Gold.Chemscore.ZeroCoef>
-5.4800

> <Gold.Chemscore.Hbond>
0.9982

> <Gold.Chemscore.Metal>
0.0000

> <Gold.Chemscore.Lipo>
79.0582

> <Gold.Chemscore.Internal_Hbond>
0.0000

> <Gold.Chemscore.DEClash>
0.1774

> <Gold.Chemscore.DEInternal>
2.9431

> <Gold.Chemscore.Rot>
1.6649

> <Gold.Chemscore.Internal.Correction>
   9.000000E+99

> <Gold.Chemscore.Hbonds>
donor molecule, donor type, donor heavy atom, donor atom, acceptor molecule, acceptor atom, score
      L1  H    12    37       P1  7957  0.97

> <Gold.Chemscore.Hbond.Weighted>
-3.3340

> <Gold.Chemscore.Metal.Weighted>
-0.0000

> <Gold.Chemscore.Lipo.Weighted>
-9.2498

> <Gold.Chemscore.Internal_Hbond.Weighted>
0.0000

> <Gold.Chemscore.DEClash.Weighted>
0.1774

> <Gold.Chemscore.DEInternal.Weighted>
2.9431

> <Gold.Chemscore.Rot.Weighted>
4.2621

> <Gold.Chemscore.Internal.Correction.Weighted>
   9.000000E+99

> <Gold.Protein.RotatedTorsions>
[ 6907 6896 6895 6894 ] final   25.01 input  -60.11 | X-H torsion
[ 7974 7965 7964 7962 ] final  -29.35 input  175.53 | X-H torsion
[ 8008 7997 7996 7995 ] final  -44.39 input   59.86 | X-H torsion
[ 10167 10162 10161 10158 ] final  126.90 input  -65.29 | X-H torsion
[ 10718 10713 10712 10709 ] final   47.50 input   66.30 | X-H torsion
[ 10763 10752 10751 10750 ] final  -58.97 input  -60.55 | X-H torsion
[ 11005 11000 10999 10996 ] final   53.00 input  -57.11 | X-H torsion

> <Gold.Protein.ActiveResidues>
 VAL166  LYS551  ARG553  GLY616  TRP617  ASP618  TYR619  PRO620  LYS621  CYS622 
 ASP623  PHE694  ASN695  SER759  ASP760  ASP761  ALA762  ILE779  LEU786  VAL792 
 PHE793  MET794  SER795  GLU796  ALA797  LYS798  CYS799  TRP800  GLU811  SER814 

> <Gold.Protein.RotatedAtoms>
  151.9661  135.0100  160.0550 H   0  0  0  0  0  0  0  0  0  0  0  0  # atno 6907 bound_to 6896
  152.1825  133.4712  159.4974 H   0  0  0  0  0  0  0  0  0  0  0  0  # atno 6908 bound_to 6896
  150.6920  134.1733  159.4263 H   0  0  0  0  0  0  0  0  0  0  0  0  # atno 6909 bound_to 6896
  146.1223  140.5401  142.8730 H   0  0  0  0  0  0  0  0  0  0  0  0  # atno 7974 bound_to 7965
  154.3997  140.1423  156.3676 H   0  0  0  0  0  0  0  0  0  0  0  0  # atno 8008 bound_to 7997
  155.8123  140.3472  155.5444 H   0  0  0  0  0  0  0  0  0  0  0  0  # atno 8009 bound_to 7997
  155.8374  140.0921  157.1746 H   0  0  0  0  0  0  0  0  0  0  0  0  # atno 8010 bound_to 7997
  139.5606  144.6879  151.4053 H   0  0  0  0  0  0  0  0  0  0  0  0  # atno 10167 bound_to 10162
  157.4591  130.8185  149.7867 H   0  0  0  0  0  0  0  0  0  0  0  0  # atno 10718 bound_to 10713
  154.2464  135.6334  153.5225 H   0  0  0  0  0  0  0  0  0  0  0  0  # atno 10763 bound_to 10752
  152.9920  135.5554  154.5855 H   0  0  0  0  0  0  0  0  0  0  0  0  # atno 10764 bound_to 10752
  154.5372  135.2892  155.1102 H   0  0  0  0  0  0  0  0  0  0  0  0  # atno 10765 bound_to 10752
  140.0803  134.5348  155.8954 H   0  0  0  0  0  0  0  0  0  0  0  0  # atno 11005 bound_to 11000
  144.7608  140.5418  143.6736 LP  0  0  0  0  0  0  0  0  0  0  0  0  # atno 17320 bound_to 7965
  145.5440  139.1475  143.3431 LP  0  0  0  0  0  0  0  0  0  0  0  0  # atno 17321 bound_to 7965
  140.6885  143.7916  150.7221 LP  0  0  0  0  0  0  0  0  0  0  0  0  # atno 17342 bound_to 10162
  140.1392  143.4457  152.2205 LP  0  0  0  0  0  0  0  0  0  0  0  0  # atno 17343 bound_to 10162
  156.0020  130.3875  150.2569 LP  0  0  0  0  0  0  0  0  0  0  0  0  # atno 17370 bound_to 10713
  157.0745  131.0126  151.3178 LP  0  0  0  0  0  0  0  0  0  0  0  0  # atno 17371 bound_to 10713
  141.2044  133.6639  156.6120 LP  0  0  0  0  0  0  0  0  0  0  0  0  # atno 17394 bound_to 11000
  140.3498  134.7778  157.4458 LP  0  0  0  0  0  0  0  0  0  0  0  0  # atno 17395 bound_to 11000

$$$$
