AV-unprocessed.smi:2499|AV-procd|sdf|9833|dock7
  -GOLD-   2272013463D 1   1.00000     0.00000
 Structure written by MMmdl.
 28 29  0  0  0  0  0  0  0  0  2 V2000
  151.3319  145.3174  158.9125 C   0  0  0  0  0  0  0  0  0  0  0  0
  151.8380  143.9479  158.4395 C   0  0  2  0  0  0  0  0  0  0  0  0
  150.9808  143.4820  157.3535 N   0  0  0  0  0  0  0  0  0  0  0  0
  150.9808  142.2405  156.8450 C   0  0  0  0  0  0  0  0  0  0  0  0
  151.7210  141.3389  157.2397 O   0  0  0  0  0  0  0  0  0  0  0  0
  150.0787  142.1084  155.8607 N   0  0  0  0  0  0  0  0  0  0  0  0
  149.8333  140.9277  155.1222 C   0  0  0  0  0  0  0  0  0  0  0  0
  148.6252  140.5364  154.7205 N   0  3  0  0  0  0  0  0  0  0  0  0
  148.7510  139.3549  154.0325 C   0  0  0  0  0  0  0  0  0  0  0  0
  150.0929  139.0586  154.0412 C   0  0  0  0  0  0  0  0  0  0  0  0
  150.7863  140.0381  154.7232 O   0  0  0  0  0  0  0  0  0  0  0  0
  151.9261  142.9729  159.6017 C   0  0  0  0  0  0  0  0  0  0  0  0
  152.3658  143.4358  160.9706 C   0  0  0  0  0  0  0  0  0  0  0  0
  153.2576  142.5259  160.1577 C   0  0  0  0  0  0  0  0  0  0  0  0
  151.9767  145.7264  159.6911 H   0  0  0  0  0  0  0  0  0  0  0  0
  150.3226  145.2498  159.3202 H   0  0  0  0  0  0  0  0  0  0  0  0
  151.3139  146.0363  158.0925 H   0  0  0  0  0  0  0  0  0  0  0  0
  152.8459  144.0956  158.0463 H   0  0  0  0  0  0  0  0  0  0  0  0
  150.3383  144.1581  156.9664 H   0  0  0  0  0  0  0  0  0  0  0  0
  147.7393  141.0016  154.8749 H   0  0  0  0  0  0  0  0  0  0  0  0
  147.8910  138.8523  153.6134 H   0  0  0  0  0  0  0  0  0  0  0  0
  150.6811  138.2471  153.6377 H   0  0  0  0  0  0  0  0  0  0  0  0
  151.1390  142.2207  159.5966 H   0  0  0  0  0  0  0  0  0  0  0  0
  152.6767  144.4731  161.0809 H   0  0  0  0  0  0  0  0  0  0  0  0
  151.8617  143.0054  161.8335 H   0  0  0  0  0  0  0  0  0  0  0  0
  153.3451  141.4896  160.4773 H   0  0  0  0  0  0  0  0  0  0  0  0
  154.1607  142.9608  159.7340 H   0  0  0  0  0  0  0  0  0  0  0  0
  149.5238  142.9162  155.6198 H   0  0  0  0  0  0  0  0  0  0  0  0
  1  2  1  0  0  0  0
  1 15  1  0  0  0  0
  1 16  1  0  0  0  0
  1 17  1  0  0  0  0
  2  3  1  0  0  0  0
  2 12  1  0  0  0  0
  2 18  1  0  0  0  0
  3 19  1  0  0  0  0
  3  4  1  0  0  0  0
  4  6  1  0  0  0  0
  4  5  2  0  0  0  0
  6  7  1  0  0  0  0
  6 28  1  0  0  0  0
  7 11  1  0  0  0  0
  7  8  2  0  0  0  0
  8 20  1  0  0  0  0
  8  9  1  0  0  0  0
  9 21  1  0  0  0  0
  9 10  2  0  0  0  0
 10 22  1  0  0  0  0
 10 11  1  0  0  0  0
 12 14  1  0  0  0  0
 12 13  1  0  0  0  0
 12 23  1  0  0  0  0
 13 14  1  0  0  0  0
 13 24  1  0  0  0  0
 13 25  1  0  0  0  0
 14 26  1  0  0  0  0
 14 27  1  0  0  0  0
M  CHG  1   8   1
M  END
> <s_m_source_file>
AV-unprocessed.smi

> <i_m_source_file_index>
2499

> <i_lp_mmshare_version>
43012

> <i_f3d_flags>
0

> <s_epik_input>
W0NIMl0xW0NIMl1bQ0hdMVtDQEhdKFtDSDNdKVtOSF1DKD1PKVtOSF1jMm5bY0hdW2NIXW8y

> <s_epik_cmdline>
J2VwaWtfcHl0aG9uJywgJy1waCcsICc3LjAnLCAnLXRuJywgJzgnLCAnLW1hJywgJzIwMCcsICctbWV0YWxfYmluZGluZycsICctaW1hZScsICc8aW5maWxlLm1hZT4nLCAnLW9tYWUnLCAnPG91dGZpbGUubWFlPic=

> <r_epik_Ionization_Penalty>
6.56099

> <r_epik_Ionization_Penalty_Charging>
6.51293

> <r_epik_Ionization_Penalty_Neutral>
0.0480564

> <r_epik_State_Penalty>
1.72359

> <r_epik_Charging_Adjusted_Penalty>
8.23652

> <i_epik_Tot_Q>
1

> <i_epik_Tot_abs_Q>
1

> <r_epik_Metal_State_Penalty>
1.73747

> <b_epik_Metal_Only>
0

> <s_lp_Force_Field>
OPLS_2005

> <r_lp_Energy>
20.6817

> <b_lp_Chiralities_Consistent>
1

> <s_lp_Variant>
AV-unprocessed.smi:2499-3

> <Gold.Version>
5.8.1

> <Gold.Id.Protein>
6NUR|6NUR_protein|mol2

> <Gold.PLP.Fitness>
41.1351

> <Gold.PLP.PLP>
-33.7765

> <Gold.PLP.part.hbond>
-3.0000

> <Gold.PLP.part.metal>
0.0000

> <Gold.PLP.part.buried>
-2.4671

> <Gold.PLP.part.nonpolar>
-27.5067

> <Gold.PLP.part.repulsive>
0.2963

> <Gold.PLP.ligand.clash>
0.0000

> <Gold.PLP.ligand.torsion>
1.3540

> <Gold.PLP.Chemscore.Hbond>
3.0000

> <Gold.PLP.Chemscore.CHOScore>
0.0000

> <Gold.PLP.Chemscore.Metal>
0.0000

> <Gold.Chemscore.Hbonds>
donor molecule, donor type, donor heavy atom, donor atom, acceptor molecule, acceptor atom, score
      L1  H     3    19       P1  8028  1.00
      L1  H     6    28       P1  8028  1.00
      P1  H  7989  7998       L1    11  1.00

> <Gold.PLP.Chemscore.Internal.Correction>
1.0665

> <Gold.Rescore>
     Score         DG    S(hbond)    S(metal)    S(lipo)     H(rot)  DE(clash)    DE(int)     intcor
     14.42     -18.12       2.21        0.00      73.44       1.30       0.06       3.64       ----

> <Gold.Chemscore.Fitness>
14.4199

> <Gold.Chemscore.DG>
-18.1218

> <Gold.Chemscore.ZeroCoef>
-5.4800

> <Gold.Chemscore.Hbond>
2.2115

> <Gold.Chemscore.Metal>
0.0000

> <Gold.Chemscore.Lipo>
73.4412

> <Gold.Chemscore.Internal_Hbond>
0.0000

> <Gold.Chemscore.DEClash>
0.0643

> <Gold.Chemscore.DEInternal>
3.6376

> <Gold.Chemscore.Rot>
1.3036

> <Gold.Chemscore.Internal.Correction>
   9.000000E+99

> <Gold.Chemscore.Hbonds>
donor molecule, donor type, donor heavy atom, donor atom, acceptor molecule, acceptor atom, score
      L1  H     3    19       P1  8028  0.89
      L1  H     6    28       P1  8028  0.99
      P1  H  7989  7998       L1    11  0.20

> <Gold.Chemscore.Hbond.Weighted>
-7.3863

> <Gold.Chemscore.Metal.Weighted>
-0.0000

> <Gold.Chemscore.Lipo.Weighted>
-8.5926

> <Gold.Chemscore.Internal_Hbond.Weighted>
0.0000

> <Gold.Chemscore.DEClash.Weighted>
0.0643

> <Gold.Chemscore.DEInternal.Weighted>
3.6376

> <Gold.Chemscore.Rot.Weighted>
3.3371

> <Gold.Chemscore.Internal.Correction.Weighted>
   9.000000E+99

> <Gold.Protein.RotatedTorsions>
[ 6907 6896 6895 6894 ] final   -6.17 input  -60.11 | X-H torsion
[ 7974 7965 7964 7962 ] final -122.05 input  175.53 | X-H torsion
[ 8008 7997 7996 7995 ] final  150.82 input   59.86 | X-H torsion
[ 10167 10162 10161 10158 ] final   99.13 input  -65.29 | X-H torsion
[ 10718 10713 10712 10709 ] final   41.00 input   66.30 | X-H torsion
[ 10763 10752 10751 10750 ] final  132.00 input  -60.55 | X-H torsion
[ 11005 11000 10999 10996 ] final  -35.78 input  -57.11 | X-H torsion

> <Gold.Protein.ActiveResidues>
 VAL166  LYS551  ARG553  GLY616  TRP617  ASP618  TYR619  PRO620  LYS621  CYS622 
 ASP623  PHE694  ASN695  SER759  ASP760  ASP761  ALA762  ILE779  LEU786  VAL792 
 PHE793  MET794  SER795  GLU796  ALA797  LYS798  CYS799  TRP800  GLU811  SER814 

> <Gold.Protein.RotatedAtoms>
  151.4698  135.1045  159.9748 H   0  0  0  0  0  0  0  0  0  0  0  0  # atno 6907 bound_to 6896
  152.4821  133.8275  159.7096 H   0  0  0  0  0  0  0  0  0  0  0  0  # atno 6908 bound_to 6896
  150.8900  133.7195  159.2934 H   0  0  0  0  0  0  0  0  0  0  0  0  # atno 6909 bound_to 6896
  145.0337  140.8088  143.4308 H   0  0  0  0  0  0  0  0  0  0  0  0  # atno 7974 bound_to 7965
  156.2700  140.2064  156.6077 H   0  0  0  0  0  0  0  0  0  0  0  0  # atno 8008 bound_to 7997
  154.6856  140.0535  157.0334 H   0  0  0  0  0  0  0  0  0  0  0  0  # atno 8009 bound_to 7997
  155.0939  140.3199  155.4569 H   0  0  0  0  0  0  0  0  0  0  0  0  # atno 8010 bound_to 7997
  139.7645  144.6943  151.0244 H   0  0  0  0  0  0  0  0  0  0  0  0  # atno 10167 bound_to 10162
  157.3886  130.7794  149.7251 H   0  0  0  0  0  0  0  0  0  0  0  0  # atno 10718 bound_to 10713
  153.7835  135.3165  155.3369 H   0  0  0  0  0  0  0  0  0  0  0  0  # atno 10763 bound_to 10752
  154.8152  135.4640  154.0628 H   0  0  0  0  0  0  0  0  0  0  0  0  # atno 10764 bound_to 10752
  153.1924  135.6910  153.8421 H   0  0  0  0  0  0  0  0  0  0  0  0  # atno 10765 bound_to 10752
  140.9823  133.7049  156.1705 H   0  0  0  0  0  0  0  0  0  0  0  0  # atno 11005 bound_to 11000
  145.1738  139.2390  143.5328 LP  0  0  0  0  0  0  0  0  0  0  0  0  # atno 17320 bound_to 7965
  146.3501  140.1495  142.8592 LP  0  0  0  0  0  0  0  0  0  0  0  0  # atno 17321 bound_to 7965
  140.7810  143.4659  151.0213 LP  0  0  0  0  0  0  0  0  0  0  0  0  # atno 17342 bound_to 10162
  139.8344  143.7648  152.3180 LP  0  0  0  0  0  0  0  0  0  0  0  0  # atno 17343 bound_to 10162
  155.9793  130.4042  150.3598 LP  0  0  0  0  0  0  0  0  0  0  0  0  # atno 17370 bound_to 10713
  157.1711  131.0369  151.2795 LP  0  0  0  0  0  0  0  0  0  0  0  0  # atno 17371 bound_to 10713
  140.7168  134.4402  157.5578 LP  0  0  0  0  0  0  0  0  0  0  0  0  # atno 17394 bound_to 11000
  139.8955  134.8680  156.2127 LP  0  0  0  0  0  0  0  0  0  0  0  0  # atno 17395 bound_to 11000

$$$$
