AV-unprocessed.smi:164|AV-procd|sdf|1385|dock1
  -GOLD-   2262019113D 1   1.00000     0.00000
 Structure written by MMmdl.
 53 55  0  0  0  0  0  0  0  0  1 V2000
  153.3822  137.4288  157.1246 C   0  0  0  0  0  0  0  0  0  0  0  0
  152.7264  138.7860  156.9363 C   0  0  0  0  0  0  0  0  0  0  0  0
  152.9309  139.7846  157.9105 C   0  0  0  0  0  0  0  0  0  0  0  0
  152.3341  141.0498  157.7698 C   0  0  0  0  0  0  0  0  0  0  0  0
  151.5344  141.3344  156.6461 C   0  0  0  0  0  0  0  0  0  0  0  0
  150.8924  142.7028  156.5091 C   0  0  0  0  0  0  0  0  0  0  0  0
  151.3382  140.3457  155.6549 C   0  0  0  0  0  0  0  0  0  0  0  0
  150.5673  140.6370  154.5597 O   0  0  0  0  0  0  0  0  0  0  0  0
  149.2026  140.2689  154.7121 C   0  0  0  0  0  0  0  0  0  0  0  0
  148.3911  141.4629  155.2385 C   0  0  1  0  0  0  0  0  0  0  0  0
  148.2216  142.3692  154.1673 O   0  0  0  0  0  0  0  0  0  0  0  0
  147.0217  141.0481  155.8209 C   0  0  0  0  0  0  0  0  0  0  0  0
  146.4101  142.0826  156.6381 N   0  0  0  0  0  0  0  0  0  0  0  0
  145.4000  142.8817  156.0497 C   0  0  0  0  0  0  0  0  0  0  0  0
  145.0306  142.7209  154.8852 O   0  0  0  0  0  0  0  0  0  0  0  0
  144.8517  143.9082  156.9294 C   0  0  0  0  0  0  0  0  0  0  0  0
  143.8721  144.7117  156.4817 F   0  0  0  0  0  0  0  0  0  0  0  0
  145.3123  144.0678  158.1891 C   0  0  0  0  0  0  0  0  0  0  0  0
  146.3234  143.2888  158.7286 N   0  0  0  0  0  0  0  0  0  0  0  0
  146.8301  143.4925  160.1414 C   0  0  1  0  0  0  0  0  0  0  0  0
  146.2362  144.7766  160.7522 C   0  0  0  0  0  0  0  0  0  0  0  0
  145.6619  144.2891  162.0678 C   0  0  0  0  0  0  0  0  0  0  0  0
  145.3158  142.8433  161.7452 C   0  0  0  0  0  0  0  0  0  0  0  0
  146.4204  142.4281  160.9523 O   0  0  0  0  0  0  0  0  0  0  0  0
  146.9001  142.2589  157.9537 C   0  0  0  0  0  0  0  0  0  0  0  0
  147.8045  141.5559  158.4118 O   0  0  0  0  0  0  0  0  0  0  0  0
  151.9169  139.0603  155.8057 C   0  0  0  0  0  0  0  0  0  0  0  0
  151.6713  137.9820  154.7584 C   0  0  0  0  0  0  0  0  0  0  0  0
  154.0797  137.4379  157.9626 H   0  0  0  0  0  0  0  0  0  0  0  0
  153.9393  137.1420  156.2324 H   0  0  0  0  0  0  0  0  0  0  0  0
  152.6279  136.6672  157.3239 H   0  0  0  0  0  0  0  0  0  0  0  0
  153.5446  139.5830  158.7764 H   0  0  0  0  0  0  0  0  0  0  0  0
  152.4945  141.8015  158.5288 H   0  0  0  0  0  0  0  0  0  0  0  0
  149.8550  142.6119  156.1856 H   0  0  0  0  0  0  0  0  0  0  0  0
  151.4309  143.3023  155.7752 H   0  0  0  0  0  0  0  0  0  0  0  0
  150.9009  143.2397  157.4582 H   0  0  0  0  0  0  0  0  0  0  0  0
  148.8072  139.9747  153.7389 H   0  0  0  0  0  0  0  0  0  0  0  0
  149.0932  139.4046  155.3694 H   0  0  0  0  0  0  0  0  0  0  0  0
  148.9904  141.9644  155.9996 H   0  0  0  0  0  0  0  0  0  0  0  0
  148.3867  143.2440  154.4849 H   0  0  0  0  0  0  0  0  0  0  0  0
  146.3130  140.7414  155.0495 H   0  0  0  0  0  0  0  0  0  0  0  0
  147.1173  140.1676  156.4592 H   0  0  0  0  0  0  0  0  0  0  0  0
  144.8579  144.8452  158.7838 H   0  0  0  0  0  0  0  0  0  0  0  0
  147.9191  143.4943  160.0658 H   0  0  0  0  0  0  0  0  0  0  0  0
  147.0032  145.5418  160.8759 H   0  0  0  0  0  0  0  0  0  0  0  0
  145.4432  145.1688  160.1132 H   0  0  0  0  0  0  0  0  0  0  0  0
  146.4243  144.3255  162.8471 H   0  0  0  0  0  0  0  0  0  0  0  0
  144.8015  144.8702  162.4006 H   0  0  0  0  0  0  0  0  0  0  0  0
  145.2058  142.2255  162.6365 H   0  0  0  0  0  0  0  0  0  0  0  0
  144.3921  142.7848  161.1679 H   0  0  0  0  0  0  0  0  0  0  0  0
  150.8410  138.2294  154.0975 H   0  0  0  0  0  0  0  0  0  0  0  0
  151.4286  137.0297  155.2294 H   0  0  0  0  0  0  0  0  0  0  0  0
  152.5616  137.8456  154.1446 H   0  0  0  0  0  0  0  0  0  0  0  0
  1  2  1  0  0  0  0
  1 29  1  0  0  0  0
  1 30  1  0  0  0  0
  1 31  1  0  0  0  0
  2 27  1  0  0  0  0
  2  3  2  0  0  0  0
  3  4  1  0  0  0  0
  3 32  1  0  0  0  0
  4  5  2  0  0  0  0
  4 33  1  0  0  0  0
  5  6  1  0  0  0  0
  5  7  1  0  0  0  0
  6 34  1  0  0  0  0
  6 35  1  0  0  0  0
  6 36  1  0  0  0  0
  7  8  1  0  0  0  0
  7 27  2  0  0  0  0
  8  9  1  0  0  0  0
  9 10  1  0  0  0  0
  9 37  1  0  0  0  0
  9 38  1  0  0  0  0
 10 11  1  0  0  0  0
 10 12  1  0  0  0  0
 10 39  1  0  0  0  0
 11 40  1  0  0  0  0
 12 13  1  0  0  0  0
 12 41  1  0  0  0  0
 12 42  1  0  0  0  0
 13 25  1  0  0  0  0
 13 14  1  0  0  0  0
 14 15  2  0  0  0  0
 14 16  1  0  0  0  0
 16 17  1  0  0  0  0
 16 18  2  0  0  0  0
 18 19  1  0  0  0  0
 18 43  1  0  0  0  0
 19 20  1  0  0  0  0
 19 25  1  0  0  0  0
 20 24  1  0  0  0  0
 20 21  1  0  0  0  0
 20 44  1  0  0  0  0
 21 22  1  0  0  0  0
 21 45  1  0  0  0  0
 21 46  1  0  0  0  0
 22 23  1  0  0  0  0
 22 47  1  0  0  0  0
 22 48  1  0  0  0  0
 23 24  1  0  0  0  0
 23 49  1  0  0  0  0
 23 50  1  0  0  0  0
 25 26  2  0  0  0  0
 27 28  1  0  0  0  0
 28 51  1  0  0  0  0
 28 52  1  0  0  0  0
 28 53  1  0  0  0  0
M  END
> <s_m_source_file>
AV-unprocessed.smi

> <i_m_source_file_index>
164

> <i_lp_mmshare_version>
43012

> <i_f3d_flags>
0

> <s_epik_input>
W0NIM11jMVtjSF1bY0hdYyhbQ0gzXSljKGMxW0NIM10pT1tDSDJdW0NASF0oW09IXSlbQ0gyXW4yYyg9TyljKEYpW2NIXW4oYzI9TylbQ0BASF0zW0NIMl1bQ0gyXVtDSDJdTzM=

> <s_epik_cmdline>
J2VwaWtfcHl0aG9uJywgJy1waCcsICc3LjAnLCAnLXRuJywgJzgnLCAnLW1hJywgJzIwMCcsICctbWV0YWxfYmluZGluZycsICctaW1hZScsICc8aW5maWxlLm1hZT4nLCAnLW9tYWUnLCAnPG91dGZpbGUubWFlPic=

> <r_lp_tautomer_probability>
1

> <r_epik_Ionization_Penalty>
1.45842e-07

> <r_epik_Ionization_Penalty_Charging>
2.86622e-08

> <r_epik_Ionization_Penalty_Neutral>
1.1718e-07

> <r_epik_State_Penalty>
-0

> <r_epik_Charging_Adjusted_Penalty>
2.86622e-08

> <i_epik_Tot_Q>
0

> <i_epik_Tot_abs_Q>
0

> <r_epik_Metal_State_Penalty>
-0

> <b_epik_Metal_Only>
0

> <s_epik_Chemistry_Notes>
This compound contains an acetal/aminal-like group ( X-CH(R)-Y where X, Y are N, S, or O) that may be acid/base labile, releasing an aldehyde.

> <s_lp_Force_Field>
OPLS_2005

> <r_lp_Energy>
46.8287

> <b_lp_Chiralities_Consistent>
1

> <s_lp_Variant>
AV-unprocessed.smi:164-4

> <Gold.Version>
5.8.1

> <Gold.Id.Protein>
6NUR|6NUR_protein|mol2

> <Gold.PLP.Fitness>
53.2687

> <Gold.PLP.PLP>
-46.1848

> <Gold.PLP.part.hbond>
-4.9278

> <Gold.PLP.part.metal>
0.0000

> <Gold.PLP.part.buried>
-6.8876

> <Gold.PLP.part.nonpolar>
-35.1254

> <Gold.PLP.part.repulsive>
0.3629

> <Gold.PLP.ligand.clash>
0.0000

> <Gold.PLP.ligand.torsion>
1.2662

> <Gold.PLP.Chemscore.Hbond>
3.0832

> <Gold.PLP.Chemscore.CHOScore>
0.0000

> <Gold.PLP.Chemscore.Metal>
0.0000

> <Gold.Chemscore.Hbonds>
donor molecule, donor type, donor heavy atom, donor atom, acceptor molecule, acceptor atom, score
      L1  H    11    40       P1  8028  1.00
      P1  H  6933  6944       L1    24  0.10
      P1  H  6934  6946       L1    24  0.96
      P1  H  7989  7998       L1     8  0.91
      P1  H  8011  8017       L1    11  0.01

> <Gold.PLP.Chemscore.Internal.Correction>
0.3666

> <Gold.Rescore>
     Score         DG    S(hbond)    S(metal)    S(lipo)     H(rot)  DE(clash)    DE(int)     intcor
     15.47     -18.69       2.96        0.00      88.07       2.73       1.14       2.08       ----

> <Gold.Chemscore.Fitness>
15.4676

> <Gold.Chemscore.DG>
-18.6864

> <Gold.Chemscore.ZeroCoef>
-5.4800

> <Gold.Chemscore.Hbond>
2.9625

> <Gold.Chemscore.Metal>
0.0000

> <Gold.Chemscore.Lipo>
88.0713

> <Gold.Chemscore.Internal_Hbond>
0.0000

> <Gold.Chemscore.DEClash>
1.1356

> <Gold.Chemscore.DEInternal>
2.0832

> <Gold.Chemscore.Rot>
2.7315

> <Gold.Chemscore.Internal.Correction>
   9.000000E+99

> <Gold.Chemscore.Hbonds>
donor molecule, donor type, donor heavy atom, donor atom, acceptor molecule, acceptor atom, score
      L1  H    11    40       P1  8028  0.99
      P1  H  6934  6946       L1    24  0.91
      P1  H  7989  7998       L1     8  0.29

> <Gold.Chemscore.Hbond.Weighted>
-9.8946

> <Gold.Chemscore.Metal.Weighted>
-0.0000

> <Gold.Chemscore.Lipo.Weighted>
-10.3043

> <Gold.Chemscore.Internal_Hbond.Weighted>
0.0000

> <Gold.Chemscore.DEClash.Weighted>
1.1356

> <Gold.Chemscore.DEInternal.Weighted>
2.0832

> <Gold.Chemscore.Rot.Weighted>
6.9925

> <Gold.Chemscore.Internal.Correction.Weighted>
   9.000000E+99

> <Gold.Protein.RotatedTorsions>
[ 6907 6896 6895 6894 ] final  178.50 input  -60.11 | X-H torsion
[ 7974 7965 7964 7962 ] final  -80.31 input  175.53 | X-H torsion
[ 8008 7997 7996 7995 ] final   99.16 input   59.86 | X-H torsion
[ 10167 10162 10161 10158 ] final  -85.42 input  -65.29 | X-H torsion
[ 10718 10713 10712 10709 ] final -122.18 input   66.30 | X-H torsion
[ 10763 10752 10751 10750 ] final  126.63 input  -60.55 | X-H torsion
[ 11005 11000 10999 10996 ] final -128.82 input  -57.11 | X-H torsion

> <Gold.Protein.ActiveResidues>
 VAL166  LYS551  ARG553  GLY616  TRP617  ASP618  TYR619  PRO620  LYS621  CYS622 
 ASP623  PHE694  ASN695  SER759  ASP760  ASP761  ALA762  ILE779  LEU786  VAL792 
 PHE793  MET794  SER795  GLU796  ALA797  LYS798  CYS799  TRP800  GLU811  SER814 

> <Gold.Protein.RotatedAtoms>
  151.6868  133.3311  159.3232 H   0  0  0  0  0  0  0  0  0  0  0  0  # atno 6907 bound_to 6896
  150.7797  134.6733  159.6413 H   0  0  0  0  0  0  0  0  0  0  0  0  # atno 6908 bound_to 6896
  152.3851  134.6533  160.0181 H   0  0  0  0  0  0  0  0  0  0  0  0  # atno 6909 bound_to 6896
  145.5617  140.9481  143.1444 H   0  0  0  0  0  0  0  0  0  0  0  0  # atno 7974 bound_to 7965
  156.1077  140.3233  155.8030 H   0  0  0  0  0  0  0  0  0  0  0  0  # atno 8008 bound_to 7997
  155.4726  140.0548  157.2995 H   0  0  0  0  0  0  0  0  0  0  0  0  # atno 8009 bound_to 7997
  154.4739  140.2023  155.9941 H   0  0  0  0  0  0  0  0  0  0  0  0  # atno 8010 bound_to 7997
  140.4039  143.2651  151.9106 H   0  0  0  0  0  0  0  0  0  0  0  0  # atno 10167 bound_to 10162
  156.1397  130.6457  150.9752 H   0  0  0  0  0  0  0  0  0  0  0  0  # atno 10718 bound_to 10713
  153.6964  135.3290  155.3214 H   0  0  0  0  0  0  0  0  0  0  0  0  # atno 10763 bound_to 10752
  154.8425  135.4444  154.1456 H   0  0  0  0  0  0  0  0  0  0  0  0  # atno 10764 bound_to 10752
  153.2511  135.6981  153.7756 H   0  0  0  0  0  0  0  0  0  0  0  0  # atno 10765 bound_to 10752
  140.9483  134.1099  157.4086 H   0  0  0  0  0  0  0  0  0  0  0  0  # atno 11005 bound_to 11000
  144.7480  139.7269  143.7284 LP  0  0  0  0  0  0  0  0  0  0  0  0  # atno 17320 bound_to 7965
  146.1847  139.5056  142.9844 LP  0  0  0  0  0  0  0  0  0  0  0  0  # atno 17321 bound_to 7965
  139.4784  144.5606  151.8246 LP  0  0  0  0  0  0  0  0  0  0  0  0  # atno 17342 bound_to 10162
  140.4710  144.1586  150.5918 LP  0  0  0  0  0  0  0  0  0  0  0  0  # atno 17343 bound_to 10162
  157.6565  131.0888  150.7936 LP  0  0  0  0  0  0  0  0  0  0  0  0  # atno 17370 bound_to 10713
  156.8013  130.4922  149.5369 LP  0  0  0  0  0  0  0  0  0  0  0  0  # atno 17371 bound_to 10713
  139.8840  135.0058  156.6339 LP  0  0  0  0  0  0  0  0  0  0  0  0  # atno 17394 bound_to 11000
  140.7638  133.8796  155.8438 LP  0  0  0  0  0  0  0  0  0  0  0  0  # atno 17395 bound_to 11000

$$$$
