#       Name:                AV-unprocessed.smi:3288
#       Creating user name   scv26
#       Creation time:       Fri Mar 27 18:53:30 2020


#       File generated by GOLD software.
#

@<TRIPOS>MOLECULE
AV-unprocessed.smi:3288
    45    46     1
SMALL
NO_CHARGES


@<TRIPOS>ATOM
      1 ****        -5.8268   1.6909  -1.0939 C.3            1 S1                 0.0000
      2 ****        -5.0260   2.0235   0.0289 O.3            1 S1                 0.0000
      3 ****        -3.6349   1.8160  -0.1719 C.3            1 S1                 0.0000
      4 ****        -3.2560   0.3305  -0.0842 C.3            1 S1                 0.0000
      5 ****        -1.8355   0.2287  -0.0768 O.3            1 S1                 0.0000
      6 ****        -1.2575  -1.0237   0.0107 C.ar           1 S1                 0.0000
      7 ****        -2.0718  -2.1052   0.1026 N.ar           1 S1                 0.0000
      8 ****        -1.5093  -3.3278   0.1894 C.ar           1 S1                 0.0000
      9 ****        -0.1183  -3.5368   0.1891 C.ar           1 S1                 0.0000
     10 ****         0.7268  -2.4162   0.0922 C.ar           1 S1                 0.0000
     11 ****         0.1544  -1.1251   0.0006 C.ar           1 S1                 0.0000
     12 ****         0.9178   0.0491  -0.1064 N.pl3          1 S1                 0.0000
     13 ****         2.3743   0.0537  -0.0474 C.3            1 S1                 0.0000
     14 ****         2.8926  -0.0974   1.3937 C.3            1 S1                 0.0000
     15 ****         4.4256   0.0167   1.4282 C.3            1 S1                 0.0000
     16 ****         4.8358   1.2575   0.8626 O.3            1 S1                 0.0000
     17 ****         4.4638   1.3963  -0.5048 C.3            1 S1                 0.0000
     18 ****         2.9329   1.3558  -0.6387 C.3            1 S1                 0.0000
     19 ****        -6.8679   1.9320  -0.8797 H              1 S1                 0.0000
     20 ****        -5.7760   0.6276  -1.3279 H              1 S1                 0.0000
     21 ****        -5.5275   2.2593  -1.9755 H              1 S1                 0.0000
     22 ****        -3.3036   2.2534  -1.1149 H              1 S1                 0.0000
     23 ****        -3.1149   2.3574   0.6188 H              1 S1                 0.0000
     24 ****        -3.6663  -0.0959   0.8326 H              1 S1                 0.0000
     25 ****        -3.6682  -0.2202  -0.9304 H              1 S1                 0.0000
     26 ****        -2.1880  -4.1647   0.2610 H              1 S1                 0.0000
     27 ****         0.2909  -4.5335   0.2604 H              1 S1                 0.0000
     28 ****         1.7952  -2.5679   0.0903 H              1 S1                 0.0000
     29 ****         0.4397   0.9377  -0.1571 H              1 S1                 0.0000
     30 ****         2.7535  -0.7681  -0.6551 H              1 S1                 0.0000
     31 ****         2.4597   0.6776   2.0277 H              1 S1                 0.0000
     32 ****         2.5862  -1.0528   1.8195 H              1 S1                 0.0000
     33 ****         4.7813  -0.0345   2.4573 H              1 S1                 0.0000
     34 ****         4.8893  -0.8113   0.8898 H              1 S1                 0.0000
     35 ****         4.8470   2.3458  -0.8790 H              1 S1                 0.0000
     36 ****         4.9275   0.6090  -1.1009 H              1 S1                 0.0000
     37 ****         2.6499   1.4456  -1.6881 H              1 S1                 0.0000
     38 ****         2.5033   2.2162  -0.1232 H              1 S1                 0.0000
     39 ****        -5.3194   1.4613   0.8021 LP             1 S1                 0.0000
     40 ****        -5.1720   2.9890   0.2444 LP             1 S1                 0.0000
     41 ****        -1.5070   0.7591   0.7048 LP             1 S1                 0.0000
     42 ****        -1.5067   0.6455  -0.9243 LP             1 S1                 0.0000
     43 ****        -3.0660  -1.9981   0.1059 LP             1 S1                 0.0000
     44 ****         5.8312   1.3249   0.9304 LP             1 S1                 0.0000
     45 ****         4.4152   1.9999   1.3841 LP             1 S1                 0.0000
@<TRIPOS>BOND
    1    1    2 1     
    2    1   19 1     
    3    1   20 1     
    4    1   21 1     
    5    2    3 1     
    6    3    4 1     
    7    3   22 1     
    8    3   23 1     
    9    4    5 1     
   10    4   24 1     
   11    4   25 1     
   12    5    6 1     
   13    6   11 ar    
   14    6    7 ar    
   15    7    8 ar    
   16    8    9 ar    
   17    8   26 1     
   18    9   10 ar    
   19    9   27 1     
   20   10   11 ar    
   21   10   28 1     
   22   11   12 1     
   23   12   13 1     
   24   12   29 1     
   25   13   18 1     
   26   13   14 1     
   27   13   30 1     
   28   14   15 1     
   29   14   31 1     
   30   14   32 1     
   31   15   16 1     
   32   15   33 1     
   33   15   34 1     
   34   16   17 1     
   35   17   18 1     
   36   17   35 1     
   37   17   36 1     
   38   18   37 1     
   39   18   38 1     
   40    2   39 1     
   41    2   40 1     
   42    5   41 1     
   43    5   42 1     
   44    7   43 1     
   45   16   44 1     
   46   16   45 1     
@<TRIPOS>SUBSTRUCTURE
      1 S1             1
@<TRIPOS>SET
LONE_PAIRS      STATIC     ATOMS    <user>   **** ""
7 39 40 41 42 43 44 45
DONOR_HYDROGENS      STATIC     ATOMS    <user>   **** ""
1 29
ATOM$BLUE        STATIC     ATOMS    COLORGROUP SYSTEM
7 39 40 41 42 43 44 45
ATOM$RED        STATIC     ATOMS    COLORGROUP SYSTEM
1 29
