AV-unprocessed.smi:3055|AV-procd|sdf|11642|dock7
  -GOLD-   2272017 33D 1   1.00000     0.00000
 Structure written by MMmdl.
 48 50  0  0  0  0  0  0  0  0  3 V2000
  152.8524  138.9426  157.5099 O   0  0  0  0  0  0  0  0  0  0  0  0
  151.9492  139.7708  157.6334 C   0  0  0  0  0  0  0  0  0  0  0  0
  152.1058  140.8925  158.3540 N   0  0  0  0  0  0  0  0  0  0  0  0
  153.3309  141.2659  159.0495 C   0  0  0  0  0  0  0  0  0  0  0  0
  153.0358  142.1858  160.2444 C   0  0  0  0  0  0  0  0  0  0  0  0
  152.4866  143.4811  159.8319 N   0  0  0  0  0  0  0  0  0  0  0  0
  151.9553  144.4518  160.6416 C   0  0  0  0  0  0  0  0  0  0  0  0
  151.5745  145.4811  159.8198 C   0  0  0  0  0  0  0  0  0  0  0  0
  151.8905  145.0962  158.5442 N   0  3  0  0  0  0  0  0  0  0  0  0
  152.4462  143.8800  158.5537 C   0  0  0  0  0  0  0  0  0  0  0  0
  150.7197  139.6177  157.0793 N   0  0  0  0  0  0  0  0  0  0  0  0
  149.8421  140.6971  156.5999 C   0  0  0  0  0  0  0  0  0  0  0  0
  149.9246  140.7395  155.0649 C   0  0  0  0  0  0  0  0  0  0  0  0
  149.5685  139.3705  154.4523 C   0  0  0  0  0  0  0  0  0  0  0  0
  150.3643  138.2063  155.1003 C   0  0  2  0  0  0  0  0  0  0  0  0
  149.9112  136.8777  154.6012 N   0  3  0  0  0  0  0  0  0  0  0  0
  150.7742  135.7326  154.9655 C   0  0  0  0  0  0  0  0  0  0  0  0
  149.8812  134.5043  154.8359 C   0  0  0  0  0  0  0  0  0  0  0  0
  148.5338  135.0113  155.3344 C   0  0  0  0  0  0  0  0  0  0  0  0
  148.5237  136.5041  154.9786 C   0  0  0  0  0  0  0  0  0  0  0  0
  150.2302  138.3048  156.6407 C   0  0  0  0  0  0  0  0  0  0  0  0
  151.3257  141.5296  158.4171 H   0  0  0  0  0  0  0  0  0  0  0  0
  153.8569  140.3694  159.3822 H   0  0  0  0  0  0  0  0  0  0  0  0
  153.9908  141.7800  158.3494 H   0  0  0  0  0  0  0  0  0  0  0  0
  152.3039  141.7180  160.9041 H   0  0  0  0  0  0  0  0  0  0  0  0
  153.9349  142.3563  160.8386 H   0  0  0  0  0  0  0  0  0  0  0  0
  151.8886  144.3401  161.7143 H   0  0  0  0  0  0  0  0  0  0  0  0
  151.1154  146.4335  160.0416 H   0  0  0  0  0  0  0  0  0  0  0  0
  152.7922  143.3298  157.6968 H   0  0  0  0  0  0  0  0  0  0  0  0
  148.8167  140.4935  156.9124 H   0  0  0  0  0  0  0  0  0  0  0  0
  150.0777  141.6777  157.0134 H   0  0  0  0  0  0  0  0  0  0  0  0
  149.2569  141.5076  154.6738 H   0  0  0  0  0  0  0  0  0  0  0  0
  150.9337  141.0235  154.7625 H   0  0  0  0  0  0  0  0  0  0  0  0
  148.4999  139.1942  154.5849 H   0  0  0  0  0  0  0  0  0  0  0  0
  149.7429  139.4123  153.3771 H   0  0  0  0  0  0  0  0  0  0  0  0
  151.4166  138.3208  154.8328 H   0  0  0  0  0  0  0  0  0  0  0  0
  151.6570  135.6673  154.3288 H   0  0  0  0  0  0  0  0  0  0  0  0
  151.1062  135.8352  156.0001 H   0  0  0  0  0  0  0  0  0  0  0  0
  149.8044  134.2083  153.7887 H   0  0  0  0  0  0  0  0  0  0  0  0
  150.2499  133.6493  155.4034 H   0  0  0  0  0  0  0  0  0  0  0  0
  147.6949  134.4687  154.8980 H   0  0  0  0  0  0  0  0  0  0  0  0
  148.4771  134.8931  156.4175 H   0  0  0  0  0  0  0  0  0  0  0  0
  148.1615  137.0829  155.8295 H   0  0  0  0  0  0  0  0  0  0  0  0
  147.8613  136.7045  154.1359 H   0  0  0  0  0  0  0  0  0  0  0  0
  150.7588  137.4937  157.1422 H   0  0  0  0  0  0  0  0  0  0  0  0
  149.1858  138.1901  156.9349 H   0  0  0  0  0  0  0  0  0  0  0  0
  149.9226  136.9196  153.5920 H   0  0  0  0  0  0  0  0  0  0  0  0
  151.7308  145.6513  157.7128 H   0  0  0  0  0  0  0  0  0  0  0  0
  1  2  2  0  0  0  0
  2  3  1  0  0  0  0
  2 11  1  0  0  0  0
  3  4  1  0  0  0  0
  3 22  1  0  0  0  0
  4  5  1  0  0  0  0
  4 23  1  0  0  0  0
  4 24  1  0  0  0  0
  5  6  1  0  0  0  0
  5 25  1  0  0  0  0
  5 26  1  0  0  0  0
  6 10  1  0  0  0  0
  6  7  1  0  0  0  0
  7  8  2  0  0  0  0
  7 27  1  0  0  0  0
  8  9  1  0  0  0  0
  8 28  1  0  0  0  0
  9 10  2  0  0  0  0
  9 48  1  0  0  0  0
 10 29  1  0  0  0  0
 11 21  1  0  0  0  0
 11 12  1  0  0  0  0
 12 13  1  0  0  0  0
 12 30  1  0  0  0  0
 12 31  1  0  0  0  0
 13 14  1  0  0  0  0
 13 32  1  0  0  0  0
 13 33  1  0  0  0  0
 14 15  1  0  0  0  0
 14 34  1  0  0  0  0
 14 35  1  0  0  0  0
 15 16  1  0  0  0  0
 15 21  1  0  0  0  0
 15 36  1  0  0  0  0
 16 20  1  0  0  0  0
 16 17  1  0  0  0  0
 16 47  1  0  0  0  0
 17 18  1  0  0  0  0
 17 37  1  0  0  0  0
 17 38  1  0  0  0  0
 18 19  1  0  0  0  0
 18 39  1  0  0  0  0
 18 40  1  0  0  0  0
 19 20  1  0  0  0  0
 19 41  1  0  0  0  0
 19 42  1  0  0  0  0
 20 43  1  0  0  0  0
 20 44  1  0  0  0  0
 21 45  1  0  0  0  0
 21 46  1  0  0  0  0
M  CHG  1   9   1
M  CHG  1  16   1
M  END
> <s_m_source_file>
AV-unprocessed.smi

> <i_m_source_file_index>
3055

> <i_lp_mmshare_version>
43012

> <i_f3d_flags>
0

> <s_epik_input>
W2NIXTFuW2NIXVtjSF1uMVtDSDJdW0NIMl1bTkhdQyg9TylOMltDSDJdW0NIMl1bQ0gyXVtDQEhdKFtDSDJdMilOM1tDSDJdW0NIMl1bQ0gyXVtDSDJdMw==

> <s_epik_cmdline>
J2VwaWtfcHl0aG9uJywgJy1waCcsICc3LjAnLCAnLXRuJywgJzgnLCAnLW1hJywgJzIwMCcsICctbWV0YWxfYmluZGluZycsICctaW1hZScsICc8aW5maWxlLm1hZT4nLCAnLW9tYWUnLCAnPG91dGZpbGUubWFlPic=

> <r_lp_tautomer_probability>
1

> <r_epik_Ionization_Penalty>
0.259176

> <r_epik_Ionization_Penalty_Charging>
0.00125522

> <r_epik_Ionization_Penalty_Neutral>
0.257921

> <r_epik_State_Penalty>
0.249312

> <r_epik_Charging_Adjusted_Penalty>
0.250567

> <i_epik_Tot_Q>
2

> <i_epik_Tot_abs_Q>
2

> <r_epik_Metal_State_Penalty>
0.53666

> <b_epik_Metal_Only>
0

> <s_lp_Force_Field>
OPLS_2005

> <r_lp_Energy>
60.4865

> <b_lp_Chiralities_Consistent>
1

> <s_lp_Variant>
AV-unprocessed.smi:3055-2

> <Gold.Version>
5.8.1

> <Gold.Id.Protein>
6NUR|6NUR_protein|mol2

> <Gold.PLP.Fitness>
46.9939

> <Gold.PLP.PLP>
-39.8655

> <Gold.PLP.part.hbond>
-2.0000

> <Gold.PLP.part.metal>
0.0000

> <Gold.PLP.part.buried>
-4.8655

> <Gold.PLP.part.nonpolar>
-33.7155

> <Gold.PLP.part.repulsive>
0.2550

> <Gold.PLP.ligand.clash>
0.0000

> <Gold.PLP.ligand.torsion>
0.6338

> <Gold.PLP.Chemscore.Hbond>
2.7763

> <Gold.PLP.Chemscore.CHOScore>
0.0000

> <Gold.PLP.Chemscore.Metal>
0.0000

> <Gold.Chemscore.Hbonds>
donor molecule, donor type, donor heavy atom, donor atom, acceptor molecule, acceptor atom, score
      L1  H    16    47       P1  7948  1.66
      P1  H  7997  8010       L1     1  0.91

> <Gold.PLP.Chemscore.Internal.Correction>
0.0671

> <Gold.Rescore>
     Score         DG    S(hbond)    S(metal)    S(lipo)     H(rot)  DE(clash)    DE(int)     intcor
     14.76     -15.61       1.67        0.00      79.87       1.87       0.15       0.70       ----

> <Gold.Chemscore.Fitness>
14.7580

> <Gold.Chemscore.DG>
-15.6068

> <Gold.Chemscore.ZeroCoef>
-5.4800

> <Gold.Chemscore.Hbond>
1.6700

> <Gold.Chemscore.Metal>
0.0000

> <Gold.Chemscore.Lipo>
79.8674

> <Gold.Chemscore.Internal_Hbond>
0.0000

> <Gold.Chemscore.DEClash>
0.1470

> <Gold.Chemscore.DEInternal>
0.7018

> <Gold.Chemscore.Rot>
1.8732

> <Gold.Chemscore.Internal.Correction>
   9.000000E+99

> <Gold.Chemscore.Hbonds>
donor molecule, donor type, donor heavy atom, donor atom, acceptor molecule, acceptor atom, score
      L1  H    16    47       P1  7948  0.31
      P1  H  7997  8010       L1     1  0.40

> <Gold.Chemscore.Hbond.Weighted>
-5.5778

> <Gold.Chemscore.Metal.Weighted>
-0.0000

> <Gold.Chemscore.Lipo.Weighted>
-9.3445

> <Gold.Chemscore.Internal_Hbond.Weighted>
0.0000

> <Gold.Chemscore.DEClash.Weighted>
0.1470

> <Gold.Chemscore.DEInternal.Weighted>
0.7018

> <Gold.Chemscore.Rot.Weighted>
4.7954

> <Gold.Chemscore.Internal.Correction.Weighted>
   9.000000E+99

> <Gold.Protein.RotatedTorsions>
[ 6907 6896 6895 6894 ] final  -16.54 input  -60.11 | X-H torsion
[ 7974 7965 7964 7962 ] final  153.60 input  175.53 | X-H torsion
[ 8008 7997 7996 7995 ] final   47.32 input   59.86 | X-H torsion
[ 10167 10162 10161 10158 ] final  -51.87 input  -65.29 | X-H torsion
[ 10718 10713 10712 10709 ] final   -7.99 input   66.30 | X-H torsion
[ 10763 10752 10751 10750 ] final  143.66 input  -60.55 | X-H torsion
[ 11005 11000 10999 10996 ] final   93.20 input  -57.11 | X-H torsion

> <Gold.Protein.ActiveResidues>
 VAL166  LYS551  ARG553  GLY616  TRP617  ASP618  TYR619  PRO620  LYS621  CYS622 
 ASP623  PHE694  ASN695  SER759  ASP760  ASP761  ALA762  ILE779  LEU786  VAL792 
 PHE793  MET794  SER795  GLU796  ALA797  LYS798  CYS799  TRP800  GLU811  SER814 

> <Gold.Protein.RotatedAtoms>
  151.3070  135.0784  159.9258 H   0  0  0  0  0  0  0  0  0  0  0  0  # atno 6907 bound_to 6896
  152.5286  133.9775  159.7801 H   0  0  0  0  0  0  0  0  0  0  0  0  # atno 6908 bound_to 6896
  151.0072  133.5948  159.2717 H   0  0  0  0  0  0  0  0  0  0  0  0  # atno 6909 bound_to 6896
  144.8144  139.6822  143.6128 H   0  0  0  0  0  0  0  0  0  0  0  0  # atno 7974 bound_to 7965
  155.3671  140.3422  155.4242 H   0  0  0  0  0  0  0  0  0  0  0  0  # atno 8008 bound_to 7997
  156.1682  140.1623  156.8528 H   0  0  0  0  0  0  0  0  0  0  0  0  # atno 8009 bound_to 7997
  154.5207  140.0768  156.8148 H   0  0  0  0  0  0  0  0  0  0  0  0  # atno 8010 bound_to 7997
  140.6566  143.2604  151.4566 H   0  0  0  0  0  0  0  0  0  0  0  0  # atno 10167 bound_to 10162
  156.7091  130.5116  149.5897 H   0  0  0  0  0  0  0  0  0  0  0  0  # atno 10718 bound_to 10713
  153.9760  135.2946  155.3424 H   0  0  0  0  0  0  0  0  0  0  0  0  # atno 10763 bound_to 10752
  154.7296  135.5073  153.8945 H   0  0  0  0  0  0  0  0  0  0  0  0  # atno 10764 bound_to 10752
  153.0877  135.6698  154.0029 H   0  0  0  0  0  0  0  0  0  0  0  0  # atno 10765 bound_to 10752
  139.8813  134.8776  156.3683 H   0  0  0  0  0  0  0  0  0  0  0  0  # atno 11005 bound_to 11000
  146.2446  139.6071  142.9468 LP  0  0  0  0  0  0  0  0  0  0  0  0  # atno 17320 bound_to 7965
  145.5249  141.0430  143.2415 LP  0  0  0  0  0  0  0  0  0  0  0  0  # atno 17321 bound_to 7965
  139.5791  144.1752  152.1943 LP  0  0  0  0  0  0  0  0  0  0  0  0  # atno 17342 bound_to 10162
  140.1071  144.5489  150.6949 LP  0  0  0  0  0  0  0  0  0  0  0  0  # atno 17343 bound_to 10162
  156.1674  130.6414  151.0795 LP  0  0  0  0  0  0  0  0  0  0  0  0  # atno 17370 bound_to 10713
  157.6943  131.0799  150.7015 LP  0  0  0  0  0  0  0  0  0  0  0  0  # atno 17371 bound_to 10713
  140.9482  133.7469  156.0236 LP  0  0  0  0  0  0  0  0  0  0  0  0  # atno 17394 bound_to 11000
  140.8138  134.3368  157.5403 LP  0  0  0  0  0  0  0  0  0  0  0  0  # atno 17395 bound_to 11000

$$$$
