AV-unprocessed.smi:884|AV-procd|sdf|4042|dock6
  -GOLD-   22720 1533D 1   1.00000     0.00000
 Structure written by MMmdl.
 47 49  0  0  0  0  0  0  0  0  1 V2000
  146.4966  137.1783  155.0415 O   0  0  0  0  0  0  0  0  0  0  0  0
  146.1909  138.2383  154.4933 C   0  0  0  0  0  0  0  0  0  0  0  0
  145.3608  138.2855  153.4365 N   0  0  0  0  0  0  0  0  0  0  0  0
  144.7727  137.1323  152.7590 C   0  0  0  0  0  0  0  0  0  0  0  0
  145.6675  136.6038  151.6217 C   0  0  0  0  0  0  0  0  0  0  0  0
  145.4419  135.1382  151.2855 C   0  0  0  0  0  0  0  0  0  0  0  0
  144.1505  134.6659  150.9693 C   0  0  0  0  0  0  0  0  0  0  0  0
  143.9885  133.2967  150.6818 C   0  0  0  0  0  0  0  0  0  0  0  0
  145.1186  132.4573  150.7181 C   0  0  0  0  0  0  0  0  0  0  0  0
  146.3652  133.0259  151.0463 C   0  0  0  0  0  0  0  0  0  0  0  0
  146.5302  134.3357  151.3311 N   0  0  0  0  0  0  0  0  0  0  0  0
  146.6736  139.4434  154.8928 N   0  0  0  0  0  0  0  0  0  0  0  0
  146.4108  140.7399  154.2497 C   0  0  0  0  0  0  0  0  0  0  0  0
  147.6257  141.1262  153.3962 C   0  0  0  0  0  0  0  0  0  0  0  0
  149.1065  141.3380  154.4321 S   0  0  0  0  0  0  0  0  0  0  0  0
  149.0972  139.7923  155.4196 C   0  0  0  0  0  0  0  0  0  0  0  0
  149.5642  138.5893  154.5569 C   0  0  0  0  0  0  0  0  0  0  0  0
  151.0450  138.6649  154.1464 C   0  0  0  0  0  0  0  0  0  0  0  0
  151.9550  138.8115  155.3724 C   0  0  0  0  0  0  0  0  0  0  0  0
  151.5451  140.0264  156.2153 C   0  0  0  0  0  0  0  0  0  0  0  0
  150.0619  139.9498  156.6219 C   0  0  0  0  0  0  0  0  0  0  0  0
  147.6634  139.5671  155.9737 C   0  0  0  0  0  0  0  0  0  0  0  0
  145.1578  139.1926  153.0428 H   0  0  0  0  0  0  0  0  0  0  0  0
  144.5706  136.3246  153.4644 H   0  0  0  0  0  0  0  0  0  0  0  0
  143.8043  137.4278  152.3553 H   0  0  0  0  0  0  0  0  0  0  0  0
  145.5065  137.1999  150.7229 H   0  0  0  0  0  0  0  0  0  0  0  0
  146.7155  136.7466  151.8906 H   0  0  0  0  0  0  0  0  0  0  0  0
  143.3025  135.3349  150.9538 H   0  0  0  0  0  0  0  0  0  0  0  0
  143.0148  132.8977  150.4380 H   0  0  0  0  0  0  0  0  0  0  0  0
  145.0319  131.4023  150.5044 H   0  0  0  0  0  0  0  0  0  0  0  0
  147.2517  132.4105  151.0918 H   0  0  0  0  0  0  0  0  0  0  0  0
  145.5099  140.7441  153.6359 H   0  0  0  0  0  0  0  0  0  0  0  0
  146.2330  141.5021  155.0096 H   0  0  0  0  0  0  0  0  0  0  0  0
  147.8194  140.3679  152.6380 H   0  0  0  0  0  0  0  0  0  0  0  0
  147.4356  142.0607  152.8684 H   0  0  0  0  0  0  0  0  0  0  0  0
  149.4067  137.6649  155.1145 H   0  0  0  0  0  0  0  0  0  0  0  0
  148.9550  138.5009  153.6598 H   0  0  0  0  0  0  0  0  0  0  0  0
  151.3181  137.7680  153.5905 H   0  0  0  0  0  0  0  0  0  0  0  0
  151.2020  139.5034  153.4673 H   0  0  0  0  0  0  0  0  0  0  0  0
  151.8983  137.9081  155.9807 H   0  0  0  0  0  0  0  0  0  0  0  0
  152.9941  138.9089  155.0568 H   0  0  0  0  0  0  0  0  0  0  0  0
  152.1688  140.0817  157.1079 H   0  0  0  0  0  0  0  0  0  0  0  0
  151.7343  140.9430  155.6557 H   0  0  0  0  0  0  0  0  0  0  0  0
  149.7977  140.8367  157.1995 H   0  0  0  0  0  0  0  0  0  0  0  0
  149.9361  139.1036  157.2990 H   0  0  0  0  0  0  0  0  0  0  0  0
  147.3818  140.3988  156.6216 H   0  0  0  0  0  0  0  0  0  0  0  0
  147.6488  138.6933  156.6272 H   0  0  0  0  0  0  0  0  0  0  0  0
  1  2  2  0  0  0  0
  2  3  1  0  0  0  0
  2 12  1  0  0  0  0
  3  4  1  0  0  0  0
  3 23  1  0  0  0  0
  4  5  1  0  0  0  0
  4 24  1  0  0  0  0
  4 25  1  0  0  0  0
  5  6  1  0  0  0  0
  5 26  1  0  0  0  0
  5 27  1  0  0  0  0
  6 11  1  0  0  0  0
  6  7  2  0  0  0  0
  7  8  1  0  0  0  0
  7 28  1  0  0  0  0
  8  9  2  0  0  0  0
  8 29  1  0  0  0  0
  9 10  1  0  0  0  0
  9 30  1  0  0  0  0
 10 11  2  0  0  0  0
 10 31  1  0  0  0  0
 12 22  1  0  0  0  0
 12 13  1  0  0  0  0
 13 14  1  0  0  0  0
 13 32  1  0  0  0  0
 13 33  1  0  0  0  0
 14 15  1  0  0  0  0
 14 34  1  0  0  0  0
 14 35  1  0  0  0  0
 15 16  1  0  0  0  0
 16 21  1  0  0  0  0
 16 17  1  0  0  0  0
 16 22  1  0  0  0  0
 17 18  1  0  0  0  0
 17 36  1  0  0  0  0
 17 37  1  0  0  0  0
 18 19  1  0  0  0  0
 18 38  1  0  0  0  0
 18 39  1  0  0  0  0
 19 20  1  0  0  0  0
 19 40  1  0  0  0  0
 19 41  1  0  0  0  0
 20 21  1  0  0  0  0
 20 42  1  0  0  0  0
 20 43  1  0  0  0  0
 21 44  1  0  0  0  0
 21 45  1  0  0  0  0
 22 46  1  0  0  0  0
 22 47  1  0  0  0  0
M  END
> <s_m_source_file>
AV-unprocessed.smi

> <i_m_source_file_index>
884

> <i_lp_mmshare_version>
43012

> <i_f3d_flags>
0

> <s_epik_input>
bjFbY0hdW2NIXVtjSF1bY0hdYzFbQ0gyXVtDSDJdW05IXUMoPU8pTihbQ0gyXTIpW0NIMl1bQ0gyXVNDMjNbQ0gyXVtDSDJdW0NIMl1bQ0gyXVtDSDJdMw==

> <s_epik_cmdline>
J2VwaWtfcHl0aG9uJywgJy1waCcsICc3LjAnLCAnLXRuJywgJzgnLCAnLW1hJywgJzIwMCcsICctbWV0YWxfYmluZGluZycsICctaW1hZScsICc8aW5maWxlLm1hZT4nLCAnLW9tYWUnLCAnPG91dGZpbGUubWFlPic=

> <r_epik_Ionization_Penalty>
0.0449137

> <r_epik_Ionization_Penalty_Charging>
0

> <r_epik_Ionization_Penalty_Neutral>
0.0449137

> <r_epik_State_Penalty>
0.0380475

> <r_epik_Charging_Adjusted_Penalty>
0.0380475

> <i_epik_Tot_Q>
0

> <i_epik_Tot_abs_Q>
0

> <r_epik_Metal_State_Penalty>
0.0353559

> <b_epik_Metal_Only>
0

> <s_lp_Force_Field>
OPLS_2005

> <r_lp_Energy>
30.1612

> <b_lp_Chiralities_Consistent>
1

> <s_lp_Variant>
AV-unprocessed.smi:884-1

> <Gold.Version>
5.8.1

> <Gold.Id.Protein>
6NUR|6NUR_protein|mol2

> <Gold.PLP.Fitness>
40.8973

> <Gold.PLP.PLP>
-35.7313

> <Gold.PLP.part.hbond>
-1.0000

> <Gold.PLP.part.metal>
0.0000

> <Gold.PLP.part.buried>
-4.7713

> <Gold.PLP.part.nonpolar>
-30.6104

> <Gold.PLP.part.repulsive>
0.5017

> <Gold.PLP.ligand.clash>
0.0000

> <Gold.PLP.ligand.torsion>
0.3548

> <Gold.PLP.Chemscore.Hbond>
0.9516

> <Gold.PLP.Chemscore.CHOScore>
1.0000

> <Gold.PLP.Chemscore.Metal>
0.0000

> <Gold.Chemscore.Hbonds>
donor molecule, donor type, donor heavy atom, donor atom, acceptor molecule, acceptor atom, score
      L1  H     3    23       P1 10175  0.89
      L1  C    10    31       P1 10747  1.00

> <Gold.PLP.Chemscore.Internal.Correction>
0.0208

> <Gold.Rescore>
     Score         DG    S(hbond)    S(metal)    S(lipo)     H(rot)  DE(clash)    DE(int)     intcor
     17.09     -17.44       0.95        0.00     102.08       1.23       0.06       0.29       ----

> <Gold.Chemscore.Fitness>
17.0871

> <Gold.Chemscore.DG>
-17.4416

> <Gold.Chemscore.ZeroCoef>
-5.4800

> <Gold.Chemscore.Hbond>
0.9464

> <Gold.Chemscore.Metal>
0.0000

> <Gold.Chemscore.Lipo>
102.0805

> <Gold.Chemscore.Internal_Hbond>
0.0000

> <Gold.Chemscore.DEClash>
0.0645

> <Gold.Chemscore.DEInternal>
0.2900

> <Gold.Chemscore.Rot>
1.2276

> <Gold.Chemscore.Internal.Correction>
   9.000000E+99

> <Gold.Chemscore.Hbonds>
donor molecule, donor type, donor heavy atom, donor atom, acceptor molecule, acceptor atom, score
      L1  H     3    23       P1 10175  0.81

> <Gold.Chemscore.Hbond.Weighted>
-3.1609

> <Gold.Chemscore.Metal.Weighted>
-0.0000

> <Gold.Chemscore.Lipo.Weighted>
-11.9434

> <Gold.Chemscore.Internal_Hbond.Weighted>
0.0000

> <Gold.Chemscore.DEClash.Weighted>
0.0645

> <Gold.Chemscore.DEInternal.Weighted>
0.2900

> <Gold.Chemscore.Rot.Weighted>
3.1427

> <Gold.Chemscore.Internal.Correction.Weighted>
   9.000000E+99

> <Gold.Protein.RotatedTorsions>
[ 6907 6896 6895 6894 ] final  102.64 input  -60.11 | X-H torsion
[ 7974 7965 7964 7962 ] final  100.98 input  175.53 | X-H torsion
[ 8008 7997 7996 7995 ] final  -66.85 input   59.86 | X-H torsion
[ 10167 10162 10161 10158 ] final  -45.06 input  -65.29 | X-H torsion
[ 10718 10713 10712 10709 ] final  -62.92 input   66.30 | X-H torsion
[ 10763 10752 10751 10750 ] final  -51.18 input  -60.55 | X-H torsion
[ 11005 11000 10999 10996 ] final  -20.34 input  -57.11 | X-H torsion

> <Gold.Protein.ActiveResidues>
 VAL166  LYS551  ARG553  GLY616  TRP617  ASP618  TYR619  PRO620  LYS621  CYS622 
 ASP623  PHE694  ASN695  SER759  ASP760  ASP761  ALA762  ILE779  LEU786  VAL792 
 PHE793  MET794  SER795  GLU796  ALA797  LYS798  CYS799  TRP800  GLU811  SER814 

> <Gold.Protein.RotatedAtoms>
  152.5318  133.9945  159.7866 H   0  0  0  0  0  0  0  0  0  0  0  0  # atno 6907 bound_to 6896
  151.0175  133.5899  159.2682 H   0  0  0  0  0  0  0  0  0  0  0  0  # atno 6908 bound_to 6896
  151.2951  135.0760  159.9272 H   0  0  0  0  0  0  0  0  0  0  0  0  # atno 6909 bound_to 6896
  145.3784  139.2384  143.3417 H   0  0  0  0  0  0  0  0  0  0  0  0  # atno 7974 bound_to 7965
  154.4761  140.0904  156.7266 H   0  0  0  0  0  0  0  0  0  0  0  0  # atno 8008 bound_to 7997
  155.4592  140.3460  155.4292 H   0  0  0  0  0  0  0  0  0  0  0  0  # atno 8009 bound_to 7997
  156.1119  140.1450  156.9315 H   0  0  0  0  0  0  0  0  0  0  0  0  # atno 8010 bound_to 7997
  140.6873  143.2898  151.3584 H   0  0  0  0  0  0  0  0  0  0  0  0  # atno 10167 bound_to 10162
  156.0824  130.4214  150.1203 H   0  0  0  0  0  0  0  0  0  0  0  0  # atno 10718 bound_to 10713
  154.1224  135.6532  153.4905 H   0  0  0  0  0  0  0  0  0  0  0  0  # atno 10763 bound_to 10752
  153.0221  135.5273  154.7083 H   0  0  0  0  0  0  0  0  0  0  0  0  # atno 10764 bound_to 10752
  154.6295  135.2974  155.0203 H   0  0  0  0  0  0  0  0  0  0  0  0  # atno 10765 bound_to 10752
  140.8455  133.7895  155.9908 H   0  0  0  0  0  0  0  0  0  0  0  0  # atno 11005 bound_to 11000
  146.2853  140.4447  142.8760 LP  0  0  0  0  0  0  0  0  0  0  0  0  # atno 17320 bound_to 7965
  144.8526  140.7023  143.6159 LP  0  0  0  0  0  0  0  0  0  0  0  0  # atno 17321 bound_to 7965
  139.6242  144.0846  152.2419 LP  0  0  0  0  0  0  0  0  0  0  0  0  # atno 17342 bound_to 10162
  140.0300  144.6088  150.7495 LP  0  0  0  0  0  0  0  0  0  0  0  0  # atno 17343 bound_to 10162
  156.9231  130.9689  151.3545 LP  0  0  0  0  0  0  0  0  0  0  0  0  # atno 17370 bound_to 10713
  157.5946  130.8468  149.8710 LP  0  0  0  0  0  0  0  0  0  0  0  0  # atno 17371 bound_to 10713
  140.8848  134.2568  157.5125 LP  0  0  0  0  0  0  0  0  0  0  0  0  # atno 17394 bound_to 11000
  139.8703  134.9632  156.4456 LP  0  0  0  0  0  0  0  0  0  0  0  0  # atno 17395 bound_to 11000

$$$$
