#       Name:                AV-unprocessed.smi:2440
#       Creating user name   scv26
#       Creation time:       Fri Mar 27 13:25:09 2020


#       File generated by GOLD software.
#

@<TRIPOS>MOLECULE
AV-unprocessed.smi:2440
    55    57     1
SMALL
NO_CHARGES


@<TRIPOS>ATOM
      1 ****        -4.6704  -2.9564  -0.2213 C.3            1 S1                 0.0000
      2 ****        -5.5084  -1.6895  -0.2324 C.ar           1 S1                 0.0000
      3 ****        -6.9172  -1.7871  -0.2317 C.ar           1 S1                 0.0000
      4 ****        -7.6747  -0.6700  -0.2441 N.pl3          1 S1                 1.0000
      5 ****        -7.1449   0.5707  -0.2626 C.ar           1 S1                 0.0000
      6 ****        -5.7460   0.7371  -0.2643 C.ar           1 S1                 0.0000
      7 ****        -4.9054  -0.4053  -0.2356 C.ar           1 S1                 0.0000
      8 ****        -3.4845  -0.3176  -0.2583 N.am           1 S1                 0.0000
      9 ****        -2.7026   0.6827   0.1832 C.2            1 S1                 0.0000
     10 ****        -3.1073   1.7128   0.7217 O.2            1 S1                 0.0000
     11 ****        -1.4051   0.4093  -0.0187 N.am           1 S1                 0.0000
     12 ****        -0.2841   1.2728   0.3454 C.3            1 S1                 0.0000
     13 ****         0.6023   1.5281  -0.8875 C.3            1 S1                 0.0000
     14 ****         1.8791   2.2990  -0.5002 C.3            1 S1                 0.0000
     15 ****         2.6647   1.5787   0.5432 N.4            1 S1                 1.0000
     16 ****         3.3631   0.3282   0.0829 C.3            1 S1                 0.0000
     17 ****         4.2512  -0.2815   1.2015 C.3            1 S1                 0.0000
     18 ****         5.0300  -1.5231   0.7393 C.3            1 S1                 0.0000
     19 ****         5.8892  -1.2179  -0.4908 C.3            1 S1                 0.0000
     20 ****         5.0158  -0.6708  -1.6232 C.3            1 S1                 0.0000
     21 ****         4.2358   0.5763  -1.1778 C.3            1 S1                 0.0000
     22 ****         1.8206   1.4278   1.7642 C.3            1 S1                 0.0000
     23 ****         0.5342   0.6272   1.4795 C.3            1 S1                 0.0000
     24 ****        -5.2992  -3.8473  -0.2171 H              1 S1                 0.0000
     25 ****        -4.0382  -2.9869   0.6666 H              1 S1                 0.0000
     26 ****        -4.0308  -3.0002  -1.1033 H              1 S1                 0.0000
     27 ****        -7.4606  -2.7209  -0.2237 H              1 S1                 0.0000
     28 ****        -7.8506   1.3884  -0.2819 H              1 S1                 0.0000
     29 ****        -5.3441   1.7382  -0.3009 H              1 S1                 0.0000
     30 ****        -3.0057  -1.1425  -0.5892 H              1 S1                 0.0000
     31 ****        -1.1722  -0.4679  -0.4613 H              1 S1                 0.0000
     32 ****        -0.6458   2.2402   0.6991 H              1 S1                 0.0000
     33 ****         0.8674   0.5850  -1.3667 H              1 S1                 0.0000
     34 ****         0.0428   2.0979  -1.6307 H              1 S1                 0.0000
     35 ****         2.4756   2.5395  -1.3775 H              1 S1                 0.0000
     36 ****         1.5923   3.2709  -0.0960 H              1 S1                 0.0000
     37 ****         2.6097  -0.4136  -0.1821 H              1 S1                 0.0000
     38 ****         4.9524   0.4704   1.5659 H              1 S1                 0.0000
     39 ****         3.6520  -0.5911   2.0558 H              1 S1                 0.0000
     40 ****         5.6620  -1.8872   1.5499 H              1 S1                 0.0000
     41 ****         4.3316  -2.3284   0.5076 H              1 S1                 0.0000
     42 ****         6.6617  -0.4919  -0.2336 H              1 S1                 0.0000
     43 ****         6.4060  -2.1200  -0.8196 H              1 S1                 0.0000
     44 ****         5.6377  -0.4303  -2.4860 H              1 S1                 0.0000
     45 ****         4.3173  -1.4415  -1.9521 H              1 S1                 0.0000
     46 ****         3.6232   0.8774  -2.0260 H              1 S1                 0.0000
     47 ****         4.9349   1.3919  -0.9881 H              1 S1                 0.0000
     48 ****         2.3704   0.9997   2.5991 H              1 S1                 0.0000
     49 ****         1.5430   2.4258   2.1068 H              1 S1                 0.0000
     50 ****        -0.0710   0.5752   2.3855 H              1 S1                 0.0000
     51 ****         0.7858  -0.4032   1.2262 H              1 S1                 0.0000
     52 ****         3.4097   2.2095   0.8034 H              1 S1                 0.0000
     53 ****        -8.6904  -0.7678  -0.2447 H              1 S1                 0.0000
     54 ****        -4.0879   1.8531   0.8592 LP             1 S1                 0.0000
     55 ****        -2.4556   2.4094   1.0218 LP             1 S1                 0.0000
@<TRIPOS>BOND
    1    1    2 1     
    2    1   24 1     
    3    1   25 1     
    4    1   26 1     
    5    2    7 ar    
    6    2    3 ar    
    7    3    4 ar    
    8    3   27 1     
    9    4    5 ar    
   10    4   53 1     
   11    5    6 ar    
   12    5   28 1     
   13    6    7 ar    
   14    6   29 1     
   15    7    8 1     
   16    8    9 am    
   17    8   30 1     
   18    9   10 2     
   19    9   11 am    
   20   11   12 1     
   21   11   31 1     
   22   12   23 1     
   23   12   13 1     
   24   12   32 1     
   25   13   14 1     
   26   13   33 1     
   27   13   34 1     
   28   14   15 1     
   29   14   35 1     
   30   14   36 1     
   31   15   16 1     
   32   15   22 1     
   33   15   52 1     
   34   16   21 1     
   35   16   17 1     
   36   16   37 1     
   37   17   18 1     
   38   17   38 1     
   39   17   39 1     
   40   18   19 1     
   41   18   40 1     
   42   18   41 1     
   43   19   20 1     
   44   19   42 1     
   45   19   43 1     
   46   20   21 1     
   47   20   44 1     
   48   20   45 1     
   49   21   46 1     
   50   21   47 1     
   51   22   23 1     
   52   22   48 1     
   53   22   49 1     
   54   23   50 1     
   55   23   51 1     
   56   10   54 1     
   57   10   55 1     
@<TRIPOS>SUBSTRUCTURE
      1 S1             1
@<TRIPOS>SET
LONE_PAIRS      STATIC     ATOMS    <user>   **** ""
2 54 55
DONOR_HYDROGENS      STATIC     ATOMS    <user>   **** ""
4 53 30 31 52
ATOM$BLUE        STATIC     ATOMS    COLORGROUP SYSTEM
2 54 55
ATOM$RED        STATIC     ATOMS    COLORGROUP SYSTEM
4 53 30 31 52
