AV-unprocessed.smi:3292|AV-procd|sdf|12627|dock1
  -GOLD-   2272018563D 1   1.00000     0.00000
 Structure written by MMmdl.
 38 39  0  0  0  0  0  0  0  0  1 V2000
  148.2585  137.0495  156.4030 C   0  0  0  0  0  0  0  0  0  0  0  0
  148.8847  136.0093  155.4647 C   0  0  2  0  0  0  0  0  0  0  0  0
  150.3446  136.3748  155.1170 C   0  0  0  0  0  0  0  0  0  0  0  0
  150.5637  137.8085  155.0453 N   0  0  0  0  0  0  0  0  0  0  0  0
  151.1785  138.6117  155.9966 C   0  0  0  0  0  0  0  0  0  0  0  0
  151.1785  139.8915  155.4893 C   0  0  0  0  0  0  0  0  0  0  0  0
  150.5645  139.9010  154.2388 N   0  0  0  0  0  0  0  0  0  0  0  0
  150.2221  138.6341  154.0459 C   0  0  0  0  0  0  0  0  0  0  0  0
  148.0717  135.9101  154.2530 N   0  0  0  0  0  0  0  0  0  0  0  0
  146.8115  135.4548  154.1980 C   0  0  0  0  0  0  0  0  0  0  0  0
  146.1467  135.1347  155.1837 O   0  0  0  0  0  0  0  0  0  0  0  0
  146.3799  135.3415  152.9353 N   0  0  0  0  0  0  0  0  0  0  0  0
  145.1147  134.7314  152.5416 C   0  0  0  0  0  0  0  0  0  0  0  0
  145.2934  133.7395  151.3739 C   0  0  1  0  0  0  0  0  0  0  0  0
  146.1554  132.5281  151.7136 C   0  0  0  0  0  0  0  0  0  0  0  0
  145.4268  131.3464  151.0650 C   0  0  0  0  0  0  0  0  0  0  0  0
  144.4444  131.9313  150.2234 O   0  0  0  0  0  0  0  0  0  0  0  0
  143.9950  133.1090  150.8696 C   0  0  0  0  0  0  0  0  0  0  0  0
  148.8243  137.1300  157.3315 H   0  0  0  0  0  0  0  0  0  0  0  0
  147.2355  136.7773  156.6647 H   0  0  0  0  0  0  0  0  0  0  0  0
  148.2339  138.0379  155.9423 H   0  0  0  0  0  0  0  0  0  0  0  0
  148.8787  135.0537  155.9924 H   0  0  0  0  0  0  0  0  0  0  0  0
  151.0313  135.9496  155.8508 H   0  0  0  0  0  0  0  0  0  0  0  0
  150.6179  135.9478  154.1513 H   0  0  0  0  0  0  0  0  0  0  0  0
  151.5637  138.2149  156.9243 H   0  0  0  0  0  0  0  0  0  0  0  0
  151.5704  140.7987  155.9245 H   0  0  0  0  0  0  0  0  0  0  0  0
  149.7224  138.2961  153.1499 H   0  0  0  0  0  0  0  0  0  0  0  0
  148.5257  136.1488  153.3834 H   0  0  0  0  0  0  0  0  0  0  0  0
  146.9958  135.6357  152.1914 H   0  0  0  0  0  0  0  0  0  0  0  0
  144.6608  134.2314  153.3988 H   0  0  0  0  0  0  0  0  0  0  0  0
  144.4316  135.5305  152.2524 H   0  0  0  0  0  0  0  0  0  0  0  0
  145.7617  134.2517  150.5316 H   0  0  0  0  0  0  0  0  0  0  0  0
  147.1609  132.6478  151.3089 H   0  0  0  0  0  0  0  0  0  0  0  0
  146.2475  132.3726  152.7892 H   0  0  0  0  0  0  0  0  0  0  0  0
  146.0971  130.6993  150.4991 H   0  0  0  0  0  0  0  0  0  0  0  0
  144.9303  130.7402  151.8243 H   0  0  0  0  0  0  0  0  0  0  0  0
  143.3324  132.8439  151.6956 H   0  0  0  0  0  0  0  0  0  0  0  0
  143.4496  133.7580  150.1841 H   0  0  0  0  0  0  0  0  0  0  0  0
  1  2  1  0  0  0  0
  1 19  1  0  0  0  0
  1 20  1  0  0  0  0
  1 21  1  0  0  0  0
  2  3  1  0  0  0  0
  2  9  1  0  0  0  0
  2 22  1  0  0  0  0
  3  4  1  0  0  0  0
  3 23  1  0  0  0  0
  3 24  1  0  0  0  0
  4  8  1  0  0  0  0
  4  5  1  0  0  0  0
  5  6  2  0  0  0  0
  5 25  1  0  0  0  0
  6  7  1  0  0  0  0
  6 26  1  0  0  0  0
  7  8  2  0  0  0  0
  8 27  1  0  0  0  0
  9 10  1  0  0  0  0
  9 28  1  0  0  0  0
 10 11  2  0  0  0  0
 10 12  1  0  0  0  0
 12 13  1  0  0  0  0
 12 29  1  0  0  0  0
 13 14  1  0  0  0  0
 13 30  1  0  0  0  0
 13 31  1  0  0  0  0
 14 18  1  0  0  0  0
 14 15  1  0  0  0  0
 14 32  1  0  0  0  0
 15 16  1  0  0  0  0
 15 33  1  0  0  0  0
 15 34  1  0  0  0  0
 16 17  1  0  0  0  0
 16 35  1  0  0  0  0
 16 36  1  0  0  0  0
 17 18  1  0  0  0  0
 18 37  1  0  0  0  0
 18 38  1  0  0  0  0
M  END
> <s_m_source_file>
AV-unprocessed.smi

> <i_m_source_file_index>
3292

> <i_lp_mmshare_version>
43012

> <i_f3d_flags>
0

> <s_epik_input>
W2NIXTFuW2NIXVtjSF1uMVtDSDJdW0NAQEhdKFtDSDNdKVtOSF1DKD1PKVtOSF1bQ0gyXVtDQEBIXTJbQ0gyXVtDSDJdT1tDSDJdMg==

> <s_epik_cmdline>
J2VwaWtfcHl0aG9uJywgJy1waCcsICc3LjAnLCAnLXRuJywgJzgnLCAnLW1hJywgJzIwMCcsICctbWV0YWxfYmluZGluZycsICctaW1hZScsICc8aW5maWxlLm1hZT4nLCAnLW9tYWUnLCAnPG91dGZpbGUubWFlPic=

> <r_lp_tautomer_probability>
1

> <r_epik_Ionization_Penalty>
0.621291

> <r_epik_Ionization_Penalty_Charging>
0.621234

> <r_epik_Ionization_Penalty_Neutral>
5.72199e-05

> <r_epik_State_Penalty>
0.637278

> <r_epik_Charging_Adjusted_Penalty>
1.25851

> <i_epik_Tot_Q>
0

> <i_epik_Tot_abs_Q>
0

> <r_epik_Metal_State_Penalty>
0.306757

> <b_epik_Metal_Only>
0

> <s_lp_Force_Field>
OPLS_2005

> <r_lp_Energy>
18.0695

> <b_lp_Chiralities_Consistent>
1

> <s_lp_Variant>
AV-unprocessed.smi:3292-7

> <Gold.Version>
5.8.1

> <Gold.Id.Protein>
6NUR|6NUR_protein|mol2

> <Gold.PLP.Fitness>
37.9039

> <Gold.PLP.PLP>
-26.0953

> <Gold.PLP.part.hbond>
-2.9124

> <Gold.PLP.part.metal>
0.0000

> <Gold.PLP.part.buried>
-4.6518

> <Gold.PLP.part.nonpolar>
-19.2488

> <Gold.PLP.part.repulsive>
0.3090

> <Gold.PLP.ligand.clash>
0.0000

> <Gold.PLP.ligand.torsion>
0.6813

> <Gold.PLP.Chemscore.Hbond>
2.8233

> <Gold.PLP.Chemscore.CHOScore>
1.5503

> <Gold.PLP.Chemscore.Metal>
0.0000

> <Gold.Chemscore.Hbonds>
donor molecule, donor type, donor heavy atom, donor atom, acceptor molecule, acceptor atom, score
      L1  H     9    28       P1  7948  1.00
      L1  H    12    29       P1  7948  0.81
      P1  H  7989  7998       L1     7  0.90
      L1  C     8    27       P1  7948  1.00
      L1  C     8    27       P1  7957  0.55

> <Gold.PLP.Chemscore.Internal.Correction>
0.0506

> <Gold.Rescore>
     Score         DG    S(hbond)    S(metal)    S(lipo)     H(rot)  DE(clash)    DE(int)     intcor
     14.96     -15.74       2.83        0.00      54.08       2.16       0.01       0.77       ----

> <Gold.Chemscore.Fitness>
14.9634

> <Gold.Chemscore.DG>
-15.7370

> <Gold.Chemscore.ZeroCoef>
-5.4800

> <Gold.Chemscore.Hbond>
2.8302

> <Gold.Chemscore.Metal>
0.0000

> <Gold.Chemscore.Lipo>
54.0847

> <Gold.Chemscore.Internal_Hbond>
0.0000

> <Gold.Chemscore.DEClash>
0.0073

> <Gold.Chemscore.DEInternal>
0.7662

> <Gold.Chemscore.Rot>
2.1577

> <Gold.Chemscore.Internal.Correction>
   9.000000E+99

> <Gold.Chemscore.Hbonds>
donor molecule, donor type, donor heavy atom, donor atom, acceptor molecule, acceptor atom, score
      L1  H     9    28       P1  7948  0.97
      L1  H    12    29       P1  7948  0.76
      P1  H  7989  7998       L1     7  0.18

> <Gold.Chemscore.Hbond.Weighted>
-9.4528

> <Gold.Chemscore.Metal.Weighted>
-0.0000

> <Gold.Chemscore.Lipo.Weighted>
-6.3279

> <Gold.Chemscore.Internal_Hbond.Weighted>
0.0000

> <Gold.Chemscore.DEClash.Weighted>
0.0073

> <Gold.Chemscore.DEInternal.Weighted>
0.7662

> <Gold.Chemscore.Rot.Weighted>
5.5237

> <Gold.Chemscore.Internal.Correction.Weighted>
   9.000000E+99

> <Gold.Protein.RotatedTorsions>
[ 6907 6896 6895 6894 ] final   52.80 input  -60.11 | X-H torsion
[ 7974 7965 7964 7962 ] final  -44.66 input  175.53 | X-H torsion
[ 8008 7997 7996 7995 ] final  -31.64 input   59.86 | X-H torsion
[ 10167 10162 10161 10158 ] final -169.57 input  -65.29 | X-H torsion
[ 10718 10713 10712 10709 ] final  119.06 input   66.30 | X-H torsion
[ 10763 10752 10751 10750 ] final  171.16 input  -60.55 | X-H torsion
[ 11005 11000 10999 10996 ] final -100.82 input  -57.11 | X-H torsion

> <Gold.Protein.ActiveResidues>
 VAL166  LYS551  ARG553  GLY616  TRP617  ASP618  TYR619  PRO620  LYS621  CYS622 
 ASP623  PHE694  ASN695  SER759  ASP760  ASP761  ALA762  ILE779  LEU786  VAL792 
 PHE793  MET794  SER795  GLU796  ALA797  LYS798  CYS799  TRP800  GLU811  SER814 

> <Gold.Protein.RotatedAtoms>
  152.3271  134.7307  160.0298 H   0  0  0  0  0  0  0  0  0  0  0  0  # atno 6907 bound_to 6896
  151.7736  133.3338  159.3459 H   0  0  0  0  0  0  0  0  0  0  0  0  # atno 6908 bound_to 6896
  150.7402  134.5927  159.6040 H   0  0  0  0  0  0  0  0  0  0  0  0  # atno 6909 bound_to 6896
  145.9898  140.7193  142.9322 H   0  0  0  0  0  0  0  0  0  0  0  0  # atno 7974 bound_to 7965
  154.4207  140.1759  156.1599 H   0  0  0  0  0  0  0  0  0  0  0  0  # atno 8008 bound_to 7997
  155.9846  140.3374  155.6671 H   0  0  0  0  0  0  0  0  0  0  0  0  # atno 8009 bound_to 7997
  155.6454  140.0684  157.2595 H   0  0  0  0  0  0  0  0  0  0  0  0  # atno 8010 bound_to 7997
  139.5914  144.1204  152.1639 H   0  0  0  0  0  0  0  0  0  0  0  0  # atno 10167 bound_to 10162
  157.5988  131.1054  150.7843 H   0  0  0  0  0  0  0  0  0  0  0  0  # atno 10718 bound_to 10713
  154.4080  135.2756  155.2055 H   0  0  0  0  0  0  0  0  0  0  0  0  # atno 10763 bound_to 10752
  154.4053  135.6035  153.5924 H   0  0  0  0  0  0  0  0  0  0  0  0  # atno 10764 bound_to 10752
  152.9831  135.5936  154.4357 H   0  0  0  0  0  0  0  0  0  0  0  0  # atno 10765 bound_to 10752
  141.1255  133.8429  157.1152 H   0  0  0  0  0  0  0  0  0  0  0  0  # atno 11005 bound_to 11000
  144.6885  140.3051  143.7257 LP  0  0  0  0  0  0  0  0  0  0  0  0  # atno 17320 bound_to 7965
  145.7646  139.1836  143.2247 LP  0  0  0  0  0  0  0  0  0  0  0  0  # atno 17321 bound_to 7965
  140.0780  144.5724  150.7143 LP  0  0  0  0  0  0  0  0  0  0  0  0  # atno 17342 bound_to 10162
  140.7176  143.2559  151.4383 LP  0  0  0  0  0  0  0  0  0  0  0  0  # atno 17343 bound_to 10162
  156.8248  130.4996  149.5338 LP  0  0  0  0  0  0  0  0  0  0  0  0  # atno 17370 bound_to 10713
  156.1056  130.6002  150.9965 LP  0  0  0  0  0  0  0  0  0  0  0  0  # atno 17371 bound_to 10713
  140.0250  134.9928  157.0669 LP  0  0  0  0  0  0  0  0  0  0  0  0  # atno 17394 bound_to 11000
  140.4377  134.1714  155.7172 LP  0  0  0  0  0  0  0  0  0  0  0  0  # atno 17395 bound_to 11000

$$$$
