AV-unprocessed.smi:829|AV-procd|sdf|3866|dock8
  -GOLD-   22720 1313D 1   1.00000     0.00000
 Structure written by MMmdl.
 49 51  0  0  0  0  0  0  0  0  2 V2000
  145.8651  139.1619  154.1603 O   0  0  0  0  0  0  0  0  0  0  0  0
  146.8118  138.8555  153.4361 C   0  0  0  0  0  0  0  0  0  0  0  0
  146.7982  137.9018  152.4883 N   0  0  0  0  0  0  0  0  0  0  0  0
  145.7354  137.0445  152.0902 C   0  0  0  0  0  0  0  0  0  0  0  0
  145.9068  136.3066  150.9004 C   0  0  0  0  0  0  0  0  0  0  0  0
  144.8689  135.4555  150.4714 C   0  0  0  0  0  0  0  0  0  0  0  0
  143.7056  135.3095  151.1395 N   0  0  0  0  0  0  0  0  0  0  0  0
  143.5378  136.0238  152.2723 C   0  0  0  0  0  0  0  0  0  0  0  0
  144.5108  136.9035  152.7879 C   0  0  0  0  0  0  0  0  0  0  0  0
  148.0147  139.4436  153.5128 N   0  0  0  0  0  0  0  0  0  0  0  0
  148.3709  140.5061  154.4488 C   0  0  2  0  0  0  0  0  0  0  0  0
  149.8995  140.6512  154.5595 C   0  0  0  0  0  0  0  0  0  0  0  0
  150.2843  141.6986  155.6182 C   0  0  0  0  0  0  0  0  0  0  0  0
  149.6887  141.3712  156.9394 N   0  3  1  0  0  0  0  0  0  0  0  0
  150.1502  142.2756  158.0243 C   0  0  0  0  0  0  0  0  0  0  0  0
  151.6185  142.0100  158.4067 C   0  0  0  0  0  0  0  0  0  0  0  0
  151.8755  140.6819  159.1252 C   0  0  0  0  0  0  0  0  0  0  0  0
  153.2326  140.8614  159.8120 C   0  0  0  0  0  0  0  0  0  0  0  0
  153.4089  142.3728  160.0210 C   0  0  0  0  0  0  0  0  0  0  0  0
  152.1801  143.0394  159.3915 C   0  0  0  0  0  0  0  0  0  0  0  0
  148.2081  141.2674  156.8596 C   0  0  0  0  0  0  0  0  0  0  0  0
  147.7823  140.2027  155.8356 C   0  0  0  0  0  0  0  0  0  0  0  0
  147.6763  137.7369  152.0187 H   0  0  0  0  0  0  0  0  0  0  0  0
  146.8171  136.3849  150.3240 H   0  0  0  0  0  0  0  0  0  0  0  0
  144.9764  134.8770  149.5658 H   0  0  0  0  0  0  0  0  0  0  0  0
  142.5950  135.8939  152.7832 H   0  0  0  0  0  0  0  0  0  0  0  0
  144.2900  137.4489  153.6915 H   0  0  0  0  0  0  0  0  0  0  0  0
  148.7382  139.1291  152.8826 H   0  0  0  0  0  0  0  0  0  0  0  0
  147.9473  141.4497  154.0986 H   0  0  0  0  0  0  0  0  0  0  0  0
  150.3453  139.6907  154.8225 H   0  0  0  0  0  0  0  0  0  0  0  0
  150.3233  140.9339  153.5950 H   0  0  0  0  0  0  0  0  0  0  0  0
  151.3713  141.7338  155.7042 H   0  0  0  0  0  0  0  0  0  0  0  0
  149.9562  142.6909  155.3043 H   0  0  0  0  0  0  0  0  0  0  0  0
  150.0782  143.3121  157.6907 H   0  0  0  0  0  0  0  0  0  0  0  0
  149.4969  142.2033  158.8954 H   0  0  0  0  0  0  0  0  0  0  0  0
  152.2329  142.0406  157.5050 H   0  0  0  0  0  0  0  0  0  0  0  0
  151.1078  140.5122  159.8816 H   0  0  0  0  0  0  0  0  0  0  0  0
  151.8691  139.8283  158.4469 H   0  0  0  0  0  0  0  0  0  0  0  0
  153.2844  140.3073  160.7499 H   0  0  0  0  0  0  0  0  0  0  0  0
  154.0285  140.4858  159.1675 H   0  0  0  0  0  0  0  0  0  0  0  0
  153.4986  142.6292  161.0772 H   0  0  0  0  0  0  0  0  0  0  0  0
  154.3202  142.7112  159.5260 H   0  0  0  0  0  0  0  0  0  0  0  0
  152.4230  143.9878  158.9113 H   0  0  0  0  0  0  0  0  0  0  0  0
  151.4447  143.2462  160.1703 H   0  0  0  0  0  0  0  0  0  0  0  0
  147.7955  141.0117  157.8348 H   0  0  0  0  0  0  0  0  0  0  0  0
  147.7884  142.2370  156.5863 H   0  0  0  0  0  0  0  0  0  0  0  0
  146.6938  140.1609  155.7790 H   0  0  0  0  0  0  0  0  0  0  0  0
  148.1131  139.2199  156.1758 H   0  0  0  0  0  0  0  0  0  0  0  0
  150.0338  140.4524  157.1773 H   0  0  0  0  0  0  0  0  0  0  0  0
  1  2  2  0  0  0  0
  2  3  1  0  0  0  0
  2 10  1  0  0  0  0
  3  4  1  0  0  0  0
  3 23  1  0  0  0  0
  4  9  1  0  0  0  0
  4  5  2  0  0  0  0
  5  6  1  0  0  0  0
  5 24  1  0  0  0  0
  6  7  2  0  0  0  0
  6 25  1  0  0  0  0
  7  8  1  0  0  0  0
  8  9  2  0  0  0  0
  8 26  1  0  0  0  0
  9 27  1  0  0  0  0
 10 11  1  0  0  0  0
 10 28  1  0  0  0  0
 11 22  1  0  0  0  0
 11 12  1  0  0  0  0
 11 29  1  0  0  0  0
 12 13  1  0  0  0  0
 12 30  1  0  0  0  0
 12 31  1  0  0  0  0
 13 14  1  0  0  0  0
 13 32  1  0  0  0  0
 13 33  1  0  0  0  0
 14 15  1  0  0  0  0
 14 21  1  0  0  0  0
 14 49  1  0  0  0  0
 15 16  1  0  0  0  0
 15 34  1  0  0  0  0
 15 35  1  0  0  0  0
 16 20  1  0  0  0  0
 16 17  1  0  0  0  0
 16 36  1  0  0  0  0
 17 18  1  0  0  0  0
 17 37  1  0  0  0  0
 17 38  1  0  0  0  0
 18 19  1  0  0  0  0
 18 39  1  0  0  0  0
 18 40  1  0  0  0  0
 19 20  1  0  0  0  0
 19 41  1  0  0  0  0
 19 42  1  0  0  0  0
 20 43  1  0  0  0  0
 20 44  1  0  0  0  0
 21 22  1  0  0  0  0
 21 45  1  0  0  0  0
 21 46  1  0  0  0  0
 22 47  1  0  0  0  0
 22 48  1  0  0  0  0
M  CHG  1  14   1
M  END
> <s_m_source_file>
AV-unprocessed.smi

> <i_m_source_file_index>
829

> <i_lp_mmshare_version>
43012

> <i_f3d_flags>
0

> <s_epik_input>
W2NIXTFbY0hdbltjSF1bY0hdYzFbTkhdQyg9TylbTkhdW0NIXTJbQ0gyXVtDSDJdTihbQ0gyXVtDSDJdMilbQ0gyXVtDSF0zW0NIMl1bQ0gyXVtDSDJdW0NIMl0z

> <s_epik_cmdline>
J2VwaWtfcHl0aG9uJywgJy1waCcsICc3LjAnLCAnLXRuJywgJzgnLCAnLW1hJywgJzIwMCcsICctbWV0YWxfYmluZGluZycsICctaW1hZScsICc8aW5maWxlLm1hZT4nLCAnLW9tYWUnLCAnPG91dGZpbGUubWFlPic=

> <r_epik_Ionization_Penalty>
0.101981

> <r_epik_Ionization_Penalty_Charging>
0.00207989

> <r_epik_Ionization_Penalty_Neutral>
0.0999008

> <r_epik_State_Penalty>
0.0935668

> <r_epik_Charging_Adjusted_Penalty>
0.0956467

> <i_epik_Tot_Q>
1

> <i_epik_Tot_abs_Q>
1

> <r_epik_Metal_State_Penalty>
0.0787682

> <b_epik_Metal_Only>
0

> <s_lp_Force_Field>
OPLS_2005

> <r_lp_Energy>
43.2002

> <b_lp_Chiralities_Consistent>
1

> <s_lp_Variant>
AV-unprocessed.smi:829-1

> <Gold.Version>
5.8.1

> <Gold.Id.Protein>
6NUR|6NUR_protein|mol2

> <Gold.PLP.Fitness>
43.0436

> <Gold.PLP.PLP>
-37.0947

> <Gold.PLP.part.hbond>
-2.0000

> <Gold.PLP.part.metal>
0.0000

> <Gold.PLP.part.buried>
-2.2784

> <Gold.PLP.part.nonpolar>
-33.2283

> <Gold.PLP.part.repulsive>
0.6770

> <Gold.PLP.ligand.clash>
0.0000

> <Gold.PLP.ligand.torsion>
0.4275

> <Gold.PLP.Chemscore.Hbond>
1.2530

> <Gold.PLP.Chemscore.CHOScore>
1.0000

> <Gold.PLP.Chemscore.Metal>
0.0000

> <Gold.Chemscore.Hbonds>
donor molecule, donor type, donor heavy atom, donor atom, acceptor molecule, acceptor atom, score
      L1  H     3    23       P1  7948  0.75
      L1  H    10    28       P1  7957  0.49
      L1  C     6    25       P1  7921  1.00

> <Gold.PLP.Chemscore.Internal.Correction>
0.0447

> <Gold.Rescore>
     Score         DG    S(hbond)    S(metal)    S(lipo)     H(rot)  DE(clash)    DE(int)     intcor
     14.95     -18.34       1.20        0.00     104.97       1.35       0.50       2.89       ----

> <Gold.Chemscore.Fitness>
14.9527

> <Gold.Chemscore.DG>
-18.3407

> <Gold.Chemscore.ZeroCoef>
-5.4800

> <Gold.Chemscore.Hbond>
1.2046

> <Gold.Chemscore.Metal>
0.0000

> <Gold.Chemscore.Lipo>
104.9735

> <Gold.Chemscore.Internal_Hbond>
0.0000

> <Gold.Chemscore.DEClash>
0.4995

> <Gold.Chemscore.DEInternal>
2.8884

> <Gold.Chemscore.Rot>
1.3455

> <Gold.Chemscore.Internal.Correction>
   9.000000E+99

> <Gold.Chemscore.Hbonds>
donor molecule, donor type, donor heavy atom, donor atom, acceptor molecule, acceptor atom, score
      L1  H     3    23       P1  7948  0.75
      L1  H    10    28       P1  7957  0.48

> <Gold.Chemscore.Hbond.Weighted>
-4.0233

> <Gold.Chemscore.Metal.Weighted>
-0.0000

> <Gold.Chemscore.Lipo.Weighted>
-12.2819

> <Gold.Chemscore.Internal_Hbond.Weighted>
0.0000

> <Gold.Chemscore.DEClash.Weighted>
0.4995

> <Gold.Chemscore.DEInternal.Weighted>
2.8884

> <Gold.Chemscore.Rot.Weighted>
3.4445

> <Gold.Chemscore.Internal.Correction.Weighted>
   9.000000E+99

> <Gold.Protein.RotatedTorsions>
[ 6907 6896 6895 6894 ] final   -4.55 input  -60.11 | X-H torsion
[ 7974 7965 7964 7962 ] final  -88.58 input  175.53 | X-H torsion
[ 8008 7997 7996 7995 ] final   67.68 input   59.86 | X-H torsion
[ 10167 10162 10161 10158 ] final   -6.17 input  -65.29 | X-H torsion
[ 10718 10713 10712 10709 ] final -166.29 input   66.30 | X-H torsion
[ 10763 10752 10751 10750 ] final  149.23 input  -60.55 | X-H torsion
[ 11005 11000 10999 10996 ] final -125.97 input  -57.11 | X-H torsion

> <Gold.Protein.ActiveResidues>
 VAL166  LYS551  ARG553  GLY616  TRP617  ASP618  TYR619  PRO620  LYS621  CYS622 
 ASP623  PHE694  ASN695  SER759  ASP760  ASP761  ALA762  ILE779  LEU786  VAL792 
 PHE793  MET794  SER795  GLU796  ALA797  LYS798  CYS799  TRP800  GLU811  SER814 

> <Gold.Protein.RotatedAtoms>
  151.4959  135.1059  159.9815 H   0  0  0  0  0  0  0  0  0  0  0  0  # atno 6907 bound_to 6896
  152.4722  133.8051  159.6984 H   0  0  0  0  0  0  0  0  0  0  0  0  # atno 6908 bound_to 6896
  150.8737  133.7406  159.2979 H   0  0  0  0  0  0  0  0  0  0  0  0  # atno 6909 bound_to 6896
  145.4513  140.9560  143.2021 H   0  0  0  0  0  0  0  0  0  0  0  0  # atno 7974 bound_to 7965
  155.6966  140.3495  155.4916 H   0  0  0  0  0  0  0  0  0  0  0  0  # atno 8008 bound_to 7997
  155.9477  140.1113  157.1025 H   0  0  0  0  0  0  0  0  0  0  0  0  # atno 8009 bound_to 7997
  154.4115  140.1200  156.4997 H   0  0  0  0  0  0  0  0  0  0  0  0  # atno 8010 bound_to 7997
  140.6988  143.6225  150.8599 H   0  0  0  0  0  0  0  0  0  0  0  0  # atno 10167 bound_to 10162
  156.6657  130.9064  151.3036 H   0  0  0  0  0  0  0  0  0  0  0  0  # atno 10718 bound_to 10713
  154.0677  135.2869  155.3313 H   0  0  0  0  0  0  0  0  0  0  0  0  # atno 10763 bound_to 10752
  154.6767  135.5279  153.8212 H   0  0  0  0  0  0  0  0  0  0  0  0  # atno 10764 bound_to 10752
  153.0497  135.6571  154.0861 H   0  0  0  0  0  0  0  0  0  0  0  0  # atno 10765 bound_to 10752
  140.9719  134.0793  157.3860 H   0  0  0  0  0  0  0  0  0  0  0  0  # atno 11005 bound_to 11000
  144.8060  139.6051  143.7050 LP  0  0  0  0  0  0  0  0  0  0  0  0  # atno 17320 bound_to 7965
  146.2503  139.6185  142.9432 LP  0  0  0  0  0  0  0  0  0  0  0  0  # atno 17321 bound_to 7965
  139.9945  143.5810  152.2898 LP  0  0  0  0  0  0  0  0  0  0  0  0  # atno 17342 bound_to 10162
  139.6478  144.7659  151.2209 LP  0  0  0  0  0  0  0  0  0  0  0  0  # atno 17343 bound_to 10162
  157.7094  130.9423  150.1039 LP  0  0  0  0  0  0  0  0  0  0  0  0  # atno 17370 bound_to 10713
  156.1977  130.3658  149.8828 LP  0  0  0  0  0  0  0  0  0  0  0  0  # atno 17371 bound_to 10713
  139.8915  135.0119  156.6798 LP  0  0  0  0  0  0  0  0  0  0  0  0  # atno 17394 bound_to 11000
  140.7316  133.9054  155.8215 LP  0  0  0  0  0  0  0  0  0  0  0  0  # atno 17395 bound_to 11000

$$$$
