AV-unprocessed.smi:3116|AV-procd|sdf|11877|dock8
  -GOLD-   2272017263D 1   1.00000     0.00000
 Structure written by MMmdl.
 33 33  0  0  0  0  0  0  0  0  1 V2000
  149.5169  137.6566  156.5335 C   0  0  0  0  0  0  0  0  0  0  0  0
  149.5562  139.1805  156.3344 C   0  0  1  0  0  0  0  0  0  0  0  0
  150.4822  139.7795  157.3165 N   0  0  0  0  0  0  0  0  0  0  0  0
  150.5045  141.2412  157.4239 C   0  0  1  0  0  0  0  0  0  0  0  0
  149.0650  141.7565  157.6410 C   0  0  0  0  0  0  0  0  0  0  0  0
  151.4723  141.6126  158.5811 C   0  0  1  0  0  0  0  0  0  0  0  0
  152.8994  141.0777  158.3475 C   0  0  0  0  0  0  0  0  0  0  0  0
  151.5113  143.0486  158.8331 N   0  0  0  0  0  0  0  0  0  0  0  0
  150.9395  144.0596  158.0884 C   0  0  0  0  0  0  0  0  0  0  0  0
  151.2442  145.2418  158.6998 C   0  0  0  0  0  0  0  0  0  0  0  0
  152.0165  144.8489  159.8280 C   0  0  0  0  0  0  0  0  0  0  0  0
  152.1766  143.5379  159.9048 N   0  0  0  0  0  0  0  0  0  0  0  0
  149.9006  139.5200  154.8748 C   0  0  0  0  0  0  0  0  0  0  0  0
  149.0156  139.1613  153.9414 N   0  0  0  0  0  0  0  0  0  0  0  0
  150.9397  140.1154  154.5963 O   0  0  0  0  0  0  0  0  0  0  0  0
  148.8329  137.1815  155.8292 H   0  0  0  0  0  0  0  0  0  0  0  0
  149.1759  137.4030  157.5378 H   0  0  0  0  0  0  0  0  0  0  0  0
  150.5013  137.2067  156.3965 H   0  0  0  0  0  0  0  0  0  0  0  0
  148.5507  139.5482  156.5415 H   0  0  0  0  0  0  0  0  0  0  0  0
  150.3742  139.3703  158.2331 H   0  0  0  0  0  0  0  0  0  0  0  0
  150.8975  141.6934  156.5134 H   0  0  0  0  0  0  0  0  0  0  0  0
  149.0322  142.8435  157.7114 H   0  0  0  0  0  0  0  0  0  0  0  0
  148.6330  141.3531  158.5574 H   0  0  0  0  0  0  0  0  0  0  0  0
  148.4074  141.4873  156.8152 H   0  0  0  0  0  0  0  0  0  0  0  0
  151.0967  141.1532  159.4972 H   0  0  0  0  0  0  0  0  0  0  0  0
  152.9128  139.9897  158.2817 H   0  0  0  0  0  0  0  0  0  0  0  0
  153.5620  141.3608  159.1657 H   0  0  0  0  0  0  0  0  0  0  0  0
  153.3270  141.4675  157.4231 H   0  0  0  0  0  0  0  0  0  0  0  0
  150.3704  143.8561  157.1933 H   0  0  0  0  0  0  0  0  0  0  0  0
  150.9586  146.2354  158.3884 H   0  0  0  0  0  0  0  0  0  0  0  0
  152.4631  145.4731  160.5877 H   0  0  0  0  0  0  0  0  0  0  0  0
  149.2000  139.3600  152.9690 H   0  0  0  0  0  0  0  0  0  0  0  0
  148.1658  138.6887  154.2131 H   0  0  0  0  0  0  0  0  0  0  0  0
  1  2  1  0  0  0  0
  1 16  1  0  0  0  0
  1 17  1  0  0  0  0
  1 18  1  0  0  0  0
  2  3  1  0  0  0  0
  2 13  1  0  0  0  0
  2 19  1  0  0  0  0
  3  4  1  0  0  0  0
  3 20  1  0  0  0  0
  4  5  1  0  0  0  0
  4  6  1  0  0  0  0
  4 21  1  0  0  0  0
  5 22  1  0  0  0  0
  5 23  1  0  0  0  0
  5 24  1  0  0  0  0
  6  7  1  0  0  0  0
  6  8  1  0  0  0  0
  6 25  1  0  0  0  0
  7 26  1  0  0  0  0
  7 27  1  0  0  0  0
  7 28  1  0  0  0  0
  8 12  1  0  0  0  0
  8  9  1  0  0  0  0
  9 10  2  0  0  0  0
  9 29  1  0  0  0  0
 10 11  1  0  0  0  0
 10 30  1  0  0  0  0
 11 12  2  0  0  0  0
 11 31  1  0  0  0  0
 13 14  1  0  0  0  0
 13 15  2  0  0  0  0
 14 32  1  0  0  0  0
 14 33  1  0  0  0  0
M  END
> <s_m_source_file>
AV-unprocessed.smi

> <i_m_source_file_index>
3116

> <i_lp_mmshare_version>
43012

> <i_f3d_flags>
0

> <s_epik_input>
W05IMl1DKD1PKVtDQEhdKFtDSDNdKVtOSF1bQ0BIXShbQ0gzXSlbQ0BIXShbQ0gzXSluMVtjSF1bY0hdW2NIXW4x

> <s_epik_cmdline>
J2VwaWtfcHl0aG9uJywgJy1waCcsICc3LjAnLCAnLXRuJywgJzgnLCAnLW1hJywgJzIwMCcsICctbWV0YWxfYmluZGluZycsICctaW1hZScsICc8aW5maWxlLm1hZT4nLCAnLW9tYWUnLCAnPG91dGZpbGUubWFlPic=

> <r_lp_tautomer_probability>
1

> <r_epik_Ionization_Penalty>
0.865977

> <r_epik_Ionization_Penalty_Charging>
0

> <r_epik_Ionization_Penalty_Neutral>
0.865977

> <r_epik_State_Penalty>
0.901888

> <r_epik_Charging_Adjusted_Penalty>
0.901888

> <i_epik_Tot_Q>
0

> <i_epik_Tot_abs_Q>
0

> <r_epik_Metal_State_Penalty>
0.901181

> <b_epik_Metal_Only>
0

> <s_lp_Force_Field>
OPLS_2005

> <r_lp_Energy>
8.45698

> <b_lp_Chiralities_Consistent>
1

> <s_lp_Variant>
AV-unprocessed.smi:3116-16

> <Gold.Version>
5.8.1

> <Gold.Id.Protein>
6NUR|6NUR_protein|mol2

> <Gold.PLP.Fitness>
35.8466

> <Gold.PLP.PLP>
-27.2301

> <Gold.PLP.part.hbond>
-1.9679

> <Gold.PLP.part.metal>
0.0000

> <Gold.PLP.part.buried>
-5.3814

> <Gold.PLP.part.nonpolar>
-19.5121

> <Gold.PLP.part.repulsive>
0.1933

> <Gold.PLP.ligand.clash>
0.0000

> <Gold.PLP.ligand.torsion>
0.2021

> <Gold.PLP.Chemscore.Hbond>
2.0000

> <Gold.PLP.Chemscore.CHOScore>
0.9804

> <Gold.PLP.Chemscore.Metal>
0.0000

> <Gold.Chemscore.Hbonds>
donor molecule, donor type, donor heavy atom, donor atom, acceptor molecule, acceptor atom, score
      L1  H    14    32       P1  7957  1.00
      P1  H  7989  7998       L1    15  0.93
      L1  C     9    29       P1  8028  1.00

> <Gold.PLP.Chemscore.Internal.Correction>
0.0794

> <Gold.Rescore>
     Score         DG    S(hbond)    S(metal)    S(lipo)     H(rot)  DE(clash)    DE(int)     intcor
     13.37     -13.83       1.99        0.00      66.63       2.38       0.03       0.43       ----

> <Gold.Chemscore.Fitness>
13.3660

> <Gold.Chemscore.DG>
-13.8287

> <Gold.Chemscore.ZeroCoef>
-5.4800

> <Gold.Chemscore.Hbond>
1.9927

> <Gold.Chemscore.Metal>
0.0000

> <Gold.Chemscore.Lipo>
66.6250

> <Gold.Chemscore.Internal_Hbond>
0.0000

> <Gold.Chemscore.DEClash>
0.0343

> <Gold.Chemscore.DEInternal>
0.4284

> <Gold.Chemscore.Rot>
2.3836

> <Gold.Chemscore.Internal.Correction>
   9.000000E+99

> <Gold.Chemscore.Hbonds>
donor molecule, donor type, donor heavy atom, donor atom, acceptor molecule, acceptor atom, score
      L1  H    14    32       P1  7957  0.98
      P1  H  7989  7998       L1    15  0.89

> <Gold.Chemscore.Hbond.Weighted>
-6.6556

> <Gold.Chemscore.Metal.Weighted>
-0.0000

> <Gold.Chemscore.Lipo.Weighted>
-7.7951

> <Gold.Chemscore.Internal_Hbond.Weighted>
0.0000

> <Gold.Chemscore.DEClash.Weighted>
0.0343

> <Gold.Chemscore.DEInternal.Weighted>
0.4284

> <Gold.Chemscore.Rot.Weighted>
6.1020

> <Gold.Chemscore.Internal.Correction.Weighted>
   9.000000E+99

> <Gold.Protein.RotatedTorsions>
[ 6907 6896 6895 6894 ] final  166.22 input  -60.11 | X-H torsion
[ 7974 7965 7964 7962 ] final -150.75 input  175.53 | X-H torsion
[ 8008 7997 7996 7995 ] final  117.37 input   59.86 | X-H torsion
[ 10167 10162 10161 10158 ] final  -89.38 input  -65.29 | X-H torsion
[ 10718 10713 10712 10709 ] final   31.03 input   66.30 | X-H torsion
[ 10763 10752 10751 10750 ] final   12.10 input  -60.55 | X-H torsion
[ 11005 11000 10999 10996 ] final   68.73 input  -57.11 | X-H torsion

> <Gold.Protein.ActiveResidues>
 VAL166  LYS551  ARG553  GLY616  TRP617  ASP618  TYR619  PRO620  LYS621  CYS622 
 ASP623  PHE694  ASN695  SER759  ASP760  ASP761  ALA762  ILE779  LEU786  VAL792 
 PHE793  MET794  SER795  GLU796  ALA797  LYS798  CYS799  TRP800  GLU811  SER814 

> <Gold.Protein.RotatedAtoms>
  151.8822  133.3498  159.3769 H   0  0  0  0  0  0  0  0  0  0  0  0  # atno 6907 bound_to 6896
  150.7124  134.5007  159.5569 H   0  0  0  0  0  0  0  0  0  0  0  0  # atno 6908 bound_to 6896
  152.2561  134.8083  160.0489 H   0  0  0  0  0  0  0  0  0  0  0  0  # atno 6909 bound_to 6896
  144.7889  140.4889  143.5786 H   0  0  0  0  0  0  0  0  0  0  0  0  # atno 7974 bound_to 7965
  156.2490  140.2898  156.0667 H   0  0  0  0  0  0  0  0  0  0  0  0  # atno 8008 bound_to 7997
  155.1716  140.0402  157.2881 H   0  0  0  0  0  0  0  0  0  0  0  0  # atno 8009 bound_to 7997
  154.6322  140.2502  155.7427 H   0  0  0  0  0  0  0  0  0  0  0  0  # atno 8010 bound_to 7997
  140.3653  143.2821  151.9565 H   0  0  0  0  0  0  0  0  0  0  0  0  # atno 10167 bound_to 10162
  157.2672  130.7190  149.6485 H   0  0  0  0  0  0  0  0  0  0  0  0  # atno 10718 bound_to 10713
  153.1858  135.6835  153.8418 H   0  0  0  0  0  0  0  0  0  0  0  0  # atno 10763 bound_to 10752
  153.7734  135.3193  155.3356 H   0  0  0  0  0  0  0  0  0  0  0  0  # atno 10764 bound_to 10752
  154.8087  135.4731  154.0557 H   0  0  0  0  0  0  0  0  0  0  0  0  # atno 10765 bound_to 10752
  139.9694  134.6925  156.0477 H   0  0  0  0  0  0  0  0  0  0  0  0  # atno 11005 bound_to 11000
  145.5847  139.1491  143.3216 LP  0  0  0  0  0  0  0  0  0  0  0  0  # atno 17320 bound_to 7965
  146.2133  140.5975  142.9050 LP  0  0  0  0  0  0  0  0  0  0  0  0  # atno 17321 bound_to 7965
  139.4809  144.5956  151.7697 LP  0  0  0  0  0  0  0  0  0  0  0  0  # atno 17342 bound_to 10162
  140.5086  144.1059  150.5989 LP  0  0  0  0  0  0  0  0  0  0  0  0  # atno 17343 bound_to 10162
  155.9663  130.4379  150.5194 LP  0  0  0  0  0  0  0  0  0  0  0  0  # atno 17370 bound_to 10713
  157.3111  131.0664  151.2000 LP  0  0  0  0  0  0  0  0  0  0  0  0  # atno 17371 bound_to 10713
  141.1374  133.6572  156.3633 LP  0  0  0  0  0  0  0  0  0  0  0  0  # atno 17394 bound_to 11000
  140.5325  134.6199  157.5354 LP  0  0  0  0  0  0  0  0  0  0  0  0  # atno 17395 bound_to 11000

$$$$
