AV-unprocessed.smi:2079|AV-procd|sdf|8479|dock6
  -GOLD-   2272011183D 1   1.00000     0.00000
 Structure written by MMmdl.
 41 42  0  0  0  0  0  0  0  0  3 V2000
  149.1649  140.7886  154.3068 C   0  0  0  0  0  0  0  0  0  0  0  0
  149.9581  139.5276  154.3501 C   0  0  0  0  0  0  0  0  0  0  0  0
  149.6085  138.2162  154.5046 C   0  0  0  0  0  0  0  0  0  0  0  0
  150.8565  137.5380  154.4457 C   0  0  0  0  0  0  0  0  0  0  0  0
  151.0398  136.2137  154.5619 N   0  5  0  0  0  0  0  0  0  0  0  0
  150.0105  135.4134  154.9221 C   0  0  0  0  0  0  0  0  0  0  0  0
  149.1139  135.6868  155.7236 O   0  0  0  0  0  0  0  0  0  0  0  0
  150.0197  134.2188  154.3165 N   0  0  0  0  0  0  0  0  0  0  0  0
  149.0262  133.1733  154.5171 C   0  0  0  0  0  0  0  0  0  0  0  0
  149.1697  132.0819  153.4429 C   0  0  0  0  0  0  0  0  0  0  0  0
  147.9184  131.8936  152.6545 N   0  3  2  0  0  0  0  0  0  0  0  0
  147.3950  133.1983  152.1553 C   0  0  0  0  0  0  0  0  0  0  0  0
  146.1943  133.0175  151.2172 C   0  0  0  0  0  0  0  0  0  0  0  0
  145.0748  132.2568  151.9268 C   0  0  0  0  0  0  0  0  0  0  0  0
  145.6179  130.9206  152.4393 C   0  0  0  0  0  0  0  0  0  0  0  0
  146.8528  131.1000  153.3522 C   0  0  1  0  0  0  0  0  0  0  0  0
  147.3280  129.7012  153.8006 C   0  0  0  0  0  0  0  0  0  0  0  0
  151.8753  138.3664  154.2876 N   0  0  0  0  0  0  0  0  0  0  0  0
  151.3071  139.6440  154.2185 O   0  0  0  0  0  0  0  0  0  0  0  0
  148.9165  141.1217  155.3144 H   0  0  0  0  0  0  0  0  0  0  0  0
  148.2338  140.6403  153.7599 H   0  0  0  0  0  0  0  0  0  0  0  0
  149.7219  141.5855  153.8139 H   0  0  0  0  0  0  0  0  0  0  0  0
  148.6180  137.8064  154.6351 H   0  0  0  0  0  0  0  0  0  0  0  0
  150.7695  134.0308  153.6669 H   0  0  0  0  0  0  0  0  0  0  0  0
  149.1558  132.7681  155.5203 H   0  0  0  0  0  0  0  0  0  0  0  0
  148.0287  133.6134  154.4713 H   0  0  0  0  0  0  0  0  0  0  0  0
  149.9965  132.3878  152.8075 H   0  0  0  0  0  0  0  0  0  0  0  0
  149.4700  131.1335  153.8914 H   0  0  0  0  0  0  0  0  0  0  0  0
  147.1112  133.8233  153.0036 H   0  0  0  0  0  0  0  0  0  0  0  0
  148.1665  133.7433  151.6141 H   0  0  0  0  0  0  0  0  0  0  0  0
  145.8305  133.9905  150.8852 H   0  0  0  0  0  0  0  0  0  0  0  0
  146.5027  132.4777  150.3207 H   0  0  0  0  0  0  0  0  0  0  0  0
  144.6896  132.8477  152.7587 H   0  0  0  0  0  0  0  0  0  0  0  0
  144.2398  132.0896  151.2458 H   0  0  0  0  0  0  0  0  0  0  0  0
  144.8266  130.3970  152.9774 H   0  0  0  0  0  0  0  0  0  0  0  0
  145.8787  130.2887  151.5887 H   0  0  0  0  0  0  0  0  0  0  0  0
  146.5447  131.6560  154.2393 H   0  0  0  0  0  0  0  0  0  0  0  0
  146.4852  129.0900  154.1249 H   0  0  0  0  0  0  0  0  0  0  0  0
  148.0081  129.7404  154.6504 H   0  0  0  0  0  0  0  0  0  0  0  0
  147.8234  129.1684  152.9882 H   0  0  0  0  0  0  0  0  0  0  0  0
  148.1781  131.3521  151.8424 H   0  0  0  0  0  0  0  0  0  0  0  0
  1  2  1  0  0  0  0
  1 20  1  0  0  0  0
  1 21  1  0  0  0  0
  1 22  1  0  0  0  0
  2 19  1  0  0  0  0
  2  3  2  0  0  0  0
  3  4  1  0  0  0  0
  3 23  1  0  0  0  0
  4  5  1  0  0  0  0
  4 18  2  0  0  0  0
  5  6  1  0  0  0  0
  6  7  2  0  0  0  0
  6  8  1  0  0  0  0
  8  9  1  0  0  0  0
  8 24  1  0  0  0  0
  9 10  1  0  0  0  0
  9 25  1  0  0  0  0
  9 26  1  0  0  0  0
 10 11  1  0  0  0  0
 10 27  1  0  0  0  0
 10 28  1  0  0  0  0
 11 16  1  0  0  0  0
 11 12  1  0  0  0  0
 11 41  1  0  0  0  0
 12 13  1  0  0  0  0
 12 29  1  0  0  0  0
 12 30  1  0  0  0  0
 13 14  1  0  0  0  0
 13 31  1  0  0  0  0
 13 32  1  0  0  0  0
 14 15  1  0  0  0  0
 14 33  1  0  0  0  0
 14 34  1  0  0  0  0
 15 16  1  0  0  0  0
 15 35  1  0  0  0  0
 15 36  1  0  0  0  0
 16 17  1  0  0  0  0
 16 37  1  0  0  0  0
 17 38  1  0  0  0  0
 17 39  1  0  0  0  0
 17 40  1  0  0  0  0
 18 19  1  0  0  0  0
M  CHG  1   5  -1
M  CHG  1  11   1
M  END
> <s_m_source_file>
AV-unprocessed.smi

> <i_m_source_file_index>
2079

> <i_lp_mmshare_version>
43012

> <i_f3d_flags>
0

> <s_epik_input>
W0NIM11jMVtjSF1jKG5vMSlbTkhdQyg9TylbTkhdW0NIMl1bQ0gyXU4yW0NIMl1bQ0gyXVtDSDJdW0NIMl1bQ0BIXTJbQ0gzXQ==

> <s_epik_cmdline>
J2VwaWtfcHl0aG9uJywgJy1waCcsICc3LjAnLCAnLXRuJywgJzgnLCAnLW1hJywgJzIwMCcsICctbWV0YWxfYmluZGluZycsICctaW1hZScsICc8aW5maWxlLm1hZT4nLCAnLW9tYWUnLCAnPG91dGZpbGUubWFlPic=

> <r_epik_Ionization_Penalty>
6.22371

> <r_epik_Ionization_Penalty_Charging>
6.22362

> <r_epik_Ionization_Penalty_Neutral>
9.40454e-05

> <r_epik_State_Penalty>
6.22363

> <r_epik_Charging_Adjusted_Penalty>
12.4472

> <i_epik_Tot_Q>
0

> <i_epik_Tot_abs_Q>
2

> <r_epik_Metal_State_Penalty>
2.16675

> <b_epik_Metal_Only>
1

> <s_lp_Force_Field>
OPLS_2005

> <r_lp_Energy>
9.22117

> <b_lp_Chiralities_Consistent>
1

> <s_lp_Variant>
AV-unprocessed.smi:2079-5

> <Gold.Version>
5.8.1

> <Gold.Id.Protein>
6NUR|6NUR_protein|mol2

> <Gold.PLP.Fitness>
43.1611

> <Gold.PLP.PLP>
-32.7753

> <Gold.PLP.part.hbond>
-3.0000

> <Gold.PLP.part.metal>
0.0000

> <Gold.PLP.part.buried>
-5.0098

> <Gold.PLP.part.nonpolar>
-25.3616

> <Gold.PLP.part.repulsive>
0.4680

> <Gold.PLP.ligand.clash>
0.0000

> <Gold.PLP.ligand.torsion>
0.8270

> <Gold.PLP.Chemscore.Hbond>
4.0000

> <Gold.PLP.Chemscore.CHOScore>
0.0000

> <Gold.PLP.Chemscore.Metal>
0.0000

> <Gold.Chemscore.Hbonds>
donor molecule, donor type, donor heavy atom, donor atom, acceptor molecule, acceptor atom, score
      L1  H    11    41       P1 10747  1.00
      P1  H  7989  7998       L1    19  0.80
      P1  H 10752 10765       L1     5  2.00

> <Gold.PLP.Chemscore.Internal.Correction>
0.0398

> <Gold.Rescore>
     Score         DG    S(hbond)    S(metal)    S(lipo)     H(rot)  DE(clash)    DE(int)     intcor
     16.30     -18.67       2.68        0.00      69.96       1.54       0.21       2.16       ----

> <Gold.Chemscore.Fitness>
16.3009

> <Gold.Chemscore.DG>
-18.6666

> <Gold.Chemscore.ZeroCoef>
-5.4800

> <Gold.Chemscore.Hbond>
2.6786

> <Gold.Chemscore.Metal>
0.0000

> <Gold.Chemscore.Lipo>
69.9556

> <Gold.Chemscore.Internal_Hbond>
0.0000

> <Gold.Chemscore.DEClash>
0.2059

> <Gold.Chemscore.DEInternal>
2.1598

> <Gold.Chemscore.Rot>
1.5409

> <Gold.Chemscore.Internal.Correction>
   9.000000E+99

> <Gold.Chemscore.Hbonds>
donor molecule, donor type, donor heavy atom, donor atom, acceptor molecule, acceptor atom, score
      L1  H    11    41       P1 10747  1.00
      P1  H  7989  7998       L1    19  0.62
      P1  H 10752 10765       L1     5  0.88

> <Gold.Chemscore.Hbond.Weighted>
-8.9464

> <Gold.Chemscore.Metal.Weighted>
-0.0000

> <Gold.Chemscore.Lipo.Weighted>
-8.1848

> <Gold.Chemscore.Internal_Hbond.Weighted>
0.0000

> <Gold.Chemscore.DEClash.Weighted>
0.2059

> <Gold.Chemscore.DEInternal.Weighted>
2.1598

> <Gold.Chemscore.Rot.Weighted>
3.9446

> <Gold.Chemscore.Internal.Correction.Weighted>
   9.000000E+99

> <Gold.Protein.RotatedTorsions>
[ 6907 6896 6895 6894 ] final    5.15 input  -60.11 | X-H torsion
[ 7974 7965 7964 7962 ] final -179.60 input  175.53 | X-H torsion
[ 8008 7997 7996 7995 ] final   69.76 input   59.86 | X-H torsion
[ 10167 10162 10161 10158 ] final   -0.93 input  -65.29 | X-H torsion
[ 10718 10713 10712 10709 ] final  -77.21 input   66.30 | X-H torsion
[ 10763 10752 10751 10750 ] final  168.94 input  -60.55 | X-H torsion
[ 11005 11000 10999 10996 ] final   79.87 input  -57.11 | X-H torsion

> <Gold.Protein.ActiveResidues>
 VAL166  LYS551  ARG553  GLY616  TRP617  ASP618  TYR619  PRO620  LYS621  CYS622 
 ASP623  PHE694  ASN695  SER759  ASP760  ASP761  ALA762  ILE779  LEU786  VAL792 
 PHE793  MET794  SER795  GLU796  ALA797  LYS798  CYS799  TRP800  GLU811  SER814 

> <Gold.Protein.RotatedAtoms>
  151.6528  135.0999  160.0163 H   0  0  0  0  0  0  0  0  0  0  0  0  # atno 6907 bound_to 6896
  152.3991  133.6786  159.6309 H   0  0  0  0  0  0  0  0  0  0  0  0  # atno 6908 bound_to 6896
  150.7893  133.8740  159.3308 H   0  0  0  0  0  0  0  0  0  0  0  0  # atno 6909 bound_to 6896
  144.7138  140.0693  143.6430 H   0  0  0  0  0  0  0  0  0  0  0  0  # atno 7974 bound_to 7965
  155.7285  140.3492  155.5048 H   0  0  0  0  0  0  0  0  0  0  0  0  # atno 8008 bound_to 7997
  155.9204  140.1066  157.1233 H   0  0  0  0  0  0  0  0  0  0  0  0  # atno 8009 bound_to 7997
  154.4069  140.1250  156.4659 H   0  0  0  0  0  0  0  0  0  0  0  0  # atno 8010 bound_to 7997
  140.6788  143.6836  150.8085 H   0  0  0  0  0  0  0  0  0  0  0  0  # atno 10167 bound_to 10162
  156.0152  130.4485  150.3310 H   0  0  0  0  0  0  0  0  0  0  0  0  # atno 10718 bound_to 10713
  154.3758  135.2753  155.2240 H   0  0  0  0  0  0  0  0  0  0  0  0  # atno 10763 bound_to 10752
  154.4367  135.5964  153.6107 H   0  0  0  0  0  0  0  0  0  0  0  0  # atno 10764 bound_to 10752
  152.9836  135.6009  154.3995 H   0  0  0  0  0  0  0  0  0  0  0  0  # atno 10765 bound_to 10752
  139.9156  134.7877  156.1836 H   0  0  0  0  0  0  0  0  0  0  0  0  # atno 11005 bound_to 11000
  145.9797  139.2932  143.1049 LP  0  0  0  0  0  0  0  0  0  0  0  0  # atno 17320 bound_to 7965
  145.9024  140.9234  143.0496 LP  0  0  0  0  0  0  0  0  0  0  0  0  # atno 17321 bound_to 7965
  140.0533  143.5228  152.2663 LP  0  0  0  0  0  0  0  0  0  0  0  0  # atno 17342 bound_to 10162
  139.6097  144.7605  151.2979 LP  0  0  0  0  0  0  0  0  0  0  0  0  # atno 17343 bound_to 10162
  157.1408  131.0296  151.2928 LP  0  0  0  0  0  0  0  0  0  0  0  0  # atno 17370 bound_to 10713
  157.4473  130.7578  149.7121 LP  0  0  0  0  0  0  0  0  0  0  0  0  # atno 17371 bound_to 10713
  141.0627  133.6834  156.1984 LP  0  0  0  0  0  0  0  0  0  0  0  0  # atno 17394 bound_to 11000
  140.6635  134.4943  157.5584 LP  0  0  0  0  0  0  0  0  0  0  0  0  # atno 17395 bound_to 11000

$$$$
