AV-unprocessed.smi:1433|AV-procd|sdf|5837|dock10
  -GOLD-   22720 5503D 1   1.00000     0.00000
 Structure written by MMmdl.
 44 45  0  0  0  0  0  0  0  0  1 V2000
  151.4291  137.6485  154.7852 C   0  0  0  0  0  0  0  0  0  0  0  0
  152.1669  138.9369  155.1885 C   0  0  2  0  0  0  0  0  0  0  0  0
  152.9325  138.8114  156.5208 C   0  0  0  0  0  0  0  0  0  0  0  0
  152.0638  138.8117  157.7036 N   0  0  0  0  0  0  0  0  0  0  0  0
  152.8246  138.7230  158.9726 C   0  0  1  0  0  0  0  0  0  0  0  0
  153.4289  137.3145  159.2122 C   0  0  0  0  0  0  0  0  0  0  0  0
  153.9592  139.7787  159.0852 C   0  0  0  0  0  0  0  0  0  0  0  0
  153.4563  141.0850  159.4918 N   0  0  0  0  0  0  0  0  0  0  0  0
  153.8745  141.7715  160.5649 C   0  0  0  0  0  0  0  0  0  0  0  0
  154.7732  141.3845  161.3115 O   0  0  0  0  0  0  0  0  0  0  0  0
  153.1676  143.1001  160.8391 C   0  0  0  0  0  0  0  0  0  0  0  0
  152.2369  143.4290  159.7733 N   0  0  0  0  0  0  0  0  0  0  0  0
  152.3395  144.4257  158.8254 C   0  0  0  0  0  0  0  0  0  0  0  0
  151.2214  144.3605  158.0444 C   0  0  0  0  0  0  0  0  0  0  0  0
  150.4830  143.2783  158.6000 C   0  0  0  0  0  0  0  0  0  0  0  0
  151.0932  142.7219  159.6339 N   0  0  0  0  0  0  0  0  0  0  0  0
  151.2151  140.0052  157.6391 C   0  0  0  0  0  0  0  0  0  0  0  0
  150.4063  140.0966  156.3327 C   0  0  1  0  0  0  0  0  0  0  0  0
  149.5926  141.3925  156.2491 C   0  0  0  0  0  0  0  0  0  0  0  0
  151.2936  140.0631  155.2203 O   0  0  0  0  0  0  0  0  0  0  0  0
  152.1327  136.8276  154.6454 H   0  0  0  0  0  0  0  0  0  0  0  0
  150.8919  137.7857  153.8465 H   0  0  0  0  0  0  0  0  0  0  0  0
  150.7094  137.3332  155.5403 H   0  0  0  0  0  0  0  0  0  0  0  0
  152.8961  139.1407  154.4040 H   0  0  0  0  0  0  0  0  0  0  0  0
  153.5172  137.8956  156.4659 H   0  0  0  0  0  0  0  0  0  0  0  0
  153.6458  139.6336  156.5972 H   0  0  0  0  0  0  0  0  0  0  0  0
  152.1310  138.9146  159.7930 H   0  0  0  0  0  0  0  0  0  0  0  0
  154.0376  137.2658  160.1147 H   0  0  0  0  0  0  0  0  0  0  0  0
  154.0606  137.0101  158.3771 H   0  0  0  0  0  0  0  0  0  0  0  0
  152.6622  136.5536  159.3506 H   0  0  0  0  0  0  0  0  0  0  0  0
  154.7180  139.4321  159.7893 H   0  0  0  0  0  0  0  0  0  0  0  0
  154.4567  139.9428  158.1309 H   0  0  0  0  0  0  0  0  0  0  0  0
  152.7114  141.4815  158.9364 H   0  0  0  0  0  0  0  0  0  0  0  0
  152.6173  143.0441  161.7793 H   0  0  0  0  0  0  0  0  0  0  0  0
  153.9030  143.8995  160.9429 H   0  0  0  0  0  0  0  0  0  0  0  0
  153.1894  145.0916  158.7892 H   0  0  0  0  0  0  0  0  0  0  0  0
  150.9681  144.9910  157.2052 H   0  0  0  0  0  0  0  0  0  0  0  0
  149.5284  142.8835  158.2848 H   0  0  0  0  0  0  0  0  0  0  0  0
  150.4949  140.0077  158.4550 H   0  0  0  0  0  0  0  0  0  0  0  0
  151.8282  140.9003  157.7553 H   0  0  0  0  0  0  0  0  0  0  0  0
  149.7150  139.2555  156.2733 H   0  0  0  0  0  0  0  0  0  0  0  0
  148.8841  141.4658  157.0747 H   0  0  0  0  0  0  0  0  0  0  0  0
  149.0249  141.4365  155.3195 H   0  0  0  0  0  0  0  0  0  0  0  0
  150.2408  142.2686  156.2849 H   0  0  0  0  0  0  0  0  0  0  0  0
  1  2  1  0  0  0  0
  1 21  1  0  0  0  0
  1 22  1  0  0  0  0
  1 23  1  0  0  0  0
  2 20  1  0  0  0  0
  2  3  1  0  0  0  0
  2 24  1  0  0  0  0
  3  4  1  0  0  0  0
  3 25  1  0  0  0  0
  3 26  1  0  0  0  0
  4  5  1  0  0  0  0
  4 17  1  0  0  0  0
  5  6  1  0  0  0  0
  5  7  1  0  0  0  0
  5 27  1  0  0  0  0
  6 28  1  0  0  0  0
  6 29  1  0  0  0  0
  6 30  1  0  0  0  0
  7  8  1  0  0  0  0
  7 31  1  0  0  0  0
  7 32  1  0  0  0  0
  8  9  1  0  0  0  0
  8 33  1  0  0  0  0
  9 10  2  0  0  0  0
  9 11  1  0  0  0  0
 11 12  1  0  0  0  0
 11 34  1  0  0  0  0
 11 35  1  0  0  0  0
 12 16  1  0  0  0  0
 12 13  1  0  0  0  0
 13 14  2  0  0  0  0
 13 36  1  0  0  0  0
 14 15  1  0  0  0  0
 14 37  1  0  0  0  0
 15 16  2  0  0  0  0
 15 38  1  0  0  0  0
 17 18  1  0  0  0  0
 17 39  1  0  0  0  0
 17 40  1  0  0  0  0
 18 19  1  0  0  0  0
 18 20  1  0  0  0  0
 18 41  1  0  0  0  0
 19 42  1  0  0  0  0
 19 43  1  0  0  0  0
 19 44  1  0  0  0  0
M  END
> <s_m_source_file>
AV-unprocessed.smi

> <i_m_source_file_index>
1433

> <i_lp_mmshare_version>
43012

> <i_f3d_flags>
0

> <s_epik_input>
W0NIM11bQ0BASF0xW0NIMl1OKFtDSDJdW0NASF0oTzEpW0NIM10pW0NASF0oW0NIM10pW0NIMl1bTkhdQyg9TylbQ0gyXW4yW2NIXVtjSF1bY0hdbjI=

> <s_epik_cmdline>
J2VwaWtfcHl0aG9uJywgJy1waCcsICc3LjAnLCAnLXRuJywgJzgnLCAnLW1hJywgJzIwMCcsICctbWV0YWxfYmluZGluZycsICctaW1hZScsICc8aW5maWxlLm1hZT4nLCAnLW9tYWUnLCAnPG91dGZpbGUubWFlPic=

> <r_lp_tautomer_probability>
1

> <r_epik_Ionization_Penalty>
0.196927

> <r_epik_Ionization_Penalty_Charging>
0

> <r_epik_Ionization_Penalty_Neutral>
0.196927

> <r_epik_State_Penalty>
0.186684

> <r_epik_Charging_Adjusted_Penalty>
0.186684

> <i_epik_Tot_Q>
0

> <i_epik_Tot_abs_Q>
0

> <r_epik_Metal_State_Penalty>
0.186682

> <b_epik_Metal_Only>
0

> <s_lp_Force_Field>
OPLS_2005

> <r_lp_Energy>
30.021

> <b_lp_Chiralities_Consistent>
1

> <s_lp_Variant>
AV-unprocessed.smi:1433-3

> <Gold.Version>
5.8.1

> <Gold.Id.Protein>
6NUR|6NUR_protein|mol2

> <Gold.PLP.Fitness>
46.8737

> <Gold.PLP.PLP>
-42.3193

> <Gold.PLP.part.hbond>
-1.0213

> <Gold.PLP.part.metal>
0.0000

> <Gold.PLP.part.buried>
-4.6951

> <Gold.PLP.part.nonpolar>
-36.8489

> <Gold.PLP.part.repulsive>
0.1750

> <Gold.PLP.ligand.clash>
0.0000

> <Gold.PLP.ligand.torsion>
0.5330

> <Gold.PLP.Chemscore.Hbond>
0.9920

> <Gold.PLP.Chemscore.CHOScore>
0.8713

> <Gold.PLP.Chemscore.Metal>
0.0000

> <Gold.Chemscore.Hbonds>
donor molecule, donor type, donor heavy atom, donor atom, acceptor molecule, acceptor atom, score
      P1  H  7989  7998       L1    20  1.00

> <Gold.PLP.Chemscore.Internal.Correction>
0.0307

> <Gold.Rescore>
     Score         DG    S(hbond)    S(metal)    S(lipo)     H(rot)  DE(clash)    DE(int)     intcor
     13.76     -15.93       0.97        0.00     101.19       1.80       0.10       2.07       ----

> <Gold.Chemscore.Fitness>
13.7601

> <Gold.Chemscore.DG>
-15.9313

> <Gold.Chemscore.ZeroCoef>
-5.4800

> <Gold.Chemscore.Hbond>
0.9672

> <Gold.Chemscore.Metal>
0.0000

> <Gold.Chemscore.Lipo>
101.1850

> <Gold.Chemscore.Internal_Hbond>
0.0000

> <Gold.Chemscore.DEClash>
0.1042

> <Gold.Chemscore.DEInternal>
2.0670

> <Gold.Chemscore.Rot>
1.8038

> <Gold.Chemscore.Internal.Correction>
   9.000000E+99

> <Gold.Chemscore.Hbonds>
donor molecule, donor type, donor heavy atom, donor atom, acceptor molecule, acceptor atom, score
      P1  H  7989  7998       L1    20  0.29

> <Gold.Chemscore.Hbond.Weighted>
-3.2304

> <Gold.Chemscore.Metal.Weighted>
-0.0000

> <Gold.Chemscore.Lipo.Weighted>
-11.8386

> <Gold.Chemscore.Internal_Hbond.Weighted>
0.0000

> <Gold.Chemscore.DEClash.Weighted>
0.1042

> <Gold.Chemscore.DEInternal.Weighted>
2.0670

> <Gold.Chemscore.Rot.Weighted>
4.6178

> <Gold.Chemscore.Internal.Correction.Weighted>
   9.000000E+99

> <Gold.Protein.RotatedTorsions>
[ 6907 6896 6895 6894 ] final   32.71 input  -60.11 | X-H torsion
[ 7974 7965 7964 7962 ] final  -11.05 input  175.53 | X-H torsion
[ 8008 7997 7996 7995 ] final  134.45 input   59.86 | X-H torsion
[ 10167 10162 10161 10158 ] final -124.70 input  -65.29 | X-H torsion
[ 10718 10713 10712 10709 ] final   44.40 input   66.30 | X-H torsion
[ 10763 10752 10751 10750 ] final  -55.88 input  -60.55 | X-H torsion
[ 11005 11000 10999 10996 ] final  168.23 input  -57.11 | X-H torsion

> <Gold.Protein.ActiveResidues>
 VAL166  LYS551  ARG553  GLY616  TRP617  ASP618  TYR619  PRO620  LYS621  CYS622 
 ASP623  PHE694  ASN695  SER759  ASP760  ASP761  ALA762  ILE779  LEU786  VAL792 
 PHE793  MET794  SER795  GLU796  ALA797  LYS798  CYS799  TRP800  GLU811  SER814 

> <Gold.Protein.RotatedAtoms>
  152.0783  134.9488  160.0573 H   0  0  0  0  0  0  0  0  0  0  0  0  # atno 6907 bound_to 6896
  152.0787  133.4137  159.4499 H   0  0  0  0  0  0  0  0  0  0  0  0  # atno 6908 bound_to 6896
  150.6836  134.2927  159.4717 H   0  0  0  0  0  0  0  0  0  0  0  0  # atno 6909 bound_to 6896
  146.2200  140.2854  142.8365 H   0  0  0  0  0  0  0  0  0  0  0  0  # atno 7974 bound_to 7965
  156.2999  140.2496  156.3419 H   0  0  0  0  0  0  0  0  0  0  0  0  # atno 8008 bound_to 7997
  154.9047  140.0405  157.1932 H   0  0  0  0  0  0  0  0  0  0  0  0  # atno 8009 bound_to 7997
  154.8465  140.2899  155.5629 H   0  0  0  0  0  0  0  0  0  0  0  0  # atno 8010 bound_to 7997
  139.9900  143.5651  152.2345 H   0  0  0  0  0  0  0  0  0  0  0  0  # atno 10167 bound_to 10162
  157.4263  130.7999  149.7562 H   0  0  0  0  0  0  0  0  0  0  0  0  # atno 10718 bound_to 10713
  154.1978  135.6416  153.5078 H   0  0  0  0  0  0  0  0  0  0  0  0  # atno 10763 bound_to 10752
  153.0019  135.5444  154.6348 H   0  0  0  0  0  0  0  0  0  0  0  0  # atno 10764 bound_to 10752
  154.5753  135.2920  155.0760 H   0  0  0  0  0  0  0  0  0  0  0  0  # atno 10765 bound_to 10752
  140.2851  134.7719  157.3791 H   0  0  0  0  0  0  0  0  0  0  0  0  # atno 11005 bound_to 11000
  144.9166  140.7819  143.5774 LP  0  0  0  0  0  0  0  0  0  0  0  0  # atno 17320 bound_to 7965
  145.2788  139.1926  143.4802 LP  0  0  0  0  0  0  0  0  0  0  0  0  # atno 17321 bound_to 7965
  139.6347  144.7648  151.2463 LP  0  0  0  0  0  0  0  0  0  0  0  0  # atno 17342 bound_to 10162
  140.7458  143.6419  150.8327 LP  0  0  0  0  0  0  0  0  0  0  0  0  # atno 17343 bound_to 10162
  155.9898  130.3949  150.3058 LP  0  0  0  0  0  0  0  0  0  0  0  0  # atno 17370 bound_to 10713
  157.1211  131.0247  151.3009 LP  0  0  0  0  0  0  0  0  0  0  0  0  # atno 17371 bound_to 10713
  140.1247  134.5173  155.8154 LP  0  0  0  0  0  0  0  0  0  0  0  0  # atno 17394 bound_to 11000
  141.2156  133.6768  156.6930 LP  0  0  0  0  0  0  0  0  0  0  0  0  # atno 17395 bound_to 11000

$$$$
