AV-unprocessed.smi:2888|AV-procd|sdf|11105|dock8
  -GOLD-   2272015573D 1   1.00000     0.00000
 Structure written by MMmdl.
 34 36  0  0  0  0  0  0  0  0  2 V2000
  153.1632  140.6285  159.1795 C   0  0  0  0  0  0  0  0  0  0  0  0
  152.3947  141.8090  158.6247 C   0  0  0  0  0  0  0  0  0  0  0  0
  152.5247  143.0979  159.1701 C   0  0  0  0  0  0  0  0  0  0  0  0
  151.7595  144.1176  158.5717 C   0  0  0  0  0  0  0  0  0  0  0  0
  151.8075  145.5503  159.0581 C   0  0  0  0  0  0  0  0  0  0  0  0
  150.9489  143.8327  157.5216 N   0  3  0  0  0  0  0  0  0  0  0  0
  150.8762  142.5782  157.0508 C   0  0  0  0  0  0  0  0  0  0  0  0
  150.0374  142.3482  155.9755 N   0  0  0  0  0  0  0  0  0  0  0  0
  149.8486  141.0444  155.3505 C   0  0  1  0  0  0  0  0  0  0  0  0
  149.0472  140.0690  156.2162 C   0  0  0  0  0  0  0  0  0  0  0  0
  147.9344  139.6342  155.2516 C   0  0  1  0  0  0  0  0  0  0  0  0
  146.8822  140.7364  155.0730 C   0  0  0  0  0  0  0  0  0  0  0  0
  147.6389  141.7527  154.2199 C   0  0  0  0  0  0  0  0  0  0  0  0
  149.0103  141.0744  154.0573 C   0  0  2  0  0  0  0  0  0  0  0  0
  148.6078  139.7163  154.0062 O   0  0  0  0  0  0  0  0  0  0  0  0
  151.5792  141.5658  157.5793 N   0  0  0  0  0  0  0  0  0  0  0  0
  153.7206  140.9068  160.0742 H   0  0  0  0  0  0  0  0  0  0  0  0
  153.8711  140.2550  158.4392 H   0  0  0  0  0  0  0  0  0  0  0  0
  152.4813  139.8193  159.4422 H   0  0  0  0  0  0  0  0  0  0  0  0
  153.1789  143.2968  160.0068 H   0  0  0  0  0  0  0  0  0  0  0  0
  152.3788  145.6318  159.9834 H   0  0  0  0  0  0  0  0  0  0  0  0
  150.8006  145.9236  159.2469 H   0  0  0  0  0  0  0  0  0  0  0  0
  152.2775  146.1882  158.3092 H   0  0  0  0  0  0  0  0  0  0  0  0
  149.6638  143.1562  155.4994 H   0  0  0  0  0  0  0  0  0  0  0  0
  150.8249  140.6053  155.1404 H   0  0  0  0  0  0  0  0  0  0  0  0
  149.6691  139.2200  156.5018 H   0  0  0  0  0  0  0  0  0  0  0  0
  148.6458  140.5146  157.1275 H   0  0  0  0  0  0  0  0  0  0  0  0
  147.5133  138.6532  155.4731 H   0  0  0  0  0  0  0  0  0  0  0  0
  146.0111  140.3595  154.5355 H   0  0  0  0  0  0  0  0  0  0  0  0
  146.5449  141.1480  156.0250 H   0  0  0  0  0  0  0  0  0  0  0  0
  147.1530  141.8672  153.2501 H   0  0  0  0  0  0  0  0  0  0  0  0
  147.6985  142.7384  154.6819 H   0  0  0  0  0  0  0  0  0  0  0  0
  149.5636  141.4062  153.1782 H   0  0  0  0  0  0  0  0  0  0  0  0
  150.4018  144.5813  157.0963 H   0  0  0  0  0  0  0  0  0  0  0  0
  1  2  1  0  0  0  0
  1 17  1  0  0  0  0
  1 18  1  0  0  0  0
  1 19  1  0  0  0  0
  2 16  1  0  0  0  0
  2  3  2  0  0  0  0
  3  4  1  0  0  0  0
  3 20  1  0  0  0  0
  4  5  1  0  0  0  0
  4  6  2  0  0  0  0
  5 21  1  0  0  0  0
  5 22  1  0  0  0  0
  5 23  1  0  0  0  0
  6  7  1  0  0  0  0
  6 34  1  0  0  0  0
  7  8  1  0  0  0  0
  7 16  2  0  0  0  0
  8  9  1  0  0  0  0
  8 24  1  0  0  0  0
  9 14  1  0  0  0  0
  9 10  1  0  0  0  0
  9 25  1  0  0  0  0
 10 11  1  0  0  0  0
 10 26  1  0  0  0  0
 10 27  1  0  0  0  0
 11 15  1  0  0  0  0
 11 12  1  0  0  0  0
 11 28  1  0  0  0  0
 12 13  1  0  0  0  0
 12 29  1  0  0  0  0
 12 30  1  0  0  0  0
 13 14  1  0  0  0  0
 13 31  1  0  0  0  0
 13 32  1  0  0  0  0
 14 15  1  0  0  0  0
 14 33  1  0  0  0  0
M  CHG  1   6   1
M  END
> <s_m_source_file>
AV-unprocessed.smi

> <i_m_source_file_index>
2888

> <i_lp_mmshare_version>
43012

> <i_f3d_flags>
0

> <s_epik_input>
W0NIM11jMVtjSF1jKFtDSDNdKW5jKG4xKVtOSF1bQ0BIXShbQ0gyXVtDQEBIXTIzKVtDQEBIXShPMylbQ0gyXVtDSDJdMg==

> <s_epik_cmdline>
J2VwaWtfcHl0aG9uJywgJy1waCcsICc3LjAnLCAnLXRuJywgJzgnLCAnLW1hJywgJzIwMCcsICctbWV0YWxfYmluZGluZycsICctaW1hZScsICc8aW5maWxlLm1hZT4nLCAnLW9tYWUnLCAnPG91dGZpbGUubWFlPic=

> <r_lp_tautomer_probability>
0.505494

> <r_epik_Ionization_Penalty>
2.49163

> <r_epik_Ionization_Penalty_Charging>
2.49163

> <r_epik_Ionization_Penalty_Neutral>
3.7631e-06

> <r_epik_State_Penalty>
2.656

> <r_epik_Charging_Adjusted_Penalty>
5.14762

> <i_epik_Tot_Q>
1

> <i_epik_Tot_abs_Q>
1

> <r_epik_Metal_State_Penalty>
2.66479

> <b_epik_Metal_Only>
0

> <s_lp_Force_Field>
OPLS_2005

> <r_lp_Energy>
36.4531

> <b_lp_Chiralities_Consistent>
1

> <s_lp_Variant>
AV-unprocessed.smi:2888-6

> <Gold.Version>
5.8.1

> <Gold.Id.Protein>
6NUR|6NUR_protein|mol2

> <Gold.PLP.Fitness>
41.0273

> <Gold.PLP.PLP>
-30.8909

> <Gold.PLP.part.hbond>
-2.0000

> <Gold.PLP.part.metal>
0.0000

> <Gold.PLP.part.buried>
-3.6178

> <Gold.PLP.part.nonpolar>
-26.2737

> <Gold.PLP.part.repulsive>
0.2909

> <Gold.PLP.ligand.clash>
0.0000

> <Gold.PLP.ligand.torsion>
0.0907

> <Gold.PLP.Chemscore.Hbond>
3.4364

> <Gold.PLP.Chemscore.CHOScore>
0.0000

> <Gold.PLP.Chemscore.Metal>
0.0000

> <Gold.Chemscore.Hbonds>
donor molecule, donor type, donor heavy atom, donor atom, acceptor molecule, acceptor atom, score
      L1  H     6    34       P1  8028  1.42
      L1  H     8    24       P1  8028  1.89

> <Gold.PLP.Chemscore.Internal.Correction>
0.0088

> <Gold.Rescore>
     Score         DG    S(hbond)    S(metal)    S(lipo)     H(rot)  DE(clash)    DE(int)     intcor
     17.94     -18.16       1.60        0.00      84.71       1.00       0.06       0.16       ----

> <Gold.Chemscore.Fitness>
17.9359

> <Gold.Chemscore.DG>
-18.1581

> <Gold.Chemscore.ZeroCoef>
-5.4800

> <Gold.Chemscore.Hbond>
1.5950

> <Gold.Chemscore.Metal>
0.0000

> <Gold.Chemscore.Lipo>
84.7079

> <Gold.Chemscore.Internal_Hbond>
0.0000

> <Gold.Chemscore.DEClash>
0.0599

> <Gold.Chemscore.DEInternal>
0.1623

> <Gold.Chemscore.Rot>
1.0000

> <Gold.Chemscore.Internal.Correction>
   9.000000E+99

> <Gold.Chemscore.Hbonds>
donor molecule, donor type, donor heavy atom, donor atom, acceptor molecule, acceptor atom, score
      L1  H     6    34       P1  8028  0.48
      L1  H     8    24       P1  8028  0.91

> <Gold.Chemscore.Hbond.Weighted>
-5.3273

> <Gold.Chemscore.Metal.Weighted>
-0.0000

> <Gold.Chemscore.Lipo.Weighted>
-9.9108

> <Gold.Chemscore.Internal_Hbond.Weighted>
0.0000

> <Gold.Chemscore.DEClash.Weighted>
0.0599

> <Gold.Chemscore.DEInternal.Weighted>
0.1623

> <Gold.Chemscore.Rot.Weighted>
2.5600

> <Gold.Chemscore.Internal.Correction.Weighted>
   9.000000E+99

> <Gold.Protein.RotatedTorsions>
[ 6907 6896 6895 6894 ] final   36.63 input  -60.11 | X-H torsion
[ 7974 7965 7964 7962 ] final  -28.76 input  175.53 | X-H torsion
[ 8008 7997 7996 7995 ] final  -41.04 input   59.86 | X-H torsion
[ 10167 10162 10161 10158 ] final -139.30 input  -65.29 | X-H torsion
[ 10718 10713 10712 10709 ] final  -36.76 input   66.30 | X-H torsion
[ 10763 10752 10751 10750 ] final  -77.55 input  -60.55 | X-H torsion
[ 11005 11000 10999 10996 ] final  -99.47 input  -57.11 | X-H torsion

> <Gold.Protein.ActiveResidues>
 VAL166  LYS551  ARG553  GLY616  TRP617  ASP618  TYR619  PRO620  LYS621  CYS622 
 ASP623  PHE694  ASN695  SER759  ASP760  ASP761  ALA762  ILE779  LEU786  VAL792 
 PHE793  MET794  SER795  GLU796  ALA797  LYS798  CYS799  TRP800  GLU811  SER814 

> <Gold.Protein.RotatedAtoms>
  152.1323  134.9125  160.0557 H   0  0  0  0  0  0  0  0  0  0  0  0  # atno 6907 bound_to 6896
  152.0225  133.3899  159.4272 H   0  0  0  0  0  0  0  0  0  0  0  0  # atno 6908 bound_to 6896
  150.6857  134.3532  159.4961 H   0  0  0  0  0  0  0  0  0  0  0  0  # atno 6909 bound_to 6896
  146.1265  140.5324  142.8712 H   0  0  0  0  0  0  0  0  0  0  0  0  # atno 7974 bound_to 7965
  154.4007  140.1509  156.3126 H   0  0  0  0  0  0  0  0  0  0  0  0  # atno 8008 bound_to 7997
  155.8602  140.3454  155.5729 H   0  0  0  0  0  0  0  0  0  0  0  0  # atno 8009 bound_to 7997
  155.7889  140.0854  157.2010 H   0  0  0  0  0  0  0  0  0  0  0  0  # atno 8010 bound_to 7997
  139.8393  143.7343  152.2664 H   0  0  0  0  0  0  0  0  0  0  0  0  # atno 10167 bound_to 10162
  156.3231  130.4268  149.7942 H   0  0  0  0  0  0  0  0  0  0  0  0  # atno 10718 bound_to 10713
  154.5144  135.5760  153.6630 H   0  0  0  0  0  0  0  0  0  0  0  0  # atno 10763 bound_to 10752
  152.9904  135.6166  154.2836 H   0  0  0  0  0  0  0  0  0  0  0  0  # atno 10764 bound_to 10752
  154.2753  135.2852  155.2700 H   0  0  0  0  0  0  0  0  0  0  0  0  # atno 10765 bound_to 10752
  141.1307  133.8324  157.0975 H   0  0  0  0  0  0  0  0  0  0  0  0  # atno 11005 bound_to 11000
  144.7648  140.5504  143.6711 LP  0  0  0  0  0  0  0  0  0  0  0  0  # atno 17320 bound_to 7965
  145.5354  139.1475  143.3477 LP  0  0  0  0  0  0  0  0  0  0  0  0  # atno 17321 bound_to 7965
  139.7575  144.7516  151.0414 LP  0  0  0  0  0  0  0  0  0  0  0  0  # atno 17342 bound_to 10162
  140.7799  143.4789  151.0045 LP  0  0  0  0  0  0  0  0  0  0  0  0  # atno 17343 bound_to 10162
  156.5242  130.8229  151.3214 LP  0  0  0  0  0  0  0  0  0  0  0  0  # atno 17370 bound_to 10713
  157.7416  130.9873  150.2455 LP  0  0  0  0  0  0  0  0  0  0  0  0  # atno 17371 bound_to 10713
  140.0354  134.9881  157.0860 LP  0  0  0  0  0  0  0  0  0  0  0  0  # atno 17394 bound_to 11000
  140.4219  134.1871  155.7165 LP  0  0  0  0  0  0  0  0  0  0  0  0  # atno 17395 bound_to 11000

$$$$
