AV-unprocessed.smi:59|AV-procd|sdf|592|dock3
  -GOLD-   2262016483D 1   1.00000     0.00000
 Structure written by MMmdl.
 29 30  0  0  0  0  0  0  0  0  2 V2000
  149.2032  141.6907  154.5340 C   0  0  0  0  0  0  0  0  0  0  0  0
  149.7416  140.3849  154.9023 N   0  0  0  0  0  0  0  0  0  0  0  0
  149.1968  139.2103  154.5628 C   0  0  0  0  0  0  0  0  0  0  0  0
  148.1328  139.0525  153.9641 O   0  0  0  0  0  0  0  0  0  0  0  0
  150.0944  138.0524  154.9684 C   0  0  1  0  0  0  0  0  0  0  0  0
  150.6725  137.4878  153.8037 O   0  0  0  0  0  0  0  0  0  0  0  0
  151.0915  138.7325  155.9368 C   0  0  1  0  0  0  0  0  0  0  0  0
  152.5141  138.1338  155.9404 C   0  0  0  0  0  0  0  0  0  0  0  0
  152.6485  136.9139  156.1844 O   0  0  0  0  0  0  0  0  0  0  0  0
  153.4517  138.9119  155.6566 O   0  5  0  0  0  0  0  0  0  0  0  0
  151.0084  140.2471  155.6162 C   0  0  2  0  0  0  0  0  0  0  0  0
  151.1187  141.0907  156.8678 C   0  0  0  0  0  0  0  0  0  0  0  0
  150.2705  142.1479  157.3100 C   0  0  0  0  0  0  0  0  0  0  0  0
  150.6508  142.6681  158.4654 N   0  0  0  0  0  0  0  0  0  0  0  0
  151.7466  141.9593  158.8055 N   0  0  0  0  0  0  0  0  0  0  0  0
  152.4347  142.2572  160.0429 C   0  0  0  0  0  0  0  0  0  0  0  0
  152.0493  140.9999  157.8641 C   0  0  0  0  0  0  0  0  0  0  0  0
  149.5110  137.2892  155.4846 H   0  0  0  0  0  0  0  0  0  0  0  0
  150.6934  138.5770  156.9415 H   0  0  0  0  0  0  0  0  0  0  0  0
  151.7800  140.5308  154.8983 H   0  0  0  0  0  0  0  0  0  0  0  0
  148.9490  141.7197  153.4737 H   0  0  0  0  0  0  0  0  0  0  0  0
  149.9259  142.4850  154.7233 H   0  0  0  0  0  0  0  0  0  0  0  0
  148.3023  141.9056  155.1091 H   0  0  0  0  0  0  0  0  0  0  0  0
  149.9788  137.2897  153.1936 H   0  0  0  0  0  0  0  0  0  0  0  0
  149.3928  142.5497  156.8260 H   0  0  0  0  0  0  0  0  0  0  0  0
  153.4144  141.7783  160.0483 H   0  0  0  0  0  0  0  0  0  0  0  0
  151.8518  141.8842  160.8852 H   0  0  0  0  0  0  0  0  0  0  0  0
  152.5672  143.3347  160.1464 H   0  0  0  0  0  0  0  0  0  0  0  0
  152.8926  140.3347  157.9782 H   0  0  0  0  0  0  0  0  0  0  0  0
  1  2  1  0  0  0  0
  1 21  1  0  0  0  0
  1 22  1  0  0  0  0
  1 23  1  0  0  0  0
  2 11  1  0  0  0  0
  2  3  1  0  0  0  0
  3  4  2  0  0  0  0
  3  5  1  0  0  0  0
  5 18  1  0  0  0  0
  5  6  1  0  0  0  0
  5  7  1  0  0  0  0
  6 24  1  0  0  0  0
  7 19  1  0  0  0  0
  7  8  1  0  0  0  0
  7 11  1  0  0  0  0
  8  9  2  0  0  0  0
  8 10  1  0  0  0  0
 11 20  1  0  0  0  0
 11 12  1  0  0  0  0
 12 17  2  0  0  0  0
 12 13  1  0  0  0  0
 13 14  2  0  0  0  0
 13 25  1  0  0  0  0
 14 15  1  0  0  0  0
 15 16  1  0  0  0  0
 15 17  1  0  0  0  0
 16 26  1  0  0  0  0
 16 27  1  0  0  0  0
 16 28  1  0  0  0  0
 17 29  1  0  0  0  0
M  CHG  1  10  -1
M  END
> <s_m_source_file>
AV-unprocessed.smi

> <i_m_source_file_index>
59

> <i_lp_mmshare_version>
43012

> <i_f3d_flags>
0

> <s_epik_input>
W0NIM11OMUMoPU8pW0NASF0oW09IXSlbQ0BIXShDKD1PKVtPSF0pW0NASF0xYzJbY0hdbm4oW0NIM10pW2NIXTI=

> <s_epik_cmdline>
J2VwaWtfcHl0aG9uJywgJy1waCcsICc3LjAnLCAnLXRuJywgJzgnLCAnLW1hJywgJzIwMCcsICctbWV0YWxfYmluZGluZycsICctaW1hZScsICc8aW5maWxlLm1hZT4nLCAnLW9tYWUnLCAnPG91dGZpbGUubWFlPic=

> <r_lp_tautomer_probability>
1

> <r_epik_Ionization_Penalty>
0.00173515

> <r_epik_Ionization_Penalty_Charging>
0.00120567

> <r_epik_Ionization_Penalty_Neutral>
0.000529476

> <r_epik_State_Penalty>
-0

> <r_epik_Charging_Adjusted_Penalty>
0.00120567

> <i_epik_Tot_Q>
-1

> <i_epik_Tot_abs_Q>
1

> <r_epik_Metal_State_Penalty>
-0

> <b_epik_Metal_Only>
0

> <s_lp_Force_Field>
OPLS_2005

> <r_lp_Energy>
6.90576

> <b_lp_Chiralities_Consistent>
1

> <s_lp_Variant>
AV-unprocessed.smi:59-8

> <Gold.Version>
5.8.1

> <Gold.Id.Protein>
6NUR|6NUR_protein|mol2

> <Gold.PLP.Fitness>
46.8212

> <Gold.PLP.PLP>
-29.9651

> <Gold.PLP.part.hbond>
-3.9715

> <Gold.PLP.part.metal>
0.0000

> <Gold.PLP.part.buried>
-2.0438

> <Gold.PLP.part.nonpolar>
-24.6441

> <Gold.PLP.part.repulsive>
0.2511

> <Gold.PLP.ligand.clash>
0.0000

> <Gold.PLP.ligand.torsion>
0.2472

> <Gold.PLP.Chemscore.Hbond>
4.7760

> <Gold.PLP.Chemscore.CHOScore>
1.0000

> <Gold.PLP.Chemscore.Metal>
0.0000

> <Gold.Chemscore.Hbonds>
donor molecule, donor type, donor heavy atom, donor atom, acceptor molecule, acceptor atom, score
      L1  H     6    24       P1  7948  1.00
      P1  H  7997  8009       L1    10  1.98
      P1  H 10752 10765       L1     9  1.79
      L1  C    13    25       P1  8028  1.00

> <Gold.PLP.Chemscore.Internal.Correction>
0.0225

> <Gold.Rescore>
     Score         DG    S(hbond)    S(metal)    S(lipo)     H(rot)  DE(clash)    DE(int)     intcor
     14.48     -15.28       2.68        0.00      52.38       2.06       0.00       0.80       ----

> <Gold.Chemscore.Fitness>
14.4805

> <Gold.Chemscore.DG>
-15.2822

> <Gold.Chemscore.ZeroCoef>
-5.4800

> <Gold.Chemscore.Hbond>
2.6819

> <Gold.Chemscore.Metal>
0.0000

> <Gold.Chemscore.Lipo>
52.3781

> <Gold.Chemscore.Internal_Hbond>
0.0000

> <Gold.Chemscore.DEClash>
0.0023

> <Gold.Chemscore.DEInternal>
0.7994

> <Gold.Chemscore.Rot>
2.0639

> <Gold.Chemscore.Internal.Correction>
   9.000000E+99

> <Gold.Chemscore.Hbonds>
donor molecule, donor type, donor heavy atom, donor atom, acceptor molecule, acceptor atom, score
      L1  H     6    24       P1  7948  0.25
      P1  H  7997  8009       L1    10  0.92
      P1  H 10752 10765       L1     9  0.86

> <Gold.Chemscore.Hbond.Weighted>
-8.9576

> <Gold.Chemscore.Metal.Weighted>
-0.0000

> <Gold.Chemscore.Lipo.Weighted>
-6.1282

> <Gold.Chemscore.Internal_Hbond.Weighted>
0.0000

> <Gold.Chemscore.DEClash.Weighted>
0.0023

> <Gold.Chemscore.DEInternal.Weighted>
0.7994

> <Gold.Chemscore.Rot.Weighted>
5.2837

> <Gold.Chemscore.Internal.Correction.Weighted>
   9.000000E+99

> <Gold.Protein.RotatedTorsions>
[ 6907 6896 6895 6894 ] final   73.09 input  -60.11 | X-H torsion
[ 7974 7965 7964 7962 ] final  -83.40 input  175.53 | X-H torsion
[ 8008 7997 7996 7995 ] final -152.93 input   59.86 | X-H torsion
[ 10167 10162 10161 10158 ] final  101.02 input  -65.29 | X-H torsion
[ 10718 10713 10712 10709 ] final  178.96 input   66.30 | X-H torsion
[ 10763 10752 10751 10750 ] final -146.23 input  -60.55 | X-H torsion
[ 11005 11000 10999 10996 ] final   86.59 input  -57.11 | X-H torsion

> <Gold.Protein.ActiveResidues>
 VAL166  LYS551  ARG553  GLY616  TRP617  ASP618  TYR619  PRO620  LYS621  CYS622 
 ASP623  PHE694  ASN695  SER759  ASP760  ASP761  ALA762  ILE779  LEU786  VAL792 
 PHE793  MET794  SER795  GLU796  ALA797  LYS798  CYS799  TRP800  GLU811  SER814 

> <Gold.Protein.RotatedAtoms>
  152.4904  134.4474  159.9562 H   0  0  0  0  0  0  0  0  0  0  0  0  # atno 6907 bound_to 6896
  151.4462  133.3624  159.2796 H   0  0  0  0  0  0  0  0  0  0  0  0  # atno 6908 bound_to 6896
  150.9053  134.8492  159.7448 H   0  0  0  0  0  0  0  0  0  0  0  0  # atno 6909 bound_to 6896
  145.5205  140.9532  143.1658 H   0  0  0  0  0  0  0  0  0  0  0  0  # atno 7974 bound_to 7965
  155.6629  140.0724  157.2548 H   0  0  0  0  0  0  0  0  0  0  0  0  # atno 8008 bound_to 7997
  154.4139  140.1713  156.1846 H   0  0  0  0  0  0  0  0  0  0  0  0  # atno 8009 bound_to 7997
  155.9682  140.3364  155.6555 H   0  0  0  0  0  0  0  0  0  0  0  0  # atno 8010 bound_to 7997
  139.7475  144.6994  151.0482 H   0  0  0  0  0  0  0  0  0  0  0  0  # atno 10167 bound_to 10162
  156.8828  130.9821  151.3060 H   0  0  0  0  0  0  0  0  0  0  0  0  # atno 10718 bound_to 10713
  154.8346  135.3392  154.6629 H   0  0  0  0  0  0  0  0  0  0  0  0  # atno 10763 bound_to 10752
  153.7245  135.6956  153.5009 H   0  0  0  0  0  0  0  0  0  0  0  0  # atno 10764 bound_to 10752
  153.2357  135.4401  155.0596 H   0  0  0  0  0  0  0  0  0  0  0  0  # atno 10765 bound_to 10752
  139.8941  134.8365  156.2741 H   0  0  0  0  0  0  0  0  0  0  0  0  # atno 11005 bound_to 11000
  144.7679  139.6803  143.7207 LP  0  0  0  0  0  0  0  0  0  0  0  0  # atno 17320 bound_to 7965
  146.2109  139.5465  142.9682 LP  0  0  0  0  0  0  0  0  0  0  0  0  # atno 17321 bound_to 7965
  140.7794  143.4849  150.9969 LP  0  0  0  0  0  0  0  0  0  0  0  0  # atno 17342 bound_to 10162
  139.8537  143.7405  152.3177 LP  0  0  0  0  0  0  0  0  0  0  0  0  # atno 17343 bound_to 10162
  157.6130  130.8597  149.8982 LP  0  0  0  0  0  0  0  0  0  0  0  0  # atno 17370 bound_to 10713
  156.0668  130.3691  150.0860 LP  0  0  0  0  0  0  0  0  0  0  0  0  # atno 17371 bound_to 10713
  141.0081  133.7111  156.1068 LP  0  0  0  0  0  0  0  0  0  0  0  0  # atno 17394 bound_to 11000
  140.7405  134.4155  157.5555 LP  0  0  0  0  0  0  0  0  0  0  0  0  # atno 17395 bound_to 11000

$$$$
