AV-unprocessed.smi:2226|AV-procd|sdf|9004|dock3
  -GOLD-   2272012213D 1   1.00000     0.00000
 Structure written by MMmdl.
 40 42  0  0  0  0  0  0  0  0  2 V2000
  146.4203  138.7745  153.6322 C   0  0  0  0  0  0  0  0  0  0  0  0
  146.2040  140.1731  154.0737 N   0  3  2  0  0  0  0  0  0  0  0  0
  147.1555  141.1591  153.5085 C   0  0  1  0  0  0  0  0  0  0  0  0
  146.5776  142.5816  153.6898 C   0  0  0  0  0  0  0  0  0  0  0  0
  146.1726  142.9100  155.1394 C   0  0  0  0  0  0  0  0  0  0  0  0
  145.4609  141.7331  155.8348 C   0  0  0  0  0  0  0  0  0  0  0  0
  146.0959  140.3539  155.5412 C   0  0  2  0  0  0  0  0  0  0  0  0
  147.4495  140.0866  156.2469 C   0  0  0  0  0  0  0  0  0  0  0  0
  148.6914  140.7536  155.6053 C   0  0  2  0  0  0  0  0  0  0  0  0
  149.0771  141.9680  156.3216 N   0  0  0  0  0  0  0  0  0  0  0  0
  149.8853  142.0248  157.3909 C   0  0  0  0  0  0  0  0  0  0  0  0
  150.4144  141.0344  157.8958 O   0  0  0  0  0  0  0  0  0  0  0  0
  150.0342  143.2882  157.8224 N   0  0  0  0  0  0  0  0  0  0  0  0
  150.8229  143.7407  158.9099 C   0  0  0  0  0  0  0  0  0  0  0  0
  151.3276  142.9915  159.8911 N   0  0  0  0  0  0  0  0  0  0  0  0
  152.0160  143.8878  160.6961 C   0  0  0  0  0  0  0  0  0  0  0  0
  151.8872  145.1391  160.1501 C   0  0  0  0  0  0  0  0  0  0  0  0
  151.1308  145.0606  159.0116 O   0  0  0  0  0  0  0  0  0  0  0  0
  148.5850  140.9547  154.0691 C   0  0  0  0  0  0  0  0  0  0  0  0
  147.3783  138.3780  153.9683 H   0  0  0  0  0  0  0  0  0  0  0  0
  146.3928  138.7115  152.5440 H   0  0  0  0  0  0  0  0  0  0  0  0
  145.6328  138.1275  154.0193 H   0  0  0  0  0  0  0  0  0  0  0  0
  147.2070  140.9886  152.4320 H   0  0  0  0  0  0  0  0  0  0  0  0
  147.2798  143.3292  153.3194 H   0  0  0  0  0  0  0  0  0  0  0  0
  145.6901  142.6699  153.0616 H   0  0  0  0  0  0  0  0  0  0  0  0
  147.0405  143.2181  155.7120 H   0  0  0  0  0  0  0  0  0  0  0  0
  145.5200  143.7836  155.1452 H   0  0  0  0  0  0  0  0  0  0  0  0
  145.4087  141.9093  156.9097 H   0  0  0  0  0  0  0  0  0  0  0  0
  144.4269  141.7110  155.4877 H   0  0  0  0  0  0  0  0  0  0  0  0
  145.3894  139.6106  155.9140 H   0  0  0  0  0  0  0  0  0  0  0  0
  147.3790  140.3383  157.3063 H   0  0  0  0  0  0  0  0  0  0  0  0
  147.6165  139.0089  156.2341 H   0  0  0  0  0  0  0  0  0  0  0  0
  149.5205  140.0633  155.7749 H   0  0  0  0  0  0  0  0  0  0  0  0
  148.6874  142.8351  155.9818 H   0  0  0  0  0  0  0  0  0  0  0  0
  149.5329  144.0052  157.3195 H   0  0  0  0  0  0  0  0  0  0  0  0
  152.5386  143.5688  161.5859 H   0  0  0  0  0  0  0  0  0  0  0  0
  152.2465  146.1189  160.4280 H   0  0  0  0  0  0  0  0  0  0  0  0
  148.9944  140.0602  153.5985 H   0  0  0  0  0  0  0  0  0  0  0  0
  149.2364  141.7598  153.7280 H   0  0  0  0  0  0  0  0  0  0  0  0
  145.2992  140.4233  153.7006 H   0  0  0  0  0  0  0  0  0  0  0  0
  1  2  1  0  0  0  0
  1 20  1  0  0  0  0
  1 21  1  0  0  0  0
  1 22  1  0  0  0  0
  2  7  1  0  0  0  0
  2  3  1  0  0  0  0
  2 40  1  0  0  0  0
  3 19  1  0  0  0  0
  3  4  1  0  0  0  0
  3 23  1  0  0  0  0
  4  5  1  0  0  0  0
  4 24  1  0  0  0  0
  4 25  1  0  0  0  0
  5  6  1  0  0  0  0
  5 26  1  0  0  0  0
  5 27  1  0  0  0  0
  6  7  1  0  0  0  0
  6 28  1  0  0  0  0
  6 29  1  0  0  0  0
  7  8  1  0  0  0  0
  7 30  1  0  0  0  0
  8  9  1  0  0  0  0
  8 31  1  0  0  0  0
  8 32  1  0  0  0  0
  9 10  1  0  0  0  0
  9 19  1  0  0  0  0
  9 33  1  0  0  0  0
 10 11  1  0  0  0  0
 10 34  1  0  0  0  0
 11 12  2  0  0  0  0
 11 13  1  0  0  0  0
 13 14  1  0  0  0  0
 13 35  1  0  0  0  0
 14 18  1  0  0  0  0
 14 15  2  0  0  0  0
 15 16  1  0  0  0  0
 16 17  2  0  0  0  0
 16 36  1  0  0  0  0
 17 18  1  0  0  0  0
 17 37  1  0  0  0  0
 19 38  1  0  0  0  0
 19 39  1  0  0  0  0
M  CHG  1   2   1
M  END
> <s_m_source_file>
AV-unprocessed.smi

> <i_m_source_file_index>
2226

> <i_lp_mmshare_version>
43012

> <i_f3d_flags>
0

> <s_epik_input>
W0NIMl0xW0NIMl1bQ0gyXVtDQEhdKE4oW0NIM10pW0NIXTEyKVtDSDJdW0NASF0oW0NIMl0yKVtOSF1DKD1PKVtOSF1jM25bY0hdW2NIXW8z

> <s_epik_cmdline>
J2VwaWtfcHl0aG9uJywgJy1waCcsICc3LjAnLCAnLXRuJywgJzgnLCAnLW1hJywgJzIwMCcsICctbWV0YWxfYmluZGluZycsICctaW1hZScsICc8aW5maWxlLm1hZT4nLCAnLW9tYWUnLCAnPG91dGZpbGUubWFlPic=

> <r_lp_tautomer_probability>
0.785861

> <r_epik_Ionization_Penalty>
0.000929358

> <r_epik_Ionization_Penalty_Charging>
0.000890041

> <r_epik_Ionization_Penalty_Neutral>
3.93161e-05

> <r_epik_State_Penalty>
0.0312137

> <r_epik_Charging_Adjusted_Penalty>
0.0321037

> <i_epik_Tot_Q>
1

> <i_epik_Tot_abs_Q>
1

> <r_epik_Metal_State_Penalty>
0.0605703

> <b_epik_Metal_Only>
0

> <s_lp_Force_Field>
OPLS_2005

> <r_lp_Energy>
35.9518

> <b_lp_Chiralities_Consistent>
1

> <s_lp_Variant>
AV-unprocessed.smi:2226-4

> <Gold.Version>
5.8.1

> <Gold.Id.Protein>
6NUR|6NUR_protein|mol2

> <Gold.PLP.Fitness>
43.3833

> <Gold.PLP.PLP>
-32.1576

> <Gold.PLP.part.hbond>
-3.3897

> <Gold.PLP.part.metal>
0.0000

> <Gold.PLP.part.buried>
-6.6174

> <Gold.PLP.part.nonpolar>
-22.0274

> <Gold.PLP.part.repulsive>
0.2460

> <Gold.PLP.ligand.clash>
0.0000

> <Gold.PLP.ligand.torsion>
0.4031

> <Gold.PLP.Chemscore.Hbond>
3.9920

> <Gold.PLP.Chemscore.CHOScore>
0.0000

> <Gold.PLP.Chemscore.Metal>
0.0000

> <Gold.Chemscore.Hbonds>
donor molecule, donor type, donor heavy atom, donor atom, acceptor molecule, acceptor atom, score
      L1  H     2    40       P1 10175  2.00
      L1  H    10    34       P1  8028  1.00
      L1  H    13    35       P1  8028  1.00

> <Gold.PLP.Chemscore.Internal.Correction>
0.0558

> <Gold.Rescore>
     Score         DG    S(hbond)    S(metal)    S(lipo)     H(rot)  DE(clash)    DE(int)     intcor
     17.77     -19.40       2.62        0.00      65.94       1.00       0.03       1.60       ----

> <Gold.Chemscore.Fitness>
17.7726

> <Gold.Chemscore.DG>
-19.4001

> <Gold.Chemscore.ZeroCoef>
-5.4800

> <Gold.Chemscore.Hbond>
2.6244

> <Gold.Chemscore.Metal>
0.0000

> <Gold.Chemscore.Lipo>
65.9358

> <Gold.Chemscore.Internal_Hbond>
0.0000

> <Gold.Chemscore.DEClash>
0.0317

> <Gold.Chemscore.DEInternal>
1.5958

> <Gold.Chemscore.Rot>
1.0000

> <Gold.Chemscore.Internal.Correction>
   9.000000E+99

> <Gold.Chemscore.Hbonds>
donor molecule, donor type, donor heavy atom, donor atom, acceptor molecule, acceptor atom, score
      L1  H     2    40       P1 10175  0.93
      L1  H    10    34       P1  8028  0.94
      L1  H    13    35       P1  8028  0.38

> <Gold.Chemscore.Hbond.Weighted>
-8.7656

> <Gold.Chemscore.Metal.Weighted>
-0.0000

> <Gold.Chemscore.Lipo.Weighted>
-7.7145

> <Gold.Chemscore.Internal_Hbond.Weighted>
0.0000

> <Gold.Chemscore.DEClash.Weighted>
0.0317

> <Gold.Chemscore.DEInternal.Weighted>
1.5958

> <Gold.Chemscore.Rot.Weighted>
2.5600

> <Gold.Chemscore.Internal.Correction.Weighted>
   9.000000E+99

> <Gold.Protein.RotatedTorsions>
[ 6907 6896 6895 6894 ] final  174.74 input  -60.11 | X-H torsion
[ 7974 7965 7964 7962 ] final -100.63 input  175.53 | X-H torsion
[ 8008 7997 7996 7995 ] final  160.70 input   59.86 | X-H torsion
[ 10167 10162 10161 10158 ] final  173.29 input  -65.29 | X-H torsion
[ 10718 10713 10712 10709 ] final   -8.58 input   66.30 | X-H torsion
[ 10763 10752 10751 10750 ] final   49.50 input  -60.55 | X-H torsion
[ 11005 11000 10999 10996 ] final -171.10 input  -57.11 | X-H torsion

> <Gold.Protein.ActiveResidues>
 VAL166  LYS551  ARG553  GLY616  TRP617  ASP618  TYR619  PRO620  LYS621  CYS622 
 ASP623  PHE694  ASN695  SER759  ASP760  ASP761  ALA762  ILE779  LEU786  VAL792 
 PHE793  MET794  SER795  GLU796  ALA797  LYS798  CYS799  TRP800  GLU811  SER814 

> <Gold.Protein.RotatedAtoms>
  151.7475  133.3325  159.3382 H   0  0  0  0  0  0  0  0  0  0  0  0  # atno 6907 bound_to 6896
  150.7548  134.6222  159.6151 H   0  0  0  0  0  0  0  0  0  0  0  0  # atno 6908 bound_to 6896
  152.3490  134.7033  160.0293 H   0  0  0  0  0  0  0  0  0  0  0  0  # atno 6909 bound_to 6896
  145.2921  140.9355  143.2872 H   0  0  0  0  0  0  0  0  0  0  0  0  # atno 7974 bound_to 7965
  156.2154  140.1797  156.7600 H   0  0  0  0  0  0  0  0  0  0  0  0  # atno 8008 bound_to 7997
  154.5784  140.0670  156.9097 H   0  0  0  0  0  0  0  0  0  0  0  0  # atno 8009 bound_to 7997
  155.2546  140.3331  155.4281 H   0  0  0  0  0  0  0  0  0  0  0  0  # atno 8010 bound_to 7997
  139.5103  144.3278  152.0141 H   0  0  0  0  0  0  0  0  0  0  0  0  # atno 10167 bound_to 10162
  156.7005  130.5092  149.5918 H   0  0  0  0  0  0  0  0  0  0  0  0  # atno 10718 bound_to 10713
  152.9787  135.5909  154.4099 H   0  0  0  0  0  0  0  0  0  0  0  0  # atno 10763 bound_to 10752
  154.3735  135.2767  155.2254 H   0  0  0  0  0  0  0  0  0  0  0  0  # atno 10764 bound_to 10752
  154.4199  135.6061  153.6058 H   0  0  0  0  0  0  0  0  0  0  0  0  # atno 10765 bound_to 10752
  140.5120  134.5792  157.5022 H   0  0  0  0  0  0  0  0  0  0  0  0  # atno 11005 bound_to 11000
  144.9164  139.4465  143.6562 LP  0  0  0  0  0  0  0  0  0  0  0  0  # atno 17320 bound_to 7965
  146.3181  139.8001  142.8967 LP  0  0  0  0  0  0  0  0  0  0  0  0  # atno 17321 bound_to 7965
  140.2718  144.3955  150.6148 LP  0  0  0  0  0  0  0  0  0  0  0  0  # atno 17342 bound_to 10162
  140.6083  143.2168  151.6938 LP  0  0  0  0  0  0  0  0  0  0  0  0  # atno 17343 bound_to 10162
  156.1732  130.6451  151.0863 LP  0  0  0  0  0  0  0  0  0  0  0  0  # atno 17370 bound_to 10713
  157.6975  131.0788  150.6924 LP  0  0  0  0  0  0  0  0  0  0  0  0  # atno 17371 bound_to 10713
  139.9653  134.7383  156.0151 LP  0  0  0  0  0  0  0  0  0  0  0  0  # atno 17394 bound_to 11000
  141.1380  133.6571  156.3649 LP  0  0  0  0  0  0  0  0  0  0  0  0  # atno 17395 bound_to 11000

$$$$
