AV-unprocessed.smi:391|AV-procd|sdf|2479|dock2
  -GOLD-   2262022423D 1   1.00000     0.00000
 Structure written by MMmdl.
 36 37  0  0  0  0  0  0  0  0  1 V2000
  153.9122  136.4686  163.8428 C   0  0  0  0  0  0  0  0  0  0  0  0
  154.0009  136.0581  162.3670 C   0  0  0  0  0  0  0  0  0  0  0  0
  154.9282  134.8484  162.1697 C   0  0  0  0  0  0  0  0  0  0  0  0
  154.4672  137.1926  161.5754 N   0  0  0  0  0  0  0  0  0  0  0  0
  153.8259  137.7264  160.5247 C   0  0  0  0  0  0  0  0  0  0  0  0
  152.7409  137.3120  160.1136 O   0  0  0  0  0  0  0  0  0  0  0  0
  154.5289  138.9126  159.8474 C   0  0  0  0  0  0  0  0  0  0  0  0
  153.8867  140.2166  160.1227 N   0  0  0  0  0  0  0  0  0  0  0  0
  154.0963  140.8308  161.3839 C   0  0  0  0  0  0  0  0  0  0  0  0
  154.8141  140.3047  162.2359 O   0  0  0  0  0  0  0  0  0  0  0  0
  153.3979  142.0977  161.5900 C   0  0  0  0  0  0  0  0  0  0  0  0
  153.5611  142.7327  162.8556 C   0  0  0  0  0  0  0  0  0  0  0  0
  153.6733  143.2363  163.8917 N   0  0  0  0  0  0  0  0  0  0  0  0
  152.6297  142.6340  160.6195 C   0  0  0  0  0  0  0  0  0  0  0  0
  152.4684  142.0386  159.3876 N   0  0  0  0  0  0  0  0  0  0  0  0
  151.5238  142.5431  158.4314 C   0  0  0  0  0  0  0  0  0  0  0  0
  151.7332  143.8998  157.7871 C   0  0  0  0  0  0  0  0  0  0  0  0
  150.6456  143.7132  158.8166 C   0  0  0  0  0  0  0  0  0  0  0  0
  153.0545  140.7809  159.1255 C   0  0  0  0  0  0  0  0  0  0  0  0
  152.8420  140.1850  158.0663 O   0  0  0  0  0  0  0  0  0  0  0  0
  153.5384  135.6480  164.4557 H   0  0  0  0  0  0  0  0  0  0  0  0
  153.2346  137.3128  163.9750 H   0  0  0  0  0  0  0  0  0  0  0  0
  154.8877  136.7586  164.2349 H   0  0  0  0  0  0  0  0  0  0  0  0
  152.9968  135.7840  162.0383 H   0  0  0  0  0  0  0  0  0  0  0  0
  154.5858  133.9934  162.7533 H   0  0  0  0  0  0  0  0  0  0  0  0
  155.9485  135.0756  162.4806 H   0  0  0  0  0  0  0  0  0  0  0  0
  154.9599  134.5391  161.1245 H   0  0  0  0  0  0  0  0  0  0  0  0
  155.3511  137.6003  161.8441 H   0  0  0  0  0  0  0  0  0  0  0  0
  155.5751  138.9088  160.1568 H   0  0  0  0  0  0  0  0  0  0  0  0
  154.5713  138.7312  158.7719 H   0  0  0  0  0  0  0  0  0  0  0  0
  152.1236  143.5695  160.8104 H   0  0  0  0  0  0  0  0  0  0  0  0
  151.0557  141.7886  157.8016 H   0  0  0  0  0  0  0  0  0  0  0  0
  152.6024  144.4838  158.0840 H   0  0  0  0  0  0  0  0  0  0  0  0
  151.4305  144.0118  156.7482 H   0  0  0  0  0  0  0  0  0  0  0  0
  149.6162  143.7038  158.4645 H   0  0  0  0  0  0  0  0  0  0  0  0
  150.8000  144.1720  159.7915 H   0  0  0  0  0  0  0  0  0  0  0  0
  1  2  1  0  0  0  0
  1 21  1  0  0  0  0
  1 22  1  0  0  0  0
  1 23  1  0  0  0  0
  2  3  1  0  0  0  0
  2  4  1  0  0  0  0
  2 24  1  0  0  0  0
  3 25  1  0  0  0  0
  3 26  1  0  0  0  0
  3 27  1  0  0  0  0
  4  5  1  0  0  0  0
  4 28  1  0  0  0  0
  5  6  2  0  0  0  0
  5  7  1  0  0  0  0
  7  8  1  0  0  0  0
  7 29  1  0  0  0  0
  7 30  1  0  0  0  0
  8 19  1  0  0  0  0
  8  9  1  0  0  0  0
  9 10  2  0  0  0  0
  9 11  1  0  0  0  0
 11 12  1  0  0  0  0
 11 14  2  0  0  0  0
 12 13  3  0  0  0  0
 14 15  1  0  0  0  0
 14 31  1  0  0  0  0
 15 16  1  0  0  0  0
 15 19  1  0  0  0  0
 16 18  1  0  0  0  0
 16 17  1  0  0  0  0
 16 32  1  0  0  0  0
 17 18  1  0  0  0  0
 17 33  1  0  0  0  0
 17 34  1  0  0  0  0
 18 35  1  0  0  0  0
 18 36  1  0  0  0  0
 19 20  2  0  0  0  0
M  END
> <s_m_source_file>
AV-unprocessed.smi

> <i_m_source_file_index>
391

> <i_lp_mmshare_version>
43012

> <i_f3d_flags>
0

> <s_epik_input>
W0NIM11bQ0hdKFtDSDNdKVtOSF1DKD1PKVtDSDJdbjFjKD1PKWMoQyNOKVtjSF1uKGMxPU8pW0NIXTJbQ0gyXVtDSDJdMg==

> <s_epik_cmdline>
J2VwaWtfcHl0aG9uJywgJy1waCcsICc3LjAnLCAnLXRuJywgJzgnLCAnLW1hJywgJzIwMCcsICctbWV0YWxfYmluZGluZycsICctaW1hZScsICc8aW5maWxlLm1hZT4nLCAnLW9tYWUnLCAnPG91dGZpbGUubWFlPic=

> <r_lp_tautomer_probability>
1

> <r_epik_Ionization_Penalty>
2.07526e-08

> <r_epik_Ionization_Penalty_Charging>
8.22213e-11

> <r_epik_Ionization_Penalty_Neutral>
2.06703e-08

> <r_epik_State_Penalty>
-0

> <r_epik_Charging_Adjusted_Penalty>
8.22213e-11

> <i_epik_Tot_Q>
0

> <i_epik_Tot_abs_Q>
0

> <r_epik_Metal_State_Penalty>
-0

> <b_epik_Metal_Only>
0

> <s_lp_Force_Field>
OPLS_2005

> <r_lp_Energy>
27.641

> <b_lp_Chiralities_Consistent>
1

> <s_lp_Variant>
AV-unprocessed.smi:391-1

> <Gold.Version>
5.8.1

> <Gold.Id.Protein>
6NUR|6NUR_protein|mol2

> <Gold.PLP.Fitness>
48.1280

> <Gold.PLP.PLP>
-46.0549

> <Gold.PLP.part.hbond>
-1.9584

> <Gold.PLP.part.metal>
0.0000

> <Gold.PLP.part.buried>
-5.6578

> <Gold.PLP.part.nonpolar>
-36.9819

> <Gold.PLP.part.repulsive>
0.1296

> <Gold.PLP.ligand.clash>
0.0000

> <Gold.PLP.ligand.torsion>
0.5422

> <Gold.PLP.Chemscore.Hbond>
0.9760

> <Gold.PLP.Chemscore.CHOScore>
0.0000

> <Gold.PLP.Chemscore.Metal>
0.0000

> <Gold.Chemscore.Hbonds>
donor molecule, donor type, donor heavy atom, donor atom, acceptor molecule, acceptor atom, score
      P1  H  7997  8008       L1    20  0.95

> <Gold.PLP.Chemscore.Internal.Correction>
0.2293

> <Gold.Rescore>
     Score         DG    S(hbond)    S(metal)    S(lipo)     H(rot)  DE(clash)    DE(int)     intcor
     12.68     -13.28       0.94        0.00      79.64       1.82       0.05       0.56       ----

> <Gold.Chemscore.Fitness>
12.6763

> <Gold.Chemscore.DG>
-13.2807

> <Gold.Chemscore.ZeroCoef>
-5.4800

> <Gold.Chemscore.Hbond>
0.9435

> <Gold.Chemscore.Metal>
0.0000

> <Gold.Chemscore.Lipo>
79.6356

> <Gold.Chemscore.Internal_Hbond>
0.0000

> <Gold.Chemscore.DEClash>
0.0461

> <Gold.Chemscore.DEInternal>
0.5583

> <Gold.Chemscore.Rot>
1.8234

> <Gold.Chemscore.Internal.Correction>
   9.000000E+99

> <Gold.Chemscore.Hbonds>
donor molecule, donor type, donor heavy atom, donor atom, acceptor molecule, acceptor atom, score
      P1  H  7997  8008       L1    20  0.60

> <Gold.Chemscore.Hbond.Weighted>
-3.1513

> <Gold.Chemscore.Metal.Weighted>
-0.0000

> <Gold.Chemscore.Lipo.Weighted>
-9.3174

> <Gold.Chemscore.Internal_Hbond.Weighted>
0.0000

> <Gold.Chemscore.DEClash.Weighted>
0.0461

> <Gold.Chemscore.DEInternal.Weighted>
0.5583

> <Gold.Chemscore.Rot.Weighted>
4.6680

> <Gold.Chemscore.Internal.Correction.Weighted>
   9.000000E+99

> <Gold.Protein.RotatedTorsions>
[ 6907 6896 6895 6894 ] final  -36.42 input  -60.11 | X-H torsion
[ 7974 7965 7964 7962 ] final   49.95 input  175.53 | X-H torsion
[ 8008 7997 7996 7995 ] final  -84.92 input   59.86 | X-H torsion
[ 10167 10162 10161 10158 ] final  -63.32 input  -65.29 | X-H torsion
[ 10718 10713 10712 10709 ] final  172.44 input   66.30 | X-H torsion
[ 10763 10752 10751 10750 ] final -168.31 input  -60.55 | X-H torsion
[ 11005 11000 10999 10996 ] final  -86.37 input  -57.11 | X-H torsion

> <Gold.Protein.ActiveResidues>
 VAL166  LYS551  ARG553  GLY616  TRP617  ASP618  TYR619  PRO620  LYS621  CYS622 
 ASP623  PHE694  ASN695  SER759  ASP760  ASP761  ALA762  ILE779  LEU786  VAL792 
 PHE793  MET794  SER795  GLU796  ALA797  LYS798  CYS799  TRP800  GLU811  SER814 

> <Gold.Protein.RotatedAtoms>
  151.0274  134.9514  159.8092 H   0  0  0  0  0  0  0  0  0  0  0  0  # atno 6907 bound_to 6896
  152.5338  134.2824  159.9022 H   0  0  0  0  0  0  0  0  0  0  0  0  # atno 6908 bound_to 6896
  151.2833  133.4157  159.2662 H   0  0  0  0  0  0  0  0  0  0  0  0  # atno 6909 bound_to 6896
  146.0059  139.4489  142.9986 H   0  0  0  0  0  0  0  0  0  0  0  0  # atno 7974 bound_to 7965
  154.6350  140.0598  156.9778 H   0  0  0  0  0  0  0  0  0  0  0  0  # atno 8008 bound_to 7997
  155.1605  140.3282  155.4394 H   0  0  0  0  0  0  0  0  0  0  0  0  # atno 8009 bound_to 7997
  156.2502  140.1931  156.6713 H   0  0  0  0  0  0  0  0  0  0  0  0  # atno 8010 bound_to 7997
  140.5878  143.2336  151.6204 H   0  0  0  0  0  0  0  0  0  0  0  0  # atno 10167 bound_to 10162
  156.9790  131.0113  151.2886 H   0  0  0  0  0  0  0  0  0  0  0  0  # atno 10718 bound_to 10713
  154.6641  135.2929  154.9828 H   0  0  0  0  0  0  0  0  0  0  0  0  # atno 10763 bound_to 10752
  154.0877  135.6595  153.4851 H   0  0  0  0  0  0  0  0  0  0  0  0  # atno 10764 bound_to 10752
  153.0447  135.5212  154.7606 H   0  0  0  0  0  0  0  0  0  0  0  0  # atno 10765 bound_to 10752
  141.1631  133.7451  156.9151 H   0  0  0  0  0  0  0  0  0  0  0  0  # atno 11005 bound_to 11000
  145.7417  141.0006  143.1297 LP  0  0  0  0  0  0  0  0  0  0  0  0  # atno 17320 bound_to 7965
  144.6935  139.9107  143.7463 LP  0  0  0  0  0  0  0  0  0  0  0  0  # atno 17321 bound_to 7965
  139.5209  144.3210  152.0910 LP  0  0  0  0  0  0  0  0  0  0  0  0  # atno 17342 bound_to 10162
  140.2370  144.4309  150.6276 LP  0  0  0  0  0  0  0  0  0  0  0  0  # atno 17343 bound_to 10162
  157.5540  130.8201  149.8180 LP  0  0  0  0  0  0  0  0  0  0  0  0  # atno 17370 bound_to 10713
  156.0252  130.3782  150.1844 LP  0  0  0  0  0  0  0  0  0  0  0  0  # atno 17371 bound_to 10713
  140.1490  134.9243  157.2567 LP  0  0  0  0  0  0  0  0  0  0  0  0  # atno 17394 bound_to 11000
  140.2746  134.3421  155.7362 LP  0  0  0  0  0  0  0  0  0  0  0  0  # atno 17395 bound_to 11000

$$$$
