AV-unprocessed.smi:2520|AV-procd|sdf|9913|dock10
  -GOLD-   2272013553D 1   1.00000     0.00000
 Structure written by MMmdl.
 41 44  0  0  0  0  0  0  0  0  1 V2000
  145.9227  137.5049  154.8361 O   0  0  0  0  0  0  0  0  0  0  0  0
  146.8554  137.2022  154.0940 C   0  0  0  0  0  0  0  0  0  0  0  0
  146.6742  136.3688  153.0472 N   0  0  0  0  0  0  0  0  0  0  0  0
  145.5102  135.6968  152.5706 C   0  0  0  0  0  0  0  0  0  0  0  0
  145.5720  135.2911  151.2201 C   0  0  0  0  0  0  0  0  0  0  0  0
  144.4687  134.6145  150.6726 C   0  0  0  0  0  0  0  0  0  0  0  0
  143.3702  134.3845  151.5181 C   0  0  0  0  0  0  0  0  0  0  0  0
  143.3520  134.7874  152.8067 N   0  0  0  0  0  0  0  0  0  0  0  0
  144.4064  135.4300  153.3192 N   0  0  0  0  0  0  0  0  0  0  0  0
  148.1003  137.6701  154.2690 N   0  0  0  0  0  0  0  0  0  0  0  0
  148.5118  138.6062  155.3190 C   0  0  2  0  0  0  0  0  0  0  0  0
  147.9890  140.0318  155.1174 C   0  0  2  0  0  0  0  0  0  0  0  0
  146.8769  140.6556  154.3536 C   0  0  0  0  0  0  0  0  0  0  0  0
  147.6673  141.8782  153.8178 C   0  0  0  0  0  0  0  0  0  0  0  0
  149.0586  141.6257  154.1397 O   0  0  0  0  0  0  0  0  0  0  0  0
  149.1562  140.2146  154.1691 C   0  0  1  0  0  0  0  0  0  0  0  0
  149.9351  139.2475  155.0924 C   0  0  0  0  0  0  0  0  0  0  0  0
  150.6519  139.8700  156.3082 C   0  0  0  0  0  0  0  0  0  0  0  0
  152.0582  139.2749  156.3944 C   0  0  0  0  0  0  0  0  0  0  0  0
  152.3672  138.8277  154.9733 C   0  0  0  0  0  0  0  0  0  0  0  0
  151.0130  138.3751  154.4357 C   0  0  0  0  0  0  0  0  0  0  0  0
  147.5171  136.1555  152.5341 H   0  0  0  0  0  0  0  0  0  0  0  0
  146.4436  135.4924  150.6142 H   0  0  0  0  0  0  0  0  0  0  0  0
  144.4650  134.2839  149.6447 H   0  0  0  0  0  0  0  0  0  0  0  0
  142.4922  133.8696  151.1572 H   0  0  0  0  0  0  0  0  0  0  0  0
  148.8131  137.3712  153.6184 H   0  0  0  0  0  0  0  0  0  0  0  0
  148.3681  138.2242  156.3308 H   0  0  0  0  0  0  0  0  0  0  0  0
  148.1283  140.5797  156.0549 H   0  0  0  0  0  0  0  0  0  0  0  0
  146.5195  140.0154  153.5460 H   0  0  0  0  0  0  0  0  0  0  0  0
  146.0354  140.9409  154.9851 H   0  0  0  0  0  0  0  0  0  0  0  0
  147.5391  141.9802  152.7395 H   0  0  0  0  0  0  0  0  0  0  0  0
  147.3463  142.8087  154.2867 H   0  0  0  0  0  0  0  0  0  0  0  0
  148.9941  139.8018  153.1679 H   0  0  0  0  0  0  0  0  0  0  0  0
  150.7314  140.9508  156.1838 H   0  0  0  0  0  0  0  0  0  0  0  0
  150.1090  139.7038  157.2392 H   0  0  0  0  0  0  0  0  0  0  0  0
  152.7924  139.9806  156.7840 H   0  0  0  0  0  0  0  0  0  0  0  0
  152.0474  138.4066  157.0545 H   0  0  0  0  0  0  0  0  0  0  0  0
  152.7301  139.6759  154.3913 H   0  0  0  0  0  0  0  0  0  0  0  0
  153.1228  138.0426  154.9314 H   0  0  0  0  0  0  0  0  0  0  0  0
  150.8589  137.3288  154.7031 H   0  0  0  0  0  0  0  0  0  0  0  0
  150.9862  138.4275  153.3467 H   0  0  0  0  0  0  0  0  0  0  0  0
  1  2  2  0  0  0  0
  2  3  1  0  0  0  0
  2 10  1  0  0  0  0
  3  4  1  0  0  0  0
  3 22  1  0  0  0  0
  4  9  1  0  0  0  0
  4  5  2  0  0  0  0
  5  6  1  0  0  0  0
  5 23  1  0  0  0  0
  6  7  2  0  0  0  0
  6 24  1  0  0  0  0
  7  8  1  0  0  0  0
  7 25  1  0  0  0  0
  8  9  2  0  0  0  0
 10 11  1  0  0  0  0
 10 26  1  0  0  0  0
 11 17  1  0  0  0  0
 11 12  1  0  0  0  0
 11 27  1  0  0  0  0
 12 16  1  0  0  0  0
 12 13  1  0  0  0  0
 12 28  1  0  0  0  0
 13 14  1  0  0  0  0
 13 29  1  0  0  0  0
 13 30  1  0  0  0  0
 14 15  1  0  0  0  0
 14 31  1  0  0  0  0
 14 32  1  0  0  0  0
 15 16  1  0  0  0  0
 16 17  1  0  0  0  0
 16 33  1  0  0  0  0
 17 21  1  0  0  0  0
 17 18  1  0  0  0  0
 18 19  1  0  0  0  0
 18 34  1  0  0  0  0
 18 35  1  0  0  0  0
 19 20  1  0  0  0  0
 19 36  1  0  0  0  0
 19 37  1  0  0  0  0
 20 21  1  0  0  0  0
 20 38  1  0  0  0  0
 20 39  1  0  0  0  0
 21 40  1  0  0  0  0
 21 41  1  0  0  0  0
M  END
> <s_m_source_file>
AV-unprocessed.smi

> <i_m_source_file_index>
2520

> <i_lp_mmshare_version>
43012

> <i_f3d_flags>
0

> <s_epik_input>
bjFuW2NIXVtjSF1bY0hdYzFbTkhdQyg9TylbTkhdW0NAQEhdMltDQEBIXShbQ0gyXVtDSDJdTzMpW0NASF0zQzI0W0NIMl1bQ0gyXVtDSDJdW0NIMl00

> <s_epik_cmdline>
J2VwaWtfcHl0aG9uJywgJy1waCcsICc3LjAnLCAnLXRuJywgJzgnLCAnLW1hJywgJzIwMCcsICctbWV0YWxfYmluZGluZycsICctaW1hZScsICc8aW5maWxlLm1hZT4nLCAnLW9tYWUnLCAnPG91dGZpbGUubWFlPic=

> <r_lp_tautomer_probability>
1

> <r_epik_Ionization_Penalty>
0.00552561

> <r_epik_Ionization_Penalty_Charging>
0

> <r_epik_Ionization_Penalty_Neutral>
0.00552561

> <r_epik_State_Penalty>
-0

> <r_epik_Charging_Adjusted_Penalty>
0

> <i_epik_Tot_Q>
0

> <i_epik_Tot_abs_Q>
0

> <r_epik_Metal_State_Penalty>
-0

> <b_epik_Metal_Only>
0

> <s_lp_Force_Field>
OPLS_2005

> <r_lp_Energy>
86.2541

> <b_lp_Chiralities_Consistent>
1

> <s_lp_Variant>
AV-unprocessed.smi:2520-7

> <Gold.Version>
5.8.1

> <Gold.Id.Protein>
6NUR|6NUR_protein|mol2

> <Gold.PLP.Fitness>
40.9228

> <Gold.PLP.PLP>
-31.2724

> <Gold.PLP.part.hbond>
-3.3134

> <Gold.PLP.part.metal>
0.0000

> <Gold.PLP.part.buried>
-1.8413

> <Gold.PLP.part.nonpolar>
-25.3908

> <Gold.PLP.part.repulsive>
0.4311

> <Gold.PLP.ligand.clash>
0.0000

> <Gold.PLP.ligand.torsion>
0.2375

> <Gold.PLP.Chemscore.Hbond>
2.3691

> <Gold.PLP.Chemscore.CHOScore>
0.9149

> <Gold.PLP.Chemscore.Metal>
0.0000

> <Gold.Chemscore.Hbonds>
donor molecule, donor type, donor heavy atom, donor atom, acceptor molecule, acceptor atom, score
      L1  H     3    22       P1  7948  1.00
      L1  H    10    26       P1  7948  0.68
      P1  H  8011  8017       L1    15  0.37
      L1  C     7    25       P1 10186  1.00

> <Gold.PLP.Chemscore.Internal.Correction>
0.2731

> <Gold.Rescore>
     Score         DG    S(hbond)    S(metal)    S(lipo)     H(rot)  DE(clash)    DE(int)     intcor
     16.60     -18.20       1.87        0.00      77.23       1.00       0.26       1.34       ----

> <Gold.Chemscore.Fitness>
16.5977

> <Gold.Chemscore.DG>
-18.1972

> <Gold.Chemscore.ZeroCoef>
-5.4800

> <Gold.Chemscore.Hbond>
1.8686

> <Gold.Chemscore.Metal>
0.0000

> <Gold.Chemscore.Lipo>
77.2306

> <Gold.Chemscore.Internal_Hbond>
0.0000

> <Gold.Chemscore.DEClash>
0.2561

> <Gold.Chemscore.DEInternal>
1.3435

> <Gold.Chemscore.Rot>
1.0000

> <Gold.Chemscore.Internal.Correction>
   9.000000E+99

> <Gold.Chemscore.Hbonds>
donor molecule, donor type, donor heavy atom, donor atom, acceptor molecule, acceptor atom, score
      L1  H     3    22       P1  7948  0.97
      L1  H    10    26       P1  7948  0.65
      P1  H  8011  8017       L1    15  0.04

> <Gold.Chemscore.Hbond.Weighted>
-6.2413

> <Gold.Chemscore.Metal.Weighted>
-0.0000

> <Gold.Chemscore.Lipo.Weighted>
-9.0360

> <Gold.Chemscore.Internal_Hbond.Weighted>
0.0000

> <Gold.Chemscore.DEClash.Weighted>
0.2561

> <Gold.Chemscore.DEInternal.Weighted>
1.3435

> <Gold.Chemscore.Rot.Weighted>
2.5600

> <Gold.Chemscore.Internal.Correction.Weighted>
   9.000000E+99

> <Gold.Protein.RotatedTorsions>
[ 6907 6896 6895 6894 ] final  -49.22 input  -60.11 | X-H torsion
[ 7974 7965 7964 7962 ] final  -95.54 input  175.53 | X-H torsion
[ 8008 7997 7996 7995 ] final  154.94 input   59.86 | X-H torsion
[ 10167 10162 10161 10158 ] final  -45.20 input  -65.29 | X-H torsion
[ 10718 10713 10712 10709 ] final   52.50 input   66.30 | X-H torsion
[ 10763 10752 10751 10750 ] final -125.46 input  -60.55 | X-H torsion
[ 11005 11000 10999 10996 ] final -101.41 input  -57.11 | X-H torsion

> <Gold.Protein.ActiveResidues>
 VAL166  LYS551  ARG553  GLY616  TRP617  ASP618  TYR619  PRO620  LYS621  CYS622 
 ASP623  PHE694  ASN695  SER759  ASP760  ASP761  ALA762  ILE779  LEU786  VAL792 
 PHE793  MET794  SER795  GLU796  ALA797  LYS798  CYS799  TRP800  GLU811  SER814 

> <Gold.Protein.RotatedAtoms>
  150.8826  134.8220  159.7235 H   0  0  0  0  0  0  0  0  0  0  0  0  # atno 6907 bound_to 6896
  152.4788  134.4772  159.9664 H   0  0  0  0  0  0  0  0  0  0  0  0  # atno 6908 bound_to 6896
  151.4845  133.3500  159.2879 H   0  0  0  0  0  0  0  0  0  0  0  0  # atno 6909 bound_to 6896
  145.3587  140.9488  143.2513 H   0  0  0  0  0  0  0  0  0  0  0  0  # atno 7974 bound_to 7965
  156.2505  140.1953  156.6724 H   0  0  0  0  0  0  0  0  0  0  0  0  # atno 8008 bound_to 7997
  154.6383  140.0587  156.9841 H   0  0  0  0  0  0  0  0  0  0  0  0  # atno 8009 bound_to 7997
  155.1603  140.3259  155.4415 H   0  0  0  0  0  0  0  0  0  0  0  0  # atno 8010 bound_to 7997
  140.6867  143.2891  151.3605 H   0  0  0  0  0  0  0  0  0  0  0  0  # atno 10167 bound_to 10162
  157.5081  130.8482  149.8400 H   0  0  0  0  0  0  0  0  0  0  0  0  # atno 10718 bound_to 10713
  154.8736  135.4029  154.3272 H   0  0  0  0  0  0  0  0  0  0  0  0  # atno 10763 bound_to 10752
  153.4091  135.7020  153.6377 H   0  0  0  0  0  0  0  0  0  0  0  0  # atno 10764 bound_to 10752
  153.5087  135.3712  155.2547 H   0  0  0  0  0  0  0  0  0  0  0  0  # atno 10765 bound_to 10752
  141.1232  133.8476  157.1229 H   0  0  0  0  0  0  0  0  0  0  0  0  # atno 11005 bound_to 11000
  144.8663  139.5103  143.6789 LP  0  0  0  0  0  0  0  0  0  0  0  0  # atno 17320 bound_to 7965
  146.2937  139.7213  142.9142 LP  0  0  0  0  0  0  0  0  0  0  0  0  # atno 17321 bound_to 7965
  139.6232  144.0866  152.2410 LP  0  0  0  0  0  0  0  0  0  0  0  0  # atno 17342 bound_to 10162
  140.0317  144.6076  150.7483 LP  0  0  0  0  0  0  0  0  0  0  0  0  # atno 17343 bound_to 10162
  156.0271  130.3776  150.1792 LP  0  0  0  0  0  0  0  0  0  0  0  0  # atno 17370 bound_to 10713
  156.9982  130.9914  151.3397 LP  0  0  0  0  0  0  0  0  0  0  0  0  # atno 17371 bound_to 10713
  140.0206  134.9947  157.0584 LP  0  0  0  0  0  0  0  0  0  0  0  0  # atno 17394 bound_to 11000
  140.4446  134.1645  155.7176 LP  0  0  0  0  0  0  0  0  0  0  0  0  # atno 17395 bound_to 11000

$$$$
