AV-unprocessed.smi:765|AV-procd|sdf|3644|dock4
  -GOLD-   22720 1 43D 1   1.00000     0.00000
 Structure written by MMmdl.
 39 40  0  0  0  0  0  0  0  0  1 V2000
  149.3484  136.9161  158.3273 C   0  0  0  0  0  0  0  0  0  0  0  0
  149.5170  138.2487  157.5837 C   0  0  1  0  0  0  0  0  0  0  0  0
  148.1742  138.9885  157.4466 C   0  0  0  0  0  0  0  0  0  0  0  0
  148.3414  140.3303  156.7201 C   0  0  0  0  0  0  0  0  0  0  0  0
  149.3868  141.2099  157.4243 C   0  0  0  0  0  0  0  0  0  0  0  0
  150.7562  140.5065  157.5521 C   0  0  1  0  0  0  0  0  0  0  0  0
  151.3282  140.2997  156.2061 C   0  0  0  0  0  0  0  0  0  0  0  0
  151.7755  140.1381  155.1510 N   0  0  0  0  0  0  0  0  0  0  0  0
  151.6129  141.3755  158.3612 N   0  0  0  0  0  0  0  0  0  0  0  0
  152.8669  141.1213  158.7720 C   0  0  0  0  0  0  0  0  0  0  0  0
  153.4837  140.0989  158.4717 O   0  0  0  0  0  0  0  0  0  0  0  0
  153.5047  142.1855  159.6778 C   0  0  2  0  0  0  0  0  0  0  0  0
  153.8097  141.6650  161.0945 C   0  0  0  0  0  0  0  0  0  0  0  0
  152.6598  143.3719  159.7277 N   0  0  0  0  0  0  0  0  0  0  0  0
  152.2120  144.0720  160.8317 C   0  0  0  0  0  0  0  0  0  0  0  0
  151.4462  145.1067  160.3769 C   0  0  0  0  0  0  0  0  0  0  0  0
  151.4863  144.9598  158.9625 C   0  0  0  0  0  0  0  0  0  0  0  0
  152.2120  143.9225  158.5776 N   0  0  0  0  0  0  0  0  0  0  0  0
  150.5579  139.1510  158.2771 C   0  0  0  0  0  0  0  0  0  0  0  0
  148.9850  137.0721  159.3436 H   0  0  0  0  0  0  0  0  0  0  0  0
  150.2955  136.3794  158.3910 H   0  0  0  0  0  0  0  0  0  0  0  0
  148.6368  136.2681  157.8150 H   0  0  0  0  0  0  0  0  0  0  0  0
  149.8789  138.0182  156.5810 H   0  0  0  0  0  0  0  0  0  0  0  0
  147.4581  138.3676  156.9075 H   0  0  0  0  0  0  0  0  0  0  0  0
  147.7472  139.1631  158.4354 H   0  0  0  0  0  0  0  0  0  0  0  0
  148.6368  140.1550  155.6851 H   0  0  0  0  0  0  0  0  0  0  0  0
  147.3844  140.8513  156.6820 H   0  0  0  0  0  0  0  0  0  0  0  0
  149.4979  142.1485  156.8796 H   0  0  0  0  0  0  0  0  0  0  0  0
  149.0132  141.4758  158.4147 H   0  0  0  0  0  0  0  0  0  0  0  0
  151.2000  142.2460  158.6630 H   0  0  0  0  0  0  0  0  0  0  0  0
  154.4571  142.4654  159.2224 H   0  0  0  0  0  0  0  0  0  0  0  0
  154.4551  140.7866  161.0620 H   0  0  0  0  0  0  0  0  0  0  0  0
  152.9004  141.3915  161.6315 H   0  0  0  0  0  0  0  0  0  0  0  0
  154.3232  142.4253  161.6836 H   0  0  0  0  0  0  0  0  0  0  0  0
  152.4713  143.7764  161.8379 H   0  0  0  0  0  0  0  0  0  0  0  0
  150.9360  145.8549  160.9652 H   0  0  0  0  0  0  0  0  0  0  0  0
  151.0125  145.5716  158.2089 H   0  0  0  0  0  0  0  0  0  0  0  0
  150.2459  139.3307  159.3074 H   0  0  0  0  0  0  0  0  0  0  0  0
  151.5070  138.6169  158.3386 H   0  0  0  0  0  0  0  0  0  0  0  0
  1  2  1  0  0  0  0
  1 20  1  0  0  0  0
  1 21  1  0  0  0  0
  1 22  1  0  0  0  0
  2 19  1  0  0  0  0
  2  3  1  0  0  0  0
  2 23  1  0  0  0  0
  3  4  1  0  0  0  0
  3 24  1  0  0  0  0
  3 25  1  0  0  0  0
  4  5  1  0  0  0  0
  4 26  1  0  0  0  0
  4 27  1  0  0  0  0
  5  6  1  0  0  0  0
  5 28  1  0  0  0  0
  5 29  1  0  0  0  0
  6  7  1  0  0  0  0
  6  9  1  0  0  0  0
  6 19  1  0  0  0  0
  7  8  3  0  0  0  0
  9 10  1  0  0  0  0
  9 30  1  0  0  0  0
 10 11  2  0  0  0  0
 10 12  1  0  0  0  0
 12 13  1  0  0  0  0
 12 14  1  0  0  0  0
 12 31  1  0  0  0  0
 13 32  1  0  0  0  0
 13 33  1  0  0  0  0
 13 34  1  0  0  0  0
 14 18  1  0  0  0  0
 14 15  1  0  0  0  0
 15 16  2  0  0  0  0
 15 35  1  0  0  0  0
 16 17  1  0  0  0  0
 16 36  1  0  0  0  0
 17 18  2  0  0  0  0
 17 37  1  0  0  0  0
 19 38  1  0  0  0  0
 19 39  1  0  0  0  0
M  END
> <s_m_source_file>
AV-unprocessed.smi

> <i_m_source_file_index>
765

> <i_lp_mmshare_version>
43012

> <i_f3d_flags>
0

> <s_epik_input>
W0NIM11bQ0BASF0oW0NIMl0xKVtDSDJdW0NIMl1bQ0gyXVtDQEBdMShDI04pW05IXUMoPU8pW0NASF0oW0NIM10pbjJbY0hdW2NIXVtjSF1uMg==

> <s_epik_cmdline>
J2VwaWtfcHl0aG9uJywgJy1waCcsICc3LjAnLCAnLXRuJywgJzgnLCAnLW1hJywgJzIwMCcsICctbWV0YWxfYmluZGluZycsICctaW1hZScsICc8aW5maWxlLm1hZT4nLCAnLW9tYWUnLCAnPG91dGZpbGUubWFlPic=

> <r_lp_tautomer_probability>
1

> <r_epik_Ionization_Penalty>
2.71142e-05

> <r_epik_Ionization_Penalty_Charging>
0

> <r_epik_Ionization_Penalty_Neutral>
2.71142e-05

> <r_epik_State_Penalty>
-0

> <r_epik_Charging_Adjusted_Penalty>
0

> <i_epik_Tot_Q>
0

> <i_epik_Tot_abs_Q>
0

> <r_epik_Metal_State_Penalty>
-0

> <b_epik_Metal_Only>
0

> <s_lp_Force_Field>
OPLS_2005

> <r_lp_Energy>
10.7607

> <b_lp_Chiralities_Consistent>
1

> <s_lp_Variant>
AV-unprocessed.smi:765-2

> <Gold.Version>
5.8.1

> <Gold.Id.Protein>
6NUR|6NUR_protein|mol2

> <Gold.PLP.Fitness>
44.7478

> <Gold.PLP.PLP>
-39.3543

> <Gold.PLP.part.hbond>
-2.0000

> <Gold.PLP.part.metal>
0.0000

> <Gold.PLP.part.buried>
-7.3741

> <Gold.PLP.part.nonpolar>
-30.2789

> <Gold.PLP.part.repulsive>
0.1431

> <Gold.PLP.ligand.clash>
0.0000

> <Gold.PLP.ligand.torsion>
0.2155

> <Gold.PLP.Chemscore.Hbond>
1.9200

> <Gold.PLP.Chemscore.CHOScore>
0.0000

> <Gold.PLP.Chemscore.Metal>
0.0000

> <Gold.Chemscore.Hbonds>
donor molecule, donor type, donor heavy atom, donor atom, acceptor molecule, acceptor atom, score
      P1  H  7989  7998       L1     8  0.90
      P1  H  7997  8010       L1    11  0.94

> <Gold.PLP.Chemscore.Internal.Correction>
0.0644

> <Gold.Rescore>
     Score         DG    S(hbond)    S(metal)    S(lipo)     H(rot)  DE(clash)    DE(int)     intcor
     15.48     -17.06       1.95        0.00      74.44       1.42       0.01       1.57       ----

> <Gold.Chemscore.Fitness>
15.4813

> <Gold.Chemscore.DG>
-17.0618

> <Gold.Chemscore.ZeroCoef>
-5.4800

> <Gold.Chemscore.Hbond>
1.9471

> <Gold.Chemscore.Metal>
0.0000

> <Gold.Chemscore.Lipo>
74.4391

> <Gold.Chemscore.Internal_Hbond>
0.0000

> <Gold.Chemscore.DEClash>
0.0149

> <Gold.Chemscore.DEInternal>
1.5656

> <Gold.Chemscore.Rot>
1.4183

> <Gold.Chemscore.Internal.Correction>
   9.000000E+99

> <Gold.Chemscore.Hbonds>
donor molecule, donor type, donor heavy atom, donor atom, acceptor molecule, acceptor atom, score
      P1  H  7989  7998       L1     8  0.88
      P1  H  7997  8010       L1    11  0.89

> <Gold.Chemscore.Hbond.Weighted>
-6.5033

> <Gold.Chemscore.Metal.Weighted>
-0.0000

> <Gold.Chemscore.Lipo.Weighted>
-8.7094

> <Gold.Chemscore.Internal_Hbond.Weighted>
0.0000

> <Gold.Chemscore.DEClash.Weighted>
0.0149

> <Gold.Chemscore.DEInternal.Weighted>
1.5656

> <Gold.Chemscore.Rot.Weighted>
3.6309

> <Gold.Chemscore.Internal.Correction.Weighted>
   9.000000E+99

> <Gold.Protein.RotatedTorsions>
[ 6907 6896 6895 6894 ] final -122.46 input  -60.11 | X-H torsion
[ 7974 7965 7964 7962 ] final    2.63 input  175.53 | X-H torsion
[ 8008 7997 7996 7995 ] final   37.68 input   59.86 | X-H torsion
[ 10167 10162 10161 10158 ] final -171.42 input  -65.29 | X-H torsion
[ 10718 10713 10712 10709 ] final -172.08 input   66.30 | X-H torsion
[ 10763 10752 10751 10750 ] final   -2.83 input  -60.55 | X-H torsion
[ 11005 11000 10999 10996 ] final  112.72 input  -57.11 | X-H torsion

> <Gold.Protein.ActiveResidues>
 VAL166  LYS551  ARG553  GLY616  TRP617  ASP618  TYR619  PRO620  LYS621  CYS622 
 ASP623  PHE694  ASN695  SER759  ASP760  ASP761  ALA762  ILE779  LEU786  VAL792 
 PHE793  MET794  SER795  GLU796  ALA797  LYS798  CYS799  TRP800  GLU811  SER814 

> <Gold.Protein.RotatedAtoms>
  150.8578  133.7688  159.3002 H   0  0  0  0  0  0  0  0  0  0  0  0  # atno 6907 bound_to 6896
  151.5340  135.1067  159.9919 H   0  0  0  0  0  0  0  0  0  0  0  0  # atno 6908 bound_to 6896
  152.4603  133.7765  159.6883 H   0  0  0  0  0  0  0  0  0  0  0  0  # atno 6909 bound_to 6896
  146.2444  140.0807  142.8357 H   0  0  0  0  0  0  0  0  0  0  0  0  # atno 7974 bound_to 7965
  155.2078  140.3321  155.4333 H   0  0  0  0  0  0  0  0  0  0  0  0  # atno 8008 bound_to 7997
  156.2382  140.1882  156.7110 H   0  0  0  0  0  0  0  0  0  0  0  0  # atno 8009 bound_to 7997
  154.6098  140.0610  156.9465 H   0  0  0  0  0  0  0  0  0  0  0  0  # atno 8010 bound_to 7997
  139.5803  144.1438  152.1506 H   0  0  0  0  0  0  0  0  0  0  0  0  # atno 10167 bound_to 10162
  156.7503  130.9375  151.3114 H   0  0  0  0  0  0  0  0  0  0  0  0  # atno 10718 bound_to 10713
  153.3632  135.6991  153.6696 H   0  0  0  0  0  0  0  0  0  0  0  0  # atno 10763 bound_to 10752
  153.5376  135.3579  155.2704 H   0  0  0  0  0  0  0  0  0  0  0  0  # atno 10764 bound_to 10752
  154.8671  135.4196  154.2894 H   0  0  0  0  0  0  0  0  0  0  0  0  # atno 10765 bound_to 10752
  139.8934  134.9535  156.6628 H   0  0  0  0  0  0  0  0  0  0  0  0  # atno 11005 bound_to 11000
  145.0735  140.9172  143.4868 LP  0  0  0  0  0  0  0  0  0  0  0  0  # atno 17320 bound_to 7965
  145.0946  139.2866  143.5717 LP  0  0  0  0  0  0  0  0  0  0  0  0  # atno 17321 bound_to 7965
  140.0989  144.5556  150.7002 LP  0  0  0  0  0  0  0  0  0  0  0  0  # atno 17342 bound_to 10162
  140.7082  143.2484  151.4661 LP  0  0  0  0  0  0  0  0  0  0  0  0  # atno 17343 bound_to 10162
  157.6780  130.9112  150.0197 LP  0  0  0  0  0  0  0  0  0  0  0  0  # atno 17370 bound_to 10713
  156.1405  130.3642  149.9589 LP  0  0  0  0  0  0  0  0  0  0  0  0  # atno 17371 bound_to 10713
  140.7433  133.8959  155.8294 LP  0  0  0  0  0  0  0  0  0  0  0  0  # atno 17394 bound_to 11000
  141.0060  134.1086  157.4270 LP  0  0  0  0  0  0  0  0  0  0  0  0  # atno 17395 bound_to 11000

$$$$
