#       Name:                AV-unprocessed.smi:1189
#       Creating user name   scv26
#       Creation time:       Fri Mar 27 03:57:26 2020


#       File generated by GOLD software.
#

@<TRIPOS>MOLECULE
AV-unprocessed.smi:1189
    38    39     1
SMALL
NO_CHARGES


@<TRIPOS>ATOM
      1 ****        -0.6736   1.2732  -0.6015 O.2            1 S1                 0.0000
      2 ****         0.0732   0.4267  -1.0955 C.2            1 S1                 0.0000
      3 ****         1.5825   0.6710  -1.2203 C.3            1 S1                 0.0000
      4 ****         2.0256   1.8683  -0.5243 N.pl3          1 S1                 0.0000
      5 ****         2.0235   3.1714  -0.9740 C.2            1 S1                 0.0000
      6 ****         2.5344   3.9465   0.0267 C.2            1 S1                 0.0000
      7 ****         2.8290   3.0191   1.0683 C.2            1 S1                 0.0000
      8 ****         3.4168   3.2966   2.4271 C.3            1 S1                 0.0000
      9 ****         3.6870   4.5955   2.5576 F              1 S1                 0.0000
     10 ****         2.5530   2.9403   3.3777 F              1 S1                 0.0000
     11 ****         4.5464   2.6065   2.5848 F              1 S1                 0.0000
     12 ****         2.5192   1.7745   0.7293 N.2            1 S1                 0.0000
     13 ****        -0.3640  -0.7529  -1.5618 N.am           1 S1                 0.0000
     14 ****        -1.7530  -1.1993  -1.5494 C.3            1 S1                 0.0000
     15 ****        -2.1736  -1.7436  -0.1710 C.3            1 S1                 0.0000
     16 ****        -1.3853  -2.9482   0.3051 C.3            1 S1                 0.0000
     17 ****        -2.3092  -3.5167   1.3762 C.3            1 S1                 0.0000
     18 ****        -3.6312  -3.2546   0.9166 O.3            1 S1                 0.0000
     19 ****        -3.6037  -2.2847  -0.1278 C.3            1 S1                 0.0000
     20 ****         2.1277  -0.1906  -0.8314 H              1 S1                 0.0000
     21 ****         1.8438   0.7677  -2.2746 H              1 S1                 0.0000
     22 ****         1.6614   3.4350  -1.9569 H              1 S1                 0.0000
     23 ****         2.6769   5.0169   0.0170 H              1 S1                 0.0000
     24 ****         0.3157  -1.3895  -1.9525 H              1 S1                 0.0000
     25 ****        -2.4105  -0.3813  -1.8485 H              1 S1                 0.0000
     26 ****        -1.8633  -1.9744  -2.3085 H              1 S1                 0.0000
     27 ****        -2.0835  -0.9537   0.5772 H              1 S1                 0.0000
     28 ****        -1.2611  -3.6690  -0.5045 H              1 S1                 0.0000
     29 ****        -0.3984  -2.6911   0.6910 H              1 S1                 0.0000
     30 ****        -2.1482  -4.5813   1.5474 H              1 S1                 0.0000
     31 ****        -2.1604  -2.9936   2.3216 H              1 S1                 0.0000
     32 ****        -4.3389  -1.4979   0.0429 H              1 S1                 0.0000
     33 ****        -3.8587  -2.7856  -1.0627 H              1 S1                 0.0000
     34 ****        -0.2985   2.1398  -0.2724 LP             1 S1                 0.0000
     35 ****        -1.6547   1.0935  -0.5297 LP             1 S1                 0.0000
     36 ****         2.6275   0.9477   1.2812 LP             1 S1                 0.0000
     37 ****        -4.1825  -2.9079   1.6754 LP             1 S1                 0.0000
     38 ****        -4.0351  -4.1016   0.5708 LP             1 S1                 0.0000
@<TRIPOS>BOND
    1    1    2 2     
    2    2    3 1     
    3    2   13 am    
    4    3    4 1     
    5    3   20 1     
    6    3   21 1     
    7    4   12 1     
    8    4    5 1     
    9    5    6 2     
   10    5   22 1     
   11    6    7 1     
   12    6   23 1     
   13    7    8 1     
   14    7   12 2     
   15    8    9 1     
   16    8   10 1     
   17    8   11 1     
   18   13   14 1     
   19   13   24 1     
   20   14   15 1     
   21   14   25 1     
   22   14   26 1     
   23   15   19 1     
   24   15   16 1     
   25   15   27 1     
   26   16   17 1     
   27   16   28 1     
   28   16   29 1     
   29   17   18 1     
   30   17   30 1     
   31   17   31 1     
   32   18   19 1     
   33   19   32 1     
   34   19   33 1     
   35    1   34 1     
   36    1   35 1     
   37   12   36 1     
   38   18   37 1     
   39   18   38 1     
@<TRIPOS>SUBSTRUCTURE
      1 S1             1
@<TRIPOS>SET
LONE_PAIRS      STATIC     ATOMS    <user>   **** ""
5 34 35 36 37 38
DONOR_HYDROGENS      STATIC     ATOMS    <user>   **** ""
1 24
ATOM$BLUE        STATIC     ATOMS    COLORGROUP SYSTEM
5 34 35 36 37 38
ATOM$RED        STATIC     ATOMS    COLORGROUP SYSTEM
1 24
