AV-unprocessed.smi:157|AV-procd|sdf|1304|dock9
  -GOLD-   2262018593D 1   1.00000     0.00000
 Structure written by MMmdl.
 35 37  0  0  0  0  0  0  0  0  1 V2000
  148.1072  139.1544  153.1820 O   0  0  0  0  0  0  0  0  0  0  0  0
  148.5769  140.0241  154.1900 C   0  0  0  0  0  0  0  0  0  0  0  0
  149.5220  139.2806  155.1473 C   0  0  2  0  0  0  0  0  0  0  0  0
  150.0760  140.2102  156.0808 O   0  0  0  0  0  0  0  0  0  0  0  0
  151.4669  140.1160  156.0768 C   0  0  1  0  0  0  0  0  0  0  0  0
  151.9656  140.2484  157.4812 N   0  0  0  0  0  0  0  0  0  0  0  0
  152.4805  139.2667  158.2329 C   0  0  0  0  0  0  0  0  0  0  0  0
  152.8576  139.6420  159.4432 N   0  0  0  0  0  0  0  0  0  0  0  0
  152.5672  141.0046  159.4782 C   0  0  0  0  0  0  0  0  0  0  0  0
  152.0189  141.4032  158.2673 C   0  0  0  0  0  0  0  0  0  0  0  0
  151.5502  142.5857  157.7273 N   0  0  0  0  0  0  0  0  0  0  0  0
  151.8966  143.6968  158.2969 C   0  0  0  0  0  0  0  0  0  0  0  0
  152.6209  143.9214  159.4589 N   0  0  0  0  0  0  0  0  0  0  0  0
  152.3533  143.2390  160.7132 C   0  0  0  0  0  0  0  0  0  0  0  0
  152.8375  141.7842  160.7326 C   0  0  2  0  0  0  0  0  0  0  0  0
  154.2349  141.7597  160.9414 O   0  0  0  0  0  0  0  0  0  0  0  0
  151.8028  138.7413  155.5176 C   0  0  0  0  0  0  0  0  0  0  0  0
  150.7263  138.6122  154.4629 C   0  0  1  0  0  0  0  0  0  0  0  0
  150.4908  137.2544  154.1522 O   0  0  0  0  0  0  0  0  0  0  0  0
  148.9655  138.5494  155.7363 H   0  0  0  0  0  0  0  0  0  0  0  0
  151.8961  140.9421  155.5088 H   0  0  0  0  0  0  0  0  0  0  0  0
  152.3825  141.2811  161.5863 H   0  0  0  0  0  0  0  0  0  0  0  0
  151.0202  139.1585  153.5655 H   0  0  0  0  0  0  0  0  0  0  0  0
  148.5108  139.3980  152.3631 H   0  0  0  0  0  0  0  0  0  0  0  0
  149.0734  140.8820  153.7354 H   0  0  0  0  0  0  0  0  0  0  0  0
  147.7146  140.4045  154.7382 H   0  0  0  0  0  0  0  0  0  0  0  0
  152.5808  138.2496  157.8833 H   0  0  0  0  0  0  0  0  0  0  0  0
  151.5884  144.6342  157.8315 H   0  0  0  0  0  0  0  0  0  0  0  0
  153.0002  144.8436  159.6185 H   0  0  0  0  0  0  0  0  0  0  0  0
  152.7845  143.8025  161.5412 H   0  0  0  0  0  0  0  0  0  0  0  0
  151.2728  143.2525  160.8652 H   0  0  0  0  0  0  0  0  0  0  0  0
  154.6218  141.2032  160.2825 H   0  0  0  0  0  0  0  0  0  0  0  0
  152.8203  138.7060  155.1269 H   0  0  0  0  0  0  0  0  0  0  0  0
  151.6844  137.9885  156.2994 H   0  0  0  0  0  0  0  0  0  0  0  0
  149.8746  137.2126  153.4370 H   0  0  0  0  0  0  0  0  0  0  0  0
  1  2  1  0  0  0  0
  1 24  1  0  0  0  0
  2  3  1  0  0  0  0
  2 25  1  0  0  0  0
  2 26  1  0  0  0  0
  3 20  1  0  0  0  0
  3 18  1  0  0  0  0
  3  4  1  0  0  0  0
  4  5  1  0  0  0  0
  5 21  1  0  0  0  0
  5  6  1  0  0  0  0
  5 17  1  0  0  0  0
  6 10  1  0  0  0  0
  6  7  1  0  0  0  0
  7  8  2  0  0  0  0
  7 27  1  0  0  0  0
  8  9  1  0  0  0  0
  9 15  1  0  0  0  0
  9 10  2  0  0  0  0
 10 11  1  0  0  0  0
 11 12  2  0  0  0  0
 12 13  1  0  0  0  0
 12 28  1  0  0  0  0
 13 14  1  0  0  0  0
 13 29  1  0  0  0  0
 14 15  1  0  0  0  0
 14 30  1  0  0  0  0
 14 31  1  0  0  0  0
 15 22  1  0  0  0  0
 15 16  1  0  0  0  0
 16 32  1  0  0  0  0
 17 18  1  0  0  0  0
 17 33  1  0  0  0  0
 17 34  1  0  0  0  0
 18 23  1  0  0  0  0
 18 19  1  0  0  0  0
 19 35  1  0  0  0  0
M  END
> <s_m_source_file>
AV-unprocessed.smi

> <i_m_source_file_index>
157

> <i_lp_mmshare_version>
43012

> <i_f3d_flags>
0

> <s_epik_input>
W09IXVtDSDJdW0NASF0xT1tDQEhdKFtDSDJdW0NAQEhdMVtPSF0pbihbY0hdbjIpYyhjMjMpTj1bQ0hdW05IXVtDSDJdW0NASF0zW09IXQ==

> <s_epik_cmdline>
J2VwaWtfcHl0aG9uJywgJy1waCcsICc3LjAnLCAnLXRuJywgJzgnLCAnLW1hJywgJzIwMCcsICctbWV0YWxfYmluZGluZycsICctaW1hZScsICc8aW5maWxlLm1hZT4nLCAnLW9tYWUnLCAnPG91dGZpbGUubWFlPic=

> <r_lp_tautomer_probability>
1

> <r_epik_Ionization_Penalty>
0.0357149

> <r_epik_Ionization_Penalty_Charging>
0.0355056

> <r_epik_Ionization_Penalty_Neutral>
0.000209255

> <r_epik_State_Penalty>
0.0296046

> <r_epik_Charging_Adjusted_Penalty>
0.0651102

> <i_epik_Tot_Q>
0

> <i_epik_Tot_abs_Q>
0

> <r_epik_Metal_State_Penalty>
3.03559e-05

> <b_epik_Metal_Only>
0

> <s_epik_Chemistry_Notes>
This compound has an imine and may undergo hydrolysis. This compound contains an acetal/aminal-like group ( X-CH(R)-Y where X, Y are N, S, or O) that may be acid/base labile, releasing an aldehyde.

> <s_lp_Force_Field>
OPLS_2005

> <r_lp_Energy>
43.9106

> <b_lp_Chiralities_Consistent>
1

> <s_lp_Variant>
AV-unprocessed.smi:157-14

> <Gold.Version>
5.8.1

> <Gold.Id.Protein>
6NUR|6NUR_protein|mol2

> <Gold.PLP.Fitness>
42.0439

> <Gold.PLP.PLP>
-36.5030

> <Gold.PLP.part.hbond>
-4.1657

> <Gold.PLP.part.metal>
0.0000

> <Gold.PLP.part.buried>
-4.1738

> <Gold.PLP.part.nonpolar>
-28.4969

> <Gold.PLP.part.repulsive>
0.0750

> <Gold.PLP.ligand.clash>
0.0000

> <Gold.PLP.ligand.torsion>
0.2238

> <Gold.PLP.Chemscore.Hbond>
1.9913

> <Gold.PLP.Chemscore.CHOScore>
0.0000

> <Gold.PLP.Chemscore.Metal>
0.0000

> <Gold.Chemscore.Hbonds>
donor molecule, donor type, donor heavy atom, donor atom, acceptor molecule, acceptor atom, score
      L1  H     1    24       P1  7957  1.00
      L1  H    19    35       P1  7948  0.99

> <Gold.PLP.Chemscore.Internal.Correction>
0.0148

> <Gold.Rescore>
     Score         DG    S(hbond)    S(metal)    S(lipo)     H(rot)  DE(clash)    DE(int)     intcor
      8.28      -8.34       1.70        0.00      55.39       3.64       0.00       0.05       ----

> <Gold.Chemscore.Fitness>
8.2803

> <Gold.Chemscore.DG>
-8.3352

> <Gold.Chemscore.ZeroCoef>
-5.4800

> <Gold.Chemscore.Hbond>
1.7016

> <Gold.Chemscore.Metal>
0.0000

> <Gold.Chemscore.Lipo>
55.3892

> <Gold.Chemscore.Internal_Hbond>
0.0000

> <Gold.Chemscore.DEClash>
0.0038

> <Gold.Chemscore.DEInternal>
0.0511

> <Gold.Chemscore.Rot>
3.6362

> <Gold.Chemscore.Internal.Correction>
   9.000000E+99

> <Gold.Chemscore.Hbonds>
donor molecule, donor type, donor heavy atom, donor atom, acceptor molecule, acceptor atom, score
      L1  H     1    24       P1  7957  1.00
      L1  H    19    35       P1  7948  0.44

> <Gold.Chemscore.Hbond.Weighted>
-5.6834

> <Gold.Chemscore.Metal.Weighted>
-0.0000

> <Gold.Chemscore.Lipo.Weighted>
-6.4805

> <Gold.Chemscore.Internal_Hbond.Weighted>
0.0000

> <Gold.Chemscore.DEClash.Weighted>
0.0038

> <Gold.Chemscore.DEInternal.Weighted>
0.0511

> <Gold.Chemscore.Rot.Weighted>
9.3087

> <Gold.Chemscore.Internal.Correction.Weighted>
   9.000000E+99

> <Gold.Protein.RotatedTorsions>
[ 6907 6896 6895 6894 ] final -113.53 input  -60.11 | X-H torsion
[ 7974 7965 7964 7962 ] final -100.14 input  175.53 | X-H torsion
[ 8008 7997 7996 7995 ] final  -55.20 input   59.86 | X-H torsion
[ 10167 10162 10161 10158 ] final  -59.40 input  -65.29 | X-H torsion
[ 10718 10713 10712 10709 ] final   56.98 input   66.30 | X-H torsion
[ 10763 10752 10751 10750 ] final -171.55 input  -60.55 | X-H torsion
[ 11005 11000 10999 10996 ] final -109.11 input  -57.11 | X-H torsion

> <Gold.Protein.ActiveResidues>
 VAL166  LYS551  ARG553  GLY616  TRP617  ASP618  TYR619  PRO620  LYS621  CYS622 
 ASP623  PHE694  ASN695  SER759  ASP760  ASP761  ALA762  ILE779  LEU786  VAL792 
 PHE793  MET794  SER795  GLU796  ALA797  LYS798  CYS799  TRP800  GLU811  SER814 

> <Gold.Protein.RotatedAtoms>
  150.7835  133.8932  159.3319 H   0  0  0  0  0  0  0  0  0  0  0  0  # atno 6907 bound_to 6896
  151.6788  135.0963  160.0221 H   0  0  0  0  0  0  0  0  0  0  0  0  # atno 6908 bound_to 6896
  152.3893  133.6618  159.6260 H   0  0  0  0  0  0  0  0  0  0  0  0  # atno 6909 bound_to 6896
  145.2984  140.9371  143.2838 H   0  0  0  0  0  0  0  0  0  0  0  0  # atno 7974 bound_to 7965
  154.4187  140.1158  156.5438 H   0  0  0  0  0  0  0  0  0  0  0  0  # atno 8008 bound_to 7997
  155.6480  140.3496  155.4719 H   0  0  0  0  0  0  0  0  0  0  0  0  # atno 8009 bound_to 7997
  155.9816  140.1161  157.0711 H   0  0  0  0  0  0  0  0  0  0  0  0  # atno 8010 bound_to 7997
  140.6137  143.2395  151.5647 H   0  0  0  0  0  0  0  0  0  0  0  0  # atno 10167 bound_to 10162
  157.5476  130.8742  149.8915 H   0  0  0  0  0  0  0  0  0  0  0  0  # atno 10718 bound_to 10713
  154.6292  135.2884  155.0236 H   0  0  0  0  0  0  0  0  0  0  0  0  # atno 10763 bound_to 10752
  154.1402  135.6519  153.4944 H   0  0  0  0  0  0  0  0  0  0  0  0  # atno 10764 bound_to 10752
  153.0272  135.5331  154.7113 H   0  0  0  0  0  0  0  0  0  0  0  0  # atno 10765 bound_to 10752
  141.0865  133.9129  157.2172 H   0  0  0  0  0  0  0  0  0  0  0  0  # atno 11005 bound_to 11000
  144.9114  139.4524  143.6585 LP  0  0  0  0  0  0  0  0  0  0  0  0  # atno 17320 bound_to 7965
  146.3161  139.7924  142.8982 LP  0  0  0  0  0  0  0  0  0  0  0  0  # atno 17321 bound_to 7965
  139.5382  144.2722  152.1295 LP  0  0  0  0  0  0  0  0  0  0  0  0  # atno 17342 bound_to 10162
  140.1927  144.4736  150.6471 LP  0  0  0  0  0  0  0  0  0  0  0  0  # atno 17343 bound_to 10162
  156.0549  130.3710  150.1114 LP  0  0  0  0  0  0  0  0  0  0  0  0  # atno 17370 bound_to 10713
  156.9289  130.9707  151.3536 LP  0  0  0  0  0  0  0  0  0  0  0  0  # atno 17371 bound_to 10713
  139.9685  135.0135  156.9449 LP  0  0  0  0  0  0  0  0  0  0  0  0  # atno 17394 bound_to 11000
  140.5350  134.0776  155.7326 LP  0  0  0  0  0  0  0  0  0  0  0  0  # atno 17395 bound_to 11000

$$$$
