#       Name:                AV-unprocessed.smi:1817
#       Creating user name   scv26
#       Creation time:       Fri Mar 27 09:03:18 2020


#       File generated by GOLD software.
#

@<TRIPOS>MOLECULE
AV-unprocessed.smi:1817
    48    49     1
SMALL
NO_CHARGES


@<TRIPOS>ATOM
      1 ****        -3.1069   0.4743  -3.8610 C.3            1 S1                 0.0000
      2 ****        -2.2488   1.0196  -2.7106 C.3            1 S1                 0.0000
      3 ****        -2.5476   0.3660  -1.4120 N.4            1 S1                 1.0000
      4 ****        -2.0399   1.1521  -0.2608 C.3            1 S1                 0.0000
      5 ****        -2.3976   0.4563   1.0690 C.3            1 S1                 0.0000
      6 ****        -1.8107  -0.8887   1.1539 N.3            1 S1                 0.0000
      7 ****        -0.3327  -0.9439   1.2112 C.3            1 S1                 0.0000
      8 ****         0.1433  -2.4036   1.4013 C.3            1 S1                 0.0000
      9 ****         0.2461  -0.0420   2.3368 C.3            1 S1                 0.0000
     10 ****         1.7059  -0.0268   2.3409 N.am           1 S1                 0.0000
     11 ****         2.4618   0.6112   1.4350 C.2            1 S1                 0.0000
     12 ****         1.9914   1.2762   0.5108 O.2            1 S1                 0.0000
     13 ****         3.7719   0.4210   1.6690 N.am           1 S1                 0.0000
     14 ****         4.8769   0.8934   0.9123 C.2            1 S1                 0.0000
     15 ****         4.7542   1.6331  -0.2012 N.2            1 S1                 0.0000
     16 ****         5.9889   1.9569  -0.7483 N.2            1 S1                 0.0000
     17 ****         6.9925   1.4483  -0.0278 C.2            1 S1                 0.0000
     18 ****         6.5275   0.5247   1.3905 S.3            1 S1                 0.0000
     19 ****        -2.4083  -1.6540   0.0489 C.3            1 S1                 0.0000
     20 ****        -2.0787  -1.0415  -1.3317 C.3            1 S1                 0.0000
     21 ****        -2.9294   1.0445  -4.7730 H              1 S1                 0.0000
     22 ****        -4.1699   0.5464  -3.6294 H              1 S1                 0.0000
     23 ****        -2.8782  -0.5675  -4.0838 H              1 S1                 0.0000
     24 ****        -1.1875   0.9212  -2.9434 H              1 S1                 0.0000
     25 ****        -2.4478   2.0884  -2.6223 H              1 S1                 0.0000
     26 ****        -0.9636   1.3057  -0.3507 H              1 S1                 0.0000
     27 ****        -2.4952   2.1429  -0.2767 H              1 S1                 0.0000
     28 ****        -2.1128   1.0718   1.9199 H              1 S1                 0.0000
     29 ****        -3.4824   0.3686   1.1470 H              1 S1                 0.0000
     30 ****         0.0723  -0.5858   0.2666 H              1 S1                 0.0000
     31 ****         1.2218  -2.4630   1.5448 H              1 S1                 0.0000
     32 ****        -0.0681  -3.0254   0.5327 H              1 S1                 0.0000
     33 ****        -0.3264  -2.8633   2.2715 H              1 S1                 0.0000
     34 ****        -0.0711   0.9955   2.2402 H              1 S1                 0.0000
     35 ****        -0.1006  -0.3848   3.3123 H              1 S1                 0.0000
     36 ****         2.1675  -0.5489   3.0717 H              1 S1                 0.0000
     37 ****         4.0076  -0.1412   2.4734 H              1 S1                 0.0000
     38 ****         8.0140   1.6181  -0.3339 H              1 S1                 0.0000
     39 ****        -2.1082  -2.6995   0.0833 H              1 S1                 0.0000
     40 ****        -3.4909  -1.6703   0.1840 H              1 S1                 0.0000
     41 ****        -2.5749  -1.6355  -2.0985 H              1 S1                 0.0000
     42 ****        -1.0110  -1.0971  -1.5451 H              1 S1                 0.0000
     43 ****        -3.5528   0.3462  -1.3163 H              1 S1                 0.0000
     44 ****        -2.0324  -1.2992   2.0384 LP             1 S1                 0.0000
     45 ****         1.0001   1.3600   0.4092 LP             1 S1                 0.0000
     46 ****         2.6008   1.7322  -0.1378 LP             1 S1                 0.0000
     47 ****         3.8779   1.9172  -0.5904 LP             1 S1                 0.0000
     48 ****         6.1114   2.5023  -1.5775 LP             1 S1                 0.0000
@<TRIPOS>BOND
    1    1    2 1     
    2    1   21 1     
    3    1   22 1     
    4    1   23 1     
    5    2    3 1     
    6    2   24 1     
    7    2   25 1     
    8    3   20 1     
    9    3    4 1     
   10    3   43 1     
   11    4    5 1     
   12    4   26 1     
   13    4   27 1     
   14    5    6 1     
   15    5   28 1     
   16    5   29 1     
   17    6    7 1     
   18    6   19 1     
   19    7    8 1     
   20    7    9 1     
   21    7   30 1     
   22    8   31 1     
   23    8   32 1     
   24    8   33 1     
   25    9   10 1     
   26    9   34 1     
   27    9   35 1     
   28   10   11 am    
   29   10   36 1     
   30   11   12 2     
   31   11   13 am    
   32   13   14 1     
   33   13   37 1     
   34   14   18 1     
   35   14   15 2     
   36   15   16 1     
   37   16   17 2     
   38   17   18 1     
   39   17   38 1     
   40   19   20 1     
   41   19   39 1     
   42   19   40 1     
   43   20   41 1     
   44   20   42 1     
   45    6   44 1     
   46   12   45 1     
   47   12   46 1     
   48   15   47 1     
   49   16   48 1     
@<TRIPOS>SUBSTRUCTURE
      1 S1             1
@<TRIPOS>SET
LONE_PAIRS      STATIC     ATOMS    <user>   **** ""
5 44 45 46 47 48
DONOR_HYDROGENS      STATIC     ATOMS    <user>   **** ""
3 43 36 37
ATOM$BLUE        STATIC     ATOMS    COLORGROUP SYSTEM
5 44 45 46 47 48
ATOM$RED        STATIC     ATOMS    COLORGROUP SYSTEM
3 43 36 37
