AV-unprocessed.smi:2484|AV-procd|sdf|9787|dock6
  -GOLD-   2272013423D 1   1.00000     0.00000
 Structure written by MMmdl.
 45 46  0  0  0  0  0  0  0  0  1 V2000
  146.5069  142.4121  153.8538 C   0  0  0  0  0  0  0  0  0  0  0  0
  146.8726  141.0025  154.3747 C   0  0  0  0  0  0  0  0  0  0  0  0
  146.0323  139.9963  153.7108 N   0  0  0  0  0  0  0  0  0  0  0  0
  146.2729  138.6833  153.5517 C   0  0  0  0  0  0  0  0  0  0  0  0
  147.2778  138.1117  153.9743 O   0  0  0  0  0  0  0  0  0  0  0  0
  145.2722  138.0885  152.8791 N   0  0  0  0  0  0  0  0  0  0  0  0
  145.1932  136.7394  152.4433 C   0  0  0  0  0  0  0  0  0  0  0  0
  143.9113  136.3035  152.0520 C   0  0  0  0  0  0  0  0  0  0  0  0
  143.7628  134.9833  151.5945 C   0  0  0  0  0  0  0  0  0  0  0  0
  144.9163  134.1679  151.5521 C   0  0  0  0  0  0  0  0  0  0  0  0
  144.9008  132.7102  151.0582 C   0  0  0  0  0  0  0  0  0  0  0  0
  145.8931  132.4689  149.8982 C   0  0  0  0  0  0  0  0  0  0  0  0
  143.4917  132.3469  150.5450 C   0  0  0  0  0  0  0  0  0  0  0  0
  145.2980  131.7671  152.2130 C   0  0  0  0  0  0  0  0  0  0  0  0
  146.1231  134.6440  151.9447 N   0  0  0  0  0  0  0  0  0  0  0  0
  146.2570  135.8998  152.3809 N   0  0  0  0  0  0  0  0  0  0  0  0
  148.3353  140.6535  154.0142 C   0  0  0  0  0  0  0  0  0  0  0  0
  149.3638  141.3975  154.8843 C   0  0  0  0  0  0  0  0  0  0  0  0
  149.1105  141.1450  156.2593 O   0  0  0  0  0  0  0  0  0  0  0  0
  147.8407  141.6283  156.6752 C   0  0  0  0  0  0  0  0  0  0  0  0
  146.7199  140.8988  155.9143 C   0  0  0  0  0  0  0  0  0  0  0  0
  147.1660  143.1804  154.2565 H   0  0  0  0  0  0  0  0  0  0  0  0
  145.4904  142.6954  154.1271 H   0  0  0  0  0  0  0  0  0  0  0  0
  146.5796  142.4614  152.7667 H   0  0  0  0  0  0  0  0  0  0  0  0
  145.1702  140.3467  153.3196 H   0  0  0  0  0  0  0  0  0  0  0  0
  144.4908  138.6738  152.6239 H   0  0  0  0  0  0  0  0  0  0  0  0
  143.0581  136.9645  152.0967 H   0  0  0  0  0  0  0  0  0  0  0  0
  142.7884  134.6352  151.2890 H   0  0  0  0  0  0  0  0  0  0  0  0
  145.8647  131.4312  149.5638 H   0  0  0  0  0  0  0  0  0  0  0  0
  146.9212  132.6784  150.1959 H   0  0  0  0  0  0  0  0  0  0  0  0
  145.6591  133.0892  149.0321 H   0  0  0  0  0  0  0  0  0  0  0  0
  143.1851  133.0055  149.7318 H   0  0  0  0  0  0  0  0  0  0  0  0
  142.7408  132.4250  151.3318 H   0  0  0  0  0  0  0  0  0  0  0  0
  143.4565  131.3234  150.1699 H   0  0  0  0  0  0  0  0  0  0  0  0
  145.3117  130.7257  151.8895 H   0  0  0  0  0  0  0  0  0  0  0  0
  144.6010  131.8339  153.0491 H   0  0  0  0  0  0  0  0  0  0  0  0
  146.2913  132.0062  152.5945 H   0  0  0  0  0  0  0  0  0  0  0  0
  148.4973  139.5829  154.1524 H   0  0  0  0  0  0  0  0  0  0  0  0
  148.5276  140.8528  152.9591 H   0  0  0  0  0  0  0  0  0  0  0  0
  150.3691  141.0491  154.6472 H   0  0  0  0  0  0  0  0  0  0  0  0
  149.3513  142.4703  154.6884 H   0  0  0  0  0  0  0  0  0  0  0  0
  147.7354  141.4531  157.7461 H   0  0  0  0  0  0  0  0  0  0  0  0
  147.7812  142.7075  156.5281 H   0  0  0  0  0  0  0  0  0  0  0  0
  145.7545  141.2881  156.2379 H   0  0  0  0  0  0  0  0  0  0  0  0
  146.7388  139.8488  156.2104 H   0  0  0  0  0  0  0  0  0  0  0  0
  1  2  1  0  0  0  0
  1 22  1  0  0  0  0
  1 23  1  0  0  0  0
  1 24  1  0  0  0  0
  2 21  1  0  0  0  0
  2  3  1  0  0  0  0
  2 17  1  0  0  0  0
  3  4  1  0  0  0  0
  3 25  1  0  0  0  0
  4  5  2  0  0  0  0
  4  6  1  0  0  0  0
  6  7  1  0  0  0  0
  6 26  1  0  0  0  0
  7 16  1  0  0  0  0
  7  8  2  0  0  0  0
  8  9  1  0  0  0  0
  8 27  1  0  0  0  0
  9 10  2  0  0  0  0
  9 28  1  0  0  0  0
 10 11  1  0  0  0  0
 10 15  1  0  0  0  0
 11 12  1  0  0  0  0
 11 13  1  0  0  0  0
 11 14  1  0  0  0  0
 12 29  1  0  0  0  0
 12 30  1  0  0  0  0
 12 31  1  0  0  0  0
 13 32  1  0  0  0  0
 13 33  1  0  0  0  0
 13 34  1  0  0  0  0
 14 35  1  0  0  0  0
 14 36  1  0  0  0  0
 14 37  1  0  0  0  0
 15 16  2  0  0  0  0
 17 18  1  0  0  0  0
 17 38  1  0  0  0  0
 17 39  1  0  0  0  0
 18 19  1  0  0  0  0
 18 40  1  0  0  0  0
 18 41  1  0  0  0  0
 19 20  1  0  0  0  0
 20 21  1  0  0  0  0
 20 42  1  0  0  0  0
 20 43  1  0  0  0  0
 21 44  1  0  0  0  0
 21 45  1  0  0  0  0
M  END
> <s_m_source_file>
AV-unprocessed.smi

> <i_m_source_file_index>
2484

> <i_lp_mmshare_version>
43012

> <i_f3d_flags>
0

> <s_epik_input>
W0NIMl0xW0NIMl1PW0NIMl1bQ0gyXUMxKFtDSDNdKVtOSF1DKD1PKVtOSF1jMltjSF1bY0hdYyhubjIpQyhbQ0gzXSkoW0NIM10pW0NIM10=

> <s_epik_cmdline>
J2VwaWtfcHl0aG9uJywgJy1waCcsICc3LjAnLCAnLXRuJywgJzgnLCAnLW1hJywgJzIwMCcsICctbWV0YWxfYmluZGluZycsICctaW1hZScsICc8aW5maWxlLm1hZT4nLCAnLW9tYWUnLCAnPG91dGZpbGUubWFlPic=

> <r_lp_tautomer_probability>
1

> <r_epik_Ionization_Penalty>
0.0115026

> <r_epik_Ionization_Penalty_Charging>
0

> <r_epik_Ionization_Penalty_Neutral>
0.0115026

> <r_epik_State_Penalty>
0.00473796

> <r_epik_Charging_Adjusted_Penalty>
0.00473796

> <i_epik_Tot_Q>
0

> <i_epik_Tot_abs_Q>
0

> <r_epik_Metal_State_Penalty>
-0

> <b_epik_Metal_Only>
0

> <s_lp_Force_Field>
OPLS_2005

> <r_lp_Energy>
18.8992

> <b_lp_Chiralities_Consistent>
1

> <s_lp_Variant>
AV-unprocessed.smi:2484-1

> <Gold.Version>
5.8.1

> <Gold.Id.Protein>
6NUR|6NUR_protein|mol2

> <Gold.PLP.Fitness>
37.3544

> <Gold.PLP.PLP>
-32.4138

> <Gold.PLP.part.hbond>
-2.0000

> <Gold.PLP.part.metal>
0.0000

> <Gold.PLP.part.buried>
-6.1194

> <Gold.PLP.part.nonpolar>
-26.8339

> <Gold.PLP.part.repulsive>
2.8736

> <Gold.PLP.ligand.clash>
0.0000

> <Gold.PLP.ligand.torsion>
0.5346

> <Gold.PLP.Chemscore.Hbond>
2.0000

> <Gold.PLP.Chemscore.CHOScore>
0.0000

> <Gold.PLP.Chemscore.Metal>
0.0000

> <Gold.Chemscore.Hbonds>
donor molecule, donor type, donor heavy atom, donor atom, acceptor molecule, acceptor atom, score
      L1  H     3    25       P1 10175  1.00
      L1  H     6    26       P1 10175  1.00

> <Gold.PLP.Chemscore.Internal.Correction>
0.0097

> <Gold.Rescore>
     Score         DG    S(hbond)    S(metal)    S(lipo)     H(rot)  DE(clash)    DE(int)     intcor
     13.85     -18.50       1.92        0.00      82.11       1.18       1.44       3.21       ----

> <Gold.Chemscore.Fitness>
13.8493

> <Gold.Chemscore.DG>
-18.5016

> <Gold.Chemscore.ZeroCoef>
-5.4800

> <Gold.Chemscore.Hbond>
1.9231

> <Gold.Chemscore.Metal>
0.0000

> <Gold.Chemscore.Lipo>
82.1125

> <Gold.Chemscore.Internal_Hbond>
0.0000

> <Gold.Chemscore.DEClash>
1.4405

> <Gold.Chemscore.DEInternal>
3.2118

> <Gold.Chemscore.Rot>
1.1753

> <Gold.Chemscore.Internal.Correction>
   9.000000E+99

> <Gold.Chemscore.Hbonds>
donor molecule, donor type, donor heavy atom, donor atom, acceptor molecule, acceptor atom, score
      L1  H     3    25       P1 10175  0.99
      L1  H     6    26       P1 10175  0.94

> <Gold.Chemscore.Hbond.Weighted>
-6.4233

> <Gold.Chemscore.Metal.Weighted>
-0.0000

> <Gold.Chemscore.Lipo.Weighted>
-9.6072

> <Gold.Chemscore.Internal_Hbond.Weighted>
0.0000

> <Gold.Chemscore.DEClash.Weighted>
1.4405

> <Gold.Chemscore.DEInternal.Weighted>
3.2118

> <Gold.Chemscore.Rot.Weighted>
3.0089

> <Gold.Chemscore.Internal.Correction.Weighted>
   9.000000E+99

> <Gold.Protein.RotatedTorsions>
[ 6907 6896 6895 6894 ] final -147.05 input  -60.11 | X-H torsion
[ 7974 7965 7964 7962 ] final   29.70 input  175.53 | X-H torsion
[ 8008 7997 7996 7995 ] final -124.10 input   59.86 | X-H torsion
[ 10167 10162 10161 10158 ] final  -27.11 input  -65.29 | X-H torsion
[ 10718 10713 10712 10709 ] final  -10.93 input   66.30 | X-H torsion
[ 10763 10752 10751 10750 ] final  135.22 input  -60.55 | X-H torsion
[ 11005 11000 10999 10996 ] final    9.01 input  -57.11 | X-H torsion

> <Gold.Protein.ActiveResidues>
 VAL166  LYS551  ARG553  GLY616  TRP617  ASP618  TYR619  PRO620  LYS621  CYS622 
 ASP623  PHE694  ASN695  SER759  ASP760  ASP761  ALA762  ILE779  LEU786  VAL792 
 PHE793  MET794  SER795  GLU796  ALA797  LYS798  CYS799  TRP800  GLU811  SER814 

> <Gold.Protein.RotatedAtoms>
  151.1503  133.4912  159.2595 H   0  0  0  0  0  0  0  0  0  0  0  0  # atno 6907 bound_to 6896
  151.1561  135.0250  159.8700 H   0  0  0  0  0  0  0  0  0  0  0  0  # atno 6908 bound_to 6896
  152.5463  134.1381  159.8521 H   0  0  0  0  0  0  0  0  0  0  0  0  # atno 6909 bound_to 6896
  146.1656  139.6886  142.9003 H   0  0  0  0  0  0  0  0  0  0  0  0  # atno 7974 bound_to 7965
  155.1913  140.0413  157.2901 H   0  0  0  0  0  0  0  0  0  0  0  0  # atno 8008 bound_to 7997
  154.6137  140.2483  155.7608 H   0  0  0  0  0  0  0  0  0  0  0  0  # atno 8009 bound_to 7997
  156.2394  140.2909  156.0411 H   0  0  0  0  0  0  0  0  0  0  0  0  # atno 8010 bound_to 7997
  140.7279  143.4121  151.1088 H   0  0  0  0  0  0  0  0  0  0  0  0  # atno 10167 bound_to 10162
  156.6663  130.4996  149.6014 H   0  0  0  0  0  0  0  0  0  0  0  0  # atno 10718 bound_to 10713
  153.8364  135.3097  155.3423 H   0  0  0  0  0  0  0  0  0  0  0  0  # atno 10763 bound_to 10752
  154.7951  135.4760  154.0145 H   0  0  0  0  0  0  0  0  0  0  0  0  # atno 10764 bound_to 10752
  153.1602  135.6859  153.8845 H   0  0  0  0  0  0  0  0  0  0  0  0  # atno 10765 bound_to 10752
  140.5306  134.0470  155.7872 H   0  0  0  0  0  0  0  0  0  0  0  0  # atno 11005 bound_to 11000
  145.4476  141.0426  143.2822 LP  0  0  0  0  0  0  0  0  0  0  0  0  # atno 17320 bound_to 7965
  144.8087  139.6002  143.7039 LP  0  0  0  0  0  0  0  0  0  0  0  0  # atno 17321 bound_to 7965
  139.7756  143.8430  152.3128 LP  0  0  0  0  0  0  0  0  0  0  0  0  # atno 17342 bound_to 10162
  139.8363  144.7230  150.9386 LP  0  0  0  0  0  0  0  0  0  0  0  0  # atno 17343 bound_to 10162
  156.1972  130.6597  151.1127 LP  0  0  0  0  0  0  0  0  0  0  0  0  # atno 17370 bound_to 10713
  157.7092  131.0742  150.6560 LP  0  0  0  0  0  0  0  0  0  0  0  0  # atno 17371 bound_to 10713
  141.1283  133.9345  157.2588 LP  0  0  0  0  0  0  0  0  0  0  0  0  # atno 17394 bound_to 11000
  139.9556  135.0166  156.9119 LP  0  0  0  0  0  0  0  0  0  0  0  0  # atno 17395 bound_to 11000

$$$$
