#       Name:                AV-unprocessed.smi:2438
#       Creating user name   scv26
#       Creation time:       Fri Mar 27 13:23:00 2020


#       File generated by GOLD software.
#

@<TRIPOS>MOLECULE
AV-unprocessed.smi:2438
    48    49     1
SMALL
NO_CHARGES


@<TRIPOS>ATOM
      1 ****        -1.8789  -0.0500  -3.3668 C.3            1 S1                 0.0000
      2 ****        -1.0211   1.0413  -3.8078 N.3            1 S1                 0.0000
      3 ****        -1.5675   1.9098  -4.8430 C.3            1 S1                 0.0000
      4 ****         0.3276   0.6609  -3.9587 C.ar           1 S1                 0.0000
      5 ****         0.8001   0.4847  -5.2167 N.ar           1 S1                 0.0000
      6 ****         2.0720   0.1066  -5.3519 C.ar           1 S1                 0.0000
      7 ****         2.9455  -0.1148  -4.3700 N.ar           1 S1                 0.0000
      8 ****         2.4978   0.0561  -3.1089 C.ar           1 S1                 0.0000
      9 ****         1.1634   0.4444  -2.8314 C.ar           1 S1                 0.0000
     10 ****         0.6732   0.6819  -1.5168 N.am           1 S1                 0.0000
     11 ****         1.1032   0.1480  -0.3620 C.2            1 S1                 0.0000
     12 ****         2.0268  -0.6582  -0.2526 O.2            1 S1                 0.0000
     13 ****         0.3772   0.5898   0.6745 N.am           1 S1                 0.0000
     14 ****         0.5654   0.1927   2.0667 C.3            1 S1                 0.0000
     15 ****         0.0310   1.2979   2.9946 C.3            1 S1                 0.0000
     16 ****         0.1570   0.8943   4.4708 C.3            1 S1                 0.0000
     17 ****        -0.5500  -0.4422   4.7454 C.3            1 S1                 0.0000
     18 ****        -0.0185  -1.5661   3.8309 C.3            1 S1                 0.0000
     19 ****        -0.7121  -2.9156   4.1104 C.3            1 S1                 0.0000
     20 ****        -2.0200  -2.8366   3.8632 F              1 S1                 0.0000
     21 ****        -0.1851  -3.8682   3.3410 F              1 S1                 0.0000
     22 ****        -0.5347  -3.2653   5.3845 F              1 S1                 0.0000
     23 ****        -0.1423  -1.1489   2.3495 C.3            1 S1                 0.0000
     24 ****        -1.5628  -0.4447  -2.4015 H              1 S1                 0.0000
     25 ****        -1.8625  -0.8654  -4.0910 H              1 S1                 0.0000
     26 ****        -2.9093   0.2915  -3.2644 H              1 S1                 0.0000
     27 ****        -0.8719   2.7147  -5.0841 H              1 S1                 0.0000
     28 ****        -2.4982   2.3636  -4.5019 H              1 S1                 0.0000
     29 ****        -1.7770   1.3468  -5.7533 H              1 S1                 0.0000
     30 ****         2.4321  -0.0300  -6.3607 H              1 S1                 0.0000
     31 ****         3.2313  -0.0951  -2.3322 H              1 S1                 0.0000
     32 ****        -0.1526   1.2604  -1.4627 H              1 S1                 0.0000
     33 ****        -0.3651   1.2479   0.4871 H              1 S1                 0.0000
     34 ****         1.6337   0.0763   2.2605 H              1 S1                 0.0000
     35 ****         0.5738   2.2279   2.8212 H              1 S1                 0.0000
     36 ****        -1.0159   1.5026   2.7643 H              1 S1                 0.0000
     37 ****         1.2109   0.8131   4.7396 H              1 S1                 0.0000
     38 ****        -0.2644   1.6742   5.1055 H              1 S1                 0.0000
     39 ****        -0.4132  -0.7139   5.7924 H              1 S1                 0.0000
     40 ****        -1.6238  -0.3210   4.5971 H              1 S1                 0.0000
     41 ****         1.0429  -1.6956   4.0488 H              1 S1                 0.0000
     42 ****        -1.1962  -1.0704   2.0790 H              1 S1                 0.0000
     43 ****         0.2802  -1.9273   1.7132 H              1 S1                 0.0000
     44 ****        -1.0108   1.6767  -3.0357 LP             1 S1                 0.0000
     45 ****         0.2161   0.6329  -6.0149 LP             1 S1                 0.0000
     46 ****         3.8869  -0.3940  -4.5589 LP             1 S1                 0.0000
     47 ****         2.5216  -0.9649  -1.0657 LP             1 S1                 0.0000
     48 ****         2.2823  -1.0064   0.6493 LP             1 S1                 0.0000
@<TRIPOS>BOND
    1    1    2 1     
    2    1   24 1     
    3    1   25 1     
    4    1   26 1     
    5    2    3 1     
    6    2    4 1     
    7    3   27 1     
    8    3   28 1     
    9    3   29 1     
   10    4    9 ar    
   11    4    5 ar    
   12    5    6 ar    
   13    6    7 ar    
   14    6   30 1     
   15    7    8 ar    
   16    8    9 ar    
   17    8   31 1     
   18    9   10 1     
   19   10   11 am    
   20   10   32 1     
   21   11   12 2     
   22   11   13 am    
   23   13   14 1     
   24   13   33 1     
   25   14   23 1     
   26   14   15 1     
   27   14   34 1     
   28   15   16 1     
   29   15   35 1     
   30   15   36 1     
   31   16   17 1     
   32   16   37 1     
   33   16   38 1     
   34   17   18 1     
   35   17   39 1     
   36   17   40 1     
   37   18   19 1     
   38   18   23 1     
   39   18   41 1     
   40   19   20 1     
   41   19   21 1     
   42   19   22 1     
   43   23   42 1     
   44   23   43 1     
   45    2   44 1     
   46    5   45 1     
   47    7   46 1     
   48   12   47 1     
   49   12   48 1     
@<TRIPOS>SUBSTRUCTURE
      1 S1             1
@<TRIPOS>SET
LONE_PAIRS      STATIC     ATOMS    <user>   **** ""
5 44 45 46 47 48
DONOR_HYDROGENS      STATIC     ATOMS    <user>   **** ""
2 32 33
ATOM$BLUE        STATIC     ATOMS    COLORGROUP SYSTEM
5 44 45 46 47 48
ATOM$RED        STATIC     ATOMS    COLORGROUP SYSTEM
2 32 33
