AV-unprocessed.smi:3045|AV-procd|sdf|11610|dock7
  -GOLD-   2272016593D 1   1.00000     0.00000
 Structure written by MMmdl.
 35 36  0  0  0  0  0  0  0  0  1 V2000
  149.8189  140.6838  155.4111 C   0  0  0  0  0  0  0  0  0  0  0  0
  150.6580  139.5349  155.0991 N   0  0  0  0  0  0  0  0  0  0  0  0
  150.2054  138.5004  154.1844 C   0  0  0  0  0  0  0  0  0  0  0  0
  151.2829  137.3949  154.2457 C   0  0  2  0  0  0  0  0  0  0  0  0
  150.7876  136.1220  154.9487 C   0  0  0  0  0  0  0  0  0  0  0  0
  151.3463  135.7220  155.9707 O   0  0  0  0  0  0  0  0  0  0  0  0
  149.7524  135.4869  154.3760 N   0  0  0  0  0  0  0  0  0  0  0  0
  149.1777  134.2223  154.8283 C   0  0  0  0  0  0  0  0  0  0  0  0
  149.4189  133.0798  153.8221 C   0  0  0  0  0  0  0  0  0  0  0  0
  148.1496  132.5704  153.1612 C   0  0  0  0  0  0  0  0  0  0  0  0
  147.6721  131.2667  153.4104 C   0  0  0  0  0  0  0  0  0  0  0  0
  146.4744  130.8539  152.7963 C   0  0  0  0  0  0  0  0  0  0  0  0
  145.8046  131.7637  151.9542 C   0  0  0  0  0  0  0  0  0  0  0  0
  146.2548  133.0118  151.7034 N   0  0  0  0  0  0  0  0  0  0  0  0
  147.4034  133.4002  152.2977 C   0  0  0  0  0  0  0  0  0  0  0  0
  152.4635  138.0257  155.0120 C   0  0  0  0  0  0  0  0  0  0  0  0
  151.9004  139.3315  155.5463 C   0  0  0  0  0  0  0  0  0  0  0  0
  152.5325  140.0742  156.2956 O   0  0  0  0  0  0  0  0  0  0  0  0
  150.2194  141.5839  154.9433 H   0  0  0  0  0  0  0  0  0  0  0  0
  149.7732  140.8471  156.4885 H   0  0  0  0  0  0  0  0  0  0  0  0
  148.8007  140.5372  155.0492 H   0  0  0  0  0  0  0  0  0  0  0  0
  149.2113  138.1473  154.4647 H   0  0  0  0  0  0  0  0  0  0  0  0
  150.1339  138.9156  153.1782 H   0  0  0  0  0  0  0  0  0  0  0  0
  151.5962  137.1402  153.2317 H   0  0  0  0  0  0  0  0  0  0  0  0
  149.3557  135.8915  153.5403 H   0  0  0  0  0  0  0  0  0  0  0  0
  149.5723  133.9488  155.8084 H   0  0  0  0  0  0  0  0  0  0  0  0
  148.1058  134.3663  154.9652 H   0  0  0  0  0  0  0  0  0  0  0  0
  150.1043  133.4169  153.0438 H   0  0  0  0  0  0  0  0  0  0  0  0
  149.9170  132.2493  154.3241 H   0  0  0  0  0  0  0  0  0  0  0  0
  148.2063  130.5972  154.0685 H   0  0  0  0  0  0  0  0  0  0  0  0
  146.0759  129.8652  152.9691 H   0  0  0  0  0  0  0  0  0  0  0  0
  144.8826  131.4807  151.4683 H   0  0  0  0  0  0  0  0  0  0  0  0
  147.7316  134.4073  152.0863 H   0  0  0  0  0  0  0  0  0  0  0  0
  152.8348  137.4091  155.8323 H   0  0  0  0  0  0  0  0  0  0  0  0
  153.2993  138.2352  154.3437 H   0  0  0  0  0  0  0  0  0  0  0  0
  1  2  1  0  0  0  0
  1 19  1  0  0  0  0
  1 20  1  0  0  0  0
  1 21  1  0  0  0  0
  2 17  1  0  0  0  0
  2  3  1  0  0  0  0
  3  4  1  0  0  0  0
  3 22  1  0  0  0  0
  3 23  1  0  0  0  0
  4  5  1  0  0  0  0
  4 16  1  0  0  0  0
  4 24  1  0  0  0  0
  5  6  2  0  0  0  0
  5  7  1  0  0  0  0
  7  8  1  0  0  0  0
  7 25  1  0  0  0  0
  8  9  1  0  0  0  0
  8 26  1  0  0  0  0
  8 27  1  0  0  0  0
  9 10  1  0  0  0  0
  9 28  1  0  0  0  0
  9 29  1  0  0  0  0
 10 15  1  0  0  0  0
 10 11  2  0  0  0  0
 11 12  1  0  0  0  0
 11 30  1  0  0  0  0
 12 13  2  0  0  0  0
 12 31  1  0  0  0  0
 13 14  1  0  0  0  0
 13 32  1  0  0  0  0
 14 15  2  0  0  0  0
 15 33  1  0  0  0  0
 16 17  1  0  0  0  0
 16 34  1  0  0  0  0
 16 35  1  0  0  0  0
 17 18  2  0  0  0  0
M  END
> <s_m_source_file>
AV-unprocessed.smi

> <i_m_source_file_index>
3045

> <i_lp_mmshare_version>
43012

> <i_f3d_flags>
0

> <s_epik_input>
W0NIM11OMVtDSDJdW0NASF0oW0NIMl1DMT1PKUMoPU8pW05IXVtDSDJdW0NIMl1jMltjSF1bY0hdW2NIXW5bY0hdMg==

> <s_epik_cmdline>
J2VwaWtfcHl0aG9uJywgJy1waCcsICc3LjAnLCAnLXRuJywgJzgnLCAnLW1hJywgJzIwMCcsICctbWV0YWxfYmluZGluZycsICctaW1hZScsICc8aW5maWxlLm1hZT4nLCAnLW9tYWUnLCAnPG91dGZpbGUubWFlPic=

> <r_epik_Ionization_Penalty>
0.0130932

> <r_epik_Ionization_Penalty_Charging>
0

> <r_epik_Ionization_Penalty_Neutral>
0.0130932

> <r_epik_State_Penalty>
0.0101714

> <r_epik_Charging_Adjusted_Penalty>
0.0101714

> <i_epik_Tot_Q>
0

> <i_epik_Tot_abs_Q>
0

> <r_epik_Metal_State_Penalty>
0.00995082

> <b_epik_Metal_Only>
0

> <s_lp_Force_Field>
OPLS_2005

> <r_lp_Energy>
10.4335

> <b_lp_Chiralities_Consistent>
1

> <s_lp_Variant>
AV-unprocessed.smi:3045-2

> <Gold.Version>
5.8.1

> <Gold.Id.Protein>
6NUR|6NUR_protein|mol2

> <Gold.PLP.Fitness>
45.5180

> <Gold.PLP.PLP>
-34.5159

> <Gold.PLP.part.hbond>
-3.4615

> <Gold.PLP.part.metal>
0.0000

> <Gold.PLP.part.buried>
1.1084

> <Gold.PLP.part.nonpolar>
-32.8479

> <Gold.PLP.part.repulsive>
0.2272

> <Gold.PLP.ligand.clash>
0.0000

> <Gold.PLP.ligand.torsion>
0.4312

> <Gold.PLP.Chemscore.Hbond>
2.9500

> <Gold.PLP.Chemscore.CHOScore>
1.0000

> <Gold.PLP.Chemscore.Metal>
0.0000

> <Gold.Chemscore.Hbonds>
donor molecule, donor type, donor heavy atom, donor atom, acceptor molecule, acceptor atom, score
      L1  H     7    25       P1  7948  1.00
      P1  H  7997  8008       L1    18  1.00
      P1  H 10752 10764       L1     6  0.74
      L1  C    15    33       P1  7948  1.00

> <Gold.PLP.Chemscore.Internal.Correction>
0.0144

> <Gold.Rescore>
     Score         DG    S(hbond)    S(metal)    S(lipo)     H(rot)  DE(clash)    DE(int)     intcor
     16.28     -17.16       2.21        0.00      72.23       1.62       0.45       0.43       ----

> <Gold.Chemscore.Fitness>
16.2804

> <Gold.Chemscore.DG>
-17.1591

> <Gold.Chemscore.ZeroCoef>
-5.4800

> <Gold.Chemscore.Hbond>
2.2092

> <Gold.Chemscore.Metal>
0.0000

> <Gold.Chemscore.Lipo>
72.2253

> <Gold.Chemscore.Internal_Hbond>
0.0000

> <Gold.Chemscore.DEClash>
0.4455

> <Gold.Chemscore.DEInternal>
0.4332

> <Gold.Chemscore.Rot>
1.6210

> <Gold.Chemscore.Internal.Correction>
   9.000000E+99

> <Gold.Chemscore.Hbonds>
donor molecule, donor type, donor heavy atom, donor atom, acceptor molecule, acceptor atom, score
      L1  H     7    25       P1  7948  0.55
      P1  H  7997  8008       L1    18  0.99
      P1  H 10752 10764       L1     6  0.10

> <Gold.Chemscore.Hbond.Weighted>
-7.3786

> <Gold.Chemscore.Metal.Weighted>
-0.0000

> <Gold.Chemscore.Lipo.Weighted>
-8.4504

> <Gold.Chemscore.Internal_Hbond.Weighted>
0.0000

> <Gold.Chemscore.DEClash.Weighted>
0.4455

> <Gold.Chemscore.DEInternal.Weighted>
0.4332

> <Gold.Chemscore.Rot.Weighted>
4.1498

> <Gold.Chemscore.Internal.Correction.Weighted>
   9.000000E+99

> <Gold.Protein.RotatedTorsions>
[ 6907 6896 6895 6894 ] final   39.35 input  -60.11 | X-H torsion
[ 7974 7965 7964 7962 ] final   -4.57 input  175.53 | X-H torsion
[ 8008 7997 7996 7995 ] final  -39.73 input   59.86 | X-H torsion
[ 10167 10162 10161 10158 ] final -113.97 input  -65.29 | X-H torsion
[ 10718 10713 10712 10709 ] final  -53.71 input   66.30 | X-H torsion
[ 10763 10752 10751 10750 ] final  -23.28 input  -60.55 | X-H torsion
[ 11005 11000 10999 10996 ] final  -63.52 input  -57.11 | X-H torsion

> <Gold.Protein.ActiveResidues>
 VAL166  LYS551  ARG553  GLY616  TRP617  ASP618  TYR619  PRO620  LYS621  CYS622 
 ASP623  PHE694  ASN695  SER759  ASP760  ASP761  ALA762  ILE779  LEU786  VAL792 
 PHE793  MET794  SER795  GLU796  ALA797  LYS798  CYS799  TRP800  GLU811  SER814 

> <Gold.Protein.RotatedAtoms>
  152.1684  134.8854  160.0536 H   0  0  0  0  0  0  0  0  0  0  0  0  # atno 6907 bound_to 6896
  151.9823  133.3757  159.4120 H   0  0  0  0  0  0  0  0  0  0  0  0  # atno 6908 bound_to 6896
  150.6898  134.3948  159.5136 H   0  0  0  0  0  0  0  0  0  0  0  0  # atno 6909 bound_to 6896
  146.2370  140.1891  142.8332 H   0  0  0  0  0  0  0  0  0  0  0  0  # atno 7974 bound_to 7965
  154.4019  140.1544  156.2911 H   0  0  0  0  0  0  0  0  0  0  0  0  # atno 8008 bound_to 7997
  155.8784  140.3445  155.5849 H   0  0  0  0  0  0  0  0  0  0  0  0  # atno 8009 bound_to 7997
  155.7695  140.0828  157.2106 H   0  0  0  0  0  0  0  0  0  0  0  0  # atno 8010 bound_to 7997
  140.1060  143.4570  152.1782 H   0  0  0  0  0  0  0  0  0  0  0  0  # atno 10167 bound_to 10162
  156.1512  130.4151  149.9942 H   0  0  0  0  0  0  0  0  0  0  0  0  # atno 10718 bound_to 10713
  153.6654  135.6974  153.5164 H   0  0  0  0  0  0  0  0  0  0  0  0  # atno 10763 bound_to 10752
  153.2599  135.4248  155.0883 H   0  0  0  0  0  0  0  0  0  0  0  0  # atno 10764 bound_to 10752
  154.8441  135.3552  154.6198 H   0  0  0  0  0  0  0  0  0  0  0  0  # atno 10765 bound_to 10752
  141.1395  133.6653  156.5692 H   0  0  0  0  0  0  0  0  0  0  0  0  # atno 11005 bound_to 11000
  144.9872  140.8514  143.5361 LP  0  0  0  0  0  0  0  0  0  0  0  0  # atno 17320 bound_to 7965
  145.1892  139.2310  143.5251 LP  0  0  0  0  0  0  0  0  0  0  0  0  # atno 17321 bound_to 7965
  139.5645  144.7426  151.4062 LP  0  0  0  0  0  0  0  0  0  0  0  0  # atno 17342 bound_to 10162
  140.6952  143.7767  150.7315 LP  0  0  0  0  0  0  0  0  0  0  0  0  # atno 17343 bound_to 10162
  156.7799  130.9217  151.3646 LP  0  0  0  0  0  0  0  0  0  0  0  0  # atno 17370 bound_to 10713
  157.6658  130.9006  149.9929 LP  0  0  0  0  0  0  0  0  0  0  0  0  # atno 17371 bound_to 10713
  140.3926  134.7427  157.4731 LP  0  0  0  0  0  0  0  0  0  0  0  0  # atno 17394 bound_to 11000
  140.0555  134.6070  155.8810 LP  0  0  0  0  0  0  0  0  0  0  0  0  # atno 17395 bound_to 11000

$$$$
