AV-unprocessed.smi:1855|AV-procd|sdf|7532|dock6
  -GOLD-   22720 9243D 1   1.00000     0.00000
 Structure written by MMmdl.
 44 46  0  0  0  0  0  0  0  0  2 V2000
  155.9322  139.6769  159.7939 C   0  0  0  0  0  0  0  0  0  0  0  0
  154.7213  139.9109  159.0911 O   0  0  0  0  0  0  0  0  0  0  0  0
  153.8924  140.9224  159.5321 C   0  0  0  0  0  0  0  0  0  0  0  0
  154.1468  141.7017  160.6889 C   0  0  0  0  0  0  0  0  0  0  0  0
  153.2504  142.7139  161.0783 C   0  0  0  0  0  0  0  0  0  0  0  0
  152.0940  142.9603  160.3184 C   0  0  0  0  0  0  0  0  0  0  0  0
  151.8318  142.1931  159.1688 C   0  0  0  0  0  0  0  0  0  0  0  0
  152.7275  141.1700  158.7707 C   0  0  0  0  0  0  0  0  0  0  0  0
  152.5388  140.3804  157.6583 O   0  0  0  0  0  0  0  0  0  0  0  0
  151.2165  140.1484  157.1953 C   0  0  0  0  0  0  0  0  0  0  0  0
  151.0310  140.8753  155.8552 C   0  0  0  0  0  0  0  0  0  0  0  0
  150.1197  140.1489  154.9554 N   0  0  0  0  0  0  0  0  0  0  0  0
  150.2522  138.9280  154.3597 C   0  0  0  0  0  0  0  0  0  0  0  0
  151.3991  137.9748  154.4893 C   0  0  0  0  0  0  0  0  0  0  0  0
  151.0807  136.6355  154.0092 N   0  0  0  0  0  0  0  0  0  0  0  0
  150.7719  135.5924  154.7928 C   0  0  0  0  0  0  0  0  0  0  0  0
  150.7061  135.6404  156.0197 O   0  0  0  0  0  0  0  0  0  0  0  0
  149.1355  138.7246  153.6045 N   0  3  0  0  0  0  0  0  0  0  0  0
  148.2851  139.8251  153.7101 C   0  0  0  0  0  0  0  0  0  0  0  0
  147.0498  140.0809  153.1226 C   0  0  0  0  0  0  0  0  0  0  0  0
  146.4461  141.3174  153.4314 C   0  0  0  0  0  0  0  0  0  0  0  0
  147.0670  142.2415  154.2963 C   0  0  0  0  0  0  0  0  0  0  0  0
  148.3159  141.9675  154.8907 C   0  0  0  0  0  0  0  0  0  0  0  0
  148.9091  140.7443  154.5775 C   0  0  0  0  0  0  0  0  0  0  0  0
  156.4622  138.8467  159.3274 H   0  0  0  0  0  0  0  0  0  0  0  0
  155.7441  139.4051  160.8334 H   0  0  0  0  0  0  0  0  0  0  0  0
  156.5877  140.5479  159.7600 H   0  0  0  0  0  0  0  0  0  0  0  0
  155.0246  141.5425  161.2963 H   0  0  0  0  0  0  0  0  0  0  0  0
  153.4519  143.3030  161.9607 H   0  0  0  0  0  0  0  0  0  0  0  0
  151.4078  143.7394  160.6160 H   0  0  0  0  0  0  0  0  0  0  0  0
  150.9382  142.4112  158.6042 H   0  0  0  0  0  0  0  0  0  0  0  0
  151.0448  139.0801  157.0535 H   0  0  0  0  0  0  0  0  0  0  0  0
  150.4905  140.5157  157.9218 H   0  0  0  0  0  0  0  0  0  0  0  0
  150.6224  141.8717  156.0208 H   0  0  0  0  0  0  0  0  0  0  0  0
  151.9876  141.0208  155.3536 H   0  0  0  0  0  0  0  0  0  0  0  0
  152.2369  138.3579  153.9066 H   0  0  0  0  0  0  0  0  0  0  0  0
  151.7408  137.9301  155.5239 H   0  0  0  0  0  0  0  0  0  0  0  0
  151.1088  136.4871  153.0108 H   0  0  0  0  0  0  0  0  0  0  0  0
  150.5852  134.6902  154.1903 H   0  0  0  0  0  0  0  0  0  0  0  0
  146.5734  139.3756  152.4578 H   0  0  0  0  0  0  0  0  0  0  0  0
  145.4890  141.5630  152.9950 H   0  0  0  0  0  0  0  0  0  0  0  0
  146.5768  143.1810  154.5071 H   0  0  0  0  0  0  0  0  0  0  0  0
  148.7855  142.6872  155.5446 H   0  0  0  0  0  0  0  0  0  0  0  0
  148.9726  137.8926  153.0524 H   0  0  0  0  0  0  0  0  0  0  0  0
  1  2  1  0  0  0  0
  1 25  1  0  0  0  0
  1 26  1  0  0  0  0
  1 27  1  0  0  0  0
  2  3  1  0  0  0  0
  3  8  1  0  0  0  0
  3  4  2  0  0  0  0
  4  5  1  0  0  0  0
  4 28  1  0  0  0  0
  5  6  2  0  0  0  0
  5 29  1  0  0  0  0
  6  7  1  0  0  0  0
  6 30  1  0  0  0  0
  7  8  2  0  0  0  0
  7 31  1  0  0  0  0
  8  9  1  0  0  0  0
  9 10  1  0  0  0  0
 10 11  1  0  0  0  0
 10 32  1  0  0  0  0
 10 33  1  0  0  0  0
 11 12  1  0  0  0  0
 11 34  1  0  0  0  0
 11 35  1  0  0  0  0
 12 24  1  0  0  0  0
 12 13  1  0  0  0  0
 13 14  1  0  0  0  0
 13 18  2  0  0  0  0
 14 15  1  0  0  0  0
 14 36  1  0  0  0  0
 14 37  1  0  0  0  0
 15 16  1  0  0  0  0
 15 38  1  0  0  0  0
 16 17  2  0  0  0  0
 16 39  1  0  0  0  0
 18 19  1  0  0  0  0
 18 44  1  0  0  0  0
 19 24  2  0  0  0  0
 19 20  1  0  0  0  0
 20 21  2  0  0  0  0
 20 40  1  0  0  0  0
 21 22  1  0  0  0  0
 21 41  1  0  0  0  0
 22 23  2  0  0  0  0
 22 42  1  0  0  0  0
 23 24  1  0  0  0  0
 23 43  1  0  0  0  0
M  CHG  1  18   1
M  END
> <s_m_source_file>
AV-unprocessed.smi

> <i_m_source_file_index>
1855

> <i_lp_mmshare_version>
43012

> <i_f3d_flags>
0

> <s_epik_input>
W0NIM11PYzFbY0hdW2NIXVtjSF1bY0hdYzFPW0NIMl1bQ0gyXW4oYyhuMilbQ0gyXVtOSF1bQ0hdPU8pYyhjMjMpW2NIXVtjSF1bY0hdW2NIXTM=

> <s_epik_cmdline>
J2VwaWtfcHl0aG9uJywgJy1waCcsICc3LjAnLCAnLXRuJywgJzgnLCAnLW1hJywgJzIwMCcsICctbWV0YWxfYmluZGluZycsICctaW1hZScsICc8aW5maWxlLm1hZT4nLCAnLW9tYWUnLCAnPG91dGZpbGUubWFlPic=

> <r_lp_tautomer_probability>
1

> <r_epik_Ionization_Penalty>
1.39865

> <r_epik_Ionization_Penalty_Charging>
1.39865

> <r_epik_Ionization_Penalty_Neutral>
7.38905e-08

> <r_epik_State_Penalty>
1.48061

> <r_epik_Charging_Adjusted_Penalty>
2.87925

> <i_epik_Tot_Q>
1

> <i_epik_Tot_abs_Q>
1

> <r_epik_Metal_State_Penalty>
1.53473

> <b_epik_Metal_Only>
0

> <s_lp_Force_Field>
OPLS_2005

> <r_lp_Energy>
17.0983

> <b_lp_Chiralities_Consistent>
1

> <s_lp_Variant>
AV-unprocessed.smi:1855-2

> <Gold.Version>
5.8.1

> <Gold.Id.Protein>
6NUR|6NUR_protein|mol2

> <Gold.PLP.Fitness>
59.2722

> <Gold.PLP.PLP>
-49.6670

> <Gold.PLP.part.hbond>
-5.7084

> <Gold.PLP.part.metal>
0.0000

> <Gold.PLP.part.buried>
2.2287

> <Gold.PLP.part.nonpolar>
-45.5593

> <Gold.PLP.part.repulsive>
0.1910

> <Gold.PLP.ligand.clash>
0.0000

> <Gold.PLP.ligand.torsion>
1.2829

> <Gold.PLP.Chemscore.Hbond>
4.0000

> <Gold.PLP.Chemscore.CHOScore>
0.0000

> <Gold.PLP.Chemscore.Metal>
0.0000

> <Gold.Chemscore.Hbonds>
donor molecule, donor type, donor heavy atom, donor atom, acceptor molecule, acceptor atom, score
      L1  H    15    38       P1  7949  1.00
      L1  H    18    44       P1  7948  2.00
      P1  H  7997  8010       L1     2  1.00

> <Gold.PLP.Chemscore.Internal.Correction>
0.1711

> <Gold.Rescore>
     Score         DG    S(hbond)    S(metal)    S(lipo)     H(rot)  DE(clash)    DE(int)     intcor
     17.91     -21.98       2.53        0.00     130.16       2.81       2.62       1.45       ----

> <Gold.Chemscore.Fitness>
17.9084

> <Gold.Chemscore.DG>
-21.9755

> <Gold.Chemscore.ZeroCoef>
-5.4800

> <Gold.Chemscore.Hbond>
2.5337

> <Gold.Chemscore.Metal>
0.0000

> <Gold.Chemscore.Lipo>
130.1570

> <Gold.Chemscore.Internal_Hbond>
0.0000

> <Gold.Chemscore.DEClash>
2.6210

> <Gold.Chemscore.DEInternal>
1.4460

> <Gold.Chemscore.Rot>
2.8108

> <Gold.Chemscore.Internal.Correction>
   9.000000E+99

> <Gold.Chemscore.Hbonds>
donor molecule, donor type, donor heavy atom, donor atom, acceptor molecule, acceptor atom, score
      L1  H    15    38       P1  7949  0.39
      L1  H    18    44       P1  7948  0.94
      P1  H  7997  8010       L1     2  0.59

> <Gold.Chemscore.Hbond.Weighted>
-8.4627

> <Gold.Chemscore.Metal.Weighted>
-0.0000

> <Gold.Chemscore.Lipo.Weighted>
-15.2284

> <Gold.Chemscore.Internal_Hbond.Weighted>
0.0000

> <Gold.Chemscore.DEClash.Weighted>
2.6210

> <Gold.Chemscore.DEInternal.Weighted>
1.4460

> <Gold.Chemscore.Rot.Weighted>
7.1955

> <Gold.Chemscore.Internal.Correction.Weighted>
   9.000000E+99

> <Gold.Protein.RotatedTorsions>
[ 6907 6896 6895 6894 ] final   72.48 input  -60.11 | X-H torsion
[ 7974 7965 7964 7962 ] final  -31.70 input  175.53 | X-H torsion
[ 8008 7997 7996 7995 ] final    2.06 input   59.86 | X-H torsion
[ 10167 10162 10161 10158 ] final  -37.88 input  -65.29 | X-H torsion
[ 10718 10713 10712 10709 ] final  108.70 input   66.30 | X-H torsion
[ 10763 10752 10751 10750 ] final  129.80 input  -60.55 | X-H torsion
[ 11005 11000 10999 10996 ] final  -16.23 input  -57.11 | X-H torsion

> <Gold.Protein.ActiveResidues>
 VAL166  LYS551  ARG553  GLY616  TRP617  ASP618  TYR619  PRO620  LYS621  CYS622 
 ASP623  PHE694  ASN695  SER759  ASP760  ASP761  ALA762  ILE779  LEU786  VAL792 
 PHE793  MET794  SER795  GLU796  ALA797  LYS798  CYS799  TRP800  GLU811  SER814 

> <Gold.Protein.RotatedAtoms>
  152.4870  134.4565  159.9591 H   0  0  0  0  0  0  0  0  0  0  0  0  # atno 6907 bound_to 6896
  151.4559  133.3599  159.2810 H   0  0  0  0  0  0  0  0  0  0  0  0  # atno 6908 bound_to 6896
  150.8989  134.8425  159.7407 H   0  0  0  0  0  0  0  0  0  0  0  0  # atno 6909 bound_to 6896
  146.1047  140.5700  142.8805 H   0  0  0  0  0  0  0  0  0  0  0  0  # atno 7974 bound_to 7965
  154.6871  140.2645  155.6849 H   0  0  0  0  0  0  0  0  0  0  0  0  # atno 8008 bound_to 7997
  156.2718  140.2798  156.1360 H   0  0  0  0  0  0  0  0  0  0  0  0  # atno 8009 bound_to 7997
  155.0948  140.0374  157.2669 H   0  0  0  0  0  0  0  0  0  0  0  0  # atno 8010 bound_to 7997
  140.7107  143.3313  151.2562 H   0  0  0  0  0  0  0  0  0  0  0  0  # atno 10167 bound_to 10162
  157.6574  131.0899  150.6345 H   0  0  0  0  0  0  0  0  0  0  0  0  # atno 10718 bound_to 10713
  153.7476  135.3214  155.3315 H   0  0  0  0  0  0  0  0  0  0  0  0  # atno 10763 bound_to 10752
  154.8274  135.4559  154.0964 H   0  0  0  0  0  0  0  0  0  0  0  0  # atno 10764 bound_to 10752
  153.2157  135.6941  153.8142 H   0  0  0  0  0  0  0  0  0  0  0  0  # atno 10765 bound_to 10752
  140.8046  133.8187  155.9503 H   0  0  0  0  0  0  0  0  0  0  0  0  # atno 11005 bound_to 11000
  144.7461  140.5071  143.6835 LP  0  0  0  0  0  0  0  0  0  0  0  0  # atno 17320 bound_to 7965
  145.5785  139.1487  143.3249 LP  0  0  0  0  0  0  0  0  0  0  0  0  # atno 17321 bound_to 7965
  139.6796  143.9877  152.2801 LP  0  0  0  0  0  0  0  0  0  0  0  0  # atno 17342 bound_to 10162
  139.9503  144.6625  150.8178 LP  0  0  0  0  0  0  0  0  0  0  0  0  # atno 17343 bound_to 10162
  156.6650  130.4523  149.5675 LP  0  0  0  0  0  0  0  0  0  0  0  0  # atno 17370 bound_to 10713
  156.2039  130.6637  151.1197 LP  0  0  0  0  0  0  0  0  0  0  0  0  # atno 17371 bound_to 10713
  140.9260  134.2082  157.4896 LP  0  0  0  0  0  0  0  0  0  0  0  0  # atno 17394 bound_to 11000
  139.8719  134.9812  156.5108 LP  0  0  0  0  0  0  0  0  0  0  0  0  # atno 17395 bound_to 11000

$$$$
