#       Name:                AV-unprocessed.smi:98
#       Creating user name   scv26
#       Creation time:       Thu Mar 26 17:31:24 2020


#       File generated by GOLD software.
#

@<TRIPOS>MOLECULE
AV-unprocessed.smi:98
    66    69     1
SMALL
NO_CHARGES


@<TRIPOS>ATOM
      1 ****         0.8209   0.7734   0.1422 O.2            1 S1                 0.0000
      2 ****         1.3225   0.3068   1.1659 C.2            1 S1                 0.0000
      3 ****         2.8054   0.5527   1.4853 C.3            1 S1                 0.0000
      4 ****         3.6378   0.7448   0.2774 N.am           1 S1                 0.0000
      5 ****         4.1725  -0.4029  -0.3589 C.2            1 S1                 0.0000
      6 ****         3.9468  -1.5351   0.0715 O.2            1 S1                 0.0000
      7 ****         4.9924  -0.1456  -1.5370 C.2            1 S1                 0.0000
      8 ****         5.5668  -1.1727  -2.1859 F              1 S1                 0.0000
      9 ****         5.1884   1.1114  -1.9848 C.2            1 S1                 0.0000
     10 ****         4.6277   2.2188  -1.3800 N.am           1 S1                 0.0000
     11 ****         4.9259   3.5927  -1.9341 C.3            1 S1                 0.0000
     12 ****         3.6654   4.3828  -2.3338 C.3            1 S1                 0.0000
     13 ****         3.7713   5.6412  -1.4879 C.3            1 S1                 0.0000
     14 ****         5.2553   5.6946  -1.1414 C.3            1 S1                 0.0000
     15 ****         5.5982   4.3297  -0.9601 O.3            1 S1                 0.0000
     16 ****         3.8534   2.0575  -0.2076 C.2            1 S1                 0.0000
     17 ****         3.3761   3.0316   0.3767 O.2            1 S1                 0.0000
     18 ****         0.6544  -0.4357   2.0672 N.am           1 S1                 0.0000
     19 ****        -0.7138  -0.8149   2.0466 C.ar           1 S1                 0.0000
     20 ****        -1.0609  -2.0385   2.6579 C.ar           1 S1                 0.0000
     21 ****        -2.4028  -2.4640   2.6934 C.ar           1 S1                 0.0000
     22 ****        -3.4056  -1.6533   2.1265 C.ar           1 S1                 0.0000
     23 ****        -5.1149  -2.1841   2.1742 S.o2           1 S1                 0.0000
     24 ****        -5.2585  -3.2114   3.2180 O.2            1 S1                 0.0000
     25 ****        -5.9729  -0.9888   2.1911 O.2            1 S1                 0.0000
     26 ****        -5.3084  -2.9580   0.6348 N.pl3          1 S1                 0.0000
     27 ****        -5.3806  -2.1159  -0.5712 C.3            1 S1                 0.0000
     28 ****        -5.9017  -2.9183  -1.7740 C.3            1 S1                 0.0000
     29 ****        -5.1237  -4.0924  -1.9521 O.3            1 S1                 0.0000
     30 ****        -5.2279  -4.9579  -0.8318 C.3            1 S1                 0.0000
     31 ****        -4.6713  -4.2688   0.4247 C.3            1 S1                 0.0000
     32 ****        -3.0752  -0.4204   1.5311 C.ar           1 S1                 0.0000
     33 ****        -1.7316  -0.0002   1.4932 C.ar           1 S1                 0.0000
     34 ****         2.8684   1.4117   2.1549 H              1 S1                 0.0000
     35 ****         3.1900  -0.2741   2.0854 H              1 S1                 0.0000
     36 ****         5.8081   1.2480  -2.8592 H              1 S1                 0.0000
     37 ****         5.5902   3.4369  -2.7855 H              1 S1                 0.0000
     38 ****         3.7249   4.6173  -3.3971 H              1 S1                 0.0000
     39 ****         2.7456   3.8251  -2.1547 H              1 S1                 0.0000
     40 ****         3.4253   6.5343  -2.0085 H              1 S1                 0.0000
     41 ****         3.1813   5.5330  -0.5773 H              1 S1                 0.0000
     42 ****         5.8341   6.1103  -1.9678 H              1 S1                 0.0000
     43 ****         5.4587   6.2830  -0.2464 H              1 S1                 0.0000
     44 ****         1.2098  -0.8427   2.8059 H              1 S1                 0.0000
     45 ****        -0.2950  -2.6617   3.0965 H              1 S1                 0.0000
     46 ****        -2.6542  -3.4079   3.1540 H              1 S1                 0.0000
     47 ****        -6.0305  -1.2599  -0.3894 H              1 S1                 0.0000
     48 ****        -4.3863  -1.7248  -0.7888 H              1 S1                 0.0000
     49 ****        -6.9525  -3.1802  -1.6390 H              1 S1                 0.0000
     50 ****        -5.8410  -2.3143  -2.6793 H              1 S1                 0.0000
     51 ****        -6.2674  -5.2544  -0.6824 H              1 S1                 0.0000
     52 ****        -4.6669  -5.8698  -1.0368 H              1 S1                 0.0000
     53 ****        -3.5947  -4.1252   0.3263 H              1 S1                 0.0000
     54 ****        -4.8322  -4.9052   1.2949 H              1 S1                 0.0000
     55 ****        -3.8459   0.2049   1.1051 H              1 S1                 0.0000
     56 ****        -1.5023   0.9569   1.0495 H              1 S1                 0.0000
     57 ****         1.3792   1.3153  -0.4859 LP             1 S1                 0.0000
     58 ****        -0.1446   0.6103  -0.0607 LP             1 S1                 0.0000
     59 ****         3.3770  -1.6567   0.8843 LP             1 S1                 0.0000
     60 ****         4.3335  -2.3325  -0.3918 LP             1 S1                 0.0000
     61 ****         6.5857   4.2097  -1.0628 LP             1 S1                 0.0000
     62 ****         5.3186   4.0260  -0.0492 LP             1 S1                 0.0000
     63 ****         2.8292   2.9001   1.2036 LP             1 S1                 0.0000
     64 ****         3.5356   3.9537   0.0241 LP             1 S1                 0.0000
     65 ****        -4.1658  -3.8325  -2.0744 LP             1 S1                 0.0000
     66 ****        -5.4448  -4.5750  -2.7669 LP             1 S1                 0.0000
@<TRIPOS>BOND
    1    1    2 2     
    2    2    3 1     
    3    2   18 am    
    4    3    4 1     
    5    3   34 1     
    6    3   35 1     
    7    4   16 am    
    8    4    5 am    
    9    5    6 2     
   10    5    7 1     
   11    7    8 1     
   12    7    9 2     
   13    9   10 1     
   14    9   36 1     
   15   10   11 1     
   16   10   16 am    
   17   11   15 1     
   18   11   12 1     
   19   11   37 1     
   20   12   13 1     
   21   12   38 1     
   22   12   39 1     
   23   13   14 1     
   24   13   40 1     
   25   13   41 1     
   26   14   15 1     
   27   14   42 1     
   28   14   43 1     
   29   16   17 2     
   30   18   19 1     
   31   18   44 1     
   32   19   33 ar    
   33   19   20 ar    
   34   20   21 ar    
   35   20   45 1     
   36   21   22 ar    
   37   21   46 1     
   38   22   23 1     
   39   22   32 ar    
   40   23   24 2     
   41   23   25 2     
   42   23   26 1     
   43   26   31 1     
   44   26   27 1     
   45   27   28 1     
   46   27   47 1     
   47   27   48 1     
   48   28   29 1     
   49   28   49 1     
   50   28   50 1     
   51   29   30 1     
   52   30   31 1     
   53   30   51 1     
   54   30   52 1     
   55   31   53 1     
   56   31   54 1     
   57   32   33 ar    
   58   32   55 1     
   59   33   56 1     
   60    1   57 1     
   61    1   58 1     
   62    6   59 1     
   63    6   60 1     
   64   15   61 1     
   65   15   62 1     
   66   17   63 1     
   67   17   64 1     
   68   29   65 1     
   69   29   66 1     
@<TRIPOS>SUBSTRUCTURE
      1 S1             1
@<TRIPOS>SET
LONE_PAIRS      STATIC     ATOMS    <user>   **** ""
12 57 58 59 60 61 62 63 64 24 25 65 66
DONOR_HYDROGENS      STATIC     ATOMS    <user>   **** ""
1 44
ATOM$BLUE        STATIC     ATOMS    COLORGROUP SYSTEM
12 57 58 59 60 61 62 63 64 24 25 65 66
ATOM$RED        STATIC     ATOMS    COLORGROUP SYSTEM
1 44
