AV-unprocessed.smi:2476|AV-procd|sdf|9758|dock8
  -GOLD-   2272013403D 1   1.00000     0.00000
 Structure written by MMmdl.
 34 35  0  0  0  0  0  0  0  0  1 V2000
  146.9665  139.1560  152.0815 C   0  0  0  0  0  0  0  0  0  0  0  0
  147.0758  139.8035  153.4580 C   0  0  0  0  0  0  0  0  0  0  0  0
  146.1946  139.6152  154.2959 O   0  0  0  0  0  0  0  0  0  0  0  0
  148.1590  140.5635  153.6792 N   0  0  0  0  0  0  0  0  0  0  0  0
  148.4539  141.2608  154.9268 C   0  0  0  0  0  0  0  0  0  0  0  0
  149.9420  141.1750  155.3130 C   0  0  1  0  0  0  0  0  0  0  0  0
  150.2300  141.7133  156.7311 C   0  0  0  0  0  0  0  0  0  0  0  0
  151.6328  141.5106  157.0703 N   0  0  0  0  0  0  0  0  0  0  0  0
  152.0038  142.0857  158.2948 C   0  0  0  0  0  0  0  0  0  0  0  0
  152.3648  141.2599  159.3075 N   0  0  0  0  0  0  0  0  0  0  0  0
  152.7253  141.8115  160.4863 C   0  0  0  0  0  0  0  0  0  0  0  0
  152.7442  143.2011  160.7164 C   0  0  0  0  0  0  0  0  0  0  0  0
  152.3678  144.0574  159.6642 C   0  0  0  0  0  0  0  0  0  0  0  0
  151.9905  143.4918  158.4307 C   0  0  0  0  0  0  0  0  0  0  0  0
  151.6235  144.2882  157.3979 F   0  0  0  0  0  0  0  0  0  0  0  0
  152.0451  140.1202  156.9306 C   0  0  0  0  0  0  0  0  0  0  0  0
  151.7171  139.6174  155.5152 C   0  0  0  0  0  0  0  0  0  0  0  0
  150.3288  139.8034  155.2540 O   0  0  0  0  0  0  0  0  0  0  0  0
  147.9374  139.1062  151.5869 H   0  0  0  0  0  0  0  0  0  0  0  0
  146.2868  139.7279  151.4497 H   0  0  0  0  0  0  0  0  0  0  0  0
  146.5792  138.1408  152.1706 H   0  0  0  0  0  0  0  0  0  0  0  0
  148.8288  140.6649  152.9304 H   0  0  0  0  0  0  0  0  0  0  0  0
  148.1615  142.3046  154.8085 H   0  0  0  0  0  0  0  0  0  0  0  0
  147.8331  140.8579  155.7289 H   0  0  0  0  0  0  0  0  0  0  0  0
  150.5308  141.7342  154.5834 H   0  0  0  0  0  0  0  0  0  0  0  0
  149.9954  142.7768  156.7886 H   0  0  0  0  0  0  0  0  0  0  0  0
  149.5976  141.2022  157.4585 H   0  0  0  0  0  0  0  0  0  0  0  0
  153.0082  141.1243  161.2702 H   0  0  0  0  0  0  0  0  0  0  0  0
  153.0401  143.5993  161.6756 H   0  0  0  0  0  0  0  0  0  0  0  0
  152.3691  145.1288  159.8006 H   0  0  0  0  0  0  0  0  0  0  0  0
  153.1148  140.0297  157.1229 H   0  0  0  0  0  0  0  0  0  0  0  0
  151.5295  139.5057  157.6701 H   0  0  0  0  0  0  0  0  0  0  0  0
  152.3136  140.1421  154.7670 H   0  0  0  0  0  0  0  0  0  0  0  0
  151.9562  138.5576  155.4280 H   0  0  0  0  0  0  0  0  0  0  0  0
  1  2  1  0  0  0  0
  1 19  1  0  0  0  0
  1 20  1  0  0  0  0
  1 21  1  0  0  0  0
  2  3  2  0  0  0  0
  2  4  1  0  0  0  0
  4  5  1  0  0  0  0
  4 22  1  0  0  0  0
  5  6  1  0  0  0  0
  5 23  1  0  0  0  0
  5 24  1  0  0  0  0
  6 18  1  0  0  0  0
  6  7  1  0  0  0  0
  6 25  1  0  0  0  0
  7  8  1  0  0  0  0
  7 26  1  0  0  0  0
  7 27  1  0  0  0  0
  8  9  1  0  0  0  0
  8 16  1  0  0  0  0
  9 14  1  0  0  0  0
  9 10  2  0  0  0  0
 10 11  1  0  0  0  0
 11 12  2  0  0  0  0
 11 28  1  0  0  0  0
 12 13  1  0  0  0  0
 12 29  1  0  0  0  0
 13 14  2  0  0  0  0
 13 30  1  0  0  0  0
 14 15  1  0  0  0  0
 16 17  1  0  0  0  0
 16 31  1  0  0  0  0
 16 32  1  0  0  0  0
 17 18  1  0  0  0  0
 17 33  1  0  0  0  0
 17 34  1  0  0  0  0
M  END
> <s_m_source_file>
AV-unprocessed.smi

> <i_m_source_file_index>
2476

> <i_lp_mmshare_version>
43012

> <i_f3d_flags>
0

> <s_epik_input>
W0NIM11DKD1PKVtOSF1bQ0gyXVtDQEBIXTFbQ0gyXU4oW0NIMl1bQ0gyXU8xKWMybltjSF1bY0hdW2NIXWMyRg==

> <s_epik_cmdline>
J2VwaWtfcHl0aG9uJywgJy1waCcsICc3LjAnLCAnLXRuJywgJzgnLCAnLW1hJywgJzIwMCcsICctbWV0YWxfYmluZGluZycsICctaW1hZScsICc8aW5maWxlLm1hZT4nLCAnLW9tYWUnLCAnPG91dGZpbGUubWFlPic=

> <r_lp_tautomer_probability>
1

> <r_epik_Ionization_Penalty>
1.69306e-05

> <r_epik_Ionization_Penalty_Charging>
0

> <r_epik_Ionization_Penalty_Neutral>
1.69306e-05

> <r_epik_State_Penalty>
-0

> <r_epik_Charging_Adjusted_Penalty>
0

> <i_epik_Tot_Q>
0

> <i_epik_Tot_abs_Q>
0

> <r_epik_Metal_State_Penalty>
-0

> <b_epik_Metal_Only>
0

> <s_lp_Force_Field>
OPLS_2005

> <r_lp_Energy>
19.3351

> <b_lp_Chiralities_Consistent>
1

> <s_lp_Variant>
AV-unprocessed.smi:2476-2

> <Gold.Version>
5.8.1

> <Gold.Id.Protein>
6NUR|6NUR_protein|mol2

> <Gold.PLP.Fitness>
40.4132

> <Gold.PLP.PLP>
-38.1991

> <Gold.PLP.part.hbond>
-1.0000

> <Gold.PLP.part.metal>
0.0000

> <Gold.PLP.part.buried>
-0.7679

> <Gold.PLP.part.nonpolar>
-37.0347

> <Gold.PLP.part.repulsive>
0.2956

> <Gold.PLP.ligand.clash>
0.0000

> <Gold.PLP.ligand.torsion>
0.4332

> <Gold.PLP.Chemscore.Hbond>
0.9913

> <Gold.PLP.Chemscore.CHOScore>
0.0000

> <Gold.PLP.Chemscore.Metal>
0.0000

> <Gold.Chemscore.Hbonds>
donor molecule, donor type, donor heavy atom, donor atom, acceptor molecule, acceptor atom, score
      L1  H     4    22       P1  7957  1.00

> <Gold.PLP.Chemscore.Internal.Correction>
0.1068

> <Gold.Rescore>
     Score         DG    S(hbond)    S(metal)    S(lipo)     H(rot)  DE(clash)    DE(int)     intcor
     13.11     -15.04       0.96        0.00      89.42       1.61       0.52       1.41       ----

> <Gold.Chemscore.Fitness>
13.1141

> <Gold.Chemscore.DG>
-15.0404

> <Gold.Chemscore.ZeroCoef>
-5.4800

> <Gold.Chemscore.Hbond>
0.9621

> <Gold.Chemscore.Metal>
0.0000

> <Gold.Chemscore.Lipo>
89.4249

> <Gold.Chemscore.Internal_Hbond>
0.0000

> <Gold.Chemscore.DEClash>
0.5178

> <Gold.Chemscore.DEInternal>
1.4085

> <Gold.Chemscore.Rot>
1.6078

> <Gold.Chemscore.Internal.Correction>
   9.000000E+99

> <Gold.Chemscore.Hbonds>
donor molecule, donor type, donor heavy atom, donor atom, acceptor molecule, acceptor atom, score
      L1  H     4    22       P1  7957  0.89

> <Gold.Chemscore.Hbond.Weighted>
-3.2136

> <Gold.Chemscore.Metal.Weighted>
-0.0000

> <Gold.Chemscore.Lipo.Weighted>
-10.4627

> <Gold.Chemscore.Internal_Hbond.Weighted>
0.0000

> <Gold.Chemscore.DEClash.Weighted>
0.5178

> <Gold.Chemscore.DEInternal.Weighted>
1.4085

> <Gold.Chemscore.Rot.Weighted>
4.1159

> <Gold.Chemscore.Internal.Correction.Weighted>
   9.000000E+99

> <Gold.Protein.RotatedTorsions>
[ 6907 6896 6895 6894 ] final    2.67 input  -60.11 | X-H torsion
[ 7974 7965 7964 7962 ] final  -73.07 input  175.53 | X-H torsion
[ 8008 7997 7996 7995 ] final -152.72 input   59.86 | X-H torsion
[ 10167 10162 10161 10158 ] final  -72.78 input  -65.29 | X-H torsion
[ 10718 10713 10712 10709 ] final -103.49 input   66.30 | X-H torsion
[ 10763 10752 10751 10750 ] final  100.48 input  -60.55 | X-H torsion
[ 11005 11000 10999 10996 ] final  128.31 input  -57.11 | X-H torsion

> <Gold.Protein.ActiveResidues>
 VAL166  LYS551  ARG553  GLY616  TRP617  ASP618  TYR619  PRO620  LYS621  CYS622 
 ASP623  PHE694  ASN695  SER759  ASP760  ASP761  ALA762  ILE779  LEU786  VAL792 
 PHE793  MET794  SER795  GLU796  ALA797  LYS798  CYS799  TRP800  GLU811  SER814 

> <Gold.Protein.RotatedAtoms>
  151.6127  135.1039  160.0084 H   0  0  0  0  0  0  0  0  0  0  0  0  # atno 6907 bound_to 6896
  152.4200  133.7096  159.6482 H   0  0  0  0  0  0  0  0  0  0  0  0  # atno 6908 bound_to 6896
  150.8087  133.8388  159.3214 H   0  0  0  0  0  0  0  0  0  0  0  0  # atno 6909 bound_to 6896
  145.6569  140.9265  143.0954 H   0  0  0  0  0  0  0  0  0  0  0  0  # atno 7974 bound_to 7965
  155.6596  140.0721  157.2558 H   0  0  0  0  0  0  0  0  0  0  0  0  # atno 8008 bound_to 7997
  154.4145  140.1718  156.1813 H   0  0  0  0  0  0  0  0  0  0  0  0  # atno 8009 bound_to 7997
  155.9708  140.3362  155.6577 H   0  0  0  0  0  0  0  0  0  0  0  0  # atno 8010 bound_to 7997
  140.5164  143.2337  151.7505 H   0  0  0  0  0  0  0  0  0  0  0  0  # atno 10167 bound_to 10162
  156.0267  130.5470  150.7260 H   0  0  0  0  0  0  0  0  0  0  0  0  # atno 10718 bound_to 10713
  153.3145  135.4077  155.1364 H   0  0  0  0  0  0  0  0  0  0  0  0  # atno 10763 bound_to 10752
  154.8585  135.3572  154.5679 H   0  0  0  0  0  0  0  0  0  0  0  0  # atno 10764 bound_to 10752
  153.6109  135.7068  153.5406 H   0  0  0  0  0  0  0  0  0  0  0  0  # atno 10765 bound_to 10752
  139.9554  134.9614  156.8983 H   0  0  0  0  0  0  0  0  0  0  0  0  # atno 11005 bound_to 11000
  144.7102  139.8399  143.7417 LP  0  0  0  0  0  0  0  0  0  0  0  0  # atno 17320 bound_to 7965
  146.1157  139.4168  143.0260 LP  0  0  0  0  0  0  0  0  0  0  0  0  # atno 17321 bound_to 7965
  139.4910  144.4317  151.9865 LP  0  0  0  0  0  0  0  0  0  0  0  0  # atno 17342 bound_to 10162
  140.3412  144.3201  150.5967 LP  0  0  0  0  0  0  0  0  0  0  0  0  # atno 17343 bound_to 10162
  157.4864  131.0907  151.0477 LP  0  0  0  0  0  0  0  0  0  0  0  0  # atno 17370 bound_to 10713
  157.0896  130.5937  149.5437 LP  0  0  0  0  0  0  0  0  0  0  0  0  # atno 17371 bound_to 10713
  140.5622  134.0524  155.7402 LP  0  0  0  0  0  0  0  0  0  0  0  0  # atno 17394 bound_to 11000
  141.1224  133.9439  157.2703 LP  0  0  0  0  0  0  0  0  0  0  0  0  # atno 17395 bound_to 11000

$$$$
