AV-unprocessed.smi:2115|AV-procd|sdf|8624|dock2
  -GOLD-   2272011373D 1   1.00000     0.00000
 Structure written by MMmdl.
 37 38  0  0  0  0  0  0  0  0  1 V2000
  145.5615  136.8823  152.1080 C   0  0  0  0  0  0  0  0  0  0  0  0
  146.2726  137.7343  152.9887 O   0  0  0  0  0  0  0  0  0  0  0  0
  146.7672  138.8946  152.3406 C   0  0  0  0  0  0  0  0  0  0  0  0
  147.4027  139.8209  153.3817 C   0  0  0  0  0  0  0  0  0  0  0  0
  148.7012  139.3307  153.7027 O   0  0  0  0  0  0  0  0  0  0  0  0
  149.3886  139.9185  154.7448 C   0  0  0  0  0  0  0  0  0  0  0  0
  148.6557  140.6104  155.7293 C   0  0  0  0  0  0  0  0  0  0  0  0
  149.3509  141.2068  156.7980 C   0  0  0  0  0  0  0  0  0  0  0  0
  150.7538  141.0864  156.8586 C   0  0  0  0  0  0  0  0  0  0  0  0
  151.4322  141.7103  157.9399 N   0  0  0  0  0  0  0  0  0  0  0  0
  152.5077  141.2706  158.6188 C   0  0  0  0  0  0  0  0  0  0  0  0
  153.0877  140.2075  158.3968 O   0  0  0  0  0  0  0  0  0  0  0  0
  153.0032  142.1867  159.7439 C   0  0  1  0  0  0  0  0  0  0  0  0
  153.3037  143.6278  159.2900 C   0  0  0  0  0  0  0  0  0  0  0  0
  152.2135  144.4491  159.9503 C   0  0  0  0  0  0  0  0  0  0  0  0
  151.9148  143.6285  161.1963 C   0  0  0  0  0  0  0  0  0  0  0  0
  151.9667  142.2940  160.7180 O   0  0  0  0  0  0  0  0  0  0  0  0
  151.4008  140.3848  155.8122 C   0  0  0  0  0  0  0  0  0  0  0  0
  150.7398  139.8120  154.7838 N   0  0  0  0  0  0  0  0  0  0  0  0
  145.2041  136.0083  152.6523 H   0  0  0  0  0  0  0  0  0  0  0  0
  146.2001  136.5348  151.2949 H   0  0  0  0  0  0  0  0  0  0  0  0
  144.6956  137.3901  151.6811 H   0  0  0  0  0  0  0  0  0  0  0  0
  147.4925  138.6338  151.5680 H   0  0  0  0  0  0  0  0  0  0  0  0
  145.9397  139.4116  151.8525 H   0  0  0  0  0  0  0  0  0  0  0  0
  147.4877  140.8241  152.9608 H   0  0  0  0  0  0  0  0  0  0  0  0
  146.7701  139.8813  154.2689 H   0  0  0  0  0  0  0  0  0  0  0  0
  147.5799  140.6820  155.6655 H   0  0  0  0  0  0  0  0  0  0  0  0
  148.8098  141.7441  157.5633 H   0  0  0  0  0  0  0  0  0  0  0  0
  151.0129  142.5626  158.2825 H   0  0  0  0  0  0  0  0  0  0  0  0
  153.8898  141.7606  160.2171 H   0  0  0  0  0  0  0  0  0  0  0  0
  154.2810  143.9340  159.6661 H   0  0  0  0  0  0  0  0  0  0  0  0
  153.3166  143.7623  158.2073 H   0  0  0  0  0  0  0  0  0  0  0  0
  152.5212  145.4708  160.1739 H   0  0  0  0  0  0  0  0  0  0  0  0
  151.3321  144.4871  159.3086 H   0  0  0  0  0  0  0  0  0  0  0  0
  152.6841  143.7764  161.9556 H   0  0  0  0  0  0  0  0  0  0  0  0
  150.9444  143.8619  161.6347 H   0  0  0  0  0  0  0  0  0  0  0  0
  152.4742  140.2869  155.7684 H   0  0  0  0  0  0  0  0  0  0  0  0
  1  2  1  0  0  0  0
  1 20  1  0  0  0  0
  1 21  1  0  0  0  0
  1 22  1  0  0  0  0
  2  3  1  0  0  0  0
  3  4  1  0  0  0  0
  3 23  1  0  0  0  0
  3 24  1  0  0  0  0
  4  5  1  0  0  0  0
  4 25  1  0  0  0  0
  4 26  1  0  0  0  0
  5  6  1  0  0  0  0
  6 19  1  0  0  0  0
  6  7  2  0  0  0  0
  7  8  1  0  0  0  0
  7 27  1  0  0  0  0
  8  9  2  0  0  0  0
  8 28  1  0  0  0  0
  9 10  1  0  0  0  0
  9 18  1  0  0  0  0
 10 11  1  0  0  0  0
 10 29  1  0  0  0  0
 11 12  2  0  0  0  0
 11 13  1  0  0  0  0
 13 17  1  0  0  0  0
 13 14  1  0  0  0  0
 13 30  1  0  0  0  0
 14 15  1  0  0  0  0
 14 31  1  0  0  0  0
 14 32  1  0  0  0  0
 15 16  1  0  0  0  0
 15 33  1  0  0  0  0
 15 34  1  0  0  0  0
 16 17  1  0  0  0  0
 16 35  1  0  0  0  0
 16 36  1  0  0  0  0
 18 19  2  0  0  0  0
 18 37  1  0  0  0  0
M  END
> <s_m_source_file>
AV-unprocessed.smi

> <i_m_source_file_index>
2115

> <i_lp_mmshare_version>
43012

> <i_f3d_flags>
0

> <s_epik_input>
W0NIM11PW0NIMl1bQ0gyXU9jMVtjSF1bY0hdYyhbY0hdbjEpW05IXUMoPU8pW0NAQEhdMltDSDJdW0NIMl1bQ0gyXU8y

> <s_epik_cmdline>
J2VwaWtfcHl0aG9uJywgJy1waCcsICc3LjAnLCAnLXRuJywgJzgnLCAnLW1hJywgJzIwMCcsICctbWV0YWxfYmluZGluZycsICctaW1hZScsICc8aW5maWxlLm1hZT4nLCAnLW9tYWUnLCAnPG91dGZpbGUubWFlPic=

> <r_lp_tautomer_probability>
1

> <r_epik_Ionization_Penalty>
1.60185e-05

> <r_epik_Ionization_Penalty_Charging>
0

> <r_epik_Ionization_Penalty_Neutral>
1.60185e-05

> <r_epik_State_Penalty>
-0

> <r_epik_Charging_Adjusted_Penalty>
0

> <i_epik_Tot_Q>
0

> <i_epik_Tot_abs_Q>
0

> <r_epik_Metal_State_Penalty>
-0

> <b_epik_Metal_Only>
0

> <s_lp_Force_Field>
OPLS_2005

> <r_lp_Energy>
23.9239

> <b_lp_Chiralities_Consistent>
1

> <s_lp_Variant>
AV-unprocessed.smi:2115-2

> <Gold.Version>
5.8.1

> <Gold.Id.Protein>
6NUR|6NUR_protein|mol2

> <Gold.PLP.Fitness>
39.3261

> <Gold.PLP.PLP>
-35.7744

> <Gold.PLP.part.hbond>
-2.8827

> <Gold.PLP.part.metal>
0.0000

> <Gold.PLP.part.buried>
-3.7181

> <Gold.PLP.part.nonpolar>
-30.7286

> <Gold.PLP.part.repulsive>
3.0120

> <Gold.PLP.ligand.clash>
0.0000

> <Gold.PLP.ligand.torsion>
0.7472

> <Gold.PLP.Chemscore.Hbond>
1.6357

> <Gold.PLP.Chemscore.CHOScore>
0.0000

> <Gold.PLP.Chemscore.Metal>
0.0000

> <Gold.Chemscore.Hbonds>
donor molecule, donor type, donor heavy atom, donor atom, acceptor molecule, acceptor atom, score
      P1  H  7989  7998       L1    19  0.65
      P1  H  7997  8010       L1    12  0.92

> <Gold.PLP.Chemscore.Internal.Correction>
0.1388

> <Gold.Rescore>
     Score         DG    S(hbond)    S(metal)    S(lipo)     H(rot)  DE(clash)    DE(int)     intcor
     13.16     -14.05       0.87        0.00      88.80       1.84       0.04       0.85       ----

> <Gold.Chemscore.Fitness>
13.1636

> <Gold.Chemscore.DG>
-14.0498

> <Gold.Chemscore.ZeroCoef>
-5.4800

> <Gold.Chemscore.Hbond>
0.8651

> <Gold.Chemscore.Metal>
0.0000

> <Gold.Chemscore.Lipo>
88.8049

> <Gold.Chemscore.Internal_Hbond>
0.0000

> <Gold.Chemscore.DEClash>
0.0361

> <Gold.Chemscore.DEInternal>
0.8501

> <Gold.Chemscore.Rot>
1.8398

> <Gold.Chemscore.Internal.Correction>
   9.000000E+99

> <Gold.Chemscore.Hbonds>
donor molecule, donor type, donor heavy atom, donor atom, acceptor molecule, acceptor atom, score
      P1  H  7989  7998       L1    19  0.05
      P1  H  7997  8010       L1    12  0.82

> <Gold.Chemscore.Hbond.Weighted>
-2.8894

> <Gold.Chemscore.Metal.Weighted>
-0.0000

> <Gold.Chemscore.Lipo.Weighted>
-10.3902

> <Gold.Chemscore.Internal_Hbond.Weighted>
0.0000

> <Gold.Chemscore.DEClash.Weighted>
0.0361

> <Gold.Chemscore.DEInternal.Weighted>
0.8501

> <Gold.Chemscore.Rot.Weighted>
4.7099

> <Gold.Chemscore.Internal.Correction.Weighted>
   9.000000E+99

> <Gold.Protein.RotatedTorsions>
[ 6907 6896 6895 6894 ] final    7.53 input  -60.11 | X-H torsion
[ 7974 7965 7964 7962 ] final   70.62 input  175.53 | X-H torsion
[ 8008 7997 7996 7995 ] final   29.34 input   59.86 | X-H torsion
[ 10167 10162 10161 10158 ] final   72.83 input  -65.29 | X-H torsion
[ 10718 10713 10712 10709 ] final -149.30 input   66.30 | X-H torsion
[ 10763 10752 10751 10750 ] final -109.00 input  -60.55 | X-H torsion
[ 11005 11000 10999 10996 ] final   29.67 input  -57.11 | X-H torsion

> <Gold.Protein.ActiveResidues>
 VAL166  LYS551  ARG553  GLY616  TRP617  ASP618  TYR619  PRO620  LYS621  CYS622 
 ASP623  PHE694  ASN695  SER759  ASP760  ASP761  ALA762  ILE779  LEU786  VAL792 
 PHE793  MET794  SER795  GLU796  ALA797  LYS798  CYS799  TRP800  GLU811  SER814 

> <Gold.Protein.RotatedAtoms>
  151.6913  135.0946  160.0233 H   0  0  0  0  0  0  0  0  0  0  0  0  # atno 6907 bound_to 6896
  152.3777  133.6499  159.6145 H   0  0  0  0  0  0  0  0  0  0  0  0  # atno 6908 bound_to 6896
  150.7722  133.9083  159.3403 H   0  0  0  0  0  0  0  0  0  0  0  0  # atno 6909 bound_to 6896
  145.7759  139.2865  143.1294 H   0  0  0  0  0  0  0  0  0  0  0  0  # atno 7974 bound_to 7965
  155.0730  140.3202  155.4624 H   0  0  0  0  0  0  0  0  0  0  0  0  # atno 8008 bound_to 7997
  156.2786  140.2108  156.5803 H   0  0  0  0  0  0  0  0  0  0  0  0  # atno 8009 bound_to 7997
  154.7039  140.0504  157.0472 H   0  0  0  0  0  0  0  0  0  0  0  0  # atno 8010 bound_to 7997
  140.0310  144.5465  150.7507 H   0  0  0  0  0  0  0  0  0  0  0  0  # atno 10167 bound_to 10162
  156.4314  130.8077  151.2304 H   0  0  0  0  0  0  0  0  0  0  0  0  # atno 10718 bound_to 10713
  154.8168  135.4617  154.0666 H   0  0  0  0  0  0  0  0  0  0  0  0  # atno 10763 bound_to 10752
  153.2052  135.6874  153.8188 H   0  0  0  0  0  0  0  0  0  0  0  0  # atno 10764 bound_to 10752
  153.7659  135.3277  155.3321 H   0  0  0  0  0  0  0  0  0  0  0  0  # atno 10765 bound_to 10752
  140.3025  134.2741  155.7751 H   0  0  0  0  0  0  0  0  0  0  0  0  # atno 11005 bound_to 11000
  146.0123  140.8424  142.9964 LP  0  0  0  0  0  0  0  0  0  0  0  0  # atno 17320 bound_to 7965
  144.6804  140.2508  143.7332 LP  0  0  0  0  0  0  0  0  0  0  0  0  # atno 17321 bound_to 7965
  140.7302  143.2680  151.3979 LP  0  0  0  0  0  0  0  0  0  0  0  0  # atno 17342 bound_to 10162
  139.6076  144.1165  152.2265 LP  0  0  0  0  0  0  0  0  0  0  0  0  # atno 17343 bound_to 10162
  157.7508  131.0197  150.3679 LP  0  0  0  0  0  0  0  0  0  0  0  0  # atno 17370 bound_to 10713
  156.4017  130.3917  149.6955 LP  0  0  0  0  0  0  0  0  0  0  0  0  # atno 17371 bound_to 10713
  141.2125  133.7655  156.9788 LP  0  0  0  0  0  0  0  0  0  0  0  0  # atno 17394 bound_to 11000
  140.1097  134.9485  157.2046 LP  0  0  0  0  0  0  0  0  0  0  0  0  # atno 17395 bound_to 11000

$$$$
