#       Name:                AV-unprocessed.smi:633
#       Creating user name   scv26
#       Creation time:       Fri Mar 27 00:05:25 2020


#       File generated by GOLD software.
#

@<TRIPOS>MOLECULE
AV-unprocessed.smi:633
    59    62     1
SMALL
NO_CHARGES


@<TRIPOS>ATOM
      1 ****        -6.5005   3.5999   0.4914 C.3            1 S1                 0.0000
      2 ****        -5.8736   2.2470   0.1384 C.3            1 S1                 0.0000
      3 ****        -4.3423   2.3396   0.0137 C.3            1 S1                 0.0000
      4 ****        -3.7919   1.0679  -0.4462 N.3            1 S1                 0.0000
      5 ****        -2.3987   0.8702  -0.3396 C.ar           1 S1                 0.0000
      6 ****        -1.8518  -0.4234  -0.5082 C.ar           1 S1                 0.0000
      7 ****        -0.4592  -0.6026  -0.4025 C.ar           1 S1                 0.0000
      8 ****         0.3562   0.5184  -0.1220 C.ar           1 S1                 0.0000
      9 ****         1.7728   0.4742  -0.0157 N.am           1 S1                 0.0000
     10 ****         2.5611  -0.5830   0.2433 C.2            1 S1                 0.0000
     11 ****         2.1636  -1.7227   0.4829 O.2            1 S1                 0.0000
     12 ****         3.8564  -0.2322   0.2281 N.am           1 S1                 0.0000
     13 ****         5.0024  -1.1059   0.4742 C.3            1 S1                 0.0000
     14 ****         5.1590  -2.2191  -0.5516 C.3            1 S1                 0.0000
     15 ****         6.5194  -2.7675  -0.9110 C.3            1 S1                 0.0000
     16 ****         5.7434  -1.9468  -1.9167 C.3            1 S1                 0.0000
     17 ****         5.0590  -1.6596   1.8905 C.3            1 S1                 0.0000
     18 ****         5.5383  -0.8093   3.0423 C.3            1 S1                 0.0000
     19 ****         6.3779  -1.9700   2.5575 C.3            1 S1                 0.0000
     20 ****        -0.2793   1.7676   0.0216 C.ar           1 S1                 0.0000
     21 ****        -1.6136   1.9432  -0.0759 N.ar           1 S1                 0.0000
     22 ****        -4.3993   0.5936  -1.6862 C.3            1 S1                 0.0000
     23 ****        -5.9361   0.5552  -1.5712 C.3            1 S1                 0.0000
     24 ****        -6.4572  -0.6251  -0.7320 C.3            1 S1                 0.0000
     25 ****        -6.4294   1.8122  -1.1020 O.3            1 S1                 0.0000
     26 ****        -6.1196   3.9728   1.4424 H              1 S1                 0.0000
     27 ****        -7.5840   3.5163   0.5774 H              1 S1                 0.0000
     28 ****        -6.2835   4.3469  -0.2727 H              1 S1                 0.0000
     29 ****        -6.1342   1.5396   0.9259 H              1 S1                 0.0000
     30 ****        -4.0672   3.1256  -0.6912 H              1 S1                 0.0000
     31 ****        -3.9165   2.6059   0.9821 H              1 S1                 0.0000
     32 ****        -2.4825  -1.2771  -0.7075 H              1 S1                 0.0000
     33 ****        -0.0488  -1.5891  -0.5509 H              1 S1                 0.0000
     34 ****         2.2400   1.3647  -0.1045 H              1 S1                 0.0000
     35 ****         4.0726   0.7327   0.0252 H              1 S1                 0.0000
     36 ****         5.8682  -0.4523   0.3600 H              1 S1                 0.0000
     37 ****         4.3580  -2.9556  -0.5225 H              1 S1                 0.0000
     38 ****         7.3933  -2.3046  -0.4574 H              1 S1                 0.0000
     39 ****         6.5976  -3.8384  -1.0871 H              1 S1                 0.0000
     40 ****         5.3041  -2.4704  -2.7633 H              1 S1                 0.0000
     41 ****         6.0996  -0.9397  -2.1249 H              1 S1                 0.0000
     42 ****         4.2506  -2.3508   2.1218 H              1 S1                 0.0000
     43 ****         5.8919   0.1952   2.8182 H              1 S1                 0.0000
     44 ****         5.0260  -0.9214   3.9956 H              1 S1                 0.0000
     45 ****         6.4254  -2.8553   3.1881 H              1 S1                 0.0000
     46 ****         7.2921  -1.7335   2.0171 H              1 S1                 0.0000
     47 ****         0.2992   2.6568   0.2257 H              1 S1                 0.0000
     48 ****        -4.1108   1.2756  -2.4871 H              1 S1                 0.0000
     49 ****        -4.0325  -0.3920  -1.9707 H              1 S1                 0.0000
     50 ****        -6.3395   0.4280  -2.5762 H              1 S1                 0.0000
     51 ****        -6.1803  -1.5750  -1.1897 H              1 S1                 0.0000
     52 ****        -7.5445  -0.6000  -0.6577 H              1 S1                 0.0000
     53 ****        -6.0515  -0.6250   0.2793 H              1 S1                 0.0000
     54 ****        -4.0941   0.4361   0.2677 LP             1 S1                 0.0000
     55 ****         1.1829  -1.9180   0.4950 LP             1 S1                 0.0000
     56 ****         2.8213  -2.4536   0.6656 LP             1 S1                 0.0000
     57 ****        -2.0168   2.8503   0.0445 LP             1 S1                 0.0000
     58 ****        -6.2255   2.5045  -1.7941 LP             1 S1                 0.0000
     59 ****        -7.4200   1.7353  -0.9892 LP             1 S1                 0.0000
@<TRIPOS>BOND
    1    1    2 1     
    2    1   26 1     
    3    1   27 1     
    4    1   28 1     
    5    2   25 1     
    6    2    3 1     
    7    2   29 1     
    8    3    4 1     
    9    3   30 1     
   10    3   31 1     
   11    4    5 1     
   12    4   22 1     
   13    5   21 ar    
   14    5    6 ar    
   15    6    7 ar    
   16    6   32 1     
   17    7    8 ar    
   18    7   33 1     
   19    8    9 1     
   20    8   20 ar    
   21    9   10 am    
   22    9   34 1     
   23   10   11 2     
   24   10   12 am    
   25   12   13 1     
   26   12   35 1     
   27   13   14 1     
   28   13   17 1     
   29   13   36 1     
   30   14   16 1     
   31   14   15 1     
   32   14   37 1     
   33   15   16 1     
   34   15   38 1     
   35   15   39 1     
   36   16   40 1     
   37   16   41 1     
   38   17   19 1     
   39   17   18 1     
   40   17   42 1     
   41   18   19 1     
   42   18   43 1     
   43   18   44 1     
   44   19   45 1     
   45   19   46 1     
   46   20   21 ar    
   47   20   47 1     
   48   22   23 1     
   49   22   48 1     
   50   22   49 1     
   51   23   24 1     
   52   23   25 1     
   53   23   50 1     
   54   24   51 1     
   55   24   52 1     
   56   24   53 1     
   57    4   54 1     
   58   11   55 1     
   59   11   56 1     
   60   21   57 1     
   61   25   58 1     
   62   25   59 1     
@<TRIPOS>SUBSTRUCTURE
      1 S1             1
@<TRIPOS>SET
LONE_PAIRS      STATIC     ATOMS    <user>   **** ""
6 54 55 56 57 58 59
DONOR_HYDROGENS      STATIC     ATOMS    <user>   **** ""
2 34 35
ATOM$BLUE        STATIC     ATOMS    COLORGROUP SYSTEM
6 54 55 56 57 58 59
ATOM$RED        STATIC     ATOMS    COLORGROUP SYSTEM
2 34 35
