AV-unprocessed.smi:311|AV-procd|sdf|2304|dock1
  -GOLD-   2262022203D 1   1.00000     0.00000
 Structure written by MMmdl.
 44 46  0  0  0  0  0  0  0  0  2 V2000
  151.2778  131.0586  155.9249 C   0  0  0  0  0  0  0  0  0  0  0  0
  150.5510  132.3536  156.1500 C   0  0  0  0  0  0  0  0  0  0  0  0
  150.5440  132.8976  157.3549 N   0  0  0  0  0  0  0  0  0  0  0  0
  149.8071  134.0798  157.2374 O   0  0  0  0  0  0  0  0  0  0  0  0
  149.3989  134.2058  155.9493 C   0  0  0  0  0  0  0  0  0  0  0  0
  148.6000  135.4211  155.6196 C   0  0  0  0  0  0  0  0  0  0  0  0
  149.8369  133.1451  155.2045 C   0  0  0  0  0  0  0  0  0  0  0  0
  149.6352  132.8739  153.7350 C   0  0  0  0  0  0  0  0  0  0  0  0
  148.1398  132.8837  153.4223 C   0  0  0  0  0  0  0  0  0  0  0  0
  147.4272  131.9489  153.7867 O   0  0  0  0  0  0  0  0  0  0  0  0
  147.6860  133.9322  152.7182 N   0  0  0  0  0  0  0  0  0  0  0  0
  146.3270  134.0792  152.2083 C   0  0  1  0  0  0  0  0  0  0  0  0
  145.8329  135.5322  152.2216 C   0  0  0  0  0  0  0  0  0  0  0  0
  144.9978  135.6914  150.9350 C   0  0  0  0  0  0  0  0  0  0  0  0
  144.9819  134.3684  150.2684 N   0  3  2  0  0  0  0  0  0  0  0  0
  143.7299  133.6134  150.5525 C   0  0  0  0  0  0  0  0  0  0  0  0
  143.8069  132.1590  150.0696 C   0  0  0  0  0  0  0  0  0  0  0  0
  144.9972  131.4477  150.7181 C   0  0  0  0  0  0  0  0  0  0  0  0
  146.2863  132.1980  150.3700 C   0  0  0  0  0  0  0  0  0  0  0  0
  146.2251  133.7015  150.7247 C   0  0  2  0  0  0  0  0  0  0  0  0
  150.7277  130.4142  155.2391 H   0  0  0  0  0  0  0  0  0  0  0  0
  151.4161  130.5068  156.8554 H   0  0  0  0  0  0  0  0  0  0  0  0
  152.2627  131.2367  155.4929 H   0  0  0  0  0  0  0  0  0  0  0  0
  148.7323  135.7045  154.5752 H   0  0  0  0  0  0  0  0  0  0  0  0
  148.9040  136.2666  156.2374 H   0  0  0  0  0  0  0  0  0  0  0  0
  147.5385  135.2417  155.7906 H   0  0  0  0  0  0  0  0  0  0  0  0
  150.1357  133.6246  153.1223 H   0  0  0  0  0  0  0  0  0  0  0  0
  150.0551  131.9119  153.4392 H   0  0  0  0  0  0  0  0  0  0  0  0
  148.3485  134.6526  152.4692 H   0  0  0  0  0  0  0  0  0  0  0  0
  145.6306  133.4768  152.7943 H   0  0  0  0  0  0  0  0  0  0  0  0
  145.2432  135.7375  153.1157 H   0  0  0  0  0  0  0  0  0  0  0  0
  146.6657  136.2371  152.2098 H   0  0  0  0  0  0  0  0  0  0  0  0
  143.9943  136.0698  151.1356 H   0  0  0  0  0  0  0  0  0  0  0  0
  145.4837  136.4057  150.2692 H   0  0  0  0  0  0  0  0  0  0  0  0
  143.5223  133.6264  151.6237 H   0  0  0  0  0  0  0  0  0  0  0  0
  142.8942  134.1197  150.0680 H   0  0  0  0  0  0  0  0  0  0  0  0
  142.8822  131.6361  150.3156 H   0  0  0  0  0  0  0  0  0  0  0  0
  143.9008  132.1310  148.9831 H   0  0  0  0  0  0  0  0  0  0  0  0
  144.8667  131.4023  151.7999 H   0  0  0  0  0  0  0  0  0  0  0  0
  145.0574  130.4169  150.3674 H   0  0  0  0  0  0  0  0  0  0  0  0
  147.1412  131.7239  150.8518 H   0  0  0  0  0  0  0  0  0  0  0  0
  146.4622  132.1013  149.2979 H   0  0  0  0  0  0  0  0  0  0  0  0
  147.0496  134.1907  150.2015 H   0  0  0  0  0  0  0  0  0  0  0  0
  145.0329  134.4968  149.2677 H   0  0  0  0  0  0  0  0  0  0  0  0
  1  2  1  0  0  0  0
  1 21  1  0  0  0  0
  1 22  1  0  0  0  0
  1 23  1  0  0  0  0
  2  7  1  0  0  0  0
  2  3  2  0  0  0  0
  3  4  1  0  0  0  0
  4  5  1  0  0  0  0
  5  6  1  0  0  0  0
  5  7  2  0  0  0  0
  6 24  1  0  0  0  0
  6 25  1  0  0  0  0
  6 26  1  0  0  0  0
  7  8  1  0  0  0  0
  8  9  1  0  0  0  0
  8 27  1  0  0  0  0
  8 28  1  0  0  0  0
  9 10  2  0  0  0  0
  9 11  1  0  0  0  0
 11 12  1  0  0  0  0
 11 29  1  0  0  0  0
 12 20  1  0  0  0  0
 12 13  1  0  0  0  0
 12 30  1  0  0  0  0
 13 14  1  0  0  0  0
 13 31  1  0  0  0  0
 13 32  1  0  0  0  0
 14 15  1  0  0  0  0
 14 33  1  0  0  0  0
 14 34  1  0  0  0  0
 15 20  1  0  0  0  0
 15 16  1  0  0  0  0
 15 44  1  0  0  0  0
 16 17  1  0  0  0  0
 16 35  1  0  0  0  0
 16 36  1  0  0  0  0
 17 18  1  0  0  0  0
 17 37  1  0  0  0  0
 17 38  1  0  0  0  0
 18 19  1  0  0  0  0
 18 39  1  0  0  0  0
 18 40  1  0  0  0  0
 19 20  1  0  0  0  0
 19 41  1  0  0  0  0
 19 42  1  0  0  0  0
 20 43  1  0  0  0  0
M  CHG  1  15   1
M  END
> <s_m_source_file>
AV-unprocessed.smi

> <i_m_source_file_index>
311

> <i_lp_mmshare_version>
43012

> <i_f3d_flags>
0

> <s_epik_input>
W0NIM11jMW5vYyhbQ0gzXSljMVtDSDJdQyg9TylbTkhdW0NASF0oW0NIMl1bQ0gyXTIpW0NAQEhdKE4yMylbQ0gyXVtDSDJdW0NIMl1bQ0gyXTM=

> <s_epik_cmdline>
J2VwaWtfcHl0aG9uJywgJy1waCcsICc3LjAnLCAnLXRuJywgJzgnLCAnLW1hJywgJzIwMCcsICctbWV0YWxfYmluZGluZycsICctaW1hZScsICc8aW5maWxlLm1hZT4nLCAnLW9tYWUnLCAnPG91dGZpbGUubWFlPic=

> <r_epik_Ionization_Penalty>
0.00173669

> <r_epik_Ionization_Penalty_Charging>
0.0017366

> <r_epik_Ionization_Penalty_Neutral>
9.2145e-08

> <r_epik_State_Penalty>
0.00117499

> <r_epik_Charging_Adjusted_Penalty>
0.00291159

> <i_epik_Tot_Q>
1

> <i_epik_Tot_abs_Q>
1

> <r_epik_Metal_State_Penalty>
-0

> <b_epik_Metal_Only>
0

> <s_lp_Force_Field>
OPLS_2005

> <r_lp_Energy>
30.3664

> <b_lp_Chiralities_Consistent>
1

> <s_lp_Variant>
AV-unprocessed.smi:311-8

> <Gold.Version>
5.8.1

> <Gold.Id.Protein>
6NUR|6NUR_protein|mol2

> <Gold.PLP.Fitness>
41.9510

> <Gold.PLP.PLP>
-34.0113

> <Gold.PLP.part.hbond>
-3.5850

> <Gold.PLP.part.metal>
0.0000

> <Gold.PLP.part.buried>
-1.6393

> <Gold.PLP.part.nonpolar>
-28.8223

> <Gold.PLP.part.repulsive>
0.1156

> <Gold.PLP.ligand.clash>
0.0000

> <Gold.PLP.ligand.torsion>
0.4767

> <Gold.PLP.Chemscore.Hbond>
2.9600

> <Gold.PLP.Chemscore.CHOScore>
0.0000

> <Gold.PLP.Chemscore.Metal>
0.0000

> <Gold.Chemscore.Hbonds>
donor molecule, donor type, donor heavy atom, donor atom, acceptor molecule, acceptor atom, score
      L1  H    11    29       P1  7948  0.95
      L1  H    15    44       P1  7921  0.99
      P1  H  6896  6907       L1     3  0.63

> <Gold.PLP.Chemscore.Internal.Correction>
0.0131

> <Gold.Rescore>
     Score         DG    S(hbond)    S(metal)    S(lipo)     H(rot)  DE(clash)    DE(int)     intcor
     18.56     -20.36       2.45        0.00      86.99       1.36       1.30       0.51       ----

> <Gold.Chemscore.Fitness>
18.5572

> <Gold.Chemscore.DG>
-20.3634

> <Gold.Chemscore.ZeroCoef>
-5.4800

> <Gold.Chemscore.Hbond>
2.4488

> <Gold.Chemscore.Metal>
0.0000

> <Gold.Chemscore.Lipo>
86.9857

> <Gold.Chemscore.Internal_Hbond>
0.0000

> <Gold.Chemscore.DEClash>
1.3005

> <Gold.Chemscore.DEInternal>
0.5056

> <Gold.Chemscore.Rot>
1.3567

> <Gold.Chemscore.Internal.Correction>
   9.000000E+99

> <Gold.Chemscore.Hbonds>
donor molecule, donor type, donor heavy atom, donor atom, acceptor molecule, acceptor atom, score
      L1  H    11    29       P1  7948  0.21
      L1  H    15    44       P1  7921  0.90
      P1  H  6896  6907       L1     3  0.05

> <Gold.Chemscore.Hbond.Weighted>
-8.1791

> <Gold.Chemscore.Metal.Weighted>
-0.0000

> <Gold.Chemscore.Lipo.Weighted>
-10.1773

> <Gold.Chemscore.Internal_Hbond.Weighted>
0.0000

> <Gold.Chemscore.DEClash.Weighted>
1.3005

> <Gold.Chemscore.DEInternal.Weighted>
0.5056

> <Gold.Chemscore.Rot.Weighted>
3.4731

> <Gold.Chemscore.Internal.Correction.Weighted>
   9.000000E+99

> <Gold.Protein.RotatedTorsions>
[ 6907 6896 6895 6894 ] final -156.50 input  -60.11 | X-H torsion
[ 7974 7965 7964 7962 ] final   78.65 input  175.53 | X-H torsion
[ 8008 7997 7996 7995 ] final -145.03 input   59.86 | X-H torsion
[ 10167 10162 10161 10158 ] final -110.20 input  -65.29 | X-H torsion
[ 10718 10713 10712 10709 ] final  159.16 input   66.30 | X-H torsion
[ 10763 10752 10751 10750 ] final -136.48 input  -60.55 | X-H torsion
[ 11005 11000 10999 10996 ] final  137.80 input  -57.11 | X-H torsion

> <Gold.Protein.ActiveResidues>
 VAL166  LYS551  ARG553  GLY616  TRP617  ASP618  TYR619  PRO620  LYS621  CYS622 
 ASP623  PHE694  ASN695  SER759  ASP760  ASP761  ALA762  ILE779  LEU786  VAL792 
 PHE793  MET794  SER795  GLU796  ALA797  LYS798  CYS799  TRP800  GLU811  SER814 

> <Gold.Protein.RotatedAtoms>
  151.2885  133.4176  159.2631 H   0  0  0  0  0  0  0  0  0  0  0  0  # atno 6907 bound_to 6896
  151.0298  134.9531  159.8115 H   0  0  0  0  0  0  0  0  0  0  0  0  # atno 6908 bound_to 6896
  152.5343  134.2847  159.9073 H   0  0  0  0  0  0  0  0  0  0  0  0  # atno 6909 bound_to 6896
  145.6744  139.2506  143.1850 H   0  0  0  0  0  0  0  0  0  0  0  0  # atno 7974 bound_to 7965
  155.5365  140.0604  157.2878 H   0  0  0  0  0  0  0  0  0  0  0  0  # atno 8008 bound_to 7997
  154.4466  140.1927  156.0591 H   0  0  0  0  0  0  0  0  0  0  0  0  # atno 8009 bound_to 7997
  156.0615  140.3272  155.7471 H   0  0  0  0  0  0  0  0  0  0  0  0  # atno 8010 bound_to 7997
  140.1470  143.4231  152.1522 H   0  0  0  0  0  0  0  0  0  0  0  0  # atno 10167 bound_to 10162
  157.1680  131.0603  151.2198 H   0  0  0  0  0  0  0  0  0  0  0  0  # atno 10718 bound_to 10713
  154.8683  135.3671  154.5068 H   0  0  0  0  0  0  0  0  0  0  0  0  # atno 10763 bound_to 10752
  153.5706  135.7021  153.5511 H   0  0  0  0  0  0  0  0  0  0  0  0  # atno 10764 bound_to 10752
  153.3546  135.4063  155.1635 H   0  0  0  0  0  0  0  0  0  0  0  0  # atno 10765 bound_to 10752
  140.0139  134.9427  157.0335 H   0  0  0  0  0  0  0  0  0  0  0  0  # atno 11005 bound_to 11000
  146.1018  140.7535  142.9545 LP  0  0  0  0  0  0  0  0  0  0  0  0  # atno 17320 bound_to 7965
  144.7046  140.3799  143.7128 LP  0  0  0  0  0  0  0  0  0  0  0  0  # atno 17321 bound_to 7965
  139.5444  144.7285  151.4630 LP  0  0  0  0  0  0  0  0  0  0  0  0  # atno 17342 bound_to 10162
  140.6726  143.8261  150.7018 LP  0  0  0  0  0  0  0  0  0  0  0  0  # atno 17343 bound_to 10162
  157.4070  130.7364  149.6810 LP  0  0  0  0  0  0  0  0  0  0  0  0  # atno 17370 bound_to 10713
  155.9743  130.4105  150.3935 LP  0  0  0  0  0  0  0  0  0  0  0  0  # atno 17371 bound_to 10713
  140.4506  134.1587  155.7181 LP  0  0  0  0  0  0  0  0  0  0  0  0  # atno 17394 bound_to 11000
  141.1729  133.8572  157.1512 LP  0  0  0  0  0  0  0  0  0  0  0  0  # atno 17395 bound_to 11000

$$$$
