#       Name:                AV-unprocessed.smi:2252
#       Creating user name   scv26
#       Creation time:       Fri Mar 27 12:31:27 2020


#       File generated by GOLD software.
#

@<TRIPOS>MOLECULE
AV-unprocessed.smi:2252
    48    50     1
SMALL
NO_CHARGES


@<TRIPOS>ATOM
      1 ****        -4.5823   0.6976   2.1072 C.3            1 S1                 0.0000
      2 ****        -3.2584   1.2540   1.9024 N.pl3          1 S1                 0.0000
      3 ****        -2.5370   1.9903   2.8332 C.2            1 S1                 0.0000
      4 ****        -1.3470   2.3256   2.2356 C.2            1 S1                 0.0000
      5 ****        -1.3192   1.8093   0.9458 N.2            1 S1                 0.0000
      6 ****        -2.4818   1.1732   0.8009 C.2            1 S1                 0.0000
      7 ****        -2.8931   0.4479  -0.4573 C.3            1 S1                 0.0000
      8 ****        -2.4745  -1.0405  -0.5378 C.3            1 S1                 0.0000
      9 ****        -1.0191  -1.1699  -0.5297 N.pl3          1 S1                -1.0000
     10 ****        -0.2420  -1.1923  -1.6489 C.2            1 S1                 0.0000
     11 ****        -0.5585  -1.2242  -2.8420 O.2            1 S1                 0.0000
     12 ****         1.2548  -1.1246  -1.2914 C.3            1 S1                 0.0000
     13 ****         1.6924  -2.4099  -0.5494 C.3            1 S1                 0.0000
     14 ****         3.0142  -3.0816  -0.8538 C.3            1 S1                 0.0000
     15 ****         1.7242  -3.7422  -1.2666 C.3            1 S1                 0.0000
     16 ****         1.5692   0.1101  -0.5169 N.4            1 S1                 1.0000
     17 ****         2.9270   0.1819   0.0655 C.3            1 S1                 0.0000
     18 ****         3.2441   1.6716   0.2582 C.3            1 S1                 0.0000
     19 ****         2.0847   2.4281  -0.3947 C.3            1 S1                 0.0000
     20 ****         1.3774   1.3796  -1.2479 C.3            1 S1                 0.0000
     21 ****        -4.9238   0.9031   3.1222 H              1 S1                 0.0000
     22 ****        -4.5590  -0.3820   1.9574 H              1 S1                 0.0000
     23 ****        -5.2839   1.1447   1.4027 H              1 S1                 0.0000
     24 ****        -2.9206   2.2094   3.8187 H              1 S1                 0.0000
     25 ****        -0.5170   2.8936   2.6292 H              1 S1                 0.0000
     26 ****        -3.9752   0.5193  -0.5664 H              1 S1                 0.0000
     27 ****        -2.4827   0.9888  -1.3111 H              1 S1                 0.0000
     28 ****        -2.9186  -1.5766   0.3011 H              1 S1                 0.0000
     29 ****        -2.9202  -1.4835  -1.4293 H              1 S1                 0.0000
     30 ****         1.8132  -1.0741  -2.2280 H              1 S1                 0.0000
     31 ****         1.3656  -2.4512   0.4885 H              1 S1                 0.0000
     32 ****         3.6326  -2.6568  -1.6420 H              1 S1                 0.0000
     33 ****         3.5584  -3.5163  -0.0179 H              1 S1                 0.0000
     34 ****         1.4031  -4.6184  -0.7071 H              1 S1                 0.0000
     35 ****         1.4848  -3.7532  -2.3281 H              1 S1                 0.0000
     36 ****         2.9796  -0.3741   1.0022 H              1 S1                 0.0000
     37 ****         3.6503  -0.2523  -0.6262 H              1 S1                 0.0000
     38 ****         3.3307   1.9304   1.3141 H              1 S1                 0.0000
     39 ****         4.1915   1.9211  -0.2209 H              1 S1                 0.0000
     40 ****         1.4044   2.7910   0.3766 H              1 S1                 0.0000
     41 ****         2.4151   3.2885  -0.9773 H              1 S1                 0.0000
     42 ****         1.8543   1.3153  -2.2273 H              1 S1                 0.0000
     43 ****         0.3236   1.6159  -1.3997 H              1 S1                 0.0000
     44 ****         0.9204   0.1314   0.2580 H              1 S1                 0.0000
     45 ****        -0.5856   1.8962   0.2718 LP             1 S1                 0.0000
     46 ****        -0.5627  -1.2472   0.3566 LP             1 S1                 0.0000
     47 ****        -1.5238  -1.2374  -3.1031 LP             1 S1                 0.0000
     48 ****         0.1504  -1.2367  -3.5472 LP             1 S1                 0.0000
@<TRIPOS>BOND
    1    1    2 1     
    2    1   21 1     
    3    1   22 1     
    4    1   23 1     
    5    2    6 1     
    6    2    3 1     
    7    3    4 2     
    8    3   24 1     
    9    4    5 1     
   10    4   25 1     
   11    5    6 2     
   12    6    7 1     
   13    7    8 1     
   14    7   26 1     
   15    7   27 1     
   16    8    9 1     
   17    8   28 1     
   18    8   29 1     
   19    9   10 1     
   20   10   11 2     
   21   10   12 1     
   22   12   13 1     
   23   12   16 1     
   24   12   30 1     
   25   13   15 1     
   26   13   14 1     
   27   13   31 1     
   28   14   15 1     
   29   14   32 1     
   30   14   33 1     
   31   15   34 1     
   32   15   35 1     
   33   16   20 1     
   34   16   17 1     
   35   16   44 1     
   36   17   18 1     
   37   17   36 1     
   38   17   37 1     
   39   18   19 1     
   40   18   38 1     
   41   18   39 1     
   42   19   20 1     
   43   19   40 1     
   44   19   41 1     
   45   20   42 1     
   46   20   43 1     
   47    5   45 1     
   48    9   46 1     
   49   11   47 1     
   50   11   48 1     
@<TRIPOS>SUBSTRUCTURE
      1 S1             1
@<TRIPOS>SET
LONE_PAIRS      STATIC     ATOMS    <user>   **** ""
4 45 46 47 48
DONOR_HYDROGENS      STATIC     ATOMS    <user>   **** ""
1 44
ATOM$BLUE        STATIC     ATOMS    COLORGROUP SYSTEM
4 45 46 47 48
ATOM$RED        STATIC     ATOMS    COLORGROUP SYSTEM
1 44
