AV-unprocessed.smi:2147|AV-procd|sdf|8744|dock9
  -GOLD-   2272011523D 1   1.00000     0.00000
 Structure written by MMmdl.
 42 44  0  0  0  0  0  0  0  0  2 V2000
  147.4908  134.9399  160.7650 C   0  0  0  0  0  0  0  0  0  0  0  0
  147.8324  136.4190  160.5927 C   0  0  0  0  0  0  0  0  0  0  0  0
  147.6416  137.1839  161.5378 O   0  0  0  0  0  0  0  0  0  0  0  0
  148.3830  136.8569  159.2783 C   0  0  0  0  0  0  0  0  0  0  0  0
  149.6763  137.4164  159.1605 C   0  0  0  0  0  0  0  0  0  0  0  0
  150.1683  137.8181  157.9040 C   0  0  0  0  0  0  0  0  0  0  0  0
  149.3888  137.6726  156.7398 C   0  0  0  0  0  0  0  0  0  0  0  0
  149.9511  138.0901  155.5526 O   0  0  0  0  0  0  0  0  0  0  0  0
  151.3647  138.0250  155.4176 C   0  0  0  0  0  0  0  0  0  0  0  0
  151.9292  139.4532  155.3985 C   0  0  2  0  0  0  0  0  0  0  0  0
  153.1280  139.4491  154.6490 O   0  0  0  0  0  0  0  0  0  0  0  0
  152.1902  139.9990  156.8171 C   0  0  0  0  0  0  0  0  0  0  0  0
  151.6119  141.3329  157.0333 N   0  0  0  0  0  0  0  0  0  0  0  0
  150.6876  142.0071  156.2967 C   0  0  0  0  0  0  0  0  0  0  0  0
  150.4696  143.2054  156.9060 N   0  3  0  0  0  0  0  0  0  0  0  0
  151.2673  143.3000  158.0482 C   0  0  0  0  0  0  0  0  0  0  0  0
  151.3961  144.3189  158.9871 C   0  0  0  0  0  0  0  0  0  0  0  0
  152.3088  144.0982  160.0395 C   0  0  0  0  0  0  0  0  0  0  0  0
  153.0506  142.9025  160.1297 C   0  0  0  0  0  0  0  0  0  0  0  0
  152.9105  141.8755  159.1732 C   0  0  0  0  0  0  0  0  0  0  0  0
  152.0055  142.1004  158.1360 C   0  0  0  0  0  0  0  0  0  0  0  0
  148.0925  137.1141  156.8563 C   0  0  0  0  0  0  0  0  0  0  0  0
  147.5985  136.7113  158.1121 C   0  0  0  0  0  0  0  0  0  0  0  0
  146.7292  134.6371  160.0463 H   0  0  0  0  0  0  0  0  0  0  0  0
  147.1072  134.7508  161.7678 H   0  0  0  0  0  0  0  0  0  0  0  0
  148.3779  134.3237  160.6180 H   0  0  0  0  0  0  0  0  0  0  0  0
  150.3124  137.5472  160.0230 H   0  0  0  0  0  0  0  0  0  0  0  0
  151.1590  138.2428  157.8336 H   0  0  0  0  0  0  0  0  0  0  0  0
  151.8082  137.4595  156.2391 H   0  0  0  0  0  0  0  0  0  0  0  0
  151.6136  137.5178  154.4837 H   0  0  0  0  0  0  0  0  0  0  0  0
  151.2250  140.1069  154.8823 H   0  0  0  0  0  0  0  0  0  0  0  0
  152.9524  139.0638  153.8038 H   0  0  0  0  0  0  0  0  0  0  0  0
  151.7414  139.3358  157.5577 H   0  0  0  0  0  0  0  0  0  0  0  0
  153.2563  140.0274  157.0430 H   0  0  0  0  0  0  0  0  0  0  0  0
  150.2117  141.6538  155.3933 H   0  0  0  0  0  0  0  0  0  0  0  0
  150.8300  145.2362  158.9199 H   0  0  0  0  0  0  0  0  0  0  0  0
  152.4437  144.8619  160.7917 H   0  0  0  0  0  0  0  0  0  0  0  0
  153.7428  142.7700  160.9485 H   0  0  0  0  0  0  0  0  0  0  0  0
  153.4882  140.9662  159.2489 H   0  0  0  0  0  0  0  0  0  0  0  0
  147.4538  136.9828  155.9962 H   0  0  0  0  0  0  0  0  0  0  0  0
  146.6059  136.2877  158.1671 H   0  0  0  0  0  0  0  0  0  0  0  0
  149.8234  143.9056  156.5651 H   0  0  0  0  0  0  0  0  0  0  0  0
  1  2  1  0  0  0  0
  1 24  1  0  0  0  0
  1 25  1  0  0  0  0
  1 26  1  0  0  0  0
  2  3  2  0  0  0  0
  2  4  1  0  0  0  0
  4 23  1  0  0  0  0
  4  5  2  0  0  0  0
  5  6  1  0  0  0  0
  5 27  1  0  0  0  0
  6  7  2  0  0  0  0
  6 28  1  0  0  0  0
  7  8  1  0  0  0  0
  7 22  1  0  0  0  0
  8  9  1  0  0  0  0
  9 10  1  0  0  0  0
  9 29  1  0  0  0  0
  9 30  1  0  0  0  0
 10 11  1  0  0  0  0
 10 12  1  0  0  0  0
 10 31  1  0  0  0  0
 11 32  1  0  0  0  0
 12 13  1  0  0  0  0
 12 33  1  0  0  0  0
 12 34  1  0  0  0  0
 13 21  1  0  0  0  0
 13 14  1  0  0  0  0
 14 15  2  0  0  0  0
 14 35  1  0  0  0  0
 15 16  1  0  0  0  0
 15 42  1  0  0  0  0
 16 21  2  0  0  0  0
 16 17  1  0  0  0  0
 17 18  2  0  0  0  0
 17 36  1  0  0  0  0
 18 19  1  0  0  0  0
 18 37  1  0  0  0  0
 19 20  2  0  0  0  0
 19 38  1  0  0  0  0
 20 21  1  0  0  0  0
 20 39  1  0  0  0  0
 22 23  2  0  0  0  0
 22 40  1  0  0  0  0
 23 41  1  0  0  0  0
M  CHG  1  15   1
M  END
> <s_m_source_file>
AV-unprocessed.smi

> <i_m_source_file_index>
2147

> <i_lp_mmshare_version>
43012

> <i_f3d_flags>
0

> <s_epik_input>
W0NIM11DKD1PKWMxW2NIXVtjSF1jKFtjSF1bY0hdMSlPW0NIMl1bQ0BIXShbT0hdKVtDSDJdbihbY0hdbjIpYyhjMjMpW2NIXVtjSF1bY0hdW2NIXTM=

> <s_epik_cmdline>
J2VwaWtfcHl0aG9uJywgJy1waCcsICc3LjAnLCAnLXRuJywgJzgnLCAnLW1hJywgJzIwMCcsICctbWV0YWxfYmluZGluZycsICctaW1hZScsICc8aW5maWxlLm1hZT4nLCAnLW9tYWUnLCAnPG91dGZpbGUubWFlPic=

> <r_lp_tautomer_probability>
0.99995

> <r_epik_Ionization_Penalty>
1.40272

> <r_epik_Ionization_Penalty_Charging>
1.40272

> <r_epik_Ionization_Penalty_Neutral>
2.3993e-06

> <r_epik_State_Penalty>
1.48501

> <r_epik_Charging_Adjusted_Penalty>
2.88772

> <i_epik_Tot_Q>
1

> <i_epik_Tot_abs_Q>
1

> <r_epik_Metal_State_Penalty>
5.5274

> <b_epik_Metal_Only>
0

> <s_lp_Force_Field>
OPLS_2005

> <r_lp_Energy>
26.2273

> <b_lp_Chiralities_Consistent>
1

> <s_lp_Variant>
AV-unprocessed.smi:2147-3

> <Gold.Version>
5.8.1

> <Gold.Id.Protein>
6NUR|6NUR_protein|mol2

> <Gold.PLP.Fitness>
51.9307

> <Gold.PLP.PLP>
-43.6198

> <Gold.PLP.part.hbond>
-4.9631

> <Gold.PLP.part.metal>
0.0000

> <Gold.PLP.part.buried>
-5.5014

> <Gold.PLP.part.nonpolar>
-32.6652

> <Gold.PLP.part.repulsive>
0.0724

> <Gold.PLP.ligand.clash>
0.0000

> <Gold.PLP.ligand.torsion>
3.0915

> <Gold.PLP.Chemscore.Hbond>
4.8000

> <Gold.PLP.Chemscore.CHOScore>
0.0000

> <Gold.PLP.Chemscore.Metal>
0.0000

> <Gold.Chemscore.Hbonds>
donor molecule, donor type, donor heavy atom, donor atom, acceptor molecule, acceptor atom, score
      L1  H    15    42       P1  8028  1.98
      P1  H  6931  6943       L1     3  0.99
      P1  H  6934  6947       L1     3  0.78
      P1  H  7997  8010       L1    11  1.00

> <Gold.PLP.Chemscore.Internal.Correction>
0.0938

> <Gold.Rescore>
     Score         DG    S(hbond)    S(metal)    S(lipo)     H(rot)  DE(clash)    DE(int)     intcor
     20.16     -23.13       3.55        0.00     103.93       2.48       0.03       2.95       ----

> <Gold.Chemscore.Fitness>
20.1572

> <Gold.Chemscore.DG>
-23.1344

> <Gold.Chemscore.ZeroCoef>
-5.4800

> <Gold.Chemscore.Hbond>
3.5490

> <Gold.Chemscore.Metal>
0.0000

> <Gold.Chemscore.Lipo>
103.9326

> <Gold.Chemscore.Internal_Hbond>
0.0000

> <Gold.Chemscore.DEClash>
0.0310

> <Gold.Chemscore.DEInternal>
2.9462

> <Gold.Chemscore.Rot>
2.4842

> <Gold.Chemscore.Internal.Correction>
   9.000000E+99

> <Gold.Chemscore.Hbonds>
donor molecule, donor type, donor heavy atom, donor atom, acceptor molecule, acceptor atom, score
      L1  H    15    42       P1  8028  0.92
      P1  H  6931  6943       L1     3  0.86
      P1  H  6934  6947       L1     3  0.65
      P1  H  7997  8010       L1    11  0.39

> <Gold.Chemscore.Hbond.Weighted>
-11.8537

> <Gold.Chemscore.Metal.Weighted>
-0.0000

> <Gold.Chemscore.Lipo.Weighted>
-12.1601

> <Gold.Chemscore.Internal_Hbond.Weighted>
0.0000

> <Gold.Chemscore.DEClash.Weighted>
0.0310

> <Gold.Chemscore.DEInternal.Weighted>
2.9462

> <Gold.Chemscore.Rot.Weighted>
6.3594

> <Gold.Chemscore.Internal.Correction.Weighted>
   9.000000E+99

> <Gold.Protein.RotatedTorsions>
[ 6907 6896 6895 6894 ] final  128.53 input  -60.11 | X-H torsion
[ 7974 7965 7964 7962 ] final  -89.38 input  175.53 | X-H torsion
[ 8008 7997 7996 7995 ] final  101.22 input   59.86 | X-H torsion
[ 10167 10162 10161 10158 ] final   53.49 input  -65.29 | X-H torsion
[ 10718 10713 10712 10709 ] final  -25.81 input   66.30 | X-H torsion
[ 10763 10752 10751 10750 ] final   19.70 input  -60.55 | X-H torsion
[ 11005 11000 10999 10996 ] final   77.92 input  -57.11 | X-H torsion

> <Gold.Protein.ActiveResidues>
 VAL166  LYS551  ARG553  GLY616  TRP617  ASP618  TYR619  PRO620  LYS621  CYS622 
 ASP623  PHE694  ASN695  SER759  ASP760  ASP761  ALA762  ILE779  LEU786  VAL792 
 PHE793  MET794  SER795  GLU796  ALA797  LYS798  CYS799  TRP800  GLU811  SER814 

> <Gold.Protein.RotatedAtoms>
  152.3710  133.6419  159.6086 H   0  0  0  0  0  0  0  0  0  0  0  0  # atno 6907 bound_to 6896
  150.7669  133.9270  159.3424 H   0  0  0  0  0  0  0  0  0  0  0  0  # atno 6908 bound_to 6896
  151.7092  135.0917  160.0316 H   0  0  0  0  0  0  0  0  0  0  0  0  # atno 6909 bound_to 6896
  145.4406  140.9559  143.2077 H   0  0  0  0  0  0  0  0  0  0  0  0  # atno 7974 bound_to 7965
  156.1279  140.3201  155.8304 H   0  0  0  0  0  0  0  0  0  0  0  0  # atno 8008 bound_to 7997
  155.4386  140.0524  157.3029 H   0  0  0  0  0  0  0  0  0  0  0  0  # atno 8009 bound_to 7997
  154.4876  140.2079  155.9633 H   0  0  0  0  0  0  0  0  0  0  0  0  # atno 8010 bound_to 7997
  140.2402  144.3591  150.6383 H   0  0  0  0  0  0  0  0  0  0  0  0  # atno 10167 bound_to 10162
  156.4595  130.4501  149.6938 H   0  0  0  0  0  0  0  0  0  0  0  0  # atno 10718 bound_to 10713
  153.1140  135.6703  153.9451 H   0  0  0  0  0  0  0  0  0  0  0  0  # atno 10763 bound_to 10752
  153.8986  135.3038  155.3449 H   0  0  0  0  0  0  0  0  0  0  0  0  # atno 10764 bound_to 10752
  154.7557  135.5013  153.9449 H   0  0  0  0  0  0  0  0  0  0  0  0  # atno 10765 bound_to 10752
  139.9234  134.7722  156.1583 H   0  0  0  0  0  0  0  0  0  0  0  0  # atno 11005 bound_to 11000
  144.8124  139.5938  143.7023 LP  0  0  0  0  0  0  0  0  0  0  0  0  # atno 17320 bound_to 7965
  146.2558  139.6300  142.9395 LP  0  0  0  0  0  0  0  0  0  0  0  0  # atno 17321 bound_to 7965
  140.6119  143.2170  151.6869 LP  0  0  0  0  0  0  0  0  0  0  0  0  # atno 17342 bound_to 10162
  139.5080  144.3627  152.0546 LP  0  0  0  0  0  0  0  0  0  0  0  0  # atno 17343 bound_to 10162
  156.3731  130.7541  151.2526 LP  0  0  0  0  0  0  0  0  0  0  0  0  # atno 17370 bound_to 10713
  157.7498  131.0317  150.4194 LP  0  0  0  0  0  0  0  0  0  0  0  0  # atno 17371 bound_to 10713
  141.0773  133.6770  156.2263 LP  0  0  0  0  0  0  0  0  0  0  0  0  # atno 17394 bound_to 11000
  140.6407  134.5169  157.5569 LP  0  0  0  0  0  0  0  0  0  0  0  0  # atno 17395 bound_to 11000

$$$$
