AV-unprocessed.smi:1742|AV-procd|sdf|7021|dock4
  -GOLD-   22720 8243D 1   1.00000     0.00000
 Structure written by MMmdl.
 34 35  0  0  0  0  0  0  0  0  1 V2000
  146.4213  129.7857  152.8277 C   0  0  0  0  0  0  0  0  0  0  0  0
  147.8138  129.5978  153.4406 C   0  0  0  0  0  0  0  0  0  0  0  0
  148.3369  130.8411  153.9719 N   0  0  0  0  0  0  0  0  0  0  0  0
  148.5122  132.0417  153.3133 C   0  0  0  0  0  0  0  0  0  0  0  0
  149.0245  132.9021  154.2429 C   0  0  0  0  0  0  0  0  0  0  0  0
  149.3908  134.2642  154.1023 N   0  0  0  0  0  0  0  0  0  0  0  0
  150.1150  135.0103  154.9583 C   0  0  0  0  0  0  0  0  0  0  0  0
  150.5803  134.5978  156.0189 O   0  0  0  0  0  0  0  0  0  0  0  0
  150.3100  136.2805  154.5612 N   0  0  0  0  0  0  0  0  0  0  0  0
  151.0436  137.3450  155.2472 C   0  0  1  0  0  0  0  0  0  0  0  0
  152.1137  137.9554  154.3226 C   0  0  0  0  0  0  0  0  0  0  0  0
  152.5959  139.2798  154.9276 C   0  0  0  0  0  0  0  0  0  0  0  0
  151.1732  139.9634  155.8596 S   0  0  0  0  0  0  0  0  0  0  0  0
  151.5644  140.1318  157.2674 O   0  0  0  0  0  0  0  0  0  0  0  0
  150.5718  141.0716  155.1025 O   0  0  0  0  0  0  0  0  0  0  0  0
  150.1103  138.4806  155.6976 C   0  0  0  0  0  0  0  0  0  0  0  0
  149.1328  132.1540  155.4441 C   0  0  0  0  0  0  0  0  0  0  0  0
  148.7131  130.9094  155.2729 N   0  0  0  0  0  0  0  0  0  0  0  0
  146.0489  128.8472  152.4171 H   0  0  0  0  0  0  0  0  0  0  0  0
  146.4425  130.5175  152.0197 H   0  0  0  0  0  0  0  0  0  0  0  0
  145.7049  130.1303  153.5740 H   0  0  0  0  0  0  0  0  0  0  0  0
  147.7804  128.8563  154.2401 H   0  0  0  0  0  0  0  0  0  0  0  0
  148.5085  129.2220  152.6886 H   0  0  0  0  0  0  0  0  0  0  0  0
  148.2597  132.1646  152.2705 H   0  0  0  0  0  0  0  0  0  0  0  0
  149.0703  134.7208  153.2609 H   0  0  0  0  0  0  0  0  0  0  0  0
  149.9109  136.5325  153.6685 H   0  0  0  0  0  0  0  0  0  0  0  0
  151.5593  136.9428  156.1213 H   0  0  0  0  0  0  0  0  0  0  0  0
  152.9435  137.2686  154.1532 H   0  0  0  0  0  0  0  0  0  0  0  0
  151.6697  138.1621  153.3475 H   0  0  0  0  0  0  0  0  0  0  0  0
  153.4095  139.1104  155.6332 H   0  0  0  0  0  0  0  0  0  0  0  0
  152.9317  139.9929  154.1744 H   0  0  0  0  0  0  0  0  0  0  0  0
  149.3559  138.6944  154.9396 H   0  0  0  0  0  0  0  0  0  0  0  0
  149.6054  138.2764  156.6419 H   0  0  0  0  0  0  0  0  0  0  0  0
  149.4932  132.4650  156.4135 H   0  0  0  0  0  0  0  0  0  0  0  0
  1  2  1  0  0  0  0
  1 19  1  0  0  0  0
  1 20  1  0  0  0  0
  1 21  1  0  0  0  0
  2  3  1  0  0  0  0
  2 22  1  0  0  0  0
  2 23  1  0  0  0  0
  3 18  1  0  0  0  0
  3  4  1  0  0  0  0
  4  5  2  0  0  0  0
  4 24  1  0  0  0  0
  5  6  1  0  0  0  0
  5 17  1  0  0  0  0
  6  7  1  0  0  0  0
  6 25  1  0  0  0  0
  7  8  2  0  0  0  0
  7  9  1  0  0  0  0
  9 10  1  0  0  0  0
  9 26  1  0  0  0  0
 10 16  1  0  0  0  0
 10 11  1  0  0  0  0
 10 27  1  0  0  0  0
 11 12  1  0  0  0  0
 11 28  1  0  0  0  0
 11 29  1  0  0  0  0
 12 13  1  0  0  0  0
 12 30  1  0  0  0  0
 12 31  1  0  0  0  0
 13 14  2  0  0  0  0
 13 15  2  0  0  0  0
 13 16  1  0  0  0  0
 16 32  1  0  0  0  0
 16 33  1  0  0  0  0
 17 18  2  0  0  0  0
 17 34  1  0  0  0  0
M  END
> <s_m_source_file>
AV-unprocessed.smi

> <i_m_source_file_index>
1742

> <i_lp_mmshare_version>
43012

> <i_f3d_flags>
0

> <s_epik_input>
W0NIM11bQ0gyXW4xW2NIXWMoW2NIXW4xKVtOSF1DKD1PKVtOSF1bQ0BASF0oW0NIMl0yKVtDSDJdW0NIMl1TMig9Tyk9Tw==

> <s_epik_cmdline>
J2VwaWtfcHl0aG9uJywgJy1waCcsICc3LjAnLCAnLXRuJywgJzgnLCAnLW1hJywgJzIwMCcsICctbWV0YWxfYmluZGluZycsICctaW1hZScsICc8aW5maWxlLm1hZT4nLCAnLW9tYWUnLCAnPG91dGZpbGUubWFlPic=

> <r_lp_tautomer_probability>
1

> <r_epik_Ionization_Penalty>
0.000152028

> <r_epik_Ionization_Penalty_Charging>
0

> <r_epik_Ionization_Penalty_Neutral>
0.000152028

> <r_epik_State_Penalty>
-0

> <r_epik_Charging_Adjusted_Penalty>
0

> <i_epik_Tot_Q>
0

> <i_epik_Tot_abs_Q>
0

> <r_epik_Metal_State_Penalty>
-0

> <b_epik_Metal_Only>
0

> <s_lp_Force_Field>
OPLS_2005

> <r_lp_Energy>
18.8672

> <b_lp_Chiralities_Consistent>
1

> <s_lp_Variant>
AV-unprocessed.smi:1742-2

> <Gold.Version>
5.8.1

> <Gold.Id.Protein>
6NUR|6NUR_protein|mol2

> <Gold.PLP.Fitness>
38.0078

> <Gold.PLP.PLP>
-28.4741

> <Gold.PLP.part.hbond>
-3.5164

> <Gold.PLP.part.metal>
0.0000

> <Gold.PLP.part.buried>
-0.9298

> <Gold.PLP.part.nonpolar>
-24.6833

> <Gold.PLP.part.repulsive>
0.2126

> <Gold.PLP.ligand.clash>
0.0000

> <Gold.PLP.ligand.torsion>
0.0928

> <Gold.PLP.Chemscore.Hbond>
2.2781

> <Gold.PLP.Chemscore.CHOScore>
0.9605

> <Gold.PLP.Chemscore.Metal>
0.0000

> <Gold.Chemscore.Hbonds>
donor molecule, donor type, donor heavy atom, donor atom, acceptor molecule, acceptor atom, score
      L1  H     6    25       P1  7948  0.70
      L1  H     9    26       P1  7948  1.00
      P1  H  7989  7998       L1    15  0.60
      L1  C     4    24       P1 10747  0.99

> <Gold.PLP.Chemscore.Internal.Correction>
0.0036

> <Gold.Rescore>
     Score         DG    S(hbond)    S(metal)    S(lipo)     H(rot)  DE(clash)    DE(int)     intcor
     11.36     -13.04       1.36        0.00      53.14       1.26       0.31       1.37       ----

> <Gold.Chemscore.Fitness>
11.3596

> <Gold.Chemscore.DG>
-13.0426

> <Gold.Chemscore.ZeroCoef>
-5.4800

> <Gold.Chemscore.Hbond>
1.3649

> <Gold.Chemscore.Metal>
0.0000

> <Gold.Chemscore.Lipo>
53.1415

> <Gold.Chemscore.Internal_Hbond>
0.0000

> <Gold.Chemscore.DEClash>
0.3093

> <Gold.Chemscore.DEInternal>
1.3737

> <Gold.Chemscore.Rot>
1.2554

> <Gold.Chemscore.Internal.Correction>
   9.000000E+99

> <Gold.Chemscore.Hbonds>
donor molecule, donor type, donor heavy atom, donor atom, acceptor molecule, acceptor atom, score
      L1  H     6    25       P1  7948  0.07
      L1  H     9    26       P1  7948  0.24
      P1  H  7989  7998       L1    15  0.12

> <Gold.Chemscore.Hbond.Weighted>
-4.5589

> <Gold.Chemscore.Metal.Weighted>
-0.0000

> <Gold.Chemscore.Lipo.Weighted>
-6.2176

> <Gold.Chemscore.Internal_Hbond.Weighted>
0.0000

> <Gold.Chemscore.DEClash.Weighted>
0.3093

> <Gold.Chemscore.DEInternal.Weighted>
1.3737

> <Gold.Chemscore.Rot.Weighted>
3.2139

> <Gold.Chemscore.Internal.Correction.Weighted>
   9.000000E+99

> <Gold.Protein.RotatedTorsions>
[ 6907 6896 6895 6894 ] final -109.99 input  -60.11 | X-H torsion
[ 7974 7965 7964 7962 ] final  -83.82 input  175.53 | X-H torsion
[ 8008 7997 7996 7995 ] final  166.65 input   59.86 | X-H torsion
[ 10167 10162 10161 10158 ] final   22.54 input  -65.29 | X-H torsion
[ 10718 10713 10712 10709 ] final  142.25 input   66.30 | X-H torsion
[ 10763 10752 10751 10750 ] final   66.08 input  -60.55 | X-H torsion
[ 11005 11000 10999 10996 ] final   59.11 input  -57.11 | X-H torsion

> <Gold.Protein.ActiveResidues>
 VAL166  LYS551  ARG553  GLY616  TRP617  ASP618  TYR619  PRO620  LYS621  CYS622 
 ASP623  PHE694  ASN695  SER759  ASP760  ASP761  ALA762  ILE779  LEU786  VAL792 
 PHE793  MET794  SER795  GLU796  ALA797  LYS798  CYS799  TRP800  GLU811  SER814 

> <Gold.Protein.RotatedAtoms>
  150.7596  133.9448  159.3467 H   0  0  0  0  0  0  0  0  0  0  0  0  # atno 6907 bound_to 6896
  151.7359  135.0863  160.0317 H   0  0  0  0  0  0  0  0  0  0  0  0  # atno 6908 bound_to 6896
  152.3559  133.6199  159.6015 H   0  0  0  0  0  0  0  0  0  0  0  0  # atno 6909 bound_to 6896
  145.5148  140.9537  143.1687 H   0  0  0  0  0  0  0  0  0  0  0  0  # atno 7974 bound_to 7965
  156.1701  140.1638  156.8463 H   0  0  0  0  0  0  0  0  0  0  0  0  # atno 8008 bound_to 7997
  154.5247  140.0770  156.8272 H   0  0  0  0  0  0  0  0  0  0  0  0  # atno 8009 bound_to 7997
  155.3531  140.3391  155.4242 H   0  0  0  0  0  0  0  0  0  0  0  0  # atno 8010 bound_to 7997
  140.5341  143.9791  150.6481 H   0  0  0  0  0  0  0  0  0  0  0  0  # atno 10167 bound_to 10162
  157.3827  131.0994  151.0723 H   0  0  0  0  0  0  0  0  0  0  0  0  # atno 10718 bound_to 10713
  153.0124  135.5333  154.6768 H   0  0  0  0  0  0  0  0  0  0  0  0  # atno 10763 bound_to 10752
  154.5939  135.2861  155.0609 H   0  0  0  0  0  0  0  0  0  0  0  0  # atno 10764 bound_to 10752
  154.1692  135.6535  153.5057 H   0  0  0  0  0  0  0  0  0  0  0  0  # atno 10765 bound_to 10752
  140.0328  134.5987  155.9484 H   0  0  0  0  0  0  0  0  0  0  0  0  # atno 11005 bound_to 11000
  144.7708  139.6740  143.7196 LP  0  0  0  0  0  0  0  0  0  0  0  0  # atno 17320 bound_to 7965
  146.2143  139.5522  142.9660 LP  0  0  0  0  0  0  0  0  0  0  0  0  # atno 17321 bound_to 7965
  140.3174  143.3159  152.0818 LP  0  0  0  0  0  0  0  0  0  0  0  0  # atno 17342 bound_to 10162
  139.4964  144.6596  151.6494 LP  0  0  0  0  0  0  0  0  0  0  0  0  # atno 17343 bound_to 10162
  157.1786  130.6299  149.5664 LP  0  0  0  0  0  0  0  0  0  0  0  0  # atno 17370 bound_to 10713
  155.9779  130.4761  150.6624 LP  0  0  0  0  0  0  0  0  0  0  0  0  # atno 17371 bound_to 10713
  141.1840  133.6552  156.5141 LP  0  0  0  0  0  0  0  0  0  0  0  0  # atno 17394 bound_to 11000
  140.4197  134.7198  157.4883 LP  0  0  0  0  0  0  0  0  0  0  0  0  # atno 17395 bound_to 11000

$$$$
