AV-unprocessed.smi:52|AV-procd|sdf|509|dock6
  -GOLD-   2262016383D 1   1.00000     0.00000
 Structure written by MMmdl.
 27 28  0  0  0  0  0  0  0  0  3 V2000
  152.1771  134.7510  156.8697 O   0  0  0  0  0  0  0  0  0  0  0  0
  151.3828  133.7998  156.7000 C   0  0  0  0  0  0  0  0  0  0  0  0
  151.4534  132.7501  157.3763 O   0  5  0  0  0  0  0  0  0  0  0  0
  150.3268  133.9191  155.6621 C   0  0  0  0  0  0  0  0  0  0  0  0
  149.6367  135.0537  155.3176 C   0  0  0  0  0  0  0  0  0  0  0  0
  148.7557  134.7572  154.3128 O   0  0  0  0  0  0  0  0  0  0  0  0
  148.9461  133.4299  154.0828 C   0  0  0  0  0  0  0  0  0  0  0  0
  148.1517  132.7584  153.0119 C   0  0  0  0  0  0  0  0  0  0  0  0
  147.3255  133.8458  152.4362 N   0  3  2  0  0  0  0  0  0  0  0  0
  146.2076  134.2720  153.3028 C   0  0  0  0  0  0  0  0  0  0  0  0
  145.1917  134.9025  152.3561 C   0  0  0  0  0  0  0  0  0  0  0  0
  145.2936  134.0076  151.1248 C   0  0  1  0  0  0  0  0  0  0  0  0
  144.8920  134.6831  149.9518 O   0  0  0  0  0  0  0  0  0  0  0  0
  146.7694  133.5843  151.0835 C   0  0  0  0  0  0  0  0  0  0  0  0
  149.8723  132.8781  154.8623 N   0  0  0  0  0  0  0  0  0  0  0  0
  144.6660  133.1265  151.2661 H   0  0  0  0  0  0  0  0  0  0  0  0
  149.6571  136.0762  155.6656 H   0  0  0  0  0  0  0  0  0  0  0  0
  148.8031  132.2983  152.2676 H   0  0  0  0  0  0  0  0  0  0  0  0
  147.5251  131.9858  153.4593 H   0  0  0  0  0  0  0  0  0  0  0  0
  145.7640  133.4004  153.7874 H   0  0  0  0  0  0  0  0  0  0  0  0
  146.5411  134.9593  154.0808 H   0  0  0  0  0  0  0  0  0  0  0  0
  144.1849  134.9407  152.7735 H   0  0  0  0  0  0  0  0  0  0  0  0
  145.4984  135.9223  152.1159 H   0  0  0  0  0  0  0  0  0  0  0  0
  145.4629  134.4269  149.2430 H   0  0  0  0  0  0  0  0  0  0  0  0
  147.3387  134.1759  150.3652 H   0  0  0  0  0  0  0  0  0  0  0  0
  146.8584  132.5370  150.7894 H   0  0  0  0  0  0  0  0  0  0  0  0
  147.9268  134.6518  152.3402 H   0  0  0  0  0  0  0  0  0  0  0  0
  1  2  2  0  0  0  0
  2  3  1  0  0  0  0
  2  4  1  0  0  0  0
  4 15  1  0  0  0  0
  4  5  2  0  0  0  0
  5  6  1  0  0  0  0
  5 17  1  0  0  0  0
  6  7  1  0  0  0  0
  7  8  1  0  0  0  0
  7 15  2  0  0  0  0
  8  9  1  0  0  0  0
  8 18  1  0  0  0  0
  8 19  1  0  0  0  0
  9 14  1  0  0  0  0
  9 10  1  0  0  0  0
  9 27  1  0  0  0  0
 10 11  1  0  0  0  0
 10 20  1  0  0  0  0
 10 21  1  0  0  0  0
 11 12  1  0  0  0  0
 11 22  1  0  0  0  0
 11 23  1  0  0  0  0
 12 16  1  0  0  0  0
 12 13  1  0  0  0  0
 12 14  1  0  0  0  0
 13 24  1  0  0  0  0
 14 25  1  0  0  0  0
 14 26  1  0  0  0  0
M  CHG  1   3  -1
M  CHG  1   9   1
M  END
> <s_m_source_file>
AV-unprocessed.smi

> <i_m_source_file_index>
52

> <i_lp_mmshare_version>
43012

> <i_f3d_flags>
0

> <s_epik_input>
Tz1DKFtPSF0pYzFbY0hdb2MobjEpW0NIMl1OMltDSDJdW0NIMl1bQ0BIXShbT0hdKVtDSDJdMg==

> <s_epik_cmdline>
J2VwaWtfcHl0aG9uJywgJy1waCcsICc3LjAnLCAnLXRuJywgJzgnLCAnLW1hJywgJzIwMCcsICctbWV0YWxfYmluZGluZycsICctaW1hZScsICc8aW5maWxlLm1hZT4nLCAnLW9tYWUnLCAnPG91dGZpbGUubWFlPic=

> <r_epik_Ionization_Penalty>
0.0376014

> <r_epik_Ionization_Penalty_Charging>
0.0376013

> <r_epik_Ionization_Penalty_Neutral>
1.78687e-08

> <r_epik_State_Penalty>
0.0314164

> <r_epik_Charging_Adjusted_Penalty>
0.0690177

> <i_epik_Tot_Q>
0

> <i_epik_Tot_abs_Q>
2

> <r_epik_Metal_State_Penalty>
0.0314164

> <b_epik_Metal_Only>
0

> <s_lp_Force_Field>
OPLS_2005

> <r_lp_Energy>
21.0877

> <b_lp_Chiralities_Consistent>
1

> <s_lp_Variant>
AV-unprocessed.smi:52-3

> <Gold.Version>
5.8.1

> <Gold.Id.Protein>
6NUR|6NUR_protein|mol2

> <Gold.PLP.Fitness>
41.6598

> <Gold.PLP.PLP>
-22.3445

> <Gold.PLP.part.hbond>
-4.3074

> <Gold.PLP.part.metal>
0.0000

> <Gold.PLP.part.buried>
-4.7843

> <Gold.PLP.part.nonpolar>
-14.4542

> <Gold.PLP.part.repulsive>
2.2156

> <Gold.PLP.ligand.clash>
0.0000

> <Gold.PLP.ligand.torsion>
0.6559

> <Gold.PLP.Chemscore.Hbond>
6.8720

> <Gold.PLP.Chemscore.CHOScore>
0.0000

> <Gold.PLP.Chemscore.Metal>
0.0000

> <Gold.Chemscore.Hbonds>
donor molecule, donor type, donor heavy atom, donor atom, acceptor molecule, acceptor atom, score
      L1  H     9    27       P1  7948  2.00
      L1  H    13    24       P1  7921  0.96
      P1  H  6896  6909       L1     3  1.95
      P1  H 10752 10764       L1     1  1.56

> <Gold.PLP.Chemscore.Internal.Correction>
0.0112

> <Gold.Rescore>
     Score         DG    S(hbond)    S(metal)    S(lipo)     H(rot)  DE(clash)    DE(int)     intcor
     12.91     -16.20       3.61        0.00      32.19       1.99       1.14       2.15       ----

> <Gold.Chemscore.Fitness>
12.9059

> <Gold.Chemscore.DG>
-16.1950

> <Gold.Chemscore.ZeroCoef>
-5.4800

> <Gold.Chemscore.Hbond>
3.6073

> <Gold.Chemscore.Metal>
0.0000

> <Gold.Chemscore.Lipo>
32.1877

> <Gold.Chemscore.Internal_Hbond>
0.0000

> <Gold.Chemscore.DEClash>
1.1374

> <Gold.Chemscore.DEInternal>
2.1517

> <Gold.Chemscore.Rot>
1.9919

> <Gold.Chemscore.Internal.Correction>
   9.000000E+99

> <Gold.Chemscore.Hbonds>
donor molecule, donor type, donor heavy atom, donor atom, acceptor molecule, acceptor atom, score
      L1  H     9    27       P1  7948  0.55
      L1  H    13    24       P1  7921  0.88
      P1  H  6896  6909       L1     3  0.51
      P1  H 10752 10764       L1     1  0.70

> <Gold.Chemscore.Hbond.Weighted>
-12.0482

> <Gold.Chemscore.Metal.Weighted>
-0.0000

> <Gold.Chemscore.Lipo.Weighted>
-3.7660

> <Gold.Chemscore.Internal_Hbond.Weighted>
0.0000

> <Gold.Chemscore.DEClash.Weighted>
1.1374

> <Gold.Chemscore.DEInternal.Weighted>
2.1517

> <Gold.Chemscore.Rot.Weighted>
5.0991

> <Gold.Chemscore.Internal.Correction.Weighted>
   9.000000E+99

> <Gold.Protein.RotatedTorsions>
[ 6907 6896 6895 6894 ] final  -50.84 input  -60.11 | X-H torsion
[ 7974 7965 7964 7962 ] final  116.70 input  175.53 | X-H torsion
[ 8008 7997 7996 7995 ] final  -86.19 input   59.86 | X-H torsion
[ 10167 10162 10161 10158 ] final  108.54 input  -65.29 | X-H torsion
[ 10718 10713 10712 10709 ] final   17.95 input   66.30 | X-H torsion
[ 10763 10752 10751 10750 ] final  -18.48 input  -60.55 | X-H torsion
[ 11005 11000 10999 10996 ] final -164.75 input  -57.11 | X-H torsion

> <Gold.Protein.ActiveResidues>
 VAL166  LYS551  ARG553  GLY616  TRP617  ASP618  TYR619  PRO620  LYS621  CYS622 
 ASP623  PHE694  ASN695  SER759  ASP760  ASP761  ALA762  ILE779  LEU786  VAL792 
 PHE793  MET794  SER795  GLU796  ALA797  LYS798  CYS799  TRP800  GLU811  SER814 

> <Gold.Protein.RotatedAtoms>
  150.8669  134.8034  159.7124 H   0  0  0  0  0  0  0  0  0  0  0  0  # atno 6907 bound_to 6896
  152.4687  134.5010  159.9734 H   0  0  0  0  0  0  0  0  0  0  0  0  # atno 6908 bound_to 6896
  151.5104  133.3447  159.2919 H   0  0  0  0  0  0  0  0  0  0  0  0  # atno 6909 bound_to 6896
  145.1763  139.3074  143.4441 H   0  0  0  0  0  0  0  0  0  0  0  0  # atno 7974 bound_to 7965
  154.6492  140.0581  156.9935 H   0  0  0  0  0  0  0  0  0  0  0  0  # atno 8008 bound_to 7997
  155.1398  140.3264  155.4436 H   0  0  0  0  0  0  0  0  0  0  0  0  # atno 8009 bound_to 7997
  156.2568  140.1966  156.6514 H   0  0  0  0  0  0  0  0  0  0  0  0  # atno 8010 bound_to 7997
  139.6838  144.7115  151.1468 H   0  0  0  0  0  0  0  0  0  0  0  0  # atno 10167 bound_to 10162
  157.0893  130.6421  149.5845 H   0  0  0  0  0  0  0  0  0  0  0  0  # atno 10718 bound_to 10713
  153.5900  135.7002  153.5427 H   0  0  0  0  0  0  0  0  0  0  0  0  # atno 10763 bound_to 10752
  153.3186  135.4080  155.1397 H   0  0  0  0  0  0  0  0  0  0  0  0  # atno 10764 bound_to 10752
  154.8602  135.3690  154.5431 H   0  0  0  0  0  0  0  0  0  0  0  0  # atno 10765 bound_to 10752
  140.5834  134.5118  157.5182 H   0  0  0  0  0  0  0  0  0  0  0  0  # atno 11005 bound_to 11000
  146.3460  140.1927  142.8589 LP  0  0  0  0  0  0  0  0  0  0  0  0  # atno 17320 bound_to 7965
  145.0181  140.8771  143.5183 LP  0  0  0  0  0  0  0  0  0  0  0  0  # atno 17321 bound_to 7965
  140.7661  143.5659  150.9048 LP  0  0  0  0  0  0  0  0  0  0  0  0  # atno 17342 bound_to 10162
  139.9333  143.6468  152.3071 LP  0  0  0  0  0  0  0  0  0  0  0  0  # atno 17343 bound_to 10162
  155.9902  130.4952  150.7247 LP  0  0  0  0  0  0  0  0  0  0  0  0  # atno 17370 bound_to 10713
  157.4734  131.0895  151.0617 LP  0  0  0  0  0  0  0  0  0  0  0  0  # atno 17371 bound_to 10713
  139.9307  134.7970  156.0940 LP  0  0  0  0  0  0  0  0  0  0  0  0  # atno 17394 bound_to 11000
  141.0982  133.6687  156.2693 LP  0  0  0  0  0  0  0  0  0  0  0  0  # atno 17395 bound_to 11000

$$$$
