AV-unprocessed.smi:671|AV-procd|sdf|3278|dock5
  -GOLD-   22720 0233D 1   1.00000     0.00000
 Structure written by MMmdl.
 49 50  0  0  0  0  0  0  0  0  1 V2000
  153.1769  138.7790  154.8401 C   0  0  0  0  0  0  0  0  0  0  0  0
  152.1387  139.1418  155.8633 C   0  0  0  0  0  0  0  0  0  0  0  0
  152.4703  139.9707  156.8388 N   0  0  0  0  0  0  0  0  0  0  0  0
  151.3527  140.0960  157.5809 N   0  0  0  0  0  0  0  0  0  0  0  0
  151.3699  140.9510  158.7518 C   0  0  0  0  0  0  0  0  0  0  0  0
  150.3117  139.3433  157.0744 C   0  0  0  0  0  0  0  0  0  0  0  0
  148.9648  139.3138  157.7229 C   0  0  0  0  0  0  0  0  0  0  0  0
  150.7832  138.7045  155.9588 C   0  0  0  0  0  0  0  0  0  0  0  0
  150.0417  137.7608  155.0441 C   0  0  0  0  0  0  0  0  0  0  0  0
  148.5882  138.2046  154.7858 C   0  0  1  0  0  0  0  0  0  0  0  0
  148.5309  139.5983  154.1451 C   0  0  0  0  0  0  0  0  0  0  0  0
  147.9092  137.2481  153.9050 N   0  0  0  0  0  0  0  0  0  0  0  0
  146.7928  136.5279  154.1177 C   0  0  0  0  0  0  0  0  0  0  0  0
  146.1642  136.6128  155.1709 O   0  0  0  0  0  0  0  0  0  0  0  0
  146.4237  135.7319  153.1011 N   0  0  0  0  0  0  0  0  0  0  0  0
  145.2654  134.8382  153.1109 C   0  0  2  0  0  0  0  0  0  0  0  0
  145.6479  133.4469  153.6623 C   0  0  0  0  0  0  0  0  0  0  0  0
  145.3878  132.4382  152.5372 C   0  0  0  0  0  0  0  0  0  0  0  0
  145.3539  133.2678  151.2562 C   0  0  0  0  0  0  0  0  0  0  0  0
  144.7106  134.5845  151.6924 C   0  0  2  0  0  0  0  0  0  0  0  0
  144.8757  135.7262  150.6774 C   0  0  0  0  0  0  0  0  0  0  0  0
  153.8989  138.0738  155.2521 H   0  0  0  0  0  0  0  0  0  0  0  0
  153.7257  139.6595  154.5045 H   0  0  0  0  0  0  0  0  0  0  0  0
  152.7298  138.3169  153.9603 H   0  0  0  0  0  0  0  0  0  0  0  0
  150.9313  140.4249  159.6000 H   0  0  0  0  0  0  0  0  0  0  0  0
  150.7912  141.8533  158.5533 H   0  0  0  0  0  0  0  0  0  0  0  0
  152.3924  141.2325  159.0073 H   0  0  0  0  0  0  0  0  0  0  0  0
  148.2718  138.6778  157.1727 H   0  0  0  0  0  0  0  0  0  0  0  0
  148.5356  140.3148  157.7689 H   0  0  0  0  0  0  0  0  0  0  0  0
  149.0316  138.9281  158.7402 H   0  0  0  0  0  0  0  0  0  0  0  0
  150.5632  137.6859  154.0897 H   0  0  0  0  0  0  0  0  0  0  0  0
  150.0472  136.7460  155.4430 H   0  0  0  0  0  0  0  0  0  0  0  0
  148.0858  138.2882  155.7503 H   0  0  0  0  0  0  0  0  0  0  0  0
  149.0038  140.3444  154.7844 H   0  0  0  0  0  0  0  0  0  0  0  0
  147.4994  139.9131  153.9825 H   0  0  0  0  0  0  0  0  0  0  0  0
  149.0406  139.6147  153.1810 H   0  0  0  0  0  0  0  0  0  0  0  0
  148.3256  137.1431  152.9911 H   0  0  0  0  0  0  0  0  0  0  0  0
  146.9906  135.7341  152.2659 H   0  0  0  0  0  0  0  0  0  0  0  0
  144.4791  135.2872  153.7211 H   0  0  0  0  0  0  0  0  0  0  0  0
  146.6988  133.4112  153.9539 H   0  0  0  0  0  0  0  0  0  0  0  0
  145.0661  133.1973  154.5501 H   0  0  0  0  0  0  0  0  0  0  0  0
  146.1381  131.6478  152.5025 H   0  0  0  0  0  0  0  0  0  0  0  0
  144.4169  131.9646  152.6894 H   0  0  0  0  0  0  0  0  0  0  0  0
  146.3710  133.4443  150.9032 H   0  0  0  0  0  0  0  0  0  0  0  0
  144.8017  132.7756  150.4549 H   0  0  0  0  0  0  0  0  0  0  0  0
  143.6407  134.3969  151.7986 H   0  0  0  0  0  0  0  0  0  0  0  0
  145.9251  135.9253  150.4621 H   0  0  0  0  0  0  0  0  0  0  0  0
  144.4262  136.6454  151.0528 H   0  0  0  0  0  0  0  0  0  0  0  0
  144.3888  135.4819  149.7331 H   0  0  0  0  0  0  0  0  0  0  0  0
  1  2  1  0  0  0  0
  1 22  1  0  0  0  0
  1 23  1  0  0  0  0
  1 24  1  0  0  0  0
  2  8  1  0  0  0  0
  2  3  2  0  0  0  0
  3  4  1  0  0  0  0
  4  5  1  0  0  0  0
  4  6  1  0  0  0  0
  5 25  1  0  0  0  0
  5 26  1  0  0  0  0
  5 27  1  0  0  0  0
  6  7  1  0  0  0  0
  6  8  2  0  0  0  0
  7 28  1  0  0  0  0
  7 29  1  0  0  0  0
  7 30  1  0  0  0  0
  8  9  1  0  0  0  0
  9 10  1  0  0  0  0
  9 31  1  0  0  0  0
  9 32  1  0  0  0  0
 10 11  1  0  0  0  0
 10 12  1  0  0  0  0
 10 33  1  0  0  0  0
 11 34  1  0  0  0  0
 11 35  1  0  0  0  0
 11 36  1  0  0  0  0
 12 13  1  0  0  0  0
 12 37  1  0  0  0  0
 13 14  2  0  0  0  0
 13 15  1  0  0  0  0
 15 16  1  0  0  0  0
 15 38  1  0  0  0  0
 16 20  1  0  0  0  0
 16 17  1  0  0  0  0
 16 39  1  0  0  0  0
 17 18  1  0  0  0  0
 17 40  1  0  0  0  0
 17 41  1  0  0  0  0
 18 19  1  0  0  0  0
 18 42  1  0  0  0  0
 18 43  1  0  0  0  0
 19 20  1  0  0  0  0
 19 44  1  0  0  0  0
 19 45  1  0  0  0  0
 20 21  1  0  0  0  0
 20 46  1  0  0  0  0
 21 47  1  0  0  0  0
 21 48  1  0  0  0  0
 21 49  1  0  0  0  0
M  END
> <s_m_source_file>
AV-unprocessed.smi

> <i_m_source_file_index>
671

> <i_lp_mmshare_version>
43012

> <i_f3d_flags>
0

> <s_epik_input>
W0NIM11jMW5uKFtDSDNdKWMoW0NIM10pYzFbQ0gyXVtDQEhdKFtDSDNdKVtOSF1DKD1PKVtOSF1bQ0BASF0yW0NIMl1bQ0gyXVtDSDJdW0NASF0yW0NIM10=

> <s_epik_cmdline>
J2VwaWtfcHl0aG9uJywgJy1waCcsICc3LjAnLCAnLXRuJywgJzgnLCAnLW1hJywgJzIwMCcsICctbWV0YWxfYmluZGluZycsICctaW1hZScsICc8aW5maWxlLm1hZT4nLCAnLW9tYWUnLCAnPG91dGZpbGUubWFlPic=

> <r_lp_tautomer_probability>
1

> <r_epik_Ionization_Penalty>
0.0126855

> <r_epik_Ionization_Penalty_Charging>
0

> <r_epik_Ionization_Penalty_Neutral>
0.0126855

> <r_epik_State_Penalty>
0.00977547

> <r_epik_Charging_Adjusted_Penalty>
0.00977547

> <i_epik_Tot_Q>
0

> <i_epik_Tot_abs_Q>
0

> <r_epik_Metal_State_Penalty>
0.00957132

> <b_epik_Metal_Only>
0

> <s_lp_Force_Field>
OPLS_2005

> <r_lp_Energy>
22.0359

> <b_lp_Chiralities_Consistent>
1

> <s_lp_Variant>
AV-unprocessed.smi:671-6

> <Gold.Version>
5.8.1

> <Gold.Id.Protein>
6NUR|6NUR_protein|mol2

> <Gold.PLP.Fitness>
34.2798

> <Gold.PLP.PLP>
-27.5301

> <Gold.PLP.part.hbond>
-2.7631

> <Gold.PLP.part.metal>
0.0000

> <Gold.PLP.part.buried>
-0.8840

> <Gold.PLP.part.nonpolar>
-22.9525

> <Gold.PLP.part.repulsive>
0.0373

> <Gold.PLP.ligand.clash>
0.0000

> <Gold.PLP.ligand.torsion>
0.6677

> <Gold.PLP.Chemscore.Hbond>
2.6880

> <Gold.PLP.Chemscore.CHOScore>
0.0000

> <Gold.PLP.Chemscore.Metal>
0.0000

> <Gold.Chemscore.Hbonds>
donor molecule, donor type, donor heavy atom, donor atom, acceptor molecule, acceptor atom, score
      L1  H    12    37       P1  7948  1.00
      L1  H    15    38       P1  7948  0.69
      P1  H  7997  8008       L1     3  1.00

> <Gold.PLP.Chemscore.Internal.Correction>
0.0211

> <Gold.Rescore>
     Score         DG    S(hbond)    S(metal)    S(lipo)     H(rot)  DE(clash)    DE(int)     intcor
     18.19     -18.89       2.52        0.00      74.29       1.45       0.07       0.63       ----

> <Gold.Chemscore.Fitness>
18.1893

> <Gold.Chemscore.DG>
-18.8860

> <Gold.Chemscore.ZeroCoef>
-5.4800

> <Gold.Chemscore.Hbond>
2.5226

> <Gold.Chemscore.Metal>
0.0000

> <Gold.Chemscore.Lipo>
74.2932

> <Gold.Chemscore.Internal_Hbond>
0.0000

> <Gold.Chemscore.DEClash>
0.0692

> <Gold.Chemscore.DEInternal>
0.6275

> <Gold.Chemscore.Rot>
1.4499

> <Gold.Chemscore.Internal.Correction>
   9.000000E+99

> <Gold.Chemscore.Hbonds>
donor molecule, donor type, donor heavy atom, donor atom, acceptor molecule, acceptor atom, score
      L1  H    12    37       P1  7948  0.93
      L1  H    15    38       P1  7948  0.64
      P1  H  7997  8008       L1     3  0.34

> <Gold.Chemscore.Hbond.Weighted>
-8.4255

> <Gold.Chemscore.Metal.Weighted>
-0.0000

> <Gold.Chemscore.Lipo.Weighted>
-8.6923

> <Gold.Chemscore.Internal_Hbond.Weighted>
0.0000

> <Gold.Chemscore.DEClash.Weighted>
0.0692

> <Gold.Chemscore.DEInternal.Weighted>
0.6275

> <Gold.Chemscore.Rot.Weighted>
3.7118

> <Gold.Chemscore.Internal.Correction.Weighted>
   9.000000E+99

> <Gold.Protein.RotatedTorsions>
[ 6907 6896 6895 6894 ] final  -49.25 input  -60.11 | X-H torsion
[ 7974 7965 7964 7962 ] final  -12.16 input  175.53 | X-H torsion
[ 8008 7997 7996 7995 ] final  -59.14 input   59.86 | X-H torsion
[ 10167 10162 10161 10158 ] final -175.72 input  -65.29 | X-H torsion
[ 10718 10713 10712 10709 ] final   20.30 input   66.30 | X-H torsion
[ 10763 10752 10751 10750 ] final  140.39 input  -60.55 | X-H torsion
[ 11005 11000 10999 10996 ] final  103.13 input  -57.11 | X-H torsion

> <Gold.Protein.ActiveResidues>
 VAL166  LYS551  ARG553  GLY616  TRP617  ASP618  TYR619  PRO620  LYS621  CYS622 
 ASP623  PHE694  ASN695  SER759  ASP760  ASP761  ALA762  ILE779  LEU786  VAL792 
 PHE793  MET794  SER795  GLU796  ALA797  LYS798  CYS799  TRP800  GLU811  SER814 

> <Gold.Protein.RotatedAtoms>
  150.8824  134.8217  159.7234 H   0  0  0  0  0  0  0  0  0  0  0  0  # atno 6907 bound_to 6896
  152.4786  134.4776  159.9665 H   0  0  0  0  0  0  0  0  0  0  0  0  # atno 6908 bound_to 6896
  151.4849  133.3499  159.2879 H   0  0  0  0  0  0  0  0  0  0  0  0  # atno 6909 bound_to 6896
  146.2162  140.3017  142.8375 H   0  0  0  0  0  0  0  0  0  0  0  0  # atno 7974 bound_to 7965
  154.4339  140.1068  156.6069 H   0  0  0  0  0  0  0  0  0  0  0  0  # atno 8008 bound_to 7997
  155.5851  140.3491  155.4532 H   0  0  0  0  0  0  0  0  0  0  0  0  # atno 8009 bound_to 7997
  156.0289  140.1256  157.0269 H   0  0  0  0  0  0  0  0  0  0  0  0  # atno 8010 bound_to 7997
  139.5566  144.1973  152.1170 H   0  0  0  0  0  0  0  0  0  0  0  0  # atno 10167 bound_to 10162
  157.1226  130.6556  149.5928 H   0  0  0  0  0  0  0  0  0  0  0  0  # atno 10718 bound_to 10713
  153.9219  135.2999  155.3447 H   0  0  0  0  0  0  0  0  0  0  0  0  # atno 10763 bound_to 10752
  154.7571  135.4952  153.9398 H   0  0  0  0  0  0  0  0  0  0  0  0  # atno 10764 bound_to 10752
  153.1137  135.6765  153.9558 H   0  0  0  0  0  0  0  0  0  0  0  0  # atno 10765 bound_to 10752
  139.8781  134.9251  156.5163 H   0  0  0  0  0  0  0  0  0  0  0  0  # atno 11005 bound_to 11000
  144.9052  140.7691  143.5842 LP  0  0  0  0  0  0  0  0  0  0  0  0  # atno 17320 bound_to 7965
  145.2945  139.1872  143.4722 LP  0  0  0  0  0  0  0  0  0  0  0  0  # atno 17321 bound_to 7965
  140.1478  144.5142  150.6705 LP  0  0  0  0  0  0  0  0  0  0  0  0  # atno 17342 bound_to 10162
  140.6840  143.2341  151.5309 LP  0  0  0  0  0  0  0  0  0  0  0  0  # atno 17343 bound_to 10162
  155.9825  130.4839  150.6885 LP  0  0  0  0  0  0  0  0  0  0  0  0  # atno 17370 bound_to 10713
  157.4463  131.0867  151.0892 LP  0  0  0  0  0  0  0  0  0  0  0  0  # atno 17371 bound_to 10713
  140.8483  133.8151  155.9143 LP  0  0  0  0  0  0  0  0  0  0  0  0  # atno 17394 bound_to 11000
  140.9169  134.2190  157.4951 LP  0  0  0  0  0  0  0  0  0  0  0  0  # atno 17395 bound_to 11000

$$$$
