AV-unprocessed.smi:1951|AV-procd|sdf|7881|dock2
  -GOLD-   2272010 33D 1   1.00000     0.00000
 Structure written by MMmdl.
 46 47  0  0  0  0  0  0  0  0  2 V2000
  154.1074  140.6986  160.6172 C   0  0  0  0  0  0  0  0  0  0  0  0
  153.1687  140.6400  159.5486 O   0  0  0  0  0  0  0  0  0  0  0  0
  152.6912  141.8259  159.0240 C   0  0  0  0  0  0  0  0  0  0  0  0
  153.1356  142.9925  159.5556 N   0  0  0  0  0  0  0  0  0  0  0  0
  152.6678  144.1503  159.0457 C   0  0  0  0  0  0  0  0  0  0  0  0
  151.7355  144.2082  157.9935 C   0  0  0  0  0  0  0  0  0  0  0  0
  151.2741  142.9999  157.4396 C   0  0  0  0  0  0  0  0  0  0  0  0
  151.7679  141.7763  157.9536 C   0  0  0  0  0  0  0  0  0  0  0  0
  151.3531  140.5019  157.4794 N   0  0  0  0  0  0  0  0  0  0  0  0
  150.9273  140.1702  156.2493 C   0  0  0  0  0  0  0  0  0  0  0  0
  150.8201  140.9448  155.2986 O   0  0  0  0  0  0  0  0  0  0  0  0
  150.6522  138.8607  156.1673 N   0  0  0  0  0  0  0  0  0  0  0  0
  150.2037  138.1786  154.9591 C   0  0  0  0  0  0  0  0  0  0  0  0
  149.1590  139.0165  154.1971 C   0  0  0  0  0  0  0  0  0  0  0  0
  148.0398  138.1914  153.6772 N   0  3  2  0  0  0  0  0  0  0  0  0
  147.1669  138.9542  152.7477 C   0  0  0  0  0  0  0  0  0  0  0  0
  146.0934  138.0492  152.1206 C   0  0  0  0  0  0  0  0  0  0  0  0
  145.2443  137.3601  153.2014 C   0  0  1  0  0  0  0  0  0  0  0  0
  144.1862  136.4330  152.5871 C   0  0  0  0  0  0  0  0  0  0  0  0
  146.1732  136.6057  154.1670 C   0  0  0  0  0  0  0  0  0  0  0  0
  147.2475  137.5377  154.7531 C   0  0  0  0  0  0  0  0  0  0  0  0
  154.3833  139.6860  160.9102 H   0  0  0  0  0  0  0  0  0  0  0  0
  153.6848  141.1924  161.4934 H   0  0  0  0  0  0  0  0  0  0  0  0
  155.0201  141.2166  160.3191 H   0  0  0  0  0  0  0  0  0  0  0  0
  153.0432  145.0581  159.4944 H   0  0  0  0  0  0  0  0  0  0  0  0
  151.3790  145.1580  157.6235 H   0  0  0  0  0  0  0  0  0  0  0  0
  150.5435  143.0332  156.6461 H   0  0  0  0  0  0  0  0  0  0  0  0
  151.4767  139.7399  158.1301 H   0  0  0  0  0  0  0  0  0  0  0  0
  150.7675  138.2966  156.9970 H   0  0  0  0  0  0  0  0  0  0  0  0
  151.0737  138.0045  154.3255 H   0  0  0  0  0  0  0  0  0  0  0  0
  149.8146  137.1959  155.2273 H   0  0  0  0  0  0  0  0  0  0  0  0
  148.7610  139.8169  154.8230 H   0  0  0  0  0  0  0  0  0  0  0  0
  149.6658  139.5041  153.3628 H   0  0  0  0  0  0  0  0  0  0  0  0
  146.6975  139.7812  153.2835 H   0  0  0  0  0  0  0  0  0  0  0  0
  147.7694  139.3930  151.9516 H   0  0  0  0  0  0  0  0  0  0  0  0
  145.4539  138.6406  151.4642 H   0  0  0  0  0  0  0  0  0  0  0  0
  146.5726  137.2985  151.4907 H   0  0  0  0  0  0  0  0  0  0  0  0
  144.7202  138.1320  153.7670 H   0  0  0  0  0  0  0  0  0  0  0  0
  144.6471  135.6318  152.0086 H   0  0  0  0  0  0  0  0  0  0  0  0
  143.5215  136.9841  151.9212 H   0  0  0  0  0  0  0  0  0  0  0  0
  143.5699  135.9736  153.3604 H   0  0  0  0  0  0  0  0  0  0  0  0
  145.5904  136.1646  154.9766 H   0  0  0  0  0  0  0  0  0  0  0  0
  146.6554  135.7765  153.6469 H   0  0  0  0  0  0  0  0  0  0  0  0
  147.8987  136.9559  155.4043 H   0  0  0  0  0  0  0  0  0  0  0  0
  146.7798  138.3009  155.3776 H   0  0  0  0  0  0  0  0  0  0  0  0
  148.4582  137.4545  153.1276 H   0  0  0  0  0  0  0  0  0  0  0  0
  1  2  1  0  0  0  0
  1 22  1  0  0  0  0
  1 23  1  0  0  0  0
  1 24  1  0  0  0  0
  2  3  1  0  0  0  0
  3  8  1  0  0  0  0
  3  4  2  0  0  0  0
  4  5  1  0  0  0  0
  5  6  2  0  0  0  0
  5 25  1  0  0  0  0
  6  7  1  0  0  0  0
  6 26  1  0  0  0  0
  7  8  2  0  0  0  0
  7 27  1  0  0  0  0
  8  9  1  0  0  0  0
  9 10  1  0  0  0  0
  9 28  1  0  0  0  0
 10 11  2  0  0  0  0
 10 12  1  0  0  0  0
 12 13  1  0  0  0  0
 12 29  1  0  0  0  0
 13 14  1  0  0  0  0
 13 30  1  0  0  0  0
 13 31  1  0  0  0  0
 14 15  1  0  0  0  0
 14 32  1  0  0  0  0
 14 33  1  0  0  0  0
 15 21  1  0  0  0  0
 15 16  1  0  0  0  0
 15 46  1  0  0  0  0
 16 17  1  0  0  0  0
 16 34  1  0  0  0  0
 16 35  1  0  0  0  0
 17 18  1  0  0  0  0
 17 36  1  0  0  0  0
 17 37  1  0  0  0  0
 18 19  1  0  0  0  0
 18 20  1  0  0  0  0
 18 38  1  0  0  0  0
 19 39  1  0  0  0  0
 19 40  1  0  0  0  0
 19 41  1  0  0  0  0
 20 21  1  0  0  0  0
 20 42  1  0  0  0  0
 20 43  1  0  0  0  0
 21 44  1  0  0  0  0
 21 45  1  0  0  0  0
M  CHG  1  15   1
M  END
> <s_m_source_file>
AV-unprocessed.smi

> <i_m_source_file_index>
1951

> <i_lp_mmshare_version>
43012

> <i_f3d_flags>
0

> <s_epik_input>
W0NIM11PYzFuW2NIXVtjSF1bY0hdYzFbTkhdQyg9TylbTkhdW0NIMl1bQ0gyXU4yW0NIMl1bQ0gyXVtDSF0oW0NIM10pW0NIMl1bQ0gyXTI=

> <s_epik_cmdline>
J2VwaWtfcHl0aG9uJywgJy1waCcsICc3LjAnLCAnLXRuJywgJzgnLCAnLW1hJywgJzIwMCcsICctbWV0YWxfYmluZGluZycsICctaW1hZScsICc8aW5maWxlLm1hZT4nLCAnLW9tYWUnLCAnPG91dGZpbGUubWFlPic=

> <r_lp_tautomer_probability>
1

> <r_epik_Ionization_Penalty>
0.00147101

> <r_epik_Ionization_Penalty_Charging>
0.00139388

> <r_epik_Ionization_Penalty_Neutral>
7.71355e-05

> <r_epik_State_Penalty>
0.000929204

> <r_epik_Charging_Adjusted_Penalty>
0.00232308

> <i_epik_Tot_Q>
1

> <i_epik_Tot_abs_Q>
1

> <r_epik_Metal_State_Penalty>
-0

> <b_epik_Metal_Only>
0

> <s_lp_Force_Field>
OPLS_2005

> <r_lp_Energy>
18.8997

> <b_lp_Chiralities_Consistent>
1

> <s_lp_Variant>
AV-unprocessed.smi:1951-1

> <Gold.Version>
5.8.1

> <Gold.Id.Protein>
6NUR|6NUR_protein|mol2

> <Gold.PLP.Fitness>
43.6499

> <Gold.PLP.PLP>
-36.6542

> <Gold.PLP.part.hbond>
-2.0000

> <Gold.PLP.part.metal>
0.0000

> <Gold.PLP.part.buried>
-1.7549

> <Gold.PLP.part.nonpolar>
-33.2032

> <Gold.PLP.part.repulsive>
0.1720

> <Gold.PLP.ligand.clash>
0.0000

> <Gold.PLP.ligand.torsion>
0.6154

> <Gold.PLP.Chemscore.Hbond>
2.7360

> <Gold.PLP.Chemscore.CHOScore>
0.0000

> <Gold.PLP.Chemscore.Metal>
0.0000

> <Gold.Chemscore.Hbonds>
donor molecule, donor type, donor heavy atom, donor atom, acceptor molecule, acceptor atom, score
      L1  H    15    46       P1  7948  2.00
      P1  H  7989  7998       L1    11  0.74

> <Gold.PLP.Chemscore.Internal.Correction>
0.0186

> <Gold.Rescore>
     Score         DG    S(hbond)    S(metal)    S(lipo)     H(rot)  DE(clash)    DE(int)     intcor
     14.57     -17.70       1.89        0.00      87.77       1.71       0.13       2.99       ----

> <Gold.Chemscore.Fitness>
14.5749

> <Gold.Chemscore.DG>
-17.6991

> <Gold.Chemscore.ZeroCoef>
-5.4800

> <Gold.Chemscore.Hbond>
1.8949

> <Gold.Chemscore.Metal>
0.0000

> <Gold.Chemscore.Lipo>
87.7742

> <Gold.Chemscore.Internal_Hbond>
0.0000

> <Gold.Chemscore.DEClash>
0.1303

> <Gold.Chemscore.DEInternal>
2.9940

> <Gold.Chemscore.Rot>
1.7107

> <Gold.Chemscore.Internal.Correction>
   9.000000E+99

> <Gold.Chemscore.Hbonds>
donor molecule, donor type, donor heavy atom, donor atom, acceptor molecule, acceptor atom, score
      L1  H    15    46       P1  7948  1.00
      P1  H  7989  7998       L1    11  0.73

> <Gold.Chemscore.Hbond.Weighted>
-6.3290

> <Gold.Chemscore.Metal.Weighted>
-0.0000

> <Gold.Chemscore.Lipo.Weighted>
-10.2696

> <Gold.Chemscore.Internal_Hbond.Weighted>
0.0000

> <Gold.Chemscore.DEClash.Weighted>
0.1303

> <Gold.Chemscore.DEInternal.Weighted>
2.9940

> <Gold.Chemscore.Rot.Weighted>
4.3794

> <Gold.Chemscore.Internal.Correction.Weighted>
   9.000000E+99

> <Gold.Protein.RotatedTorsions>
[ 6907 6896 6895 6894 ] final -122.27 input  -60.11 | X-H torsion
[ 7974 7965 7964 7962 ] final  -92.37 input  175.53 | X-H torsion
[ 8008 7997 7996 7995 ] final   62.51 input   59.86 | X-H torsion
[ 10167 10162 10161 10158 ] final -149.82 input  -65.29 | X-H torsion
[ 10718 10713 10712 10709 ] final  -25.22 input   66.30 | X-H torsion
[ 10763 10752 10751 10750 ] final  151.24 input  -60.55 | X-H torsion
[ 11005 11000 10999 10996 ] final  146.80 input  -57.11 | X-H torsion

> <Gold.Protein.ActiveResidues>
 VAL166  LYS551  ARG553  GLY616  TRP617  ASP618  TYR619  PRO620  LYS621  CYS622 
 ASP623  PHE694  ASN695  SER759  ASP760  ASP761  ALA762  ILE779  LEU786  VAL792 
 PHE793  MET794  SER795  GLU796  ALA797  LYS798  CYS799  TRP800  GLU811  SER814 

> <Gold.Protein.RotatedAtoms>
  150.8560  133.7715  159.3008 H   0  0  0  0  0  0  0  0  0  0  0  0  # atno 6907 bound_to 6896
  151.5372  135.1067  159.9927 H   0  0  0  0  0  0  0  0  0  0  0  0  # atno 6908 bound_to 6896
  152.4590  133.7739  159.6869 H   0  0  0  0  0  0  0  0  0  0  0  0  # atno 6909 bound_to 6896
  145.4007  140.9537  143.2289 H   0  0  0  0  0  0  0  0  0  0  0  0  # atno 7974 bound_to 7965
  155.6156  140.3495  155.4636 H   0  0  0  0  0  0  0  0  0  0  0  0  # atno 8008 bound_to 7997
  156.0120  140.1235  157.0468 H   0  0  0  0  0  0  0  0  0  0  0  0  # atno 8009 bound_to 7997
  154.4284  140.1079  156.5829 H   0  0  0  0  0  0  0  0  0  0  0  0  # atno 8010 bound_to 7997
  139.7408  143.8665  152.2562 H   0  0  0  0  0  0  0  0  0  0  0  0  # atno 10167 bound_to 10162
  156.4673  130.4517  149.6891 H   0  0  0  0  0  0  0  0  0  0  0  0  # atno 10718 bound_to 10713
  154.1005  135.2846  155.3252 H   0  0  0  0  0  0  0  0  0  0  0  0  # atno 10763 bound_to 10752
  154.6559  135.5352  153.7961 H   0  0  0  0  0  0  0  0  0  0  0  0  # atno 10764 bound_to 10752
  153.0381  135.6521  154.1169 H   0  0  0  0  0  0  0  0  0  0  0  0  # atno 10765 bound_to 10752
  140.0823  134.9090  157.1520 H   0  0  0  0  0  0  0  0  0  0  0  0  # atno 11005 bound_to 11000
  144.8376  139.5525  143.6915 LP  0  0  0  0  0  0  0  0  0  0  0  0  # atno 17320 bound_to 7965
  146.2753  139.6738  142.9267 LP  0  0  0  0  0  0  0  0  0  0  0  0  # atno 17321 bound_to 7965
  139.8615  144.7115  150.9094 LP  0  0  0  0  0  0  0  0  0  0  0  0  # atno 17342 bound_to 10162
  140.7785  143.3814  151.1470 LP  0  0  0  0  0  0  0  0  0  0  0  0  # atno 17343 bound_to 10162
  156.3655  130.7503  151.2480 LP  0  0  0  0  0  0  0  0  0  0  0  0  # atno 17370 bound_to 10713
  157.7494  131.0338  150.4289 LP  0  0  0  0  0  0  0  0  0  0  0  0  # atno 17371 bound_to 10713
  140.3470  134.2641  155.7204 LP  0  0  0  0  0  0  0  0  0  0  0  0  # atno 17394 bound_to 11000
  141.2051  133.7869  157.0252 LP  0  0  0  0  0  0  0  0  0  0  0  0  # atno 17395 bound_to 11000

$$$$
