#       Name:                AV-unprocessed.smi:1372
#       Creating user name   scv26
#       Creation time:       Fri Mar 27 05:18:08 2020


#       File generated by GOLD software.
#

@<TRIPOS>MOLECULE
AV-unprocessed.smi:1372
    44    46     1
SMALL
NO_CHARGES


@<TRIPOS>ATOM
      1 ****         0.4131   4.2397   0.6373 C.3            1 S1                 0.0000
      2 ****        -0.9148   2.9834   0.4361 S.o2           1 S1                 0.0000
      3 ****        -2.1054   3.4529   1.1613 O.2            1 S1                 0.0000
      4 ****        -1.0183   2.6454  -0.9915 O.2            1 S1                 0.0000
      5 ****        -0.2014   1.5379   1.3414 C.3            1 S1                 0.0000
      6 ****        -0.9931   0.2796   1.1128 C.2            1 S1                 0.0000
      7 ****        -2.3137   0.2854   0.9187 N.2            1 S1                 0.0000
      8 ****        -2.6099  -1.0521   0.7523 C.ar           1 S1                 0.0000
      9 ****        -3.8421  -1.6964   0.5001 C.ar           1 S1                 0.0000
     10 ****        -3.8996  -3.0995   0.3676 C.ar           1 S1                 0.0000
     11 ****        -2.7287  -3.8760   0.4864 C.ar           1 S1                 0.0000
     12 ****        -1.4913  -3.2529   0.7383 C.ar           1 S1                 0.0000
     13 ****        -1.4396  -1.8521   0.8677 C.ar           1 S1                 0.0000
     14 ****        -0.4097  -0.9482   1.1093 N.pl3          1 S1                 0.0000
     15 ****         0.9905  -1.2987   1.3137 C.3            1 S1                 0.0000
     16 ****         1.7165  -1.6239  -0.0079 C.3            1 S1                 0.0000
     17 ****         2.9786  -2.1764   0.3063 O.3            1 S1                 0.0000
     18 ****         1.8265  -0.4170  -0.9298 C.ar           1 S1                 0.0000
     19 ****         0.8989  -0.2496  -1.9803 C.ar           1 S1                 0.0000
     20 ****         0.9803   0.8714  -2.8286 C.ar           1 S1                 0.0000
     21 ****         1.9863   1.8358  -2.6279 C.ar           1 S1                 0.0000
     22 ****         2.9138   1.6762  -1.5809 C.ar           1 S1                 0.0000
     23 ****         2.8362   0.5523  -0.7356 C.ar           1 S1                 0.0000
     24 ****         0.1116   5.1652   0.1472 H              1 S1                 0.0000
     25 ****         1.3330   3.8734   0.1819 H              1 S1                 0.0000
     26 ****         0.5803   4.4293   1.6973 H              1 S1                 0.0000
     27 ****         0.8208   1.4183   0.9918 H              1 S1                 0.0000
     28 ****        -0.1731   1.7686   2.4059 H              1 S1                 0.0000
     29 ****        -4.7439  -1.1095   0.4079 H              1 S1                 0.0000
     30 ****        -4.8466  -3.5819   0.1747 H              1 S1                 0.0000
     31 ****        -2.7810  -4.9502   0.3841 H              1 S1                 0.0000
     32 ****        -0.5926  -3.8444   0.8295 H              1 S1                 0.0000
     33 ****         1.5018  -0.5099   1.8651 H              1 S1                 0.0000
     34 ****         1.0119  -2.1732   1.9656 H              1 S1                 0.0000
     35 ****         1.1665  -2.4067  -0.5319 H              1 S1                 0.0000
     36 ****         3.3816  -2.4747  -0.4949 H              1 S1                 0.0000
     37 ****         0.1153  -0.9774  -2.1339 H              1 S1                 0.0000
     38 ****         0.2647   0.9958  -3.6279 H              1 S1                 0.0000
     39 ****         2.0440   2.6985  -3.2751 H              1 S1                 0.0000
     40 ****         3.6837   2.4173  -1.4246 H              1 S1                 0.0000
     41 ****         3.5486   0.4434   0.0691 H              1 S1                 0.0000
     42 ****        -2.9362   1.0678   0.8988 LP             1 S1                 0.0000
     43 ****         2.8634  -2.9467   0.9335 LP             1 S1                 0.0000
     44 ****         3.5546  -1.4805   0.7353 LP             1 S1                 0.0000
@<TRIPOS>BOND
    1    1    2 1     
    2    1   24 1     
    3    1   25 1     
    4    1   26 1     
    5    2    3 2     
    6    2    4 2     
    7    2    5 1     
    8    5    6 1     
    9    5   27 1     
   10    5   28 1     
   11    6   14 1     
   12    6    7 2     
   13    7    8 1     
   14    8   13 ar    
   15    8    9 ar    
   16    9   10 ar    
   17    9   29 1     
   18   10   11 ar    
   19   10   30 1     
   20   11   12 ar    
   21   11   31 1     
   22   12   13 ar    
   23   12   32 1     
   24   13   14 1     
   25   14   15 1     
   26   15   16 1     
   27   15   33 1     
   28   15   34 1     
   29   16   17 1     
   30   16   18 1     
   31   16   35 1     
   32   17   36 1     
   33   18   23 ar    
   34   18   19 ar    
   35   19   20 ar    
   36   19   37 1     
   37   20   21 ar    
   38   20   38 1     
   39   21   22 ar    
   40   21   39 1     
   41   22   23 ar    
   42   22   40 1     
   43   23   41 1     
   44    7   42 1     
   45   17   43 1     
   46   17   44 1     
@<TRIPOS>SUBSTRUCTURE
      1 S1             1
@<TRIPOS>SET
LONE_PAIRS      STATIC     ATOMS    <user>   **** ""
5 3 4 42 43 44
DONOR_HYDROGENS      STATIC     ATOMS    <user>   **** ""
1 36
ATOM$BLUE        STATIC     ATOMS    COLORGROUP SYSTEM
5 3 4 42 43 44
ATOM$RED        STATIC     ATOMS    COLORGROUP SYSTEM
1 36
