#       Name:                AV-unprocessed.smi:2744
#       Creating user name   scv26
#       Creation time:       Fri Mar 27 15:02:14 2020


#       File generated by GOLD software.
#

@<TRIPOS>MOLECULE
AV-unprocessed.smi:2744
    45    46     1
SMALL
NO_CHARGES


@<TRIPOS>ATOM
      1 ****        -3.8630  -2.8356   3.3199 C.3            1 S1                 0.0000
      2 ****        -2.3344  -2.6890   3.2273 C.3            1 S1                 0.0000
      3 ****        -1.8012  -1.9470   1.9771 C.3            1 S1                 0.0000
      4 ****        -2.2514  -2.6212   0.6635 C.3            1 S1                 0.0000
      5 ****        -2.3366  -0.6374   1.9859 O.3            1 S1                 0.0000
      6 ****        -0.2575  -1.8286   2.0758 C.3            1 S1                 0.0000
      7 ****         0.3768  -1.2109   0.9202 N.pl3          1 S1                 0.0000
      8 ****         0.9135  -1.8628  -0.1681 C.2            1 S1                 0.0000
      9 ****         1.4317  -1.0894  -1.0831 N.2            1 S1                 0.0000
     10 ****         1.2495   0.1925  -0.5805 C.ar           1 S1                 0.0000
     11 ****         1.5753   1.4895  -1.0547 C.ar           1 S1                 0.0000
     12 ****         2.2015   1.6589  -2.2408 N.pl3          1 S1                 0.0000
     13 ****         2.4433   2.9888  -2.7934 C.3            1 S1                 0.0000
     14 ****         1.1668   3.5726  -3.4219 C.3            1 S1                 0.0000
     15 ****         3.5805   2.9278  -3.8212 C.3            1 S1                 0.0000
     16 ****         1.2418   2.5500  -0.2727 N.ar           1 S1                 0.0000
     17 ****         0.6257   2.3526   0.8972 C.ar           1 S1                 0.0000
     18 ****         0.2580   1.2007   1.4637 N.ar           1 S1                 0.0000
     19 ****         0.5923   0.1353   0.6804 C.ar           1 S1                 0.0000
     20 ****        -4.1440  -3.3048   4.2628 H              1 S1                 0.0000
     21 ****        -4.2601  -3.4606   2.5206 H              1 S1                 0.0000
     22 ****        -4.3638  -1.8683   3.2751 H              1 S1                 0.0000
     23 ****        -1.9865  -2.1730   4.1233 H              1 S1                 0.0000
     24 ****        -1.8911  -3.6846   3.2699 H              1 S1                 0.0000
     25 ****        -1.8617  -3.6368   0.5905 H              1 S1                 0.0000
     26 ****        -1.9102  -2.0724  -0.2143 H              1 S1                 0.0000
     27 ****        -3.3368  -2.6768   0.5852 H              1 S1                 0.0000
     28 ****        -1.9457  -0.1479   1.2782 H              1 S1                 0.0000
     29 ****         0.0256  -1.2618   2.9641 H              1 S1                 0.0000
     30 ****         0.1797  -2.8201   2.2011 H              1 S1                 0.0000
     31 ****         0.9008  -2.9386  -0.2662 H              1 S1                 0.0000
     32 ****         2.4729   0.8847  -2.8297 H              1 S1                 0.0000
     33 ****         2.7715   3.6504  -1.9910 H              1 S1                 0.0000
     34 ****         1.3518   4.5670  -3.8291 H              1 S1                 0.0000
     35 ****         0.3646   3.6656  -2.6899 H              1 S1                 0.0000
     36 ****         0.8025   2.9434  -4.2348 H              1 S1                 0.0000
     37 ****         3.7977   3.9175  -4.2244 H              1 S1                 0.0000
     38 ****         3.3269   2.2761  -4.6580 H              1 S1                 0.0000
     39 ****         4.4979   2.5490  -3.3696 H              1 S1                 0.0000
     40 ****         0.3946   3.2449   1.4599 H              1 S1                 0.0000
     41 ****        -2.1285  -0.1940   2.8578 LP             1 S1                 0.0000
     42 ****        -3.3279  -0.6776   1.8607 LP             1 S1                 0.0000
     43 ****         1.8604  -1.3576  -1.9458 LP             1 S1                 0.0000
     44 ****         1.4576   3.4791  -0.5728 LP             1 S1                 0.0000
     45 ****        -0.2030   1.1285   2.3482 LP             1 S1                 0.0000
@<TRIPOS>BOND
    1    1    2 1     
    2    1   20 1     
    3    1   21 1     
    4    1   22 1     
    5    2    3 1     
    6    2   23 1     
    7    2   24 1     
    8    3    4 1     
    9    3    5 1     
   10    3    6 1     
   11    4   25 1     
   12    4   26 1     
   13    4   27 1     
   14    5   28 1     
   15    6    7 1     
   16    6   29 1     
   17    6   30 1     
   18    7   19 1     
   19    7    8 1     
   20    8    9 2     
   21    8   31 1     
   22    9   10 1     
   23   10   19 ar    
   24   10   11 ar    
   25   11   12 1     
   26   11   16 ar    
   27   12   13 1     
   28   12   32 1     
   29   13   14 1     
   30   13   15 1     
   31   13   33 1     
   32   14   34 1     
   33   14   35 1     
   34   14   36 1     
   35   15   37 1     
   36   15   38 1     
   37   15   39 1     
   38   16   17 ar    
   39   17   18 ar    
   40   17   40 1     
   41   18   19 ar    
   42    5   41 1     
   43    5   42 1     
   44    9   43 1     
   45   16   44 1     
   46   18   45 1     
@<TRIPOS>SUBSTRUCTURE
      1 S1             1
@<TRIPOS>SET
LONE_PAIRS      STATIC     ATOMS    <user>   **** ""
5 41 42 43 44 45
DONOR_HYDROGENS      STATIC     ATOMS    <user>   **** ""
2 28 32
ATOM$BLUE        STATIC     ATOMS    COLORGROUP SYSTEM
5 41 42 43 44 45
ATOM$RED        STATIC     ATOMS    COLORGROUP SYSTEM
2 28 32
