AV-unprocessed.smi:243|AV-procd|sdf|1863|dock4
  -GOLD-   2262020493D 1   1.00000     0.00000
 Structure written by MMmdl.
 58 61  0  0  0  0  0  0  0  0  2 V2000
  146.1917  133.3506  151.5930 C   0  0  0  0  0  0  0  0  0  0  0  0
  145.6039  134.5756  152.3086 C   0  0  0  0  0  0  0  0  0  0  0  0
  146.5442  135.1610  153.2969 N   0  3  1  0  0  0  0  0  0  0  0  0
  146.0675  136.4638  153.8240 C   0  0  0  0  0  0  0  0  0  0  0  0
  147.1151  137.1181  154.7398 C   0  0  0  0  0  0  0  0  0  0  0  0
  147.5139  136.1793  155.8998 C   0  0  2  0  0  0  0  0  0  0  0  0
  148.4836  136.7997  156.8180 N   0  0  0  0  0  0  0  0  0  0  0  0
  149.2918  135.9134  157.6501 C   0  0  0  0  0  0  0  0  0  0  0  0
  149.2596  137.7820  156.3027 C   0  0  0  0  0  0  0  0  0  0  0  0
  149.9669  137.4864  155.1841 N   0  0  0  0  0  0  0  0  0  0  0  0
  150.7599  138.4088  154.6312 C   0  0  0  0  0  0  0  0  0  0  0  0
  150.9818  139.6642  155.0263 N   0  0  0  0  0  0  0  0  0  0  0  0
  150.2594  139.9692  156.1422 C   0  0  0  0  0  0  0  0  0  0  0  0
  149.3736  139.0978  156.8360 C   0  0  0  0  0  0  0  0  0  0  0  0
  148.8051  139.7630  157.9159 N   0  0  0  0  0  0  0  0  0  0  0  0
  149.3320  140.9559  157.8687 C   0  0  0  0  0  0  0  0  0  0  0  0
  150.2270  141.1619  156.8433 N   0  0  0  0  0  0  0  0  0  0  0  0
  150.9682  142.3816  156.5631 C   0  0  0  0  0  0  0  0  0  0  0  0
  151.1003  143.3133  157.7905 C   0  0  2  0  0  0  0  0  0  0  0  0
  149.8424  143.9068  158.0619 O   0  0  0  0  0  0  0  0  0  0  0  0
  152.1322  144.4259  157.6192 C   0  0  0  0  0  0  0  0  0  0  0  0
  152.6815  144.6026  159.0277 C   0  0  0  0  0  0  0  0  0  0  0  0
  152.7481  143.2681  159.4987 O   0  0  0  0  0  0  0  0  0  0  0  0
  151.5808  142.5813  159.0601 C   0  0  0  0  0  0  0  0  0  0  0  0
  147.9878  134.8169  155.3126 C   0  0  2  0  0  0  0  0  0  0  0  0
  149.3461  134.8747  154.5820 C   0  0  0  0  0  0  0  0  0  0  0  0
  146.8958  134.2268  154.3988 C   0  0  0  0  0  0  0  0  0  0  0  0
  145.5168  133.0039  150.8101 H   0  0  0  0  0  0  0  0  0  0  0  0
  146.3516  132.5142  152.2725 H   0  0  0  0  0  0  0  0  0  0  0  0
  147.1458  133.5899  151.1224 H   0  0  0  0  0  0  0  0  0  0  0  0
  145.3725  135.3223  151.5478 H   0  0  0  0  0  0  0  0  0  0  0  0
  144.6588  134.3249  152.7921 H   0  0  0  0  0  0  0  0  0  0  0  0
  145.8479  137.1389  152.9958 H   0  0  0  0  0  0  0  0  0  0  0  0
  145.1332  136.3156  154.3682 H   0  0  0  0  0  0  0  0  0  0  0  0
  147.9934  137.4024  154.1597 H   0  0  0  0  0  0  0  0  0  0  0  0
  146.6922  138.0458  155.1252 H   0  0  0  0  0  0  0  0  0  0  0  0
  146.6049  135.9964  156.4726 H   0  0  0  0  0  0  0  0  0  0  0  0
  150.1358  136.4327  158.1077 H   0  0  0  0  0  0  0  0  0  0  0  0
  149.6845  135.0841  157.0605 H   0  0  0  0  0  0  0  0  0  0  0  0
  148.6891  135.5038  158.4606 H   0  0  0  0  0  0  0  0  0  0  0  0
  151.2952  138.0954  153.7471 H   0  0  0  0  0  0  0  0  0  0  0  0
  149.0852  141.7214  158.5898 H   0  0  0  0  0  0  0  0  0  0  0  0
  151.9551  142.1089  156.1871 H   0  0  0  0  0  0  0  0  0  0  0  0
  150.4649  142.9039  155.7482 H   0  0  0  0  0  0  0  0  0  0  0  0
  149.4346  144.1359  157.2408 H   0  0  0  0  0  0  0  0  0  0  0  0
  152.9427  144.0919  156.9699 H   0  0  0  0  0  0  0  0  0  0  0  0
  151.7255  145.3456  157.1963 H   0  0  0  0  0  0  0  0  0  0  0  0
  153.6586  145.0857  159.0432 H   0  0  0  0  0  0  0  0  0  0  0  0
  151.9964  145.1810  159.6495 H   0  0  0  0  0  0  0  0  0  0  0  0
  150.8311  142.6008  159.8532 H   0  0  0  0  0  0  0  0  0  0  0  0
  151.8282  141.5360  158.8719 H   0  0  0  0  0  0  0  0  0  0  0  0
  148.1072  134.1089  156.1330 H   0  0  0  0  0  0  0  0  0  0  0  0
  149.3181  135.5305  153.7123 H   0  0  0  0  0  0  0  0  0  0  0  0
  149.6391  133.8844  154.2326 H   0  0  0  0  0  0  0  0  0  0  0  0
  150.1429  135.2294  155.2345 H   0  0  0  0  0  0  0  0  0  0  0  0
  146.0010  134.0082  154.9840 H   0  0  0  0  0  0  0  0  0  0  0  0
  147.2418  133.2746  153.9982 H   0  0  0  0  0  0  0  0  0  0  0  0
  147.3984  135.3574  152.7949 H   0  0  0  0  0  0  0  0  0  0  0  0
  1  2  1  0  0  0  0
  1 28  1  0  0  0  0
  1 29  1  0  0  0  0
  1 30  1  0  0  0  0
  2  3  1  0  0  0  0
  2 31  1  0  0  0  0
  2 32  1  0  0  0  0
  3 27  1  0  0  0  0
  3  4  1  0  0  0  0
  3 58  1  0  0  0  0
  4  5  1  0  0  0  0
  4 33  1  0  0  0  0
  4 34  1  0  0  0  0
  5  6  1  0  0  0  0
  5 35  1  0  0  0  0
  5 36  1  0  0  0  0
  6  7  1  0  0  0  0
  6 25  1  0  0  0  0
  6 37  1  0  0  0  0
  7  8  1  0  0  0  0
  7  9  1  0  0  0  0
  8 38  1  0  0  0  0
  8 39  1  0  0  0  0
  8 40  1  0  0  0  0
  9 14  1  0  0  0  0
  9 10  2  0  0  0  0
 10 11  1  0  0  0  0
 11 12  2  0  0  0  0
 11 41  1  0  0  0  0
 12 13  1  0  0  0  0
 13 17  1  0  0  0  0
 13 14  2  0  0  0  0
 14 15  1  0  0  0  0
 15 16  2  0  0  0  0
 16 17  1  0  0  0  0
 16 42  1  0  0  0  0
 17 18  1  0  0  0  0
 18 19  1  0  0  0  0
 18 43  1  0  0  0  0
 18 44  1  0  0  0  0
 19 24  1  0  0  0  0
 19 20  1  0  0  0  0
 19 21  1  0  0  0  0
 20 45  1  0  0  0  0
 21 22  1  0  0  0  0
 21 46  1  0  0  0  0
 21 47  1  0  0  0  0
 22 23  1  0  0  0  0
 22 48  1  0  0  0  0
 22 49  1  0  0  0  0
 23 24  1  0  0  0  0
 24 50  1  0  0  0  0
 24 51  1  0  0  0  0
 25 26  1  0  0  0  0
 25 27  1  0  0  0  0
 25 52  1  0  0  0  0
 26 53  1  0  0  0  0
 26 54  1  0  0  0  0
 26 55  1  0  0  0  0
 27 56  1  0  0  0  0
 27 57  1  0  0  0  0
M  CHG  1   3   1
M  END
> <s_m_source_file>
AV-unprocessed.smi

> <i_m_source_file_index>
243

> <i_lp_mmshare_version>
43012

> <i_f3d_flags>
0

> <s_epik_input>
W0NIM11bQ0gyXU4xW0NIMl1bQ0gyXVtDQEhdKFtDQEBIXShbQ0gzXSlbQ0gyXTEpTihbQ0gzXSljKG5bY0hdbjIpYyhjMjMpbltjSF1uM1tDSDJdW0NAQF00KFtPSF0pW0NIMl1bQ0gyXU9bQ0gyXTQ=

> <s_epik_cmdline>
J2VwaWtfcHl0aG9uJywgJy1waCcsICc3LjAnLCAnLXRuJywgJzgnLCAnLW1hJywgJzIwMCcsICctbWV0YWxfYmluZGluZycsICctaW1hZScsICc8aW5maWxlLm1hZT4nLCAnLW9tYWUnLCAnPG91dGZpbGUubWFlPic=

> <r_lp_tautomer_probability>
1

> <r_epik_Ionization_Penalty>
0.00253099

> <r_epik_Ionization_Penalty_Charging>
0.00137877

> <r_epik_Ionization_Penalty_Neutral>
0.00115221

> <r_epik_State_Penalty>
-0

> <r_epik_Charging_Adjusted_Penalty>
0.00137877

> <i_epik_Tot_Q>
1

> <i_epik_Tot_abs_Q>
1

> <r_epik_Metal_State_Penalty>
-0

> <b_epik_Metal_Only>
0

> <s_lp_Force_Field>
OPLS_2005

> <r_lp_Energy>
46.6392

> <b_lp_Chiralities_Consistent>
1

> <s_lp_Variant>
AV-unprocessed.smi:243-16

> <Gold.Version>
5.8.1

> <Gold.Id.Protein>
6NUR|6NUR_protein|mol2

> <Gold.PLP.Fitness>
45.1397

> <Gold.PLP.PLP>
-36.2904

> <Gold.PLP.part.hbond>
-4.0000

> <Gold.PLP.part.metal>
0.0000

> <Gold.PLP.part.buried>
-3.4042

> <Gold.PLP.part.nonpolar>
-28.7823

> <Gold.PLP.part.repulsive>
0.1683

> <Gold.PLP.ligand.clash>
0.5311

> <Gold.PLP.ligand.torsion>
1.5509

> <Gold.PLP.Chemscore.Hbond>
3.9913

> <Gold.PLP.Chemscore.CHOScore>
0.0000

> <Gold.PLP.Chemscore.Metal>
0.0000

> <Gold.Chemscore.Hbonds>
donor molecule, donor type, donor heavy atom, donor atom, acceptor molecule, acceptor atom, score
      L1  H     3    58       P1  7948  2.00
      L1  H    20    45       P1  8028  1.00
      P1  H  7989  7998       L1    12  0.94

> <Gold.PLP.Chemscore.Internal.Correction>
0.5085

> <Gold.Rescore>
     Score         DG    S(hbond)    S(metal)    S(lipo)     H(rot)  DE(clash)    DE(int)     intcor
     11.36     -17.04       2.32        0.00      87.94       2.53       0.30       5.38       ----

> <Gold.Chemscore.Fitness>
11.3615

> <Gold.Chemscore.DG>
-17.0389

> <Gold.Chemscore.ZeroCoef>
-5.4800

> <Gold.Chemscore.Hbond>
2.3198

> <Gold.Chemscore.Metal>
0.0000

> <Gold.Chemscore.Lipo>
87.9378

> <Gold.Chemscore.Internal_Hbond>
0.0000

> <Gold.Chemscore.DEClash>
0.3006

> <Gold.Chemscore.DEInternal>
5.3769

> <Gold.Chemscore.Rot>
2.5305

> <Gold.Chemscore.Internal.Correction>
   9.000000E+99

> <Gold.Chemscore.Hbonds>
donor molecule, donor type, donor heavy atom, donor atom, acceptor molecule, acceptor atom, score
      L1  H     3    58       P1  7948  0.97
      L1  H    20    45       P1  8028  0.26
      P1  H  7989  7998       L1    12  0.77

> <Gold.Chemscore.Hbond.Weighted>
-7.7482

> <Gold.Chemscore.Metal.Weighted>
-0.0000

> <Gold.Chemscore.Lipo.Weighted>
-10.2887

> <Gold.Chemscore.Internal_Hbond.Weighted>
0.0000

> <Gold.Chemscore.DEClash.Weighted>
0.3006

> <Gold.Chemscore.DEInternal.Weighted>
5.3769

> <Gold.Chemscore.Rot.Weighted>
6.4780

> <Gold.Chemscore.Internal.Correction.Weighted>
   9.000000E+99

> <Gold.Protein.RotatedTorsions>
[ 6907 6896 6895 6894 ] final -127.14 input  -60.11 | X-H torsion
[ 7974 7965 7964 7962 ] final  -17.98 input  175.53 | X-H torsion
[ 8008 7997 7996 7995 ] final  -47.68 input   59.86 | X-H torsion
[ 10167 10162 10161 10158 ] final  117.33 input  -65.29 | X-H torsion
[ 10718 10713 10712 10709 ] final  -90.32 input   66.30 | X-H torsion
[ 10763 10752 10751 10750 ] final -150.97 input  -60.55 | X-H torsion
[ 11005 11000 10999 10996 ] final  -11.22 input  -57.11 | X-H torsion

> <Gold.Protein.ActiveResidues>
 VAL166  LYS551  ARG553  GLY616  TRP617  ASP618  TYR619  PRO620  LYS621  CYS622 
 ASP623  PHE694  ASN695  SER759  ASP760  ASP761  ALA762  ILE779  LEU786  VAL792 
 PHE793  MET794  SER795  GLU796  ALA797  LYS798  CYS799  TRP800  GLU811  SER814 

> <Gold.Protein.RotatedAtoms>
  150.9042  133.7080  159.2870 H   0  0  0  0  0  0  0  0  0  0  0  0  # atno 6907 bound_to 6896
  151.4588  135.1035  159.9728 H   0  0  0  0  0  0  0  0  0  0  0  0  # atno 6908 bound_to 6896
  152.4894  133.8410  159.7208 H   0  0  0  0  0  0  0  0  0  0  0  0  # atno 6909 bound_to 6896
  146.1914  140.3857  142.8456 H   0  0  0  0  0  0  0  0  0  0  0  0  # atno 7974 bound_to 7965
  154.4019  140.1340  156.4216 H   0  0  0  0  0  0  0  0  0  0  0  0  # atno 8008 bound_to 7997
  155.7637  140.3485  155.5191 H   0  0  0  0  0  0  0  0  0  0  0  0  # atno 8009 bound_to 7997
  155.8834  140.0991  157.1460 H   0  0  0  0  0  0  0  0  0  0  0  0  # atno 8010 bound_to 7997
  139.6186  144.7097  151.2685 H   0  0  0  0  0  0  0  0  0  0  0  0  # atno 10167 bound_to 10162
  155.9987  130.4905  150.5305 H   0  0  0  0  0  0  0  0  0  0  0  0  # atno 10718 bound_to 10713
  154.8087  135.3271  154.7363 H   0  0  0  0  0  0  0  0  0  0  0  0  # atno 10763 bound_to 10752
  153.8017  135.6903  153.4859 H   0  0  0  0  0  0  0  0  0  0  0  0  # atno 10764 bound_to 10752
  153.1850  135.4572  155.0022 H   0  0  0  0  0  0  0  0  0  0  0  0  # atno 10765 bound_to 10752
  140.7530  133.8577  155.9061 H   0  0  0  0  0  0  0  0  0  0  0  0  # atno 11005 bound_to 11000
  144.8495  140.6979  143.6177 LP  0  0  0  0  0  0  0  0  0  0  0  0  # atno 17320 bound_to 7965
  145.3779  139.1643  143.4296 LP  0  0  0  0  0  0  0  0  0  0  0  0  # atno 17321 bound_to 7965
  140.7367  143.6699  150.8090 LP  0  0  0  0  0  0  0  0  0  0  0  0  # atno 17342 bound_to 10162
  140.0306  143.5447  152.2761 LP  0  0  0  0  0  0  0  0  0  0  0  0  # atno 17343 bound_to 10162
  157.3255  131.0690  151.1900 LP  0  0  0  0  0  0  0  0  0  0  0  0  # atno 17370 bound_to 10713
  157.2799  130.6745  149.6060 LP  0  0  0  0  0  0  0  0  0  0  0  0  # atno 17371 bound_to 10713
  140.9733  134.1502  157.4557 LP  0  0  0  0  0  0  0  0  0  0  0  0  # atno 17394 bound_to 11000
  139.8784  134.9986  156.5909 LP  0  0  0  0  0  0  0  0  0  0  0  0  # atno 17395 bound_to 11000

$$$$
