AV-unprocessed.smi:3162|AV-procd|sdf|12065|dock1
  -GOLD-   2272017493D 1   1.00000     0.00000
 Structure written by MMmdl.
 37 37  0  0  0  0  0  0  0  0  2 V2000
  148.0306  141.3723  154.3451 C   0  0  0  0  0  0  0  0  0  0  0  0
  147.1752  140.7565  153.2268 C   0  0  0  0  0  0  0  0  0  0  0  0
  147.2179  139.2140  153.1600 C   0  0  2  0  0  0  0  0  0  0  0  0
  148.6319  138.7683  153.1397 N   0  3  0  0  0  0  0  0  0  0  0  0
  149.3084  138.6475  154.4531 C   0  0  1  0  0  0  0  0  0  0  0  0
  148.5376  137.7123  155.4063 C   0  0  0  0  0  0  0  0  0  0  0  0
  150.7642  138.1911  154.2272 C   0  0  0  0  0  0  0  0  0  0  0  0
  151.5305  138.1114  155.4580 N   0  0  0  0  0  0  0  0  0  0  0  0
  151.8215  139.1211  156.3503 C   0  0  0  0  0  0  0  0  0  0  0  0
  152.5713  138.5791  157.3550 C   0  0  0  0  0  0  0  0  0  0  0  0
  153.1414  139.2559  158.5682 C   0  0  0  0  0  0  0  0  0  0  0  0
  152.6884  137.2105  156.9789 C   0  0  0  0  0  0  0  0  0  0  0  0
  152.0669  136.9342  155.8438 N   0  0  0  0  0  0  0  0  0  0  0  0
  146.4740  138.6857  151.9228 C   0  0  0  0  0  0  0  0  0  0  0  0
  145.1452  138.5773  152.0050 N   0  0  0  0  0  0  0  0  0  0  0  0
  147.0915  138.3837  150.9032 O   0  0  0  0  0  0  0  0  0  0  0  0
  148.0159  142.4609  154.2856 H   0  0  0  0  0  0  0  0  0  0  0  0
  149.0697  141.0514  154.2684 H   0  0  0  0  0  0  0  0  0  0  0  0
  147.6644  141.0967  155.3342 H   0  0  0  0  0  0  0  0  0  0  0  0
  146.1443  141.0994  153.3307 H   0  0  0  0  0  0  0  0  0  0  0  0
  147.5277  141.1594  152.2761 H   0  0  0  0  0  0  0  0  0  0  0  0
  146.7369  138.8257  154.0597 H   0  0  0  0  0  0  0  0  0  0  0  0
  148.6882  137.8884  152.6464 H   0  0  0  0  0  0  0  0  0  0  0  0
  149.3425  139.6427  154.8991 H   0  0  0  0  0  0  0  0  0  0  0  0
  149.0282  137.6347  156.3765 H   0  0  0  0  0  0  0  0  0  0  0  0
  148.4581  136.7057  154.9944 H   0  0  0  0  0  0  0  0  0  0  0  0
  147.5285  138.0755  155.5987 H   0  0  0  0  0  0  0  0  0  0  0  0
  150.7855  137.2180  153.7329 H   0  0  0  0  0  0  0  0  0  0  0  0
  151.2769  138.8871  153.5617 H   0  0  0  0  0  0  0  0  0  0  0  0
  151.4743  140.1326  156.1980 H   0  0  0  0  0  0  0  0  0  0  0  0
  153.7747  138.5841  159.1481 H   0  0  0  0  0  0  0  0  0  0  0  0
  152.3566  139.6131  159.2352 H   0  0  0  0  0  0  0  0  0  0  0  0
  153.7516  140.1179  158.2981 H   0  0  0  0  0  0  0  0  0  0  0  0
  153.2053  136.4143  157.4944 H   0  0  0  0  0  0  0  0  0  0  0  0
  144.6130  138.2279  151.2213 H   0  0  0  0  0  0  0  0  0  0  0  0
  144.6746  138.8396  152.8596 H   0  0  0  0  0  0  0  0  0  0  0  0
  149.1461  139.4582  152.6114 H   0  0  0  0  0  0  0  0  0  0  0  0
  1  2  1  0  0  0  0
  1 17  1  0  0  0  0
  1 18  1  0  0  0  0
  1 19  1  0  0  0  0
  2  3  1  0  0  0  0
  2 20  1  0  0  0  0
  2 21  1  0  0  0  0
  3  4  1  0  0  0  0
  3 14  1  0  0  0  0
  3 22  1  0  0  0  0
  4  5  1  0  0  0  0
  4 23  1  0  0  0  0
  4 37  1  0  0  0  0
  5  6  1  0  0  0  0
  5  7  1  0  0  0  0
  5 24  1  0  0  0  0
  6 25  1  0  0  0  0
  6 26  1  0  0  0  0
  6 27  1  0  0  0  0
  7  8  1  0  0  0  0
  7 28  1  0  0  0  0
  7 29  1  0  0  0  0
  8 13  1  0  0  0  0
  8  9  1  0  0  0  0
  9 10  2  0  0  0  0
  9 30  1  0  0  0  0
 10 11  1  0  0  0  0
 10 12  1  0  0  0  0
 11 31  1  0  0  0  0
 11 32  1  0  0  0  0
 11 33  1  0  0  0  0
 12 13  2  0  0  0  0
 12 34  1  0  0  0  0
 14 15  1  0  0  0  0
 14 16  2  0  0  0  0
 15 35  1  0  0  0  0
 15 36  1  0  0  0  0
M  CHG  1   4   1
M  END
> <s_m_source_file>
AV-unprocessed.smi

> <i_m_source_file_index>
3162

> <i_lp_mmshare_version>
43012

> <i_f3d_flags>
0

> <s_epik_input>
W0NIM11bQ0gyXVtDQEBIXShDKD1PKVtOSDJdKVtOSF1bQ0BIXShbQ0gzXSlbQ0gyXW4xW2NIXWMoW0NIM10pW2NIXW4x

> <s_epik_cmdline>
J2VwaWtfcHl0aG9uJywgJy1waCcsICc3LjAnLCAnLXRuJywgJzgnLCAnLW1hJywgJzIwMCcsICctbWV0YWxfYmluZGluZycsICctaW1hZScsICc8aW5maWxlLm1hZT4nLCAnLW9tYWUnLCAnPG91dGZpbGUubWFlPic=

> <r_lp_tautomer_probability>
1

> <r_epik_Ionization_Penalty>
0.112112

> <r_epik_Ionization_Penalty_Charging>
0.112102

> <r_epik_Ionization_Penalty_Neutral>
9.73799e-06

> <r_epik_State_Penalty>
0.101811

> <r_epik_Charging_Adjusted_Penalty>
0.213914

> <i_epik_Tot_Q>
1

> <i_epik_Tot_abs_Q>
1

> <r_epik_Metal_State_Penalty>
0.101821

> <b_epik_Metal_Only>
0

> <s_lp_Force_Field>
OPLS_2005

> <r_lp_Energy>
6.55783

> <b_lp_Chiralities_Consistent>
1

> <s_lp_Variant>
AV-unprocessed.smi:3162-3

> <Gold.Version>
5.8.1

> <Gold.Id.Protein>
6NUR|6NUR_protein|mol2

> <Gold.PLP.Fitness>
44.7087

> <Gold.PLP.PLP>
-28.2024

> <Gold.PLP.part.hbond>
-5.3605

> <Gold.PLP.part.metal>
0.0000

> <Gold.PLP.part.buried>
-2.7074

> <Gold.PLP.part.nonpolar>
-21.8869

> <Gold.PLP.part.repulsive>
2.6882

> <Gold.PLP.ligand.clash>
0.0000

> <Gold.PLP.ligand.torsion>
0.9658

> <Gold.PLP.Chemscore.Hbond>
6.0640

> <Gold.PLP.Chemscore.CHOScore>
0.0000

> <Gold.PLP.Chemscore.Metal>
0.0000

> <Gold.Chemscore.Hbonds>
donor molecule, donor type, donor heavy atom, donor atom, acceptor molecule, acceptor atom, score
      L1  H     4    23       P1  7948  2.00
      L1  H     4    37       P1  7957  0.96
      L1  H    15    35       P1 10171  0.91
      L1  H    15    36       P1 10175  0.13
      P1  H  7954  7966       L1    16  1.00
      P1  H 10752 10765       L1    13  1.00

> <Gold.PLP.Chemscore.Internal.Correction>
0.2458

> <Gold.Rescore>
     Score         DG    S(hbond)    S(metal)    S(lipo)     H(rot)  DE(clash)    DE(int)     intcor
     21.07     -23.02       5.18        0.00      56.83       2.51       1.40       0.54       ----

> <Gold.Chemscore.Fitness>
21.0740

> <Gold.Chemscore.DG>
-23.0153

> <Gold.Chemscore.ZeroCoef>
-5.4800

> <Gold.Chemscore.Hbond>
5.1804

> <Gold.Chemscore.Metal>
0.0000

> <Gold.Chemscore.Lipo>
56.8265

> <Gold.Chemscore.Internal_Hbond>
0.0000

> <Gold.Chemscore.DEClash>
1.4032

> <Gold.Chemscore.DEInternal>
0.5381

> <Gold.Chemscore.Rot>
2.5062

> <Gold.Chemscore.Internal.Correction>
   9.000000E+99

> <Gold.Chemscore.Hbonds>
donor molecule, donor type, donor heavy atom, donor atom, acceptor molecule, acceptor atom, score
      L1  H     4    23       P1  7948  1.00
      L1  H     4    37       P1  7957  0.92
      L1  H    15    35       P1 10171  0.89
      L1  H    15    36       P1 10175  0.13
      P1  H  7954  7966       L1    16  0.94
      P1  H 10752 10765       L1    13  0.76

> <Gold.Chemscore.Hbond.Weighted>
-17.3025

> <Gold.Chemscore.Metal.Weighted>
-0.0000

> <Gold.Chemscore.Lipo.Weighted>
-6.6487

> <Gold.Chemscore.Internal_Hbond.Weighted>
0.0000

> <Gold.Chemscore.DEClash.Weighted>
1.4032

> <Gold.Chemscore.DEInternal.Weighted>
0.5381

> <Gold.Chemscore.Rot.Weighted>
6.4159

> <Gold.Chemscore.Internal.Correction.Weighted>
   9.000000E+99

> <Gold.Protein.RotatedTorsions>
[ 6907 6896 6895 6894 ] final -118.37 input  -60.11 | X-H torsion
[ 7974 7965 7964 7962 ] final -100.53 input  175.53 | X-H torsion
[ 8008 7997 7996 7995 ] final  111.97 input   59.86 | X-H torsion
[ 10167 10162 10161 10158 ] final -136.15 input  -65.29 | X-H torsion
[ 10718 10713 10712 10709 ] final  -92.16 input   66.30 | X-H torsion
[ 10763 10752 10751 10750 ] final -169.19 input  -60.55 | X-H torsion
[ 11005 11000 10999 10996 ] final  -35.42 input  -57.11 | X-H torsion

> <Gold.Protein.ActiveResidues>
 VAL166  LYS551  ARG553  GLY616  TRP617  ASP618  TYR619  PRO620  LYS621  CYS622 
 ASP623  PHE694  ASN695  SER759  ASP760  ASP761  ALA762  ILE779  LEU786  VAL792 
 PHE793  MET794  SER795  GLU796  ALA797  LYS798  CYS799  TRP800  GLU811  SER814 

> <Gold.Protein.RotatedAtoms>
  150.8214  133.8246  159.3137 H   0  0  0  0  0  0  0  0  0  0  0  0  # atno 6907 bound_to 6896
  151.6003  135.1046  160.0068 H   0  0  0  0  0  0  0  0  0  0  0  0  # atno 6908 bound_to 6896
  152.4303  133.7224  159.6597 H   0  0  0  0  0  0  0  0  0  0  0  0  # atno 6909 bound_to 6896
  145.2934  140.9358  143.2865 H   0  0  0  0  0  0  0  0  0  0  0  0  # atno 7974 bound_to 7965
  156.2161  140.3008  155.9842 H   0  0  0  0  0  0  0  0  0  0  0  0  # atno 8008 bound_to 7997
  155.2602  140.0429  157.3013 H   0  0  0  0  0  0  0  0  0  0  0  0  # atno 8009 bound_to 7997
  154.5769  140.2364  155.8117 H   0  0  0  0  0  0  0  0  0  0  0  0  # atno 8010 bound_to 7997
  139.8707  143.6961  152.2640 H   0  0  0  0  0  0  0  0  0  0  0  0  # atno 10167 bound_to 10162
  156.0000  130.4976  150.5583 H   0  0  0  0  0  0  0  0  0  0  0  0  # atno 10718 bound_to 10713
  154.6549  135.2916  154.9940 H   0  0  0  0  0  0  0  0  0  0  0  0  # atno 10763 bound_to 10752
  154.1019  135.6575  153.4874 H   0  0  0  0  0  0  0  0  0  0  0  0  # atno 10764 bound_to 10752
  153.0397  135.5244  154.7474 H   0  0  0  0  0  0  0  0  0  0  0  0  # atno 10765 bound_to 10752
  140.9794  133.7064  156.1659 H   0  0  0  0  0  0  0  0  0  0  0  0  # atno 11005 bound_to 11000
  144.9154  139.4477  143.6567 LP  0  0  0  0  0  0  0  0  0  0  0  0  # atno 17320 bound_to 7965
  146.3177  139.7985  142.8970 LP  0  0  0  0  0  0  0  0  0  0  0  0  # atno 17321 bound_to 7965
  139.7287  144.7587  151.0837 LP  0  0  0  0  0  0  0  0  0  0  0  0  # atno 17342 bound_to 10162
  140.7761  143.5116  150.9646 LP  0  0  0  0  0  0  0  0  0  0  0  0  # atno 17343 bound_to 10162
  157.3496  131.0731  151.1723 LP  0  0  0  0  0  0  0  0  0  0  0  0  # atno 17370 bound_to 10713
  157.2544  130.6629  149.5946 LP  0  0  0  0  0  0  0  0  0  0  0  0  # atno 17371 bound_to 10713
  140.7209  134.4360  157.5575 LP  0  0  0  0  0  0  0  0  0  0  0  0  # atno 17394 bound_to 11000
  139.8944  134.8707  156.2179 LP  0  0  0  0  0  0  0  0  0  0  0  0  # atno 17395 bound_to 11000

$$$$
