AV-unprocessed.smi:702|AV-procd|sdf|3417|dock6
  -GOLD-   22720 0403D 1   1.00000     0.00000
 Structure written by MMmdl.
 50 52  0  0  0  0  0  0  0  0  2 V2000
  146.7623  139.5369  152.1751 C   0  0  0  0  0  0  0  0  0  0  0  0
  146.5760  138.4486  153.2502 C   0  0  1  0  0  0  0  0  0  0  0  0
  146.7761  137.1376  152.6205 N   0  0  0  0  0  0  0  0  0  0  0  0
  145.8234  136.3250  152.1379 C   0  0  0  0  0  0  0  0  0  0  0  0
  144.6239  136.5983  152.1532 O   0  0  0  0  0  0  0  0  0  0  0  0
  146.3615  135.1974  151.6409 N   0  0  0  0  0  0  0  0  0  0  0  0
  145.7115  134.0745  151.0592 C   0  0  0  0  0  0  0  0  0  0  0  0
  146.5197  132.9925  150.6524 C   0  0  0  0  0  0  0  0  0  0  0  0
  145.9041  131.8591  150.0850 C   0  0  0  0  0  0  0  0  0  0  0  0
  144.5703  131.7472  149.9144 N   0  0  0  0  0  0  0  0  0  0  0  0
  143.7965  132.7774  150.3162 C   0  0  0  0  0  0  0  0  0  0  0  0
  144.3099  133.9554  150.8952 C   0  0  0  0  0  0  0  0  0  0  0  0
  147.4918  138.6504  154.5136 C   0  0  0  0  0  0  0  0  0  0  0  0
  148.7886  137.8857  154.3551 N   0  3  0  0  0  0  0  0  0  0  0  0
  150.0277  138.7181  154.3430 C   0  0  0  0  0  0  0  0  0  0  0  0
  151.2630  137.8621  154.0154 C   0  0  0  0  0  0  0  0  0  0  0  0
  151.3788  136.8009  154.9509 O   0  0  0  0  0  0  0  0  0  0  0  0
  150.2531  135.9383  154.8990 C   0  0  0  0  0  0  0  0  0  0  0  0
  148.9863  136.7236  155.2745 C   0  0  0  0  0  0  0  0  0  0  0  0
  147.7638  140.1670  154.7557 C   0  0  0  0  0  0  0  0  0  0  0  0
  146.9192  140.5863  155.9601 C   0  0  0  0  0  0  0  0  0  0  0  0
  146.8489  139.3282  156.8159 C   0  0  0  0  0  0  0  0  0  0  0  0
  146.7146  138.1990  155.7932 C   0  0  0  0  0  0  0  0  0  0  0  0
  146.5448  140.5311  152.5648 H   0  0  0  0  0  0  0  0  0  0  0  0
  146.0884  139.3702  151.3339 H   0  0  0  0  0  0  0  0  0  0  0  0
  147.7787  139.5499  151.7813 H   0  0  0  0  0  0  0  0  0  0  0  0
  145.5335  138.4902  153.5588 H   0  0  0  0  0  0  0  0  0  0  0  0
  147.7318  136.8183  152.5554 H   0  0  0  0  0  0  0  0  0  0  0  0
  147.3699  135.1528  151.6419 H   0  0  0  0  0  0  0  0  0  0  0  0
  147.5934  133.0266  150.7665 H   0  0  0  0  0  0  0  0  0  0  0  0
  146.5003  131.0187  149.7612 H   0  0  0  0  0  0  0  0  0  0  0  0
  142.7323  132.6574  150.1771 H   0  0  0  0  0  0  0  0  0  0  0  0
  143.6219  134.7256  151.2065 H   0  0  0  0  0  0  0  0  0  0  0  0
  149.9829  139.5046  153.5942 H   0  0  0  0  0  0  0  0  0  0  0  0
  150.1654  139.2050  155.3089 H   0  0  0  0  0  0  0  0  0  0  0  0
  151.2033  137.4647  153.0007 H   0  0  0  0  0  0  0  0  0  0  0  0
  152.1652  138.4720  154.0636 H   0  0  0  0  0  0  0  0  0  0  0  0
  150.1594  135.4942  153.9065 H   0  0  0  0  0  0  0  0  0  0  0  0
  150.4071  135.1184  155.6008 H   0  0  0  0  0  0  0  0  0  0  0  0
  149.0729  137.0588  156.3074 H   0  0  0  0  0  0  0  0  0  0  0  0
  148.1538  136.0250  155.2452 H   0  0  0  0  0  0  0  0  0  0  0  0
  148.8065  140.3627  154.9984 H   0  0  0  0  0  0  0  0  0  0  0  0
  147.5510  140.7833  153.8820 H   0  0  0  0  0  0  0  0  0  0  0  0
  147.3458  141.4345  156.4961 H   0  0  0  0  0  0  0  0  0  0  0  0
  145.9176  140.8696  155.6337 H   0  0  0  0  0  0  0  0  0  0  0  0
  147.7719  139.2159  157.3853 H   0  0  0  0  0  0  0  0  0  0  0  0
  146.0211  139.3512  157.5254 H   0  0  0  0  0  0  0  0  0  0  0  0
  145.6502  138.0792  155.5966 H   0  0  0  0  0  0  0  0  0  0  0  0
  147.0185  137.2292  156.1848 H   0  0  0  0  0  0  0  0  0  0  0  0
  148.7317  137.4804  153.4316 H   0  0  0  0  0  0  0  0  0  0  0  0
  1  2  1  0  0  0  0
  1 24  1  0  0  0  0
  1 25  1  0  0  0  0
  1 26  1  0  0  0  0
  2  3  1  0  0  0  0
  2 13  1  0  0  0  0
  2 27  1  0  0  0  0
  3  4  1  0  0  0  0
  3 28  1  0  0  0  0
  4  5  2  0  0  0  0
  4  6  1  0  0  0  0
  6  7  1  0  0  0  0
  6 29  1  0  0  0  0
  7 12  1  0  0  0  0
  7  8  2  0  0  0  0
  8  9  1  0  0  0  0
  8 30  1  0  0  0  0
  9 10  2  0  0  0  0
  9 31  1  0  0  0  0
 10 11  1  0  0  0  0
 11 12  2  0  0  0  0
 11 32  1  0  0  0  0
 12 33  1  0  0  0  0
 13 23  1  0  0  0  0
 13 14  1  0  0  0  0
 13 20  1  0  0  0  0
 14 19  1  0  0  0  0
 14 15  1  0  0  0  0
 14 50  1  0  0  0  0
 15 16  1  0  0  0  0
 15 34  1  0  0  0  0
 15 35  1  0  0  0  0
 16 17  1  0  0  0  0
 16 36  1  0  0  0  0
 16 37  1  0  0  0  0
 17 18  1  0  0  0  0
 18 19  1  0  0  0  0
 18 38  1  0  0  0  0
 18 39  1  0  0  0  0
 19 40  1  0  0  0  0
 19 41  1  0  0  0  0
 20 21  1  0  0  0  0
 20 42  1  0  0  0  0
 20 43  1  0  0  0  0
 21 22  1  0  0  0  0
 21 44  1  0  0  0  0
 21 45  1  0  0  0  0
 22 23  1  0  0  0  0
 22 46  1  0  0  0  0
 22 47  1  0  0  0  0
 23 48  1  0  0  0  0
 23 49  1  0  0  0  0
M  CHG  1  14   1
M  END
> <s_m_source_file>
AV-unprocessed.smi

> <i_m_source_file_index>
702

> <i_lp_mmshare_version>
43012

> <i_f3d_flags>
0

> <s_epik_input>
W0NIMl0xW0NIMl1PW0NIMl1bQ0gyXU4xQzIoW0NIMl1bQ0gyXVtDSDJdW0NIMl0yKVtDQEhdKFtDSDNdKVtOSF1DKD1PKVtOSF1jM1tjSF1bY0hdbltjSF1bY0hdMw==

> <s_epik_cmdline>
J2VwaWtfcHl0aG9uJywgJy1waCcsICc3LjAnLCAnLXRuJywgJzgnLCAnLW1hJywgJzIwMCcsICctbWV0YWxfYmluZGluZycsICctaW1hZScsICc8aW5maWxlLm1hZT4nLCAnLW9tYWUnLCAnPG91dGZpbGUubWFlPic=

> <r_epik_Ionization_Penalty>
0.42559

> <r_epik_Ionization_Penalty_Charging>
0.324387

> <r_epik_Ionization_Penalty_Neutral>
0.101203

> <r_epik_State_Penalty>
0.407162

> <r_epik_Charging_Adjusted_Penalty>
0.731549

> <i_epik_Tot_Q>
1

> <i_epik_Tot_abs_Q>
1

> <r_epik_Metal_State_Penalty>
0.398289

> <b_epik_Metal_Only>
0

> <s_lp_Force_Field>
OPLS_2005

> <r_lp_Energy>
55.6583

> <b_lp_Chiralities_Consistent>
1

> <s_lp_Variant>
AV-unprocessed.smi:702-2

> <Gold.Version>
5.8.1

> <Gold.Id.Protein>
6NUR|6NUR_protein|mol2

> <Gold.PLP.Fitness>
45.6746

> <Gold.PLP.PLP>
-33.5907

> <Gold.PLP.part.hbond>
-4.6613

> <Gold.PLP.part.metal>
0.0000

> <Gold.PLP.part.buried>
-2.9558

> <Gold.PLP.part.nonpolar>
-27.4328

> <Gold.PLP.part.repulsive>
0.5714

> <Gold.PLP.ligand.clash>
1.1080

> <Gold.PLP.ligand.torsion>
3.6693

> <Gold.PLP.Chemscore.Hbond>
4.9466

> <Gold.PLP.Chemscore.CHOScore>
1.8508

> <Gold.PLP.Chemscore.Metal>
0.0000

> <Gold.Chemscore.Hbonds>
donor molecule, donor type, donor heavy atom, donor atom, acceptor molecule, acceptor atom, score
      L1  H     3    28       P1  7948  0.98
      L1  H     6    29       P1  7948  0.88
      L1  H    14    50       P1  7948  2.00
      P1  H 10752 10765       L1    17  1.00
      P1  H 10785 10796       L1    10  0.03
      L1  C     9    31       P1 10747  0.86
      L1  C    11    32       P1 10186  0.95

> <Gold.PLP.Chemscore.Internal.Correction>
0.1382

> <Gold.Rescore>
     Score         DG    S(hbond)    S(metal)    S(lipo)     H(rot)  DE(clash)    DE(int)     intcor
     18.59     -23.98       3.57        0.00      88.12       1.45       0.71       4.68       ----

> <Gold.Chemscore.Fitness>
18.5891

> <Gold.Chemscore.DG>
-23.9842

> <Gold.Chemscore.ZeroCoef>
-5.4800

> <Gold.Chemscore.Hbond>
3.5651

> <Gold.Chemscore.Metal>
0.0000

> <Gold.Chemscore.Lipo>
88.1166

> <Gold.Chemscore.Internal_Hbond>
0.0000

> <Gold.Chemscore.DEClash>
0.7124

> <Gold.Chemscore.DEInternal>
4.6827

> <Gold.Chemscore.Rot>
1.4504

> <Gold.Chemscore.Internal.Correction>
   9.000000E+99

> <Gold.Chemscore.Hbonds>
donor molecule, donor type, donor heavy atom, donor atom, acceptor molecule, acceptor atom, score
      L1  H     3    28       P1  7948  0.89
      L1  H     6    29       P1  7948  0.76
      L1  H    14    50       P1  7948  0.96
      P1  H 10752 10765       L1    17  0.35
      P1  H 10785 10796       L1    10  0.04

> <Gold.Chemscore.Hbond.Weighted>
-11.9075

> <Gold.Chemscore.Metal.Weighted>
-0.0000

> <Gold.Chemscore.Lipo.Weighted>
-10.3096

> <Gold.Chemscore.Internal_Hbond.Weighted>
0.0000

> <Gold.Chemscore.DEClash.Weighted>
0.7124

> <Gold.Chemscore.DEInternal.Weighted>
4.6827

> <Gold.Chemscore.Rot.Weighted>
3.7129

> <Gold.Chemscore.Internal.Correction.Weighted>
   9.000000E+99

> <Gold.Protein.RotatedTorsions>
[ 6907 6896 6895 6894 ] final   18.50 input  -60.11 | X-H torsion
[ 7974 7965 7964 7962 ] final  -15.10 input  175.53 | X-H torsion
[ 8008 7997 7996 7995 ] final  -14.49 input   59.86 | X-H torsion
[ 10167 10162 10161 10158 ] final  -31.38 input  -65.29 | X-H torsion
[ 10718 10713 10712 10709 ] final  168.14 input   66.30 | X-H torsion
[ 10763 10752 10751 10750 ] final  177.67 input  -60.55 | X-H torsion
[ 11005 11000 10999 10996 ] final  102.17 input  -57.11 | X-H torsion

> <Gold.Protein.ActiveResidues>
 VAL166  LYS551  ARG553  GLY616  TRP617  ASP618  TYR619  PRO620  LYS621  CYS622 
 ASP623  PHE694  ASN695  SER759  ASP760  ASP761  ALA762  ILE779  LEU786  VAL792 
 PHE793  MET794  SER795  GLU796  ALA797  LYS798  CYS799  TRP800  GLU811  SER814 

> <Gold.Protein.RotatedAtoms>
  151.8663  135.0506  160.0474 H   0  0  0  0  0  0  0  0  0  0  0  0  # atno 6907 bound_to 6896
  152.2624  133.5304  159.5398 H   0  0  0  0  0  0  0  0  0  0  0  0  # atno 6908 bound_to 6896
  150.7121  134.0728  159.3913 H   0  0  0  0  0  0  0  0  0  0  0  0  # atno 6909 bound_to 6896
  146.2046  140.3445  142.8411 H   0  0  0  0  0  0  0  0  0  0  0  0  # atno 7974 bound_to 7965
  154.5206  140.2221  155.8983 H   0  0  0  0  0  0  0  0  0  0  0  0  # atno 8008 bound_to 7997
  156.1658  140.3132  155.8850 H   0  0  0  0  0  0  0  0  0  0  0  0  # atno 8009 bound_to 7997
  155.3660  140.0464  157.3036 H   0  0  0  0  0  0  0  0  0  0  0  0  # atno 8010 bound_to 7997
  140.7237  143.3775  151.1662 H   0  0  0  0  0  0  0  0  0  0  0  0  # atno 10167 bound_to 10162
  157.0415  131.0288  151.2712 H   0  0  0  0  0  0  0  0  0  0  0  0  # atno 10718 bound_to 10713
  154.4976  135.2782  155.1447 H   0  0  0  0  0  0  0  0  0  0  0  0  # atno 10763 bound_to 10752
  154.3093  135.6232  153.5462 H   0  0  0  0  0  0  0  0  0  0  0  0  # atno 10764 bound_to 10752
  152.9897  135.5716  154.5411 H   0  0  0  0  0  0  0  0  0  0  0  0  # atno 10765 bound_to 10752
  139.8776  134.9213  156.5018 H   0  0  0  0  0  0  0  0  0  0  0  0  # atno 11005 bound_to 11000
  144.8762  140.7340  143.6015 LP  0  0  0  0  0  0  0  0  0  0  0  0  # atno 17320 bound_to 7965
  145.3364  139.1744  143.4509 LP  0  0  0  0  0  0  0  0  0  0  0  0  # atno 17321 bound_to 7965
  139.7358  143.9002  152.3034 LP  0  0  0  0  0  0  0  0  0  0  0  0  # atno 17342 bound_to 10162
  139.8806  144.7020  150.8882 LP  0  0  0  0  0  0  0  0  0  0  0  0  # atno 17343 bound_to 10162
  157.5101  130.7933  149.7696 LP  0  0  0  0  0  0  0  0  0  0  0  0  # atno 17370 bound_to 10713
  156.0037  130.3867  150.2511 LP  0  0  0  0  0  0  0  0  0  0  0  0  # atno 17371 bound_to 10713
  140.8584  133.8078  155.9239 LP  0  0  0  0  0  0  0  0  0  0  0  0  # atno 17394 bound_to 11000
  140.9074  134.2303  157.5006 LP  0  0  0  0  0  0  0  0  0  0  0  0  # atno 17395 bound_to 11000

$$$$
