AV-unprocessed.smi:1487|AV-procd|sdf|6011|dock7
  -GOLD-   22720 6113D 1   1.00000     0.00000
 Structure written by MMmdl.
 48 50  0  0  0  0  0  0  0  0  2 V2000
  153.3973  142.6103  161.7075 C   0  0  0  0  0  0  0  0  0  0  0  0
  152.7663  142.3020  160.3612 C   0  0  0  0  0  0  0  0  0  0  0  0
  152.9160  141.0085  159.8127 C   0  0  0  0  0  0  0  0  0  0  0  0
  152.3435  140.6807  158.5643 C   0  0  0  0  0  0  0  0  0  0  0  0
  152.3650  139.4953  157.8496 N   0  0  0  0  0  0  0  0  0  0  0  0
  151.6565  139.8186  156.7724 C   0  0  0  0  0  0  0  0  0  0  0  0
  151.1819  141.0770  156.7009 N   0  0  0  0  0  0  0  0  0  0  0  0
  150.3912  141.6503  155.6261 C   0  0  0  0  0  0  0  0  0  0  0  0
  149.5160  140.5996  154.9168 C   0  0  2  0  0  0  0  0  0  0  0  0
  150.3023  139.8957  153.9745 O   0  0  0  0  0  0  0  0  0  0  0  0
  148.3291  141.2484  154.1782 C   0  0  0  0  0  0  0  0  0  0  0  0
  147.3946  141.9360  155.1054 N   0  3  1  0  0  0  0  0  0  0  0  0
  146.1344  142.3754  154.4504 C   0  0  0  0  0  0  0  0  0  0  0  0
  145.2898  143.2331  155.4048 C   0  0  0  0  0  0  0  0  0  0  0  0
  144.9827  142.4710  156.7019 C   0  0  0  0  0  0  0  0  0  0  0  0
  146.2718  141.9338  157.3464 C   0  0  2  0  0  0  0  0  0  0  0  0
  147.0325  142.9950  157.8888 O   0  0  0  0  0  0  0  0  0  0  0  0
  147.1302  141.1461  156.3370 C   0  0  0  0  0  0  0  0  0  0  0  0
  151.6119  141.6905  157.8731 C   0  0  0  0  0  0  0  0  0  0  0  0
  151.4580  142.9819  158.4077 C   0  0  0  0  0  0  0  0  0  0  0  0
  152.0356  143.2923  159.6568 C   0  0  0  0  0  0  0  0  0  0  0  0
  151.8612  144.6885  160.2274 C   0  0  0  0  0  0  0  0  0  0  0  0
  153.8826  141.7304  162.1309 H   0  0  0  0  0  0  0  0  0  0  0  0
  152.6415  142.9477  162.4170 H   0  0  0  0  0  0  0  0  0  0  0  0
  154.1509  143.3915  161.6050 H   0  0  0  0  0  0  0  0  0  0  0  0
  153.4734  140.2544  160.3487 H   0  0  0  0  0  0  0  0  0  0  0  0
  151.4741  139.0997  155.9869 H   0  0  0  0  0  0  0  0  0  0  0  0
  149.7661  142.4381  156.0489 H   0  0  0  0  0  0  0  0  0  0  0  0
  151.0620  142.1350  154.9153 H   0  0  0  0  0  0  0  0  0  0  0  0
  149.1586  139.8880  155.6606 H   0  0  0  0  0  0  0  0  0  0  0  0
  149.7977  139.7862  153.1821 H   0  0  0  0  0  0  0  0  0  0  0  0
  148.6825  141.9616  153.4320 H   0  0  0  0  0  0  0  0  0  0  0  0
  147.8017  140.4696  153.6247 H   0  0  0  0  0  0  0  0  0  0  0  0
  146.3529  142.9554  153.5545 H   0  0  0  0  0  0  0  0  0  0  0  0
  145.5655  141.5017  154.1278 H   0  0  0  0  0  0  0  0  0  0  0  0
  145.8218  144.1574  155.6342 H   0  0  0  0  0  0  0  0  0  0  0  0
  144.3594  143.5263  154.9178 H   0  0  0  0  0  0  0  0  0  0  0  0
  144.4400  143.1095  157.4001 H   0  0  0  0  0  0  0  0  0  0  0  0
  144.3215  141.6337  156.4747 H   0  0  0  0  0  0  0  0  0  0  0  0
  146.0088  141.2780  158.1770 H   0  0  0  0  0  0  0  0  0  0  0  0
  147.1715  143.6426  157.2141 H   0  0  0  0  0  0  0  0  0  0  0  0
  146.6209  140.2210  156.0618 H   0  0  0  0  0  0  0  0  0  0  0  0
  148.0719  140.8575  156.8069 H   0  0  0  0  0  0  0  0  0  0  0  0
  150.9003  143.7281  157.8613 H   0  0  0  0  0  0  0  0  0  0  0  0
  151.3049  145.3309  159.5442 H   0  0  0  0  0  0  0  0  0  0  0  0
  152.8311  145.1527  160.4076 H   0  0  0  0  0  0  0  0  0  0  0  0
  151.3150  144.6497  161.1701 H   0  0  0  0  0  0  0  0  0  0  0  0
  147.8734  142.7704  155.4152 H   0  0  0  0  0  0  0  0  0  0  0  0
  1  2  1  0  0  0  0
  1 23  1  0  0  0  0
  1 24  1  0  0  0  0
  1 25  1  0  0  0  0
  2 21  1  0  0  0  0
  2  3  2  0  0  0  0
  3  4  1  0  0  0  0
  3 26  1  0  0  0  0
  4 19  2  0  0  0  0
  4  5  1  0  0  0  0
  5  6  2  0  0  0  0
  6  7  1  0  0  0  0
  6 27  1  0  0  0  0
  7  8  1  0  0  0  0
  7 19  1  0  0  0  0
  8  9  1  0  0  0  0
  8 28  1  0  0  0  0
  8 29  1  0  0  0  0
  9 10  1  0  0  0  0
  9 11  1  0  0  0  0
  9 30  1  0  0  0  0
 10 31  1  0  0  0  0
 11 12  1  0  0  0  0
 11 32  1  0  0  0  0
 11 33  1  0  0  0  0
 12 18  1  0  0  0  0
 12 13  1  0  0  0  0
 12 48  1  0  0  0  0
 13 14  1  0  0  0  0
 13 34  1  0  0  0  0
 13 35  1  0  0  0  0
 14 15  1  0  0  0  0
 14 36  1  0  0  0  0
 14 37  1  0  0  0  0
 15 16  1  0  0  0  0
 15 38  1  0  0  0  0
 15 39  1  0  0  0  0
 16 17  1  0  0  0  0
 16 18  1  0  0  0  0
 16 40  1  0  0  0  0
 17 41  1  0  0  0  0
 18 42  1  0  0  0  0
 18 43  1  0  0  0  0
 19 20  1  0  0  0  0
 20 21  2  0  0  0  0
 20 44  1  0  0  0  0
 21 22  1  0  0  0  0
 22 45  1  0  0  0  0
 22 46  1  0  0  0  0
 22 47  1  0  0  0  0
M  CHG  1  12   1
M  END
> <s_m_source_file>
AV-unprocessed.smi

> <i_m_source_file_index>
1487

> <i_lp_mmshare_version>
43012

> <i_f3d_flags>
0

> <s_epik_input>
W0NIM11jKFtjSF0xKWMoW0NIM10pW2NIXWMoYzEyKW4oW2NIXW4yKVtDSDJdW0NASF0oW09IXSlbQ0gyXU4zW0NIMl1bQ0gyXVtDSDJdW0NAQEhdKFtPSF0pW0NIMl0z

> <s_epik_cmdline>
J2VwaWtfcHl0aG9uJywgJy1waCcsICc3LjAnLCAnLXRuJywgJzgnLCAnLW1hJywgJzIwMCcsICctbWV0YWxfYmluZGluZycsICctaW1hZScsICc8aW5maWxlLm1hZT4nLCAnLW9tYWUnLCAnPG91dGZpbGUubWFlPic=

> <r_epik_Ionization_Penalty>
0.0940186

> <r_epik_Ionization_Penalty_Charging>
0.00679686

> <r_epik_Ionization_Penalty_Neutral>
0.0872218

> <r_epik_State_Penalty>
0.0799311

> <r_epik_Charging_Adjusted_Penalty>
0.086728

> <i_epik_Tot_Q>
1

> <i_epik_Tot_abs_Q>
1

> <r_epik_Metal_State_Penalty>
7.95545e-05

> <b_epik_Metal_Only>
0

> <s_lp_Force_Field>
OPLS_2005

> <r_lp_Energy>
22.5409

> <b_lp_Chiralities_Consistent>
1

> <s_lp_Variant>
AV-unprocessed.smi:1487-5

> <Gold.Version>
5.8.1

> <Gold.Id.Protein>
6NUR|6NUR_protein|mol2

> <Gold.PLP.Fitness>
59.5961

> <Gold.PLP.PLP>
-48.9289

> <Gold.PLP.part.hbond>
-4.6460

> <Gold.PLP.part.metal>
0.0000

> <Gold.PLP.part.buried>
-5.2600

> <Gold.PLP.part.nonpolar>
-38.5515

> <Gold.PLP.part.repulsive>
0.0953

> <Gold.PLP.ligand.clash>
0.0000

> <Gold.PLP.ligand.torsion>
0.6872

> <Gold.PLP.Chemscore.Hbond>
4.0000

> <Gold.PLP.Chemscore.CHOScore>
0.0000

> <Gold.PLP.Chemscore.Metal>
0.0000

> <Gold.Chemscore.Hbonds>
donor molecule, donor type, donor heavy atom, donor atom, acceptor molecule, acceptor atom, score
      L1  H    10    31       P1  7957  0.97
      L1  H    12    48       P1  8028  1.24
      P1  H  7989  7998       L1    10  1.00
      P1  H  7997  8010       L1     5  0.04

> <Gold.PLP.Chemscore.Internal.Correction>
0.0417

> <Gold.Rescore>
     Score         DG    S(hbond)    S(metal)    S(lipo)     H(rot)  DE(clash)    DE(int)     intcor
     18.24     -19.14       2.14        0.00     114.23       2.67       0.11       0.79       ----

> <Gold.Chemscore.Fitness>
18.2423

> <Gold.Chemscore.DG>
-19.1397

> <Gold.Chemscore.ZeroCoef>
-5.4800

> <Gold.Chemscore.Hbond>
2.1357

> <Gold.Chemscore.Metal>
0.0000

> <Gold.Chemscore.Lipo>
114.2301

> <Gold.Chemscore.Internal_Hbond>
0.0000

> <Gold.Chemscore.DEClash>
0.1061

> <Gold.Chemscore.DEInternal>
0.7914

> <Gold.Chemscore.Rot>
2.6712

> <Gold.Chemscore.Internal.Correction>
   9.000000E+99

> <Gold.Chemscore.Hbonds>
donor molecule, donor type, donor heavy atom, donor atom, acceptor molecule, acceptor atom, score
      L1  H    10    31       P1  7957  0.85
      L1  H    12    48       P1  8028  0.50
      P1  H  7989  7998       L1    10  0.28

> <Gold.Chemscore.Hbond.Weighted>
-7.1331

> <Gold.Chemscore.Metal.Weighted>
-0.0000

> <Gold.Chemscore.Lipo.Weighted>
-13.3649

> <Gold.Chemscore.Internal_Hbond.Weighted>
0.0000

> <Gold.Chemscore.DEClash.Weighted>
0.1061

> <Gold.Chemscore.DEInternal.Weighted>
0.7914

> <Gold.Chemscore.Rot.Weighted>
6.8383

> <Gold.Chemscore.Internal.Correction.Weighted>
   9.000000E+99

> <Gold.Protein.RotatedTorsions>
[ 6907 6896 6895 6894 ] final -165.27 input  -60.11 | X-H torsion
[ 7974 7965 7964 7962 ] final  -81.99 input  175.53 | X-H torsion
[ 8008 7997 7996 7995 ] final   51.92 input   59.86 | X-H torsion
[ 10167 10162 10161 10158 ] final  168.89 input  -65.29 | X-H torsion
[ 10718 10713 10712 10709 ] final   45.32 input   66.30 | X-H torsion
[ 10763 10752 10751 10750 ] final  -25.21 input  -60.55 | X-H torsion
[ 11005 11000 10999 10996 ] final  -94.46 input  -57.11 | X-H torsion

> <Gold.Protein.ActiveResidues>
 VAL166  LYS551  ARG553  GLY616  TRP617  ASP618  TYR619  PRO620  LYS621  CYS622 
 ASP623  PHE694  ASN695  SER759  ASP760  ASP761  ALA762  ILE779  LEU786  VAL792 
 PHE793  MET794  SER795  GLU796  ALA797  LYS798  CYS799  TRP800  GLU811  SER814 

> <Gold.Protein.RotatedAtoms>
  151.4250  133.3687  159.2760 H   0  0  0  0  0  0  0  0  0  0  0  0  # atno 6907 bound_to 6896
  150.9266  134.8684  159.7535 H   0  0  0  0  0  0  0  0  0  0  0  0  # atno 6908 bound_to 6896
  152.5008  134.4191  159.9526 H   0  0  0  0  0  0  0  0  0  0  0  0  # atno 6909 bound_to 6896
  145.5393  140.9511  143.1560 H   0  0  0  0  0  0  0  0  0  0  0  0  # atno 7974 bound_to 7965
  155.4432  140.3455  155.4292 H   0  0  0  0  0  0  0  0  0  0  0  0  # atno 8008 bound_to 7997
  156.1266  140.1502  156.9157 H   0  0  0  0  0  0  0  0  0  0  0  0  # atno 8009 bound_to 7997
  154.4863  140.0854  156.7473 H   0  0  0  0  0  0  0  0  0  0  0  0  # atno 8010 bound_to 7997
  139.4979  144.3765  151.9668 H   0  0  0  0  0  0  0  0  0  0  0  0  # atno 10167 bound_to 10162
  157.4362  130.8054  149.7650 H   0  0  0  0  0  0  0  0  0  0  0  0  # atno 10718 bound_to 10713
  153.6961  135.6959  153.5076 H   0  0  0  0  0  0  0  0  0  0  0  0  # atno 10763 bound_to 10752
  153.2377  135.4316  155.0663 H   0  0  0  0  0  0  0  0  0  0  0  0  # atno 10764 bound_to 10752
  154.8358  135.3500  154.6502 H   0  0  0  0  0  0  0  0  0  0  0  0  # atno 10765 bound_to 10752
  141.1470  133.7958  157.0301 H   0  0  0  0  0  0  0  0  0  0  0  0  # atno 11005 bound_to 11000
  144.7585  139.7014  143.7244 LP  0  0  0  0  0  0  0  0  0  0  0  0  # atno 17320 bound_to 7965
  146.1992  139.5276  142.9754 LP  0  0  0  0  0  0  0  0  0  0  0  0  # atno 17321 bound_to 7965
  140.3202  144.3437  150.6011 LP  0  0  0  0  0  0  0  0  0  0  0  0  # atno 17342 bound_to 10162
  140.5729  143.2179  151.7567 LP  0  0  0  0  0  0  0  0  0  0  0  0  # atno 17343 bound_to 10162
  155.9931  130.3926  150.2912 LP  0  0  0  0  0  0  0  0  0  0  0  0  # atno 17370 bound_to 10713
  157.1073  131.0212  151.3062 LP  0  0  0  0  0  0  0  0  0  0  0  0  # atno 17371 bound_to 10713
  140.0760  134.9675  157.1545 LP  0  0  0  0  0  0  0  0  0  0  0  0  # atno 17394 bound_to 11000
  140.3644  134.2459  155.7184 LP  0  0  0  0  0  0  0  0  0  0  0  0  # atno 17395 bound_to 11000

$$$$
