#       Name:                AV-unprocessed.smi:283
#       Creating user name   scv26
#       Creation time:       Thu Mar 26 21:49:05 2020


#       File generated by GOLD software.
#

@<TRIPOS>MOLECULE
AV-unprocessed.smi:283
    59    62     1
SMALL
NO_CHARGES


@<TRIPOS>ATOM
      1 ****        -3.9395   1.1139  -1.2374 C.3            1 S1                 0.0000
      2 ****        -3.5601   1.0163   0.2515 C.3            1 S1                 0.0000
      3 ****        -2.4859   0.0466   0.4641 N.pl3          1 S1                 0.0000
      4 ****        -1.2034   0.3173   0.1340 C.ar           1 S1                 0.0000
      5 ****        -0.8355   1.5375  -0.3359 N.ar           1 S1                 0.0000
      6 ****         0.4404   1.7743  -0.6526 C.ar           1 S1                 0.0000
      7 ****         1.4864   0.9494  -0.5718 N.ar           1 S1                 0.0000
      8 ****         1.1268  -0.2766  -0.0926 C.ar           1 S1                 0.0000
      9 ****        -0.1908  -0.6659   0.2795 C.ar           1 S1                 0.0000
     10 ****        -0.1865  -1.9817   0.7212 N.2            1 S1                 0.0000
     11 ****         1.0628  -2.3454   0.6140 C.2            1 S1                 0.0000
     12 ****         1.9246  -1.3815   0.1380 N.pl3          1 S1                 0.0000
     13 ****         3.3958  -1.5312  -0.1007 C.3            1 S1                 0.0000
     14 ****         3.6447  -1.2779  -1.4527 O.3            1 S1                 0.0000
     15 ****         4.4969  -0.1453  -1.6022 C.3            1 S1                 0.0000
     16 ****         5.3204  -0.2477  -2.8987 C.3            1 S1                 0.0000
     17 ****         6.1045   0.9130  -3.0762 O.3            1 S1                 0.0000
     18 ****         5.2742  -0.0827  -0.2803 C.3            1 S1                 0.0000
     19 ****         6.3957  -0.9523  -0.3160 O.3            1 S1                 0.0000
     20 ****         4.2187  -0.5305   0.7267 C.3            1 S1                 0.0000
     21 ****         4.8088  -1.1021   1.8785 O.3            1 S1                 0.0000
     22 ****        -4.8027   0.7061   1.0846 C.ar           1 S1                 0.0000
     23 ****        -5.1921  -0.6374   1.2986 C.ar           1 S1                 0.0000
     24 ****        -6.3389  -0.9417   2.0558 C.ar           1 S1                 0.0000
     25 ****        -7.1148   0.0952   2.6037 C.ar           1 S1                 0.0000
     26 ****        -6.7450   1.4352   2.3876 C.ar           1 S1                 0.0000
     27 ****        -5.5981   1.7463   1.6295 C.ar           1 S1                 0.0000
     28 ****        -5.2046   3.4122   1.3829 Cl             1 S1                 0.0000
     29 ****         3.6212  -2.5749   0.1224 H              1 S1                 0.0000
     30 ****         3.8601   0.7365  -1.6683 H              1 S1                 0.0000
     31 ****         5.6310   0.9259  -0.0681 H              1 S1                 0.0000
     32 ****         3.5989   0.3189   1.0143 H              1 S1                 0.0000
     33 ****        -4.7047   1.8746  -1.3947 H              1 S1                 0.0000
     34 ****        -4.3334   0.1670  -1.6080 H              1 S1                 0.0000
     35 ****        -3.0860   1.3829  -1.8592 H              1 S1                 0.0000
     36 ****        -3.1789   1.9830   0.5785 H              1 S1                 0.0000
     37 ****        -2.7748  -0.8459   0.8379 H              1 S1                 0.0000
     38 ****         0.6538   2.7663  -1.0226 H              1 S1                 0.0000
     39 ****         1.3933  -3.3382   0.8834 H              1 S1                 0.0000
     40 ****         5.9611  -1.1297  -2.9002 H              1 S1                 0.0000
     41 ****         4.6514  -0.3440  -3.7541 H              1 S1                 0.0000
     42 ****         6.5681   0.8404  -3.8969 H              1 S1                 0.0000
     43 ****         6.9953  -0.6373  -0.9754 H              1 S1                 0.0000
     44 ****         5.4262  -1.7606   1.5975 H              1 S1                 0.0000
     45 ****        -4.6162  -1.4490   0.8787 H              1 S1                 0.0000
     46 ****        -6.6242  -1.9714   2.2138 H              1 S1                 0.0000
     47 ****        -7.9954  -0.1367   3.1843 H              1 S1                 0.0000
     48 ****        -7.3478   2.2291   2.8032 H              1 S1                 0.0000
     49 ****        -1.5198   2.2585  -0.4447 LP             1 S1                 0.0000
     50 ****         2.4194   1.1992  -0.8307 LP             1 S1                 0.0000
     51 ****        -0.9606  -2.5250   1.0461 LP             1 S1                 0.0000
     52 ****         2.7779  -1.1008  -1.9189 LP             1 S1                 0.0000
     53 ****         4.0856  -2.0772  -1.8611 LP             1 S1                 0.0000
     54 ****         6.7596   0.9953  -2.3251 LP             1 S1                 0.0000
     55 ****         5.5136   1.7196  -3.0930 LP             1 S1                 0.0000
     56 ****         6.0977  -1.8790  -0.5451 LP             1 S1                 0.0000
     57 ****         6.8472  -0.9584   0.5762 LP             1 S1                 0.0000
     58 ****         4.1021  -1.5216   2.4484 LP             1 S1                 0.0000
     59 ****         5.2831  -0.3947   2.4025 LP             1 S1                 0.0000
@<TRIPOS>BOND
    1    1    2 1     
    2    1   33 1     
    3    1   34 1     
    4    1   35 1     
    5    2    3 1     
    6    2   22 1     
    7    2   36 1     
    8    3    4 1     
    9    3   37 1     
   10    4    9 ar    
   11    4    5 ar    
   12    5    6 ar    
   13    6    7 ar    
   14    6   38 1     
   15    7    8 ar    
   16    8   12 1     
   17    8    9 ar    
   18    9   10 1     
   19   10   11 2     
   20   11   12 1     
   21   11   39 1     
   22   12   13 1     
   23   13   29 1     
   24   13   20 1     
   25   13   14 1     
   26   14   15 1     
   27   15   30 1     
   28   15   16 1     
   29   15   18 1     
   30   16   17 1     
   31   16   40 1     
   32   16   41 1     
   33   17   42 1     
   34   18   31 1     
   35   18   19 1     
   36   18   20 1     
   37   19   43 1     
   38   20   32 1     
   39   20   21 1     
   40   21   44 1     
   41   22   27 ar    
   42   22   23 ar    
   43   23   24 ar    
   44   23   45 1     
   45   24   25 ar    
   46   24   46 1     
   47   25   26 ar    
   48   25   47 1     
   49   26   27 ar    
   50   26   48 1     
   51   27   28 1     
   52    5   49 1     
   53    7   50 1     
   54   10   51 1     
   55   14   52 1     
   56   14   53 1     
   57   17   54 1     
   58   17   55 1     
   59   19   56 1     
   60   19   57 1     
   61   21   58 1     
   62   21   59 1     
@<TRIPOS>SUBSTRUCTURE
      1 S1             1
@<TRIPOS>SET
LONE_PAIRS      STATIC     ATOMS    <user>   **** ""
11 49 50 51 52 53 54 55 56 57 58 59
DONOR_HYDROGENS      STATIC     ATOMS    <user>   **** ""
4 37 42 43 44
ATOM$BLUE        STATIC     ATOMS    COLORGROUP SYSTEM
11 49 50 51 52 53 54 55 56 57 58 59
ATOM$RED        STATIC     ATOMS    COLORGROUP SYSTEM
4 37 42 43 44
