AV-unprocessed.smi:1439|AV-procd|sdf|5869|dock10
  -GOLD-   22720 5543D 1   1.00000     0.00000
 Structure written by MMmdl.
 36 37  0  0  0  0  0  0  0  0  1 V2000
  144.5449  135.9011  149.7449 N   0  0  0  0  0  0  0  0  0  0  0  0
  144.2157  135.0556  150.7253 C   0  0  0  0  0  0  0  0  0  0  0  0
  143.7036  135.4354  151.7762 O   0  0  0  0  0  0  0  0  0  0  0  0
  144.5075  133.5712  150.4967 C   0  0  0  0  0  0  0  0  0  0  0  0
  145.6412  133.1198  151.3720 C   0  0  0  0  0  0  0  0  0  0  0  0
  146.0868  131.8307  151.5431 C   0  0  0  0  0  0  0  0  0  0  0  0
  147.4307  131.7424  152.6488 S   0  0  0  0  0  0  0  0  0  0  0  0
  147.3274  133.4928  152.8467 C   0  0  0  0  0  0  0  0  0  0  0  0
  148.1388  134.3164  153.6661 N   0  0  0  0  0  0  0  0  0  0  0  0
  148.5179  134.1011  154.9379 C   0  0  0  0  0  0  0  0  0  0  0  0
  148.2009  133.1149  155.6028 O   0  0  0  0  0  0  0  0  0  0  0  0
  149.3983  135.1891  155.5605 C   0  0  0  0  0  0  0  0  0  0  0  0
  150.5692  135.6050  154.6514 C   0  0  0  0  0  0  0  0  0  0  0  0
  151.1982  136.9407  155.0736 C   0  0  2  0  0  0  0  0  0  0  0  0
  150.2900  138.1479  154.8617 C   0  0  0  0  0  0  0  0  0  0  0  0
  151.2737  139.3033  154.8172 C   0  0  0  0  0  0  0  0  0  0  0  0
  152.5963  138.6463  154.4070 C   0  0  0  0  0  0  0  0  0  0  0  0
  152.3139  137.2595  154.2568 O   0  0  0  0  0  0  0  0  0  0  0  0
  146.3566  134.0573  152.1264 N   0  0  0  0  0  0  0  0  0  0  0  0
  144.3622  136.8883  149.8525 H   0  0  0  0  0  0  0  0  0  0  0  0
  144.9678  135.5507  148.8975 H   0  0  0  0  0  0  0  0  0  0  0  0
  143.6041  132.9915  150.6927 H   0  0  0  0  0  0  0  0  0  0  0  0
  144.7511  133.4111  149.4458 H   0  0  0  0  0  0  0  0  0  0  0  0
  145.7082  130.9307  151.0814 H   0  0  0  0  0  0  0  0  0  0  0  0
  148.4725  135.1658  153.2345 H   0  0  0  0  0  0  0  0  0  0  0  0
  148.7880  136.0637  155.7911 H   0  0  0  0  0  0  0  0  0  0  0  0
  149.7793  134.8159  156.5117 H   0  0  0  0  0  0  0  0  0  0  0  0
  151.3371  134.8301  154.6487 H   0  0  0  0  0  0  0  0  0  0  0  0
  150.2133  135.6906  153.6236 H   0  0  0  0  0  0  0  0  0  0  0  0
  151.5202  136.8996  156.1158 H   0  0  0  0  0  0  0  0  0  0  0  0
  149.7739  138.0692  153.9038 H   0  0  0  0  0  0  0  0  0  0  0  0
  149.5382  138.2574  155.6440 H   0  0  0  0  0  0  0  0  0  0  0  0
  150.9583  140.0763  154.1159 H   0  0  0  0  0  0  0  0  0  0  0  0
  151.3718  139.7620  155.8019 H   0  0  0  0  0  0  0  0  0  0  0  0
  152.9882  139.0544  153.4751 H   0  0  0  0  0  0  0  0  0  0  0  0
  153.3513  138.7844  155.1818 H   0  0  0  0  0  0  0  0  0  0  0  0
  1  2  1  0  0  0  0
  1 20  1  0  0  0  0
  1 21  1  0  0  0  0
  2  3  2  0  0  0  0
  2  4  1  0  0  0  0
  4  5  1  0  0  0  0
  4 22  1  0  0  0  0
  4 23  1  0  0  0  0
  5 19  1  0  0  0  0
  5  6  2  0  0  0  0
  6  7  1  0  0  0  0
  6 24  1  0  0  0  0
  7  8  1  0  0  0  0
  8  9  1  0  0  0  0
  8 19  2  0  0  0  0
  9 10  1  0  0  0  0
  9 25  1  0  0  0  0
 10 11  2  0  0  0  0
 10 12  1  0  0  0  0
 12 13  1  0  0  0  0
 12 26  1  0  0  0  0
 12 27  1  0  0  0  0
 13 14  1  0  0  0  0
 13 28  1  0  0  0  0
 13 29  1  0  0  0  0
 14 18  1  0  0  0  0
 14 15  1  0  0  0  0
 14 30  1  0  0  0  0
 15 16  1  0  0  0  0
 15 31  1  0  0  0  0
 15 32  1  0  0  0  0
 16 17  1  0  0  0  0
 16 33  1  0  0  0  0
 16 34  1  0  0  0  0
 17 18  1  0  0  0  0
 17 35  1  0  0  0  0
 17 36  1  0  0  0  0
M  END
> <s_m_source_file>
AV-unprocessed.smi

> <i_m_source_file_index>
1439

> <i_lp_mmshare_version>
43012

> <i_f3d_flags>
0

> <s_epik_input>
W05IMl1DKD1PKVtDSDJdYzFbY0hdc2MobjEpW05IXUMoPU8pW0NIMl1bQ0gyXVtDQEBIXTJbQ0gyXVtDSDJdW0NIMl1PMg==

> <s_epik_cmdline>
J2VwaWtfcHl0aG9uJywgJy1waCcsICc3LjAnLCAnLXRuJywgJzgnLCAnLW1hJywgJzIwMCcsICctbWV0YWxfYmluZGluZycsICctaW1hZScsICc8aW5maWxlLm1hZT4nLCAnLW9tYWUnLCAnPG91dGZpbGUubWFlPic=

> <r_lp_tautomer_probability>
1

> <r_epik_Ionization_Penalty>
0.000300833

> <r_epik_Ionization_Penalty_Charging>
0

> <r_epik_Ionization_Penalty_Neutral>
0.000300833

> <r_epik_State_Penalty>
-0

> <r_epik_Charging_Adjusted_Penalty>
0

> <i_epik_Tot_Q>
0

> <i_epik_Tot_abs_Q>
0

> <r_epik_Metal_State_Penalty>
0.167159

> <b_epik_Metal_Only>
0

> <s_lp_Force_Field>
OPLS_2005

> <r_lp_Energy>
15.8288

> <b_lp_Chiralities_Consistent>
1

> <s_lp_Variant>
AV-unprocessed.smi:1439-1

> <Gold.Version>
5.8.1

> <Gold.Id.Protein>
6NUR|6NUR_protein|mol2

> <Gold.PLP.Fitness>
41.8163

> <Gold.PLP.PLP>
-32.0566

> <Gold.PLP.part.hbond>
-4.0000

> <Gold.PLP.part.metal>
0.0000

> <Gold.PLP.part.buried>
-4.8513

> <Gold.PLP.part.nonpolar>
-24.5689

> <Gold.PLP.part.repulsive>
0.5656

> <Gold.PLP.ligand.clash>
0.0000

> <Gold.PLP.ligand.torsion>
0.7484

> <Gold.PLP.Chemscore.Hbond>
3.7360

> <Gold.PLP.Chemscore.CHOScore>
0.0000

> <Gold.PLP.Chemscore.Metal>
0.0000

> <Gold.Chemscore.Hbonds>
donor molecule, donor type, donor heavy atom, donor atom, acceptor molecule, acceptor atom, score
      L1  H     1    20       P1 10171  1.00
      L1  H     1    21       P1  7921  1.00
      L1  H     9    25       P1  7948  1.00
      P1  H 10752 10763       L1    18  0.54

> <Gold.PLP.Chemscore.Internal.Correction>
0.0485

> <Gold.Rescore>
     Score         DG    S(hbond)    S(metal)    S(lipo)     H(rot)  DE(clash)    DE(int)     intcor
     16.74     -18.64       3.64        0.00      64.66       2.56       0.60       1.29       ----

> <Gold.Chemscore.Fitness>
16.7438

> <Gold.Chemscore.DG>
-18.6420

> <Gold.Chemscore.ZeroCoef>
-5.4800

> <Gold.Chemscore.Hbond>
3.6376

> <Gold.Chemscore.Metal>
0.0000

> <Gold.Chemscore.Lipo>
64.6630

> <Gold.Chemscore.Internal_Hbond>
0.0000

> <Gold.Chemscore.DEClash>
0.6041

> <Gold.Chemscore.DEInternal>
1.2941

> <Gold.Chemscore.Rot>
2.5598

> <Gold.Chemscore.Internal.Correction>
   9.000000E+99

> <Gold.Chemscore.Hbonds>
donor molecule, donor type, donor heavy atom, donor atom, acceptor molecule, acceptor atom, score
      L1  H     1    20       P1 10171  1.00
      L1  H     1    21       P1  7921  1.00
      L1  H     9    25       P1  7948  0.86
      P1  H 10752 10763       L1    18  0.06

> <Gold.Chemscore.Hbond.Weighted>
-12.1497

> <Gold.Chemscore.Metal.Weighted>
-0.0000

> <Gold.Chemscore.Lipo.Weighted>
-7.5656

> <Gold.Chemscore.Internal_Hbond.Weighted>
0.0000

> <Gold.Chemscore.DEClash.Weighted>
0.6041

> <Gold.Chemscore.DEInternal.Weighted>
1.2941

> <Gold.Chemscore.Rot.Weighted>
6.5532

> <Gold.Chemscore.Internal.Correction.Weighted>
   9.000000E+99

> <Gold.Protein.RotatedTorsions>
[ 6907 6896 6895 6894 ] final -113.00 input  -60.11 | X-H torsion
[ 7974 7965 7964 7962 ] final   34.14 input  175.53 | X-H torsion
[ 8008 7997 7996 7995 ] final -125.86 input   59.86 | X-H torsion
[ 10167 10162 10161 10158 ] final -174.18 input  -65.29 | X-H torsion
[ 10718 10713 10712 10709 ] final -178.88 input   66.30 | X-H torsion
[ 10763 10752 10751 10750 ] final   44.00 input  -60.55 | X-H torsion
[ 11005 11000 10999 10996 ] final  -74.31 input  -57.11 | X-H torsion

> <Gold.Protein.ActiveResidues>
 VAL166  LYS551  ARG553  GLY616  TRP617  ASP618  TYR619  PRO620  LYS621  CYS622 
 ASP623  PHE694  ASN695  SER759  ASP760  ASP761  ALA762  ILE779  LEU786  VAL792 
 PHE793  MET794  SER795  GLU796  ALA797  LYS798  CYS799  TRP800  GLU811  SER814 

> <Gold.Protein.RotatedAtoms>
  150.7797  133.9009  159.3340 H   0  0  0  0  0  0  0  0  0  0  0  0  # atno 6907 bound_to 6896
  151.6874  135.0950  160.0237 H   0  0  0  0  0  0  0  0  0  0  0  0  # atno 6908 bound_to 6896
  152.3845  133.6554  159.6223 H   0  0  0  0  0  0  0  0  0  0  0  0  # atno 6909 bound_to 6896
  146.1373  139.6307  142.9186 H   0  0  0  0  0  0  0  0  0  0  0  0  # atno 7974 bound_to 7965
  155.2202  140.0421  157.2947 H   0  0  0  0  0  0  0  0  0  0  0  0  # atno 8008 bound_to 7997
  154.5955  140.2438  155.7834 H   0  0  0  0  0  0  0  0  0  0  0  0  # atno 8009 bound_to 7997
  156.2287  140.2946  156.0141 H   0  0  0  0  0  0  0  0  0  0  0  0  # atno 8010 bound_to 7997
  139.5648  144.1783  152.1295 H   0  0  0  0  0  0  0  0  0  0  0  0  # atno 10167 bound_to 10162
  156.8508  130.9718  151.3092 H   0  0  0  0  0  0  0  0  0  0  0  0  # atno 10718 bound_to 10713
  152.9849  135.6084  154.3202 H   0  0  0  0  0  0  0  0  0  0  0  0  # atno 10763 bound_to 10752
  154.2912  135.2775  155.2655 H   0  0  0  0  0  0  0  0  0  0  0  0  # atno 10764 bound_to 10752
  154.4950  135.5882  153.6544 H   0  0  0  0  0  0  0  0  0  0  0  0  # atno 10765 bound_to 10752
  141.1633  133.6907  156.7345 H   0  0  0  0  0  0  0  0  0  0  0  0  # atno 11005 bound_to 11000
  145.5127  141.0435  143.2479 LP  0  0  0  0  0  0  0  0  0  0  0  0  # atno 17320 bound_to 7965
  144.7754  139.6642  143.7177 LP  0  0  0  0  0  0  0  0  0  0  0  0  # atno 17321 bound_to 7965
  140.1304  144.5294  150.6806 LP  0  0  0  0  0  0  0  0  0  0  0  0  # atno 17342 bound_to 10162
  140.6930  143.2387  151.5078 LP  0  0  0  0  0  0  0  0  0  0  0  0  # atno 17343 bound_to 10162
  157.6304  130.8725  149.9264 LP  0  0  0  0  0  0  0  0  0  0  0  0  # atno 17370 bound_to 10713
  156.0829  130.3671  150.0545 LP  0  0  0  0  0  0  0  0  0  0  0  0  # atno 17371 bound_to 10713
  140.2720  134.8384  157.3856 LP  0  0  0  0  0  0  0  0  0  0  0  0  # atno 17394 bound_to 11000
  140.1512  134.4847  155.7960 LP  0  0  0  0  0  0  0  0  0  0  0  0  # atno 17395 bound_to 11000

$$$$
