AV-unprocessed.smi:2331|AV-procd|sdf|9316|dock10
  -GOLD-   2272012533D 1   1.00000     0.00000
 Structure written by MMmdl.
 50 51  0  0  0  0  0  0  0  0  2 V2000
  149.1825  141.5314  154.4582 C   0  0  0  0  0  0  0  0  0  0  0  0
  149.0410  140.0469  154.8748 C   0  0  0  0  0  0  0  0  0  0  0  0
  150.3411  139.3387  154.4370 C   0  0  0  0  0  0  0  0  0  0  0  0
  148.9271  139.9657  156.4223 C   0  0  0  0  0  0  0  0  0  0  0  0
  150.0852  140.5333  157.1102 N   0  0  0  0  0  0  0  0  0  0  0  0
  150.0515  141.4710  158.0720 C   0  0  0  0  0  0  0  0  0  0  0  0
  149.0115  142.0275  158.4219 O   0  0  0  0  0  0  0  0  0  0  0  0
  151.2761  141.7952  158.5474 N   0  0  0  0  0  0  0  0  0  0  0  0
  152.3682  140.8183  158.6394 C   0  0  0  0  0  0  0  0  0  0  0  0
  153.1224  141.1682  159.9148 C   0  0  0  0  0  0  0  0  0  0  0  0
  152.9394  142.6701  160.0213 C   0  0  0  0  0  0  0  0  0  0  0  0
  151.5418  142.9479  159.4336 C   0  0  1  0  0  0  0  0  0  0  0  0
  151.4405  144.3449  158.7333 C   0  0  0  0  0  0  0  0  0  0  0  0
  151.6814  145.5032  159.7236 C   0  0  0  0  0  0  0  0  0  0  0  0
  152.3499  144.4907  157.4962 C   0  0  0  0  0  0  0  0  0  0  0  0
  150.1053  144.5445  158.3132 O   0  0  0  0  0  0  0  0  0  0  0  0
  147.8296  139.3587  154.2126 C   0  0  0  0  0  0  0  0  0  0  0  0
  147.7314  139.1662  152.8097 C   0  0  0  0  0  0  0  0  0  0  0  0
  146.5866  138.5501  152.2650 C   0  0  0  0  0  0  0  0  0  0  0  0
  145.5885  138.1439  153.0766 N   0  3  0  0  0  0  0  0  0  0  0  0
  145.6306  138.3014  154.4155 C   0  0  0  0  0  0  0  0  0  0  0  0
  146.7497  138.9133  155.0151 C   0  0  0  0  0  0  0  0  0  0  0  0
  150.0419  141.9957  154.9432 H   0  0  0  0  0  0  0  0  0  0  0  0
  148.3099  142.1243  154.7311 H   0  0  0  0  0  0  0  0  0  0  0  0
  149.3296  141.6341  153.3824 H   0  0  0  0  0  0  0  0  0  0  0  0
  151.2188  139.8182  154.8723 H   0  0  0  0  0  0  0  0  0  0  0  0
  150.4595  139.3640  153.3532 H   0  0  0  0  0  0  0  0  0  0  0  0
  150.3665  138.2934  154.7446 H   0  0  0  0  0  0  0  0  0  0  0  0
  148.0603  140.5336  156.7616 H   0  0  0  0  0  0  0  0  0  0  0  0
  148.7438  138.9389  156.7439 H   0  0  0  0  0  0  0  0  0  0  0  0
  150.9891  140.1647  156.8529 H   0  0  0  0  0  0  0  0  0  0  0  0
  152.0249  139.7825  158.6735 H   0  0  0  0  0  0  0  0  0  0  0  0
  153.0134  140.9322  157.7673 H   0  0  0  0  0  0  0  0  0  0  0  0
  152.6533  140.6780  160.7692 H   0  0  0  0  0  0  0  0  0  0  0  0
  154.1700  140.8675  159.8852 H   0  0  0  0  0  0  0  0  0  0  0  0
  153.0445  143.0314  161.0448 H   0  0  0  0  0  0  0  0  0  0  0  0
  153.7136  143.1496  159.4218 H   0  0  0  0  0  0  0  0  0  0  0  0
  150.8315  142.9053  160.2624 H   0  0  0  0  0  0  0  0  0  0  0  0
  152.7144  145.5373  160.0698 H   0  0  0  0  0  0  0  0  0  0  0  0
  151.0412  145.4142  160.6024 H   0  0  0  0  0  0  0  0  0  0  0  0
  151.4728  146.4704  159.2642 H   0  0  0  0  0  0  0  0  0  0  0  0
  153.3980  144.3396  157.7531 H   0  0  0  0  0  0  0  0  0  0  0  0
  152.2630  145.4854  157.0576 H   0  0  0  0  0  0  0  0  0  0  0  0
  152.0954  143.7745  156.7149 H   0  0  0  0  0  0  0  0  0  0  0  0
  150.0757  144.4997  157.3698 H   0  0  0  0  0  0  0  0  0  0  0  0
  148.5096  139.4825  152.1325 H   0  0  0  0  0  0  0  0  0  0  0  0
  146.4410  138.3725  151.2093 H   0  0  0  0  0  0  0  0  0  0  0  0
  144.7733  137.9387  154.9637 H   0  0  0  0  0  0  0  0  0  0  0  0
  146.7686  139.0416  156.0871 H   0  0  0  0  0  0  0  0  0  0  0  0
  144.7690  137.6999  152.6610 H   0  0  0  0  0  0  0  0  0  0  0  0
  1  2  1  0  0  0  0
  1 23  1  0  0  0  0
  1 24  1  0  0  0  0
  1 25  1  0  0  0  0
  2  3  1  0  0  0  0
  2  4  1  0  0  0  0
  2 17  1  0  0  0  0
  3 26  1  0  0  0  0
  3 27  1  0  0  0  0
  3 28  1  0  0  0  0
  4  5  1  0  0  0  0
  4 29  1  0  0  0  0
  4 30  1  0  0  0  0
  5  6  1  0  0  0  0
  5 31  1  0  0  0  0
  6  7  2  0  0  0  0
  6  8  1  0  0  0  0
  8 12  1  0  0  0  0
  8  9  1  0  0  0  0
  9 10  1  0  0  0  0
  9 32  1  0  0  0  0
  9 33  1  0  0  0  0
 10 11  1  0  0  0  0
 10 34  1  0  0  0  0
 10 35  1  0  0  0  0
 11 12  1  0  0  0  0
 11 36  1  0  0  0  0
 11 37  1  0  0  0  0
 12 13  1  0  0  0  0
 12 38  1  0  0  0  0
 13 14  1  0  0  0  0
 13 15  1  0  0  0  0
 13 16  1  0  0  0  0
 14 39  1  0  0  0  0
 14 40  1  0  0  0  0
 14 41  1  0  0  0  0
 15 42  1  0  0  0  0
 15 43  1  0  0  0  0
 15 44  1  0  0  0  0
 16 45  1  0  0  0  0
 17 22  1  0  0  0  0
 17 18  2  0  0  0  0
 18 19  1  0  0  0  0
 18 46  1  0  0  0  0
 19 20  2  0  0  0  0
 19 47  1  0  0  0  0
 20 21  1  0  0  0  0
 20 50  1  0  0  0  0
 21 22  2  0  0  0  0
 21 48  1  0  0  0  0
 22 49  1  0  0  0  0
M  CHG  1  20   1
M  END
> <s_m_source_file>
AV-unprocessed.smi

> <i_m_source_file_index>
2331

> <i_lp_mmshare_version>
43012

> <i_f3d_flags>
0

> <s_epik_input>
W2NIXTFbY0hdbltjSF1bY0hdYzFDKFtDSDNdKShbQ0gzXSlbQ0gyXVtOSF1DKD1PKU4yW0NIMl1bQ0gyXVtDSDJdW0NASF0yQyhbQ0gzXSkoW0NIM10pW09IXQ==

> <s_epik_cmdline>
J2VwaWtfcHl0aG9uJywgJy1waCcsICc3LjAnLCAnLXRuJywgJzgnLCAnLW1hJywgJzIwMCcsICctbWV0YWxfYmluZGluZycsICctaW1hZScsICc8aW5maWxlLm1hZT4nLCAnLW9tYWUnLCAnPG91dGZpbGUubWFlPic=

> <r_epik_Ionization_Penalty>
1.40501

> <r_epik_Ionization_Penalty_Charging>
1.40494

> <r_epik_Ionization_Penalty_Neutral>
7.00889e-05

> <r_epik_State_Penalty>
1.48741

> <r_epik_Charging_Adjusted_Penalty>
2.89235

> <i_epik_Tot_Q>
1

> <i_epik_Tot_abs_Q>
1

> <r_epik_Metal_State_Penalty>
1.54092

> <b_epik_Metal_Only>
0

> <s_lp_Force_Field>
OPLS_2005

> <r_lp_Energy>
55.517

> <b_lp_Chiralities_Consistent>
1

> <s_lp_Variant>
AV-unprocessed.smi:2331-3

> <Gold.Version>
5.8.1

> <Gold.Id.Protein>
6NUR|6NUR_protein|mol2

> <Gold.PLP.Fitness>
45.0699

> <Gold.PLP.PLP>
-43.1138

> <Gold.PLP.part.hbond>
-3.1093

> <Gold.PLP.part.metal>
0.0000

> <Gold.PLP.part.buried>
-0.2169

> <Gold.PLP.part.nonpolar>
-39.4977

> <Gold.PLP.part.repulsive>
0.1273

> <Gold.PLP.ligand.clash>
0.0000

> <Gold.PLP.ligand.torsion>
0.3769

> <Gold.PLP.Chemscore.Hbond>
0.7644

> <Gold.PLP.Chemscore.CHOScore>
0.0000

> <Gold.PLP.Chemscore.Metal>
0.0000

> <Gold.Chemscore.Hbonds>
donor molecule, donor type, donor heavy atom, donor atom, acceptor molecule, acceptor atom, score
      L1  H    16    45       P1  8028  0.84

> <Gold.PLP.Chemscore.Internal.Correction>
0.4166

> <Gold.Rescore>
     Score         DG    S(hbond)    S(metal)    S(lipo)     H(rot)  DE(clash)    DE(int)     intcor
     14.40     -15.22       0.36        0.00     117.27       2.02       0.37       0.45       ----

> <Gold.Chemscore.Fitness>
14.4048

> <Gold.Chemscore.DG>
-15.2201

> <Gold.Chemscore.ZeroCoef>
-5.4800

> <Gold.Chemscore.Hbond>
0.3558

> <Gold.Chemscore.Metal>
0.0000

> <Gold.Chemscore.Lipo>
117.2720

> <Gold.Chemscore.Internal_Hbond>
0.0000

> <Gold.Chemscore.DEClash>
0.3696

> <Gold.Chemscore.DEInternal>
0.4457

> <Gold.Chemscore.Rot>
2.0192

> <Gold.Chemscore.Internal.Correction>
   9.000000E+99

> <Gold.Chemscore.Hbonds>
donor molecule, donor type, donor heavy atom, donor atom, acceptor molecule, acceptor atom, score
      L1  H    16    45       P1  8028  0.27

> <Gold.Chemscore.Hbond.Weighted>
-1.1884

> <Gold.Chemscore.Metal.Weighted>
-0.0000

> <Gold.Chemscore.Lipo.Weighted>
-13.7208

> <Gold.Chemscore.Internal_Hbond.Weighted>
0.0000

> <Gold.Chemscore.DEClash.Weighted>
0.3696

> <Gold.Chemscore.DEInternal.Weighted>
0.4457

> <Gold.Chemscore.Rot.Weighted>
5.1691

> <Gold.Chemscore.Internal.Correction.Weighted>
   9.000000E+99

> <Gold.Protein.RotatedTorsions>
[ 6907 6896 6895 6894 ] final  -80.73 input  -60.11 | X-H torsion
[ 7974 7965 7964 7962 ] final  112.29 input  175.53 | X-H torsion
[ 8008 7997 7996 7995 ] final  -88.20 input   59.86 | X-H torsion
[ 10167 10162 10161 10158 ] final   -6.94 input  -65.29 | X-H torsion
[ 10718 10713 10712 10709 ] final  138.25 input   66.30 | X-H torsion
[ 10763 10752 10751 10750 ] final   12.90 input  -60.55 | X-H torsion
[ 11005 11000 10999 10996 ] final  -41.66 input  -57.11 | X-H torsion

> <Gold.Protein.ActiveResidues>
 VAL166  LYS551  ARG553  GLY616  TRP617  ASP618  TYR619  PRO620  LYS621  CYS622 
 ASP623  PHE694  ASN695  SER759  ASP760  ASP761  ALA762  ILE779  LEU786  VAL792 
 PHE793  MET794  SER795  GLU796  ALA797  LYS798  CYS799  TRP800  GLU811  SER814 

> <Gold.Protein.RotatedAtoms>
  150.6924  134.3926  159.5082 H   0  0  0  0  0  0  0  0  0  0  0  0  # atno 6907 bound_to 6896
  152.1712  134.8830  160.0543 H   0  0  0  0  0  0  0  0  0  0  0  0  # atno 6908 bound_to 6896
  151.9855  133.3738  159.4161 H   0  0  0  0  0  0  0  0  0  0  0  0  # atno 6909 bound_to 6896
  145.2315  139.2817  143.4166 H   0  0  0  0  0  0  0  0  0  0  0  0  # atno 7974 bound_to 7965
  154.6720  140.0556  157.0175 H   0  0  0  0  0  0  0  0  0  0  0  0  # atno 8008 bound_to 7997
  155.1075  140.3235  155.4512 H   0  0  0  0  0  0  0  0  0  0  0  0  # atno 8009 bound_to 7997
  156.2661  140.2020  156.6200 H   0  0  0  0  0  0  0  0  0  0  0  0  # atno 8010 bound_to 7997
  140.7013  143.6137  150.8679 H   0  0  0  0  0  0  0  0  0  0  0  0  # atno 10167 bound_to 10162
  157.4273  131.1045  151.0288 H   0  0  0  0  0  0  0  0  0  0  0  0  # atno 10718 bound_to 10713
  153.1776  135.6822  153.8522 H   0  0  0  0  0  0  0  0  0  0  0  0  # atno 10763 bound_to 10752
  153.7865  135.3175  155.3374 H   0  0  0  0  0  0  0  0  0  0  0  0  # atno 10764 bound_to 10752
  154.8039  135.4761  154.0437 H   0  0  0  0  0  0  0  0  0  0  0  0  # atno 10765 bound_to 10752
  141.0261  133.6841  156.2487 H   0  0  0  0  0  0  0  0  0  0  0  0  # atno 11005 bound_to 11000
  146.3352  140.2651  142.8603 LP  0  0  0  0  0  0  0  0  0  0  0  0  # atno 17320 bound_to 7965
  144.9672  140.8333  143.5477 LP  0  0  0  0  0  0  0  0  0  0  0  0  # atno 17321 bound_to 7965
  139.9860  143.5899  152.2927 LP  0  0  0  0  0  0  0  0  0  0  0  0  # atno 17342 bound_to 10162
  139.6537  144.7661  151.2097 LP  0  0  0  0  0  0  0  0  0  0  0  0  # atno 17343 bound_to 10162
  157.1197  130.6056  149.5502 LP  0  0  0  0  0  0  0  0  0  0  0  0  # atno 17370 bound_to 10713
  155.9901  130.4951  150.7242 LP  0  0  0  0  0  0  0  0  0  0  0  0  # atno 17371 bound_to 10713
  140.6489  134.5088  157.5576 LP  0  0  0  0  0  0  0  0  0  0  0  0  # atno 17394 bound_to 11000
  139.9177  134.8213  156.1312 LP  0  0  0  0  0  0  0  0  0  0  0  0  # atno 17395 bound_to 11000

$$$$
