AV-unprocessed.smi:2921|AV-procd|sdf|11197|dock7
  -GOLD-   2272016 93D 1   1.00000     0.00000
 Structure written by MMmdl.
 41 42  0  0  0  0  0  0  0  0  1 V2000
  150.8916  137.9613  156.5675 C   0  0  0  0  0  0  0  0  0  0  0  0
  150.8530  138.3065  155.0707 C   0  0  0  0  0  0  0  0  0  0  0  0
  152.2647  138.4669  154.4826 C   0  0  0  0  0  0  0  0  0  0  0  0
  150.0384  139.4936  154.8298 N   0  0  0  0  0  0  0  0  0  0  0  0
  150.4013  140.6849  155.3609 N   0  0  0  0  0  0  0  0  0  0  0  0
  149.4644  141.5400  154.9741 C   0  0  0  0  0  0  0  0  0  0  0  0
  148.4503  140.9329  154.1814 C   0  0  0  0  0  0  0  0  0  0  0  0
  148.8614  139.6292  154.1196 C   0  0  0  0  0  0  0  0  0  0  0  0
  148.2607  138.5807  153.4961 N   0  0  0  0  0  0  0  0  0  0  0  0
  146.9629  138.2298  153.5016 C   0  0  0  0  0  0  0  0  0  0  0  0
  146.0641  138.8228  154.0986 O   0  0  0  0  0  0  0  0  0  0  0  0
  146.7557  137.1393  152.7503 N   0  0  0  0  0  0  0  0  0  0  0  0
  145.4561  136.5248  152.5003 C   0  0  0  0  0  0  0  0  0  0  0  0
  145.3104  135.9878  151.0627 C   0  0  0  0  0  0  0  0  0  0  0  0
  145.0319  134.4960  150.9792 C   0  0  0  0  0  0  0  0  0  0  0  0
  145.8528  133.5685  150.4875 C   0  0  0  0  0  0  0  0  0  0  0  0
  145.2865  132.1786  150.5844 C   0  0  0  0  0  0  0  0  0  0  0  0
  143.9470  132.3735  151.3278 C   0  0  0  0  0  0  0  0  0  0  0  0
  143.7548  133.8951  151.5124 C   0  0  0  0  0  0  0  0  0  0  0  0
  151.4466  137.0392  156.7421 H   0  0  0  0  0  0  0  0  0  0  0  0
  149.8852  137.8201  156.9630 H   0  0  0  0  0  0  0  0  0  0  0  0
  151.3700  138.7506  157.1481 H   0  0  0  0  0  0  0  0  0  0  0  0
  150.3833  137.4693  154.5543 H   0  0  0  0  0  0  0  0  0  0  0  0
  152.8403  137.5476  154.5932 H   0  0  0  0  0  0  0  0  0  0  0  0
  152.8198  139.2641  154.9782 H   0  0  0  0  0  0  0  0  0  0  0  0
  152.2212  138.7017  153.4187 H   0  0  0  0  0  0  0  0  0  0  0  0
  149.5458  142.5718  155.2827 H   0  0  0  0  0  0  0  0  0  0  0  0
  147.5761  141.3933  153.7468 H   0  0  0  0  0  0  0  0  0  0  0  0
  148.8725  138.0069  152.9352 H   0  0  0  0  0  0  0  0  0  0  0  0
  147.5518  136.7146  152.2976 H   0  0  0  0  0  0  0  0  0  0  0  0
  145.3118  135.7151  153.2162 H   0  0  0  0  0  0  0  0  0  0  0  0
  144.6694  137.2532  152.7033 H   0  0  0  0  0  0  0  0  0  0  0  0
  144.4839  136.5118  150.5816 H   0  0  0  0  0  0  0  0  0  0  0  0
  146.1966  136.2170  150.4699 H   0  0  0  0  0  0  0  0  0  0  0  0
  146.8261  133.7615  150.0608 H   0  0  0  0  0  0  0  0  0  0  0  0
  145.1386  131.7674  149.5855 H   0  0  0  0  0  0  0  0  0  0  0  0
  145.9639  131.5248  151.1345 H   0  0  0  0  0  0  0  0  0  0  0  0
  143.1183  131.9350  150.7708 H   0  0  0  0  0  0  0  0  0  0  0  0
  143.9806  131.8792  152.2994 H   0  0  0  0  0  0  0  0  0  0  0  0
  143.6114  134.1607  152.5601 H   0  0  0  0  0  0  0  0  0  0  0  0
  142.8960  134.2484  150.9430 H   0  0  0  0  0  0  0  0  0  0  0  0
  1  2  1  0  0  0  0
  1 20  1  0  0  0  0
  1 21  1  0  0  0  0
  1 22  1  0  0  0  0
  2  3  1  0  0  0  0
  2  4  1  0  0  0  0
  2 23  1  0  0  0  0
  3 24  1  0  0  0  0
  3 25  1  0  0  0  0
  3 26  1  0  0  0  0
  4  8  1  0  0  0  0
  4  5  1  0  0  0  0
  5  6  2  0  0  0  0
  6  7  1  0  0  0  0
  6 27  1  0  0  0  0
  7  8  2  0  0  0  0
  7 28  1  0  0  0  0
  8  9  1  0  0  0  0
  9 10  1  0  0  0  0
  9 29  1  0  0  0  0
 10 11  2  0  0  0  0
 10 12  1  0  0  0  0
 12 13  1  0  0  0  0
 12 30  1  0  0  0  0
 13 14  1  0  0  0  0
 13 31  1  0  0  0  0
 13 32  1  0  0  0  0
 14 15  1  0  0  0  0
 14 33  1  0  0  0  0
 14 34  1  0  0  0  0
 15 19  1  0  0  0  0
 15 16  2  0  0  0  0
 16 17  1  0  0  0  0
 16 35  1  0  0  0  0
 17 18  1  0  0  0  0
 17 36  1  0  0  0  0
 17 37  1  0  0  0  0
 18 19  1  0  0  0  0
 18 38  1  0  0  0  0
 18 39  1  0  0  0  0
 19 40  1  0  0  0  0
 19 41  1  0  0  0  0
M  END
> <s_m_source_file>
AV-unprocessed.smi

> <i_m_source_file_index>
2921

> <i_lp_mmshare_version>
43012

> <i_f3d_flags>
0

> <s_epik_input>
W0NIM11bQ0hdKFtDSDNdKW4xbltjSF1bY0hdYzFbTkhdQyg9TylbTkhdW0NIMl1bQ0gyXUMyPVtDSF1bQ0gyXVtDSDJdW0NIMl0y

> <s_epik_cmdline>
J2VwaWtfcHl0aG9uJywgJy1waCcsICc3LjAnLCAnLXRuJywgJzgnLCAnLW1hJywgJzIwMCcsICctbWV0YWxfYmluZGluZycsICctaW1hZScsICc8aW5maWxlLm1hZT4nLCAnLW9tYWUnLCAnPG91dGZpbGUubWFlPic=

> <r_lp_tautomer_probability>
1

> <r_epik_Ionization_Penalty>
4.14613e-05

> <r_epik_Ionization_Penalty_Charging>
0

> <r_epik_Ionization_Penalty_Neutral>
4.14613e-05

> <r_epik_State_Penalty>
-0

> <r_epik_Charging_Adjusted_Penalty>
0

> <i_epik_Tot_Q>
0

> <i_epik_Tot_abs_Q>
0

> <r_epik_Metal_State_Penalty>
-0

> <b_epik_Metal_Only>
0

> <s_lp_Force_Field>
OPLS_2005

> <r_lp_Energy>
26.255

> <b_lp_Chiralities_Consistent>
1

> <s_lp_Variant>
AV-unprocessed.smi:2921-1

> <Gold.Version>
5.8.1

> <Gold.Id.Protein>
6NUR|6NUR_protein|mol2

> <Gold.PLP.Fitness>
44.2020

> <Gold.PLP.PLP>
-36.9386

> <Gold.PLP.part.hbond>
-3.9773

> <Gold.PLP.part.metal>
0.0000

> <Gold.PLP.part.buried>
-2.8406

> <Gold.PLP.part.nonpolar>
-30.6117

> <Gold.PLP.part.repulsive>
0.2851

> <Gold.PLP.ligand.clash>
0.0000

> <Gold.PLP.ligand.torsion>
0.9675

> <Gold.PLP.Chemscore.Hbond>
2.0472

> <Gold.PLP.Chemscore.CHOScore>
1.0000

> <Gold.PLP.Chemscore.Metal>
0.0000

> <Gold.Chemscore.Hbonds>
donor molecule, donor type, donor heavy atom, donor atom, acceptor molecule, acceptor atom, score
      L1  H     9    29       P1  7948  0.84
      L1  H    12    30       P1  7948  1.00
      P1  H  7989  7998       L1     5  0.08
      L1  C     6    27       P1  8028  1.00

> <Gold.PLP.Chemscore.Internal.Correction>
0.0567

> <Gold.Rescore>
     Score         DG    S(hbond)    S(metal)    S(lipo)     H(rot)  DE(clash)    DE(int)     intcor
     16.50     -17.50       1.95        0.00      80.02       1.50       0.02       0.97       ----

> <Gold.Chemscore.Fitness>
16.5016

> <Gold.Chemscore.DG>
-17.4992

> <Gold.Chemscore.ZeroCoef>
-5.4800

> <Gold.Chemscore.Hbond>
1.9467

> <Gold.Chemscore.Metal>
0.0000

> <Gold.Chemscore.Lipo>
80.0159

> <Gold.Chemscore.Internal_Hbond>
0.0000

> <Gold.Chemscore.DEClash>
0.0246

> <Gold.Chemscore.DEInternal>
0.9730

> <Gold.Chemscore.Rot>
1.5018

> <Gold.Chemscore.Internal.Correction>
   9.000000E+99

> <Gold.Chemscore.Hbonds>
donor molecule, donor type, donor heavy atom, donor atom, acceptor molecule, acceptor atom, score
      L1  H     9    29       P1  7948  0.78
      L1  H    12    30       P1  7948  0.93

> <Gold.Chemscore.Hbond.Weighted>
-6.5020

> <Gold.Chemscore.Metal.Weighted>
-0.0000

> <Gold.Chemscore.Lipo.Weighted>
-9.3619

> <Gold.Chemscore.Internal_Hbond.Weighted>
0.0000

> <Gold.Chemscore.DEClash.Weighted>
0.0246

> <Gold.Chemscore.DEInternal.Weighted>
0.9730

> <Gold.Chemscore.Rot.Weighted>
3.8446

> <Gold.Chemscore.Internal.Correction.Weighted>
   9.000000E+99

> <Gold.Protein.RotatedTorsions>
[ 6907 6896 6895 6894 ] final  107.22 input  -60.11 | X-H torsion
[ 7974 7965 7964 7962 ] final   55.69 input  175.53 | X-H torsion
[ 8008 7997 7996 7995 ] final -159.28 input   59.86 | X-H torsion
[ 10167 10162 10161 10158 ] final  -97.29 input  -65.29 | X-H torsion
[ 10718 10713 10712 10709 ] final  -73.90 input   66.30 | X-H torsion
[ 10763 10752 10751 10750 ] final  -87.40 input  -60.55 | X-H torsion
[ 11005 11000 10999 10996 ] final  -57.50 input  -57.11 | X-H torsion

> <Gold.Protein.ActiveResidues>
 VAL166  LYS551  ARG553  GLY616  TRP617  ASP618  TYR619  PRO620  LYS621  CYS622 
 ASP623  PHE694  ASN695  SER759  ASP760  ASP761  ALA762  ILE779  LEU786  VAL792 
 PHE793  MET794  SER795  GLU796  ALA797  LYS798  CYS799  TRP800  GLU811  SER814 

> <Gold.Protein.RotatedAtoms>
  152.5163  133.9267  159.7560 H   0  0  0  0  0  0  0  0  0  0  0  0  # atno 6907 bound_to 6896
  150.9626  133.6420  159.2758 H   0  0  0  0  0  0  0  0  0  0  0  0  # atno 6908 bound_to 6896
  151.3660  135.0918  159.9503 H   0  0  0  0  0  0  0  0  0  0  0  0  # atno 6909 bound_to 6896
  145.9478  139.3945  143.0324 H   0  0  0  0  0  0  0  0  0  0  0  0  # atno 7974 bound_to 7965
  155.7602  140.0838  157.2159 H   0  0  0  0  0  0  0  0  0  0  0  0  # atno 8008 bound_to 7997
  154.4004  140.1544  156.2880 H   0  0  0  0  0  0  0  0  0  0  0  0  # atno 8009 bound_to 7997
  155.8847  140.3418  155.5915 H   0  0  0  0  0  0  0  0  0  0  0  0  # atno 8010 bound_to 7997
  140.2849  143.3258  152.0404 H   0  0  0  0  0  0  0  0  0  0  0  0  # atno 10167 bound_to 10162
  156.0262  130.4404  150.2812 H   0  0  0  0  0  0  0  0  0  0  0  0  # atno 10718 bound_to 10713
  154.6332  135.5414  153.7704 H   0  0  0  0  0  0  0  0  0  0  0  0  # atno 10763 bound_to 10752
  153.0295  135.6441  154.1270 H   0  0  0  0  0  0  0  0  0  0  0  0  # atno 10764 bound_to 10752
  154.1198  135.2921  155.3191 H   0  0  0  0  0  0  0  0  0  0  0  0  # atno 10765 bound_to 10752
  141.1167  133.6610  156.4778 H   0  0  0  0  0  0  0  0  0  0  0  0  # atno 11005 bound_to 11000
  145.8213  140.9678  143.0897 LP  0  0  0  0  0  0  0  0  0  0  0  0  # atno 17320 bound_to 7965
  144.6790  140.0045  143.7484 LP  0  0  0  0  0  0  0  0  0  0  0  0  # atno 17321 bound_to 7965
  139.4953  144.6566  151.6559 LP  0  0  0  0  0  0  0  0  0  0  0  0  # atno 17342 bound_to 10162
  140.5781  143.9994  150.6253 LP  0  0  0  0  0  0  0  0  0  0  0  0  # atno 17343 bound_to 10162
  157.0915  131.0171  151.3120 LP  0  0  0  0  0  0  0  0  0  0  0  0  # atno 17370 bound_to 10713
  157.4850  130.7788  149.7451 LP  0  0  0  0  0  0  0  0  0  0  0  0  # atno 17371 bound_to 10713
  140.4625  134.6828  157.5092 LP  0  0  0  0  0  0  0  0  0  0  0  0  # atno 17394 bound_to 11000
  140.0094  134.6713  155.9404 LP  0  0  0  0  0  0  0  0  0  0  0  0  # atno 17395 bound_to 11000

$$$$
