AV-unprocessed.smi:2106|AV-procd|sdf|8594|dock3
  -GOLD-   2272011323D 1   1.00000     0.00000
 Structure written by MMmdl.
 47 48  0  0  0  0  0  0  0  0  1 V2000
  147.0320  131.5190  161.2305 C   0  0  0  0  0  0  0  0  0  0  0  0
  147.1529  133.0132  161.2865 C   0  0  0  0  0  0  0  0  0  0  0  0
  147.1241  133.8578  162.4312 C   0  0  0  0  0  0  0  0  0  0  0  0
  147.2728  135.1181  161.9244 C   0  0  0  0  0  0  0  0  0  0  0  0
  147.3211  136.4375  162.6223 C   0  0  0  0  0  0  0  0  0  0  0  0
  147.3775  134.9887  160.5504 N   0  0  0  0  0  0  0  0  0  0  0  0
  147.5509  136.0229  159.5398 C   0  0  0  0  0  0  0  0  0  0  0  0
  148.2218  135.4986  158.2642 C   0  0  0  0  0  0  0  0  0  0  0  0
  148.7423  134.3823  158.2335 O   0  0  0  0  0  0  0  0  0  0  0  0
  148.2030  136.3273  157.2092 N   0  0  0  0  0  0  0  0  0  0  0  0
  148.7798  136.0332  155.9031 C   0  0  0  0  0  0  0  0  0  0  0  0
  150.1590  136.6987  155.7381 C   0  0  0  0  0  0  0  0  0  0  0  0
  150.1799  138.1427  155.9643 N   0  0  0  0  0  0  0  0  0  0  0  0
  149.3047  138.8659  155.0463 C   0  0  0  0  0  0  0  0  0  0  0  0
  149.3334  140.3846  155.2978 C   0  0  2  0  0  0  0  0  0  0  0  0
  148.4907  141.1535  154.2747 C   0  0  0  0  0  0  0  0  0  0  0  0
  150.6761  140.8583  155.2100 O   0  0  0  0  0  0  0  0  0  0  0  0
  151.6134  140.1903  156.0558 C   0  0  1  0  0  0  0  0  0  0  0  0
  151.4505  140.6038  157.5285 C   0  0  0  0  0  0  0  0  0  0  0  0
  151.5357  138.6665  155.8352 C   0  0  0  0  0  0  0  0  0  0  0  0
  147.3069  133.6961  160.1642 N   0  0  0  0  0  0  0  0  0  0  0  0
  147.0157  131.0868  162.2311 H   0  0  0  0  0  0  0  0  0  0  0  0
  147.8701  131.0760  160.6917 H   0  0  0  0  0  0  0  0  0  0  0  0
  146.1138  131.2196  160.7250 H   0  0  0  0  0  0  0  0  0  0  0  0
  147.0110  133.5794  163.4684 H   0  0  0  0  0  0  0  0  0  0  0  0
  147.2688  136.3084  163.7034 H   0  0  0  0  0  0  0  0  0  0  0  0
  146.4845  137.0673  162.3196 H   0  0  0  0  0  0  0  0  0  0  0  0
  148.2459  136.9669  162.3933 H   0  0  0  0  0  0  0  0  0  0  0  0
  146.5724  136.4428  159.3034 H   0  0  0  0  0  0  0  0  0  0  0  0
  148.1537  136.8343  159.9509 H   0  0  0  0  0  0  0  0  0  0  0  0
  147.7583  137.2272  157.3193 H   0  0  0  0  0  0  0  0  0  0  0  0
  148.8373  134.9523  155.7713 H   0  0  0  0  0  0  0  0  0  0  0  0
  148.0958  136.4055  155.1401 H   0  0  0  0  0  0  0  0  0  0  0  0
  150.8396  136.2242  156.4466 H   0  0  0  0  0  0  0  0  0  0  0  0
  150.5595  136.4781  154.7475 H   0  0  0  0  0  0  0  0  0  0  0  0
  149.6002  138.6602  154.0162 H   0  0  0  0  0  0  0  0  0  0  0  0
  148.2774  138.5191  155.1514 H   0  0  0  0  0  0  0  0  0  0  0  0
  148.9399  140.5957  156.2925 H   0  0  0  0  0  0  0  0  0  0  0  0
  147.4475  140.8393  154.3103 H   0  0  0  0  0  0  0  0  0  0  0  0
  148.8552  140.9905  153.2601 H   0  0  0  0  0  0  0  0  0  0  0  0
  148.5217  142.2254  154.4712 H   0  0  0  0  0  0  0  0  0  0  0  0
  152.6025  140.5233  155.7401 H   0  0  0  0  0  0  0  0  0  0  0  0
  152.2427  140.1728  158.1412 H   0  0  0  0  0  0  0  0  0  0  0  0
  150.5001  140.2718  157.9454 H   0  0  0  0  0  0  0  0  0  0  0  0
  151.5025  141.6875  157.6357 H   0  0  0  0  0  0  0  0  0  0  0  0
  152.1997  138.1632  156.5393 H   0  0  0  0  0  0  0  0  0  0  0  0
  151.9171  138.4375  154.8389 H   0  0  0  0  0  0  0  0  0  0  0  0
  1  2  1  0  0  0  0
  1 22  1  0  0  0  0
  1 23  1  0  0  0  0
  1 24  1  0  0  0  0
  2 21  2  0  0  0  0
  2  3  1  0  0  0  0
  3  4  2  0  0  0  0
  3 25  1  0  0  0  0
  4  5  1  0  0  0  0
  4  6  1  0  0  0  0
  5 26  1  0  0  0  0
  5 27  1  0  0  0  0
  5 28  1  0  0  0  0
  6  7  1  0  0  0  0
  6 21  1  0  0  0  0
  7  8  1  0  0  0  0
  7 29  1  0  0  0  0
  7 30  1  0  0  0  0
  8  9  2  0  0  0  0
  8 10  1  0  0  0  0
 10 11  1  0  0  0  0
 10 31  1  0  0  0  0
 11 12  1  0  0  0  0
 11 32  1  0  0  0  0
 11 33  1  0  0  0  0
 12 13  1  0  0  0  0
 12 34  1  0  0  0  0
 12 35  1  0  0  0  0
 13 20  1  0  0  0  0
 13 14  1  0  0  0  0
 14 15  1  0  0  0  0
 14 36  1  0  0  0  0
 14 37  1  0  0  0  0
 15 16  1  0  0  0  0
 15 17  1  0  0  0  0
 15 38  1  0  0  0  0
 16 39  1  0  0  0  0
 16 40  1  0  0  0  0
 16 41  1  0  0  0  0
 17 18  1  0  0  0  0
 18 19  1  0  0  0  0
 18 20  1  0  0  0  0
 18 42  1  0  0  0  0
 19 43  1  0  0  0  0
 19 44  1  0  0  0  0
 19 45  1  0  0  0  0
 20 46  1  0  0  0  0
 20 47  1  0  0  0  0
M  END
> <s_m_source_file>
AV-unprocessed.smi

> <i_m_source_file_index>
2106

> <i_lp_mmshare_version>
43012

> <i_f3d_flags>
0

> <s_epik_input>
W0NIM11jMVtjSF1jKFtDSDNdKW4objEpW0NIMl1DKD1PKVtOSF1bQ0gyXVtDSDJdTjJbQ0gyXVtDQEBIXShbQ0gzXSlPW0NAQEhdKFtDSDNdKVtDSDJdMg==

> <s_epik_cmdline>
J2VwaWtfcHl0aG9uJywgJy1waCcsICc3LjAnLCAnLXRuJywgJzgnLCAnLW1hJywgJzIwMCcsICctbWV0YWxfYmluZGluZycsICctaW1hZScsICc8aW5maWxlLm1hZT4nLCAnLW9tYWUnLCAnPG91dGZpbGUubWFlPic=

> <r_lp_tautomer_probability>
1

> <r_epik_Ionization_Penalty>
0.197284

> <r_epik_Ionization_Penalty_Charging>
0

> <r_epik_Ionization_Penalty_Neutral>
0.197284

> <r_epik_State_Penalty>
0.186684

> <r_epik_Charging_Adjusted_Penalty>
0.186684

> <i_epik_Tot_Q>
0

> <i_epik_Tot_abs_Q>
0

> <r_epik_Metal_State_Penalty>
0.186634

> <b_epik_Metal_Only>
0

> <s_lp_Force_Field>
OPLS_2005

> <r_lp_Energy>
21.9362

> <b_lp_Chiralities_Consistent>
1

> <s_lp_Variant>
AV-unprocessed.smi:2106-2

> <Gold.Version>
5.8.1

> <Gold.Id.Protein>
6NUR|6NUR_protein|mol2

> <Gold.PLP.Fitness>
40.3442

> <Gold.PLP.PLP>
-36.3474

> <Gold.PLP.part.hbond>
-2.0000

> <Gold.PLP.part.metal>
0.0000

> <Gold.PLP.part.buried>
-3.2497

> <Gold.PLP.part.nonpolar>
-31.2194

> <Gold.PLP.part.repulsive>
0.1100

> <Gold.PLP.ligand.clash>
0.0000

> <Gold.PLP.ligand.torsion>
0.6155

> <Gold.PLP.Chemscore.Hbond>
1.7200

> <Gold.PLP.Chemscore.CHOScore>
0.0000

> <Gold.PLP.Chemscore.Metal>
0.0000

> <Gold.Chemscore.Hbonds>
donor molecule, donor type, donor heavy atom, donor atom, acceptor molecule, acceptor atom, score
      P1  H  6896  6909       L1     9  0.34
      P1  H  7989  7998       L1    17  0.80

> <Gold.PLP.Chemscore.Internal.Correction>
0.0678

> <Gold.Rescore>
     Score         DG    S(hbond)    S(metal)    S(lipo)     H(rot)  DE(clash)    DE(int)     intcor
     14.96     -17.40       1.73        0.00      88.94       1.67       0.05       2.38       ----

> <Gold.Chemscore.Fitness>
14.9648

> <Gold.Chemscore.DG>
-17.3955

> <Gold.Chemscore.ZeroCoef>
-5.4800

> <Gold.Chemscore.Hbond>
1.7288

> <Gold.Chemscore.Metal>
0.0000

> <Gold.Chemscore.Lipo>
88.9352

> <Gold.Chemscore.Internal_Hbond>
0.0000

> <Gold.Chemscore.DEClash>
0.0480

> <Gold.Chemscore.DEInternal>
2.3827

> <Gold.Chemscore.Rot>
1.6657

> <Gold.Chemscore.Internal.Correction>
   9.000000E+99

> <Gold.Chemscore.Hbonds>
donor molecule, donor type, donor heavy atom, donor atom, acceptor molecule, acceptor atom, score
      P1  H  6896  6909       L1     9  0.22
      P1  H  7989  7998       L1    17  0.27

> <Gold.Chemscore.Hbond.Weighted>
-5.7742

> <Gold.Chemscore.Metal.Weighted>
-0.0000

> <Gold.Chemscore.Lipo.Weighted>
-10.4054

> <Gold.Chemscore.Internal_Hbond.Weighted>
0.0000

> <Gold.Chemscore.DEClash.Weighted>
0.0480

> <Gold.Chemscore.DEInternal.Weighted>
2.3827

> <Gold.Chemscore.Rot.Weighted>
4.2641

> <Gold.Chemscore.Internal.Correction.Weighted>
   9.000000E+99

> <Gold.Protein.RotatedTorsions>
[ 6907 6896 6895 6894 ] final   44.40 input  -60.11 | X-H torsion
[ 7974 7965 7964 7962 ] final  172.03 input  175.53 | X-H torsion
[ 8008 7997 7996 7995 ] final -104.91 input   59.86 | X-H torsion
[ 10167 10162 10161 10158 ] final    3.22 input  -65.29 | X-H torsion
[ 10718 10713 10712 10709 ] final   96.13 input   66.30 | X-H torsion
[ 10763 10752 10751 10750 ] final -124.99 input  -60.55 | X-H torsion
[ 11005 11000 10999 10996 ] final   47.21 input  -57.11 | X-H torsion

> <Gold.Protein.ActiveResidues>
 VAL166  LYS551  ARG553  GLY616  TRP617  ASP618  TYR619  PRO620  LYS621  CYS622 
 ASP623  PHE694  ASN695  SER759  ASP760  ASP761  ALA762  ILE779  LEU786  VAL792 
 PHE793  MET794  SER795  GLU796  ALA797  LYS798  CYS799  TRP800  GLU811  SER814 

> <Gold.Protein.RotatedAtoms>
  152.2320  134.8312  160.0472 H   0  0  0  0  0  0  0  0  0  0  0  0  # atno 6907 bound_to 6896
  151.9057  133.3544  159.3854 H   0  0  0  0  0  0  0  0  0  0  0  0  # atno 6908 bound_to 6896
  150.7028  134.4708  159.5468 H   0  0  0  0  0  0  0  0  0  0  0  0  # atno 6909 bound_to 6896
  144.7279  139.9438  143.6429 H   0  0  0  0  0  0  0  0  0  0  0  0  # atno 7974 bound_to 7965
  154.8922  140.0415  157.1845 H   0  0  0  0  0  0  0  0  0  0  0  0  # atno 8008 bound_to 7997
  154.8529  140.2932  155.5566 H   0  0  0  0  0  0  0  0  0  0  0  0  # atno 8009 bound_to 7997
  156.2996  140.2461  156.3491 H   0  0  0  0  0  0  0  0  0  0  0  0  # atno 8010 bound_to 7997
  140.6596  143.7337  150.7715 H   0  0  0  0  0  0  0  0  0  0  0  0  # atno 10167 bound_to 10162
  157.6931  131.0568  150.4444 H   0  0  0  0  0  0  0  0  0  0  0  0  # atno 10718 bound_to 10713
  154.8730  135.4045  154.3195 H   0  0  0  0  0  0  0  0  0  0  0  0  # atno 10763 bound_to 10752
  153.4026  135.7018  153.6421 H   0  0  0  0  0  0  0  0  0  0  0  0  # atno 10764 bound_to 10752
  153.5157  135.3698  155.2579 H   0  0  0  0  0  0  0  0  0  0  0  0  # atno 10765 bound_to 10752
  140.1300  134.4718  155.8529 H   0  0  0  0  0  0  0  0  0  0  0  0  # atno 11005 bound_to 11000
  146.0764  139.3752  143.0491 LP  0  0  0  0  0  0  0  0  0  0  0  0  # atno 17320 bound_to 7965
  145.7900  140.9819  143.1054 LP  0  0  0  0  0  0  0  0  0  0  0  0  # atno 17321 bound_to 7965
  140.1003  143.4794  152.2429 LP  0  0  0  0  0  0  0  0  0  0  0  0  # atno 17342 bound_to 10162
  139.5827  144.7517  151.3598 LP  0  0  0  0  0  0  0  0  0  0  0  0  # atno 17343 bound_to 10162
  156.4800  130.4072  149.6467 LP  0  0  0  0  0  0  0  0  0  0  0  0  # atno 17370 bound_to 10713
  156.3516  130.7435  151.2395 LP  0  0  0  0  0  0  0  0  0  0  0  0  # atno 17371 bound_to 10713
  141.2168  133.6792  156.7050 LP  0  0  0  0  0  0  0  0  0  0  0  0  # atno 17394 bound_to 11000
  140.2855  134.8283  157.3971 LP  0  0  0  0  0  0  0  0  0  0  0  0  # atno 17395 bound_to 11000

$$$$
