#       Name:                AV-unprocessed.smi:1964
#       Creating user name   scv26
#       Creation time:       Fri Mar 27 10:09:52 2020


#       File generated by GOLD software.
#

@<TRIPOS>MOLECULE
AV-unprocessed.smi:1964
    53    55     1
SMALL
NO_CHARGES


@<TRIPOS>ATOM
      1 ****        -2.3174   0.0622  -3.4414 C.3            1 S1                 0.0000
      2 ****        -2.6590  -1.2327  -2.6822 C.3            1 S1                 0.0000
      3 ****        -4.1723  -1.5210  -2.7591 C.3            1 S1                 0.0000
      4 ****        -4.5466  -2.8166  -2.0233 C.3            1 S1                 0.0000
      5 ****        -4.0828  -2.7735  -0.5610 C.3            1 S1                 0.0000
      6 ****        -2.5747  -2.5002  -0.4688 C.3            1 S1                 0.0000
      7 ****        -2.1844  -1.2021  -1.2076 C.3            1 S1                 0.0000
      8 ****        -0.7373  -1.0089  -1.1428 N.am           1 S1                 0.0000
      9 ****        -0.0693  -0.4646  -0.1147 C.2            1 S1                 0.0000
     10 ****        -0.6198  -0.0720   0.9152 O.2            1 S1                 0.0000
     11 ****         1.4525  -0.3529  -0.2945 C.3            1 S1                 0.0000
     12 ****         2.1501   0.1974   0.8885 N.am           1 S1                 0.0000
     13 ****         2.5875  -0.6989   1.8969 C.2            1 S1                 0.0000
     14 ****         2.4163  -1.9139   1.7844 O.2            1 S1                 0.0000
     15 ****         3.2263  -0.0788   3.0555 C.2            1 S1                 0.0000
     16 ****         3.6538  -0.9445   4.1040 C.1            1 S1                 0.0000
     17 ****         4.0130  -1.6286   4.9657 N.1            1 S1                 0.0000
     18 ****         3.3950   1.2579   3.1236 C.2            1 S1                 0.0000
     19 ****         2.9962   2.1079   2.1151 N.am           1 S1                 0.0000
     20 ****         3.0386   3.5340   2.2768 C.3            1 S1                 0.0000
     21 ****         3.7566   4.3975   1.2581 C.3            1 S1                 0.0000
     22 ****         4.3533   4.1946   2.6292 C.3            1 S1                 0.0000
     23 ****         2.3131   1.6005   0.9883 C.2            1 S1                 0.0000
     24 ****         1.8612   2.3547   0.1228 O.2            1 S1                 0.0000
     25 ****        -2.7857   0.9291  -2.9745 H              1 S1                 0.0000
     26 ****        -2.6656   0.0125  -4.4735 H              1 S1                 0.0000
     27 ****        -1.2426   0.2415  -3.4732 H              1 S1                 0.0000
     28 ****        -2.1428  -2.0515  -3.1863 H              1 S1                 0.0000
     29 ****        -4.7281  -0.6868  -2.3283 H              1 S1                 0.0000
     30 ****        -4.4858  -1.5931  -3.8012 H              1 S1                 0.0000
     31 ****        -5.6252  -2.9702  -2.0665 H              1 S1                 0.0000
     32 ****        -4.0918  -3.6700  -2.5280 H              1 S1                 0.0000
     33 ****        -4.6285  -1.9953  -0.0259 H              1 S1                 0.0000
     34 ****        -4.3216  -3.7155  -0.0664 H              1 S1                 0.0000
     35 ****        -2.2825  -2.4399   0.5803 H              1 S1                 0.0000
     36 ****        -2.0280  -3.3444  -0.8916 H              1 S1                 0.0000
     37 ****        -2.6745  -0.3604  -0.7137 H              1 S1                 0.0000
     38 ****        -0.2046  -1.3034  -1.9485 H              1 S1                 0.0000
     39 ****         1.8443  -1.3373  -0.5554 H              1 S1                 0.0000
     40 ****         1.6508   0.2527  -1.1804 H              1 S1                 0.0000
     41 ****         3.8657   1.6811   3.9994 H              1 S1                 0.0000
     42 ****         2.1524   3.9749   2.7300 H              1 S1                 0.0000
     43 ****         4.2538   3.9061   0.4238 H              1 S1                 0.0000
     44 ****         3.3255   5.3713   1.0350 H              1 S1                 0.0000
     45 ****         4.3229   5.0348   3.3197 H              1 S1                 0.0000
     46 ****         5.2403   3.5677   2.6981 H              1 S1                 0.0000
     47 ****        -1.6117  -0.1521   1.0136 LP             1 S1                 0.0000
     48 ****        -0.0747   0.3267   1.6527 LP             1 S1                 0.0000
     49 ****         1.9628  -2.2819   0.9726 LP             1 S1                 0.0000
     50 ****         2.7309  -2.5320   2.5048 LP             1 S1                 0.0000
     51 ****         4.3234  -2.2197   5.7102 LP             1 S1                 0.0000
     52 ****         1.3717   1.9772  -0.6633 LP             1 S1                 0.0000
     53 ****         1.9845   3.3434   0.2073 LP             1 S1                 0.0000
@<TRIPOS>BOND
    1    1    2 1     
    2    1   25 1     
    3    1   26 1     
    4    1   27 1     
    5    2    7 1     
    6    2    3 1     
    7    2   28 1     
    8    3    4 1     
    9    3   29 1     
   10    3   30 1     
   11    4    5 1     
   12    4   31 1     
   13    4   32 1     
   14    5    6 1     
   15    5   33 1     
   16    5   34 1     
   17    6    7 1     
   18    6   35 1     
   19    6   36 1     
   20    7    8 1     
   21    7   37 1     
   22    8    9 am    
   23    8   38 1     
   24    9   10 2     
   25    9   11 1     
   26   11   12 1     
   27   11   39 1     
   28   11   40 1     
   29   12   23 am    
   30   12   13 am    
   31   13   14 2     
   32   13   15 1     
   33   15   16 1     
   34   15   18 2     
   35   16   17 3     
   36   18   19 1     
   37   18   41 1     
   38   19   20 1     
   39   19   23 am    
   40   20   22 1     
   41   20   21 1     
   42   20   42 1     
   43   21   22 1     
   44   21   43 1     
   45   21   44 1     
   46   22   45 1     
   47   22   46 1     
   48   23   24 2     
   49   10   47 1     
   50   10   48 1     
   51   14   49 1     
   52   14   50 1     
   53   17   51 1     
   54   24   52 1     
   55   24   53 1     
@<TRIPOS>SUBSTRUCTURE
      1 S1             1
@<TRIPOS>SET
LONE_PAIRS      STATIC     ATOMS    <user>   **** ""
7 47 48 49 50 51 52 53
DONOR_HYDROGENS      STATIC     ATOMS    <user>   **** ""
1 38
ATOM$BLUE        STATIC     ATOMS    COLORGROUP SYSTEM
7 47 48 49 50 51 52 53
ATOM$RED        STATIC     ATOMS    COLORGROUP SYSTEM
1 38
