AV-unprocessed.smi:2183|AV-procd|sdf|8867|dock10
  -GOLD-   2272012 63D 1   1.00000     0.00000
 Structure written by MMmdl.
 41 43  0  0  0  0  0  0  0  0  2 V2000
  150.1702  140.0333  154.2720 O   0  0  0  0  0  0  0  0  0  0  0  0
  149.4263  140.4247  155.4043 C   0  0  0  0  0  0  0  0  0  0  0  0
  150.2871  141.0214  156.4683 C   0  0  0  0  0  0  0  0  0  0  0  0
  150.4057  142.3500  156.7472 N   0  3  0  0  0  0  0  0  0  0  0  0
  151.3071  142.5341  157.7964 C   0  0  0  0  0  0  0  0  0  0  0  0
  151.7473  143.6948  158.4250 C   0  0  0  0  0  0  0  0  0  0  0  0
  152.6768  143.5334  159.4732 C   0  0  0  0  0  0  0  0  0  0  0  0
  153.1322  142.2562  159.8600 C   0  0  0  0  0  0  0  0  0  0  0  0
  152.6794  141.0867  159.2144 C   0  0  0  0  0  0  0  0  0  0  0  0
  151.7615  141.2545  158.1774 C   0  0  0  0  0  0  0  0  0  0  0  0
  151.1071  140.3524  157.3292 N   0  0  0  0  0  0  0  0  0  0  0  0
  151.3674  138.9091  157.4529 C   0  0  0  0  0  0  0  0  0  0  0  0
  151.0174  138.3570  158.8492 C   0  0  2  0  0  0  0  0  0  0  0  0
  151.9691  137.3875  159.2382 O   0  0  0  0  0  0  0  0  0  0  0  0
  149.6212  137.7200  158.8969 C   0  0  0  0  0  0  0  0  0  0  0  0
  149.2339  137.5699  160.2565 O   0  0  0  0  0  0  0  0  0  0  0  0
  148.6860  136.3685  160.6515 C   0  0  0  0  0  0  0  0  0  0  0  0
  148.3102  136.2517  162.0058 C   0  0  0  0  0  0  0  0  0  0  0  0
  147.7425  135.0601  162.4967 C   0  0  0  0  0  0  0  0  0  0  0  0
  147.5451  133.9672  161.6324 C   0  0  0  0  0  0  0  0  0  0  0  0
  146.8509  132.5053  162.2306 Cl  0  0  0  0  0  0  0  0  0  0  0  0
  147.9157  134.0696  160.2785 C   0  0  0  0  0  0  0  0  0  0  0  0
  148.4831  135.2620  159.7881 C   0  0  0  0  0  0  0  0  0  0  0  0
  150.3958  139.1197  154.3608 H   0  0  0  0  0  0  0  0  0  0  0  0
  148.6695  141.1486  155.1008 H   0  0  0  0  0  0  0  0  0  0  0  0
  148.8987  139.5576  155.8016 H   0  0  0  0  0  0  0  0  0  0  0  0
  151.3997  144.6742  158.1306 H   0  0  0  0  0  0  0  0  0  0  0  0
  153.0474  144.4062  159.9912 H   0  0  0  0  0  0  0  0  0  0  0  0
  153.8433  142.1710  160.6689 H   0  0  0  0  0  0  0  0  0  0  0  0
  153.0329  140.1141  159.5230 H   0  0  0  0  0  0  0  0  0  0  0  0
  150.7652  138.4104  156.6926 H   0  0  0  0  0  0  0  0  0  0  0  0
  152.4058  138.7032  157.1931 H   0  0  0  0  0  0  0  0  0  0  0  0
  151.0594  139.1632  159.5821 H   0  0  0  0  0  0  0  0  0  0  0  0
  152.6392  137.8155  159.7486 H   0  0  0  0  0  0  0  0  0  0  0  0
  148.9058  138.3406  158.3545 H   0  0  0  0  0  0  0  0  0  0  0  0
  149.6504  136.7389  158.4192 H   0  0  0  0  0  0  0  0  0  0  0  0
  148.4584  137.0854  162.6762 H   0  0  0  0  0  0  0  0  0  0  0  0
  147.4595  134.9866  163.5364 H   0  0  0  0  0  0  0  0  0  0  0  0
  147.7658  133.2330  159.6122 H   0  0  0  0  0  0  0  0  0  0  0  0
  148.7554  135.3010  158.7446 H   0  0  0  0  0  0  0  0  0  0  0  0
  149.9081  143.0769  156.2494 H   0  0  0  0  0  0  0  0  0  0  0  0
  1  2  1  0  0  0  0
  1 24  1  0  0  0  0
  2  3  1  0  0  0  0
  2 25  1  0  0  0  0
  2 26  1  0  0  0  0
  3 11  1  0  0  0  0
  3  4  2  0  0  0  0
  4  5  1  0  0  0  0
  4 41  1  0  0  0  0
  5 10  2  0  0  0  0
  5  6  1  0  0  0  0
  6  7  2  0  0  0  0
  6 27  1  0  0  0  0
  7  8  1  0  0  0  0
  7 28  1  0  0  0  0
  8  9  2  0  0  0  0
  8 29  1  0  0  0  0
  9 10  1  0  0  0  0
  9 30  1  0  0  0  0
 10 11  1  0  0  0  0
 11 12  1  0  0  0  0
 12 13  1  0  0  0  0
 12 31  1  0  0  0  0
 12 32  1  0  0  0  0
 13 14  1  0  0  0  0
 13 15  1  0  0  0  0
 13 33  1  0  0  0  0
 14 34  1  0  0  0  0
 15 16  1  0  0  0  0
 15 35  1  0  0  0  0
 15 36  1  0  0  0  0
 16 17  1  0  0  0  0
 17 23  1  0  0  0  0
 17 18  2  0  0  0  0
 18 19  1  0  0  0  0
 18 37  1  0  0  0  0
 19 20  2  0  0  0  0
 19 38  1  0  0  0  0
 20 21  1  0  0  0  0
 20 22  1  0  0  0  0
 22 23  2  0  0  0  0
 22 39  1  0  0  0  0
 23 40  1  0  0  0  0
M  CHG  1   4   1
M  END
> <s_m_source_file>
AV-unprocessed.smi

> <i_m_source_file_index>
2183

> <i_lp_mmshare_version>
43012

> <i_f3d_flags>
0

> <s_epik_input>
W2NIXTFbY0hdW2NIXVtjSF1jKGMxMiluKGMobjIpW0NIMl1bT0hdKVtDSDJdW0NASF0oW09IXSlbQ0gyXU9jM1tjSF1bY0hdYyhDbClbY0hdW2NIXTM=

> <s_epik_cmdline>
J2VwaWtfcHl0aG9uJywgJy1waCcsICc3LjAnLCAnLXRuJywgJzgnLCAnLW1hJywgJzIwMCcsICctbWV0YWxfYmluZGluZycsICctaW1hZScsICc8aW5maWxlLm1hZT4nLCAnLW9tYWUnLCAnPG91dGZpbGUubWFlPic=

> <r_lp_tautomer_probability>
1

> <r_epik_Ionization_Penalty>
1.40052

> <r_epik_Ionization_Penalty_Charging>
1.39966

> <r_epik_Ionization_Penalty_Neutral>
0.000858184

> <r_epik_State_Penalty>
1.4817

> <r_epik_Charging_Adjusted_Penalty>
2.88136

> <i_epik_Tot_Q>
1

> <i_epik_Tot_abs_Q>
1

> <r_epik_Metal_State_Penalty>
5.5238

> <b_epik_Metal_Only>
0

> <s_lp_Force_Field>
OPLS_2005

> <r_lp_Energy>
17.0634

> <b_lp_Chiralities_Consistent>
1

> <s_lp_Variant>
AV-unprocessed.smi:2183-3

> <Gold.Version>
5.8.1

> <Gold.Id.Protein>
6NUR|6NUR_protein|mol2

> <Gold.PLP.Fitness>
56.0248

> <Gold.PLP.PLP>
-47.4380

> <Gold.PLP.part.hbond>
-5.0993

> <Gold.PLP.part.metal>
0.0000

> <Gold.PLP.part.buried>
-6.5672

> <Gold.PLP.part.nonpolar>
-37.1725

> <Gold.PLP.part.repulsive>
0.0496

> <Gold.PLP.ligand.clash>
0.0000

> <Gold.PLP.ligand.torsion>
1.1652

> <Gold.PLP.Chemscore.Hbond>
3.6061

> <Gold.PLP.Chemscore.CHOScore>
0.0000

> <Gold.PLP.Chemscore.Metal>
0.0000

> <Gold.Chemscore.Hbonds>
donor molecule, donor type, donor heavy atom, donor atom, acceptor molecule, acceptor atom, score
      L1  H     4    41       P1  8028  2.00
      P1  H  6931  6943       L1    16  0.20
      P1  H  7989  7998       L1     1  1.00

> <Gold.PLP.Chemscore.Internal.Correction>
0.0987

> <Gold.Rescore>
     Score         DG    S(hbond)    S(metal)    S(lipo)     H(rot)  DE(clash)    DE(int)     intcor
     17.59     -18.64       2.03        0.00     122.98       3.13       0.00       1.04       ----

> <Gold.Chemscore.Fitness>
17.5939

> <Gold.Chemscore.DG>
-18.6351

> <Gold.Chemscore.ZeroCoef>
-5.4800

> <Gold.Chemscore.Hbond>
2.0302

> <Gold.Chemscore.Metal>
0.0000

> <Gold.Chemscore.Lipo>
122.9769

> <Gold.Chemscore.Internal_Hbond>
0.0000

> <Gold.Chemscore.DEClash>
0.0000

> <Gold.Chemscore.DEInternal>
1.0413

> <Gold.Chemscore.Rot>
3.1305

> <Gold.Chemscore.Internal.Correction>
   9.000000E+99

> <Gold.Chemscore.Hbonds>
donor molecule, donor type, donor heavy atom, donor atom, acceptor molecule, acceptor atom, score
      L1  H     4    41       P1  8028  0.94
      P1  H  6896  6909       L1    14  0.04
      P1  H  6931  6943       L1    16  0.02
      P1  H  7989  7998       L1     1  0.58

> <Gold.Chemscore.Hbond.Weighted>
-6.7810

> <Gold.Chemscore.Metal.Weighted>
-0.0000

> <Gold.Chemscore.Lipo.Weighted>
-14.3883

> <Gold.Chemscore.Internal_Hbond.Weighted>
0.0000

> <Gold.Chemscore.DEClash.Weighted>
0.0000

> <Gold.Chemscore.DEInternal.Weighted>
1.0413

> <Gold.Chemscore.Rot.Weighted>
8.0141

> <Gold.Chemscore.Internal.Correction.Weighted>
   9.000000E+99

> <Gold.Protein.RotatedTorsions>
[ 6907 6896 6895 6894 ] final  100.63 input  -60.11 | X-H torsion
[ 7974 7965 7964 7962 ] final   58.48 input  175.53 | X-H torsion
[ 8008 7997 7996 7995 ] final   50.14 input   59.86 | X-H torsion
[ 10167 10162 10161 10158 ] final  -59.76 input  -65.29 | X-H torsion
[ 10718 10713 10712 10709 ] final  133.17 input   66.30 | X-H torsion
[ 10763 10752 10751 10750 ] final  -41.47 input  -60.55 | X-H torsion
[ 11005 11000 10999 10996 ] final  -12.56 input  -57.11 | X-H torsion

> <Gold.Protein.ActiveResidues>
 VAL166  LYS551  ARG553  GLY616  TRP617  ASP618  TYR619  PRO620  LYS621  CYS622 
 ASP623  PHE694  ASN695  SER759  ASP760  ASP761  ALA762  ILE779  LEU786  VAL792 
 PHE793  MET794  SER795  GLU796  ALA797  LYS798  CYS799  TRP800  GLU811  SER814 

> <Gold.Protein.RotatedAtoms>
  152.5368  134.0247  159.7997 H   0  0  0  0  0  0  0  0  0  0  0  0  # atno 6907 bound_to 6896
  151.0428  133.5684  159.2656 H   0  0  0  0  0  0  0  0  0  0  0  0  # atno 6908 bound_to 6896
  151.2647  135.0673  159.9165 H   0  0  0  0  0  0  0  0  0  0  0  0  # atno 6909 bound_to 6896
  145.9177  139.3704  143.0497 H   0  0  0  0  0  0  0  0  0  0  0  0  # atno 7974 bound_to 7965
  155.4138  140.3443  155.4266 H   0  0  0  0  0  0  0  0  0  0  0  0  # atno 8008 bound_to 7997
  156.1433  140.1548  156.8918 H   0  0  0  0  0  0  0  0  0  0  0  0  # atno 8009 bound_to 7997
  154.4989  140.0820  156.7737 H   0  0  0  0  0  0  0  0  0  0  0  0  # atno 8010 bound_to 7997
  140.6114  143.2388  151.5699 H   0  0  0  0  0  0  0  0  0  0  0  0  # atno 10167 bound_to 10162
  157.4799  131.1085  150.9695 H   0  0  0  0  0  0  0  0  0  0  0  0  # atno 10718 bound_to 10713
  153.9630  135.6737  153.4745 H   0  0  0  0  0  0  0  0  0  0  0  0  # atno 10763 bound_to 10752
  153.0829  135.4914  154.8535 H   0  0  0  0  0  0  0  0  0  0  0  0  # atno 10764 bound_to 10752
  154.7262  135.3128  154.8927 H   0  0  0  0  0  0  0  0  0  0  0  0  # atno 10765 bound_to 10752
  140.7670  133.8469  155.9173 H   0  0  0  0  0  0  0  0  0  0  0  0  # atno 11005 bound_to 11000
  145.8590  140.9486  143.0710 LP  0  0  0  0  0  0  0  0  0  0  0  0  # atno 17320 bound_to 7965
  144.6749  140.0505  143.7479 LP  0  0  0  0  0  0  0  0  0  0  0  0  # atno 17321 bound_to 7965
  139.5364  144.2768  152.1261 LP  0  0  0  0  0  0  0  0  0  0  0  0  # atno 17342 bound_to 10162
  140.1968  144.4697  150.6451 LP  0  0  0  0  0  0  0  0  0  0  0  0  # atno 17343 bound_to 10162
  157.0431  130.5757  149.5359 LP  0  0  0  0  0  0  0  0  0  0  0  0  # atno 17370 bound_to 10713
  156.0116  130.5208  150.8007 LP  0  0  0  0  0  0  0  0  0  0  0  0  # atno 17371 bound_to 10713
  140.9610  134.1655  157.4654 LP  0  0  0  0  0  0  0  0  0  0  0  0  # atno 17394 bound_to 11000
  139.8762  134.9944  156.5695 LP  0  0  0  0  0  0  0  0  0  0  0  0  # atno 17395 bound_to 11000

$$$$
