#       Name:                AV-unprocessed.smi:1196
#       Creating user name   scv26
#       Creation time:       Fri Mar 27 04:01:14 2020


#       File generated by GOLD software.
#

@<TRIPOS>MOLECULE
AV-unprocessed.smi:1196
    44    45     1
SMALL
NO_CHARGES


@<TRIPOS>ATOM
      1 ****        -3.3050  -1.4078   1.6235 C.3            1 S1                 0.0000
      2 ****        -2.6844  -0.7495   0.3813 C.3            1 S1                 0.0000
      3 ****        -3.2049  -1.3955  -0.9175 C.3            1 S1                 0.0000
      4 ****        -2.7528  -0.6921  -2.1050 N.pl3          1 S1                 0.0000
      5 ****        -1.6964  -1.0025  -2.9351 C.2            1 S1                 0.0000
      6 ****        -1.6531  -0.0493  -3.9116 C.2            1 S1                 0.0000
      7 ****        -2.7378   0.8134  -3.5894 C.2            1 S1                 0.0000
      8 ****        -3.3950   0.4254  -2.5084 N.2            1 S1                 0.0000
      9 ****        -1.2272  -0.8465   0.4380 N.am           1 S1                 0.0000
     10 ****        -0.4146  -0.0019   1.0907 C.2            1 S1                 0.0000
     11 ****        -0.8255   0.9498   1.7559 O.2            1 S1                 0.0000
     12 ****         1.0841  -0.2917   0.9618 C.3            1 S1                 0.0000
     13 ****         1.9828   0.8033   1.5701 C.3            1 S1                 0.0000
     14 ****         3.4885   0.5024   1.4161 C.3            1 S1                 0.0000
     15 ****         3.9246   0.6602   0.0393 N.pl3          1 S1                -1.0000
     16 ****         4.8976   1.6010   0.0021 C.2            1 S1                 0.0000
     17 ****         5.5155   2.0047  -0.9804 O.2            1 S1                 0.0000
     18 ****         5.1352   2.0847   1.2258 N.am           1 S1                 0.0000
     19 ****         4.3527   1.5182   2.1385 C.2            1 S1                 0.0000
     20 ****         4.3184   1.7553   3.3452 O.2            1 S1                 0.0000
     21 ****        -4.3923  -1.3329   1.6030 H              1 S1                 0.0000
     22 ****        -2.9625  -0.9265   2.5401 H              1 S1                 0.0000
     23 ****        -3.0448  -2.4651   1.6849 H              1 S1                 0.0000
     24 ****        -2.9734   0.3034   0.3752 H              1 S1                 0.0000
     25 ****        -2.8859  -2.4367  -0.9847 H              1 S1                 0.0000
     26 ****        -4.2959  -1.4048  -0.9221 H              1 S1                 0.0000
     27 ****        -1.0682  -1.8635  -2.7608 H              1 S1                 0.0000
     28 ****        -0.9519   0.0221  -4.7297 H              1 S1                 0.0000
     29 ****        -3.0648   1.7039  -4.1056 H              1 S1                 0.0000
     30 ****        -0.8010  -1.6013  -0.0797 H              1 S1                 0.0000
     31 ****         1.2945  -1.2490   1.4396 H              1 S1                 0.0000
     32 ****         1.3165  -0.4126  -0.0971 H              1 S1                 0.0000
     33 ****         1.7480   1.7699   1.1199 H              1 S1                 0.0000
     34 ****         1.7470   0.8992   2.6315 H              1 S1                 0.0000
     35 ****         3.7160  -0.4868   1.8157 H              1 S1                 0.0000
     36 ****         5.8167   2.8005   1.4286 H              1 S1                 0.0000
     37 ****        -4.1890   0.8617  -2.0851 LP             1 S1                 0.0000
     38 ****        -1.8079   1.1221   1.8283 LP             1 S1                 0.0000
     39 ****        -0.1768   1.5501   2.2236 LP             1 S1                 0.0000
     40 ****         3.5665   0.1585  -0.7482 LP             1 S1                 0.0000
     41 ****         5.3169   1.6283  -1.8853 LP             1 S1                 0.0000
     42 ****         6.2169   2.7096  -0.8750 LP             1 S1                 0.0000
     43 ****         3.6813   1.2584   3.9345 LP             1 S1                 0.0000
     44 ****         4.9276   2.4449   3.7368 LP             1 S1                 0.0000
@<TRIPOS>BOND
    1    1    2 1     
    2    1   21 1     
    3    1   22 1     
    4    1   23 1     
    5    2    3 1     
    6    2    9 1     
    7    2   24 1     
    8    3    4 1     
    9    3   25 1     
   10    3   26 1     
   11    4    8 1     
   12    4    5 1     
   13    5    6 2     
   14    5   27 1     
   15    6    7 1     
   16    6   28 1     
   17    7    8 2     
   18    7   29 1     
   19    9   10 am    
   20    9   30 1     
   21   10   11 2     
   22   10   12 1     
   23   12   13 1     
   24   12   31 1     
   25   12   32 1     
   26   13   14 1     
   27   13   33 1     
   28   13   34 1     
   29   14   19 1     
   30   14   15 1     
   31   14   35 1     
   32   15   16 1     
   33   16   17 2     
   34   16   18 am    
   35   18   19 am    
   36   18   36 1     
   37   19   20 2     
   38    8   37 1     
   39   11   38 1     
   40   11   39 1     
   41   15   40 1     
   42   17   41 1     
   43   17   42 1     
   44   20   43 1     
   45   20   44 1     
@<TRIPOS>SUBSTRUCTURE
      1 S1             1
@<TRIPOS>SET
LONE_PAIRS      STATIC     ATOMS    <user>   **** ""
8 37 38 39 40 41 42 43 44
DONOR_HYDROGENS      STATIC     ATOMS    <user>   **** ""
2 30 36
ATOM$BLUE        STATIC     ATOMS    COLORGROUP SYSTEM
8 37 38 39 40 41 42 43 44
ATOM$RED        STATIC     ATOMS    COLORGROUP SYSTEM
2 30 36
