#       Name:                AV-unprocessed.smi:269
#       Creating user name   scv26
#       Creation time:       Thu Mar 26 21:26:40 2020


#       File generated by GOLD software.
#

@<TRIPOS>MOLECULE
AV-unprocessed.smi:269
    72    75     1
SMALL
NO_CHARGES


@<TRIPOS>ATOM
      1 ****        -4.0214   5.8297   5.3541 C.3            1 S1                 0.0000
      2 ****        -4.8733   4.7375   4.6995 C.3            1 S1                 0.0000
      3 ****        -4.0552   3.5531   4.4577 N.pl3          1 S1                -1.0000
      4 ****        -4.5596   2.3677   4.0216 C.2            1 S1                 0.0000
      5 ****        -5.7186   2.0354   3.7520 O.2            1 S1                 0.0000
      6 ****        -3.4474   1.3304   3.8305 C.3            1 S1                 0.0000
      7 ****        -3.3246   0.9717   2.3959 N.4            1 S1                 1.0000
      8 ****        -2.7352  -0.3773   2.1994 C.3            1 S1                 0.0000
      9 ****        -2.7034  -0.7603   0.7089 C.3            1 S1                 0.0000
     10 ****        -2.0214   0.2648  -0.0768 N.3            1 S1                 0.0000
     11 ****        -0.6793   0.1121  -0.2384 C.ar           1 S1                 0.0000
     12 ****         0.1646   1.1057   0.1487 N.ar           1 S1                 0.0000
     13 ****         1.4854   0.9688   0.0067 C.ar           1 S1                 0.0000
     14 ****         2.1659  -0.0606  -0.4977 N.ar           1 S1                 0.0000
     15 ****         1.3294  -1.0563  -0.9062 C.ar           1 S1                 0.0000
     16 ****        -0.0916  -1.0540  -0.8094 C.ar           1 S1                 0.0000
     17 ****        -0.5981  -2.2397  -1.3281 N.2            1 S1                 0.0000
     18 ****         0.4606  -2.9076  -1.6961 C.2            1 S1                 0.0000
     19 ****         1.6618  -2.2635  -1.4983 N.pl3          1 S1                 0.0000
     20 ****         2.9902  -2.7728  -1.8160 C.3            1 S1                 0.0000
     21 ****         3.4847  -2.4791  -3.2690 C.3            1 S1                 0.0000
     22 ****         2.4996  -3.0575  -4.3198 C.3            1 S1                 0.0000
     23 ****         2.3391  -4.4564  -4.1910 O.3            1 S1                 0.0000
     24 ****         3.6172  -0.9582  -3.5363 C.3            1 S1                 0.0000
     25 ****         4.7919  -0.3172  -2.7746 C.3            1 S1                 0.0000
     26 ****         6.0042  -0.9775  -3.1125 O.3            1 S1                 0.0000
     27 ****         6.0032  -2.3496  -2.7415 C.3            1 S1                 0.0000
     28 ****         4.8877  -3.0983  -3.4938 C.3            1 S1                 0.0000
     29 ****        -2.5715   1.6090   0.0992 C.3            1 S1                 0.0000
     30 ****        -2.6257   2.0070   1.5872 C.3            1 S1                 0.0000
     31 ****        -4.6167   6.7244   5.5371 H              1 S1                 0.0000
     32 ****        -3.1834   6.1151   4.7174 H              1 S1                 0.0000
     33 ****        -3.6197   5.4984   6.3123 H              1 S1                 0.0000
     34 ****        -5.7222   4.5196   5.3483 H              1 S1                 0.0000
     35 ****        -5.2959   5.1282   3.7732 H              1 S1                 0.0000
     36 ****        -2.4836   1.6604   4.2246 H              1 S1                 0.0000
     37 ****        -3.7327   0.4515   4.4102 H              1 S1                 0.0000
     38 ****        -1.7251  -0.3943   2.6120 H              1 S1                 0.0000
     39 ****        -3.3168  -1.1182   2.7492 H              1 S1                 0.0000
     40 ****        -2.2428  -1.7403   0.5949 H              1 S1                 0.0000
     41 ****        -3.7221  -0.8577   0.3318 H              1 S1                 0.0000
     42 ****         2.0821   1.8034   0.3446 H              1 S1                 0.0000
     43 ****         0.3903  -3.8927  -2.1334 H              1 S1                 0.0000
     44 ****         3.6819  -2.3689  -1.0780 H              1 S1                 0.0000
     45 ****         2.9812  -3.8484  -1.6361 H              1 S1                 0.0000
     46 ****         1.5216  -2.5819  -4.2476 H              1 S1                 0.0000
     47 ****         2.8568  -2.8576  -5.3306 H              1 S1                 0.0000
     48 ****         2.0097  -4.6436  -3.3256 H              1 S1                 0.0000
     49 ****         3.7862  -0.7920  -4.6011 H              1 S1                 0.0000
     50 ****         2.6887  -0.4366  -3.3057 H              1 S1                 0.0000
     51 ****         4.8802   0.7342  -3.0483 H              1 S1                 0.0000
     52 ****         4.6406  -0.3456  -1.6958 H              1 S1                 0.0000
     53 ****         6.9727  -2.7773  -2.9974 H              1 S1                 0.0000
     54 ****         5.8964  -2.4489  -1.6610 H              1 S1                 0.0000
     55 ****         4.8939  -4.1496  -3.2042 H              1 S1                 0.0000
     56 ****         5.1284  -3.0786  -4.5577 H              1 S1                 0.0000
     57 ****        -2.0083   2.3441  -0.4772 H              1 S1                 0.0000
     58 ****        -3.5804   1.6144  -0.3145 H              1 S1                 0.0000
     59 ****        -3.1312   2.9683   1.6803 H              1 S1                 0.0000
     60 ****        -1.6178   2.1460   1.9797 H              1 S1                 0.0000
     61 ****        -4.2699   0.9194   2.0440 H              1 S1                 0.0000
     62 ****        -3.0708   3.6166   4.6215 LP             1 S1                 0.0000
     63 ****        -6.4631   2.6963   3.8466 LP             1 S1                 0.0000
     64 ****        -5.9122   1.1055   3.4391 LP             1 S1                 0.0000
     65 ****        -2.2743   0.0805  -1.0266 LP             1 S1                 0.0000
     66 ****        -0.2071   1.9461   0.5431 LP             1 S1                 0.0000
     67 ****         3.1628  -0.0976  -0.5675 LP             1 S1                 0.0000
     68 ****        -1.5558  -2.5177  -1.4024 LP             1 S1                 0.0000
     69 ****         3.2207  -4.9101  -4.3213 LP             1 S1                 0.0000
     70 ****         1.6902  -4.7857  -4.8770 LP             1 S1                 0.0000
     71 ****         6.7594  -0.5198  -2.6433 LP             1 S1                 0.0000
     72 ****         6.1385  -0.9136  -4.1014 LP             1 S1                 0.0000
@<TRIPOS>BOND
    1    1    2 1     
    2    1   31 1     
    3    1   32 1     
    4    1   33 1     
    5    2    3 1     
    6    2   34 1     
    7    2   35 1     
    8    3    4 1     
    9    4    5 2     
   10    4    6 1     
   11    6    7 1     
   12    6   36 1     
   13    6   37 1     
   14    7   30 1     
   15    7    8 1     
   16    7   61 1     
   17    8    9 1     
   18    8   38 1     
   19    8   39 1     
   20    9   10 1     
   21    9   40 1     
   22    9   41 1     
   23   10   11 1     
   24   10   29 1     
   25   11   16 ar    
   26   11   12 ar    
   27   12   13 ar    
   28   13   14 ar    
   29   13   42 1     
   30   14   15 ar    
   31   15   19 1     
   32   15   16 ar    
   33   16   17 1     
   34   17   18 2     
   35   18   19 1     
   36   18   43 1     
   37   19   20 1     
   38   20   21 1     
   39   20   44 1     
   40   20   45 1     
   41   21   28 1     
   42   21   22 1     
   43   21   24 1     
   44   22   23 1     
   45   22   46 1     
   46   22   47 1     
   47   23   48 1     
   48   24   25 1     
   49   24   49 1     
   50   24   50 1     
   51   25   26 1     
   52   25   51 1     
   53   25   52 1     
   54   26   27 1     
   55   27   28 1     
   56   27   53 1     
   57   27   54 1     
   58   28   55 1     
   59   28   56 1     
   60   29   30 1     
   61   29   57 1     
   62   29   58 1     
   63   30   59 1     
   64   30   60 1     
   65    3   62 1     
   66    5   63 1     
   67    5   64 1     
   68   10   65 1     
   69   12   66 1     
   70   14   67 1     
   71   17   68 1     
   72   23   69 1     
   73   23   70 1     
   74   26   71 1     
   75   26   72 1     
@<TRIPOS>SUBSTRUCTURE
      1 S1             1
@<TRIPOS>SET
LONE_PAIRS      STATIC     ATOMS    <user>   **** ""
11 62 63 64 65 66 67 68 69 70 71 72
DONOR_HYDROGENS      STATIC     ATOMS    <user>   **** ""
2 61 48
ATOM$BLUE        STATIC     ATOMS    COLORGROUP SYSTEM
11 62 63 64 65 66 67 68 69 70 71 72
ATOM$RED        STATIC     ATOMS    COLORGROUP SYSTEM
2 61 48
