AV-unprocessed.smi:3303|AV-procd|sdf|12678|dock4
  -GOLD-   2272019 13D 1   1.00000     0.00000
 Structure written by MMmdl.
 44 45  0  0  0  0  0  0  0  0  2 V2000
  147.1720  141.4089  153.6505 C   0  0  0  0  0  0  0  0  0  0  0  0
  148.5591  140.7613  153.7978 C   0  0  1  0  0  0  0  0  0  0  0  0
  149.2499  141.2856  155.0738 C   0  0  0  0  0  0  0  0  0  0  0  0
  150.5717  140.6803  155.2354 N   0  0  0  0  0  0  0  0  0  0  0  0
  151.2950  141.3200  156.3274 C   0  0  0  0  0  0  0  0  0  0  0  0
  150.5221  139.2165  155.3652 C   0  0  1  0  0  0  0  0  0  0  0  0
  149.8446  138.7064  156.6579 C   0  0  0  0  0  0  0  0  0  0  0  0
  149.8793  138.6330  154.0906 C   0  0  0  0  0  0  0  0  0  0  0  0
  148.4835  139.2190  153.8099 C   0  0  2  0  0  0  0  0  0  0  0  0
  147.9846  138.7093  152.5131 N   0  3  0  0  0  0  0  0  0  0  0  0
  146.5207  138.7846  152.3383 C   0  0  0  0  0  0  0  0  0  0  0  0
  145.8002  137.8666  153.3348 C   0  0  0  0  0  0  0  0  0  0  0  0
  145.1702  136.6655  152.6556 C   0  0  0  0  0  0  0  0  0  0  0  0
  144.2295  135.8635  153.3364 C   0  0  0  0  0  0  0  0  0  0  0  0
  143.6809  134.7552  152.6624 C   0  0  0  0  0  0  0  0  0  0  0  0
  144.0918  134.4937  151.3412 C   0  0  0  0  0  0  0  0  0  0  0  0
  145.0389  135.3539  150.7506 C   0  0  0  0  0  0  0  0  0  0  0  0
  145.5730  136.4181  151.3889 N   0  0  0  0  0  0  0  0  0  0  0  0
  146.5129  141.1227  154.4709 H   0  0  0  0  0  0  0  0  0  0  0  0
  146.6883  141.1191  152.7176 H   0  0  0  0  0  0  0  0  0  0  0  0
  147.2473  142.4968  153.6514 H   0  0  0  0  0  0  0  0  0  0  0  0
  149.1642  141.0694  152.9432 H   0  0  0  0  0  0  0  0  0  0  0  0
  149.3644  142.3678  154.9961 H   0  0  0  0  0  0  0  0  0  0  0  0
  148.6333  141.1022  155.9540 H   0  0  0  0  0  0  0  0  0  0  0  0
  152.2821  140.8734  156.4503 H   0  0  0  0  0  0  0  0  0  0  0  0
  150.7576  141.2390  157.2724 H   0  0  0  0  0  0  0  0  0  0  0  0
  151.4367  142.3802  156.1153 H   0  0  0  0  0  0  0  0  0  0  0  0
  151.5552  138.8670  155.3904 H   0  0  0  0  0  0  0  0  0  0  0  0
  149.8406  137.6165  156.6801 H   0  0  0  0  0  0  0  0  0  0  0  0
  148.8092  139.0321  156.7507 H   0  0  0  0  0  0  0  0  0  0  0  0
  150.3772  139.0323  157.5508 H   0  0  0  0  0  0  0  0  0  0  0  0
  150.5349  138.8393  153.2428 H   0  0  0  0  0  0  0  0  0  0  0  0
  149.8210  137.5464  154.1679 H   0  0  0  0  0  0  0  0  0  0  0  0
  147.8070  138.9093  154.6080 H   0  0  0  0  0  0  0  0  0  0  0  0
  148.4173  139.2508  151.7785 H   0  0  0  0  0  0  0  0  0  0  0  0
  146.1972  139.8178  152.4722 H   0  0  0  0  0  0  0  0  0  0  0  0
  146.2657  138.4935  151.3184 H   0  0  0  0  0  0  0  0  0  0  0  0
  146.5000  137.5201  154.0966 H   0  0  0  0  0  0  0  0  0  0  0  0
  145.0231  138.4222  153.8624 H   0  0  0  0  0  0  0  0  0  0  0  0
  143.9338  136.0889  154.3507 H   0  0  0  0  0  0  0  0  0  0  0  0
  142.9588  134.1168  153.1502 H   0  0  0  0  0  0  0  0  0  0  0  0
  143.6908  133.6535  150.7937 H   0  0  0  0  0  0  0  0  0  0  0  0
  145.3775  135.1818  149.7394 H   0  0  0  0  0  0  0  0  0  0  0  0
  148.2744  137.7467  152.4132 H   0  0  0  0  0  0  0  0  0  0  0  0
  1  2  1  0  0  0  0
  1 19  1  0  0  0  0
  1 20  1  0  0  0  0
  1 21  1  0  0  0  0
  2  9  1  0  0  0  0
  2  3  1  0  0  0  0
  2 22  1  0  0  0  0
  3  4  1  0  0  0  0
  3 23  1  0  0  0  0
  3 24  1  0  0  0  0
  4  5  1  0  0  0  0
  4  6  1  0  0  0  0
  5 25  1  0  0  0  0
  5 26  1  0  0  0  0
  5 27  1  0  0  0  0
  6  7  1  0  0  0  0
  6  8  1  0  0  0  0
  6 28  1  0  0  0  0
  7 29  1  0  0  0  0
  7 30  1  0  0  0  0
  7 31  1  0  0  0  0
  8  9  1  0  0  0  0
  8 32  1  0  0  0  0
  8 33  1  0  0  0  0
  9 10  1  0  0  0  0
  9 34  1  0  0  0  0
 10 11  1  0  0  0  0
 10 35  1  0  0  0  0
 10 44  1  0  0  0  0
 11 12  1  0  0  0  0
 11 36  1  0  0  0  0
 11 37  1  0  0  0  0
 12 13  1  0  0  0  0
 12 38  1  0  0  0  0
 12 39  1  0  0  0  0
 13 18  1  0  0  0  0
 13 14  2  0  0  0  0
 14 15  1  0  0  0  0
 14 40  1  0  0  0  0
 15 16  2  0  0  0  0
 15 41  1  0  0  0  0
 16 17  1  0  0  0  0
 16 42  1  0  0  0  0
 17 18  2  0  0  0  0
 17 43  1  0  0  0  0
M  CHG  1  10   1
M  END
> <s_m_source_file>
AV-unprocessed.smi

> <i_m_source_file_index>
3303

> <i_lp_mmshare_version>
43012

> <i_f3d_flags>
0

> <s_epik_input>
W0NIM11bQ0BASF0xW0NIMl1OKFtDSDNdKVtDQEBIXShbQ0gzXSlbQ0gyXVtDQEhdMVtOSF1bQ0gyXVtDSDJdYzJbY0hdW2NIXVtjSF1bY0hdbjI=

> <s_epik_cmdline>
J2VwaWtfcHl0aG9uJywgJy1waCcsICc3LjAnLCAnLXRuJywgJzgnLCAnLW1hJywgJzIwMCcsICctbWV0YWxfYmluZGluZycsICctaW1hZScsICc8aW5maWxlLm1hZT4nLCAnLW9tYWUnLCAnPG91dGZpbGUubWFlPic=

> <r_epik_Ionization_Penalty>
1.37325

> <r_epik_Ionization_Penalty_Charging>
0.000251572

> <r_epik_Ionization_Penalty_Neutral>
1.373

> <r_epik_State_Penalty>
1.46343

> <r_epik_Charging_Adjusted_Penalty>
1.46368

> <i_epik_Tot_Q>
1

> <i_epik_Tot_abs_Q>
1

> <r_epik_Metal_State_Penalty>
1.46331

> <b_epik_Metal_Only>
0

> <s_lp_Force_Field>
OPLS_2005

> <r_lp_Energy>
23.1884

> <b_lp_Chiralities_Consistent>
1

> <s_lp_Variant>
AV-unprocessed.smi:3303-22

> <Gold.Version>
5.8.1

> <Gold.Id.Protein>
6NUR|6NUR_protein|mol2

> <Gold.PLP.Fitness>
45.5686

> <Gold.PLP.PLP>
-32.3604

> <Gold.PLP.part.hbond>
-2.8189

> <Gold.PLP.part.metal>
0.0000

> <Gold.PLP.part.buried>
-2.6238

> <Gold.PLP.part.nonpolar>
-27.2058

> <Gold.PLP.part.repulsive>
0.3904

> <Gold.PLP.ligand.clash>
0.0000

> <Gold.PLP.ligand.torsion>
0.7137

> <Gold.PLP.Chemscore.Hbond>
3.8713

> <Gold.PLP.Chemscore.CHOScore>
1.0000

> <Gold.PLP.Chemscore.Metal>
0.0000

> <Gold.Chemscore.Hbonds>
donor molecule, donor type, donor heavy atom, donor atom, acceptor molecule, acceptor atom, score
      L1  H    10    35       P1  7957  0.99
      L1  H    10    44       P1  7948  2.00
      P1  H  7989  7998       L1     4  0.87
      L1  C    17    43       P1  7921  1.00

> <Gold.PLP.Chemscore.Internal.Correction>
0.0219

> <Gold.Rescore>
     Score         DG    S(hbond)    S(metal)    S(lipo)     H(rot)  DE(clash)    DE(int)     intcor
     17.05     -18.71       2.03        0.00      84.17       1.33       0.03       1.63       ----

> <Gold.Chemscore.Fitness>
17.0517

> <Gold.Chemscore.DG>
-18.7111

> <Gold.Chemscore.ZeroCoef>
-5.4800

> <Gold.Chemscore.Hbond>
2.0322

> <Gold.Chemscore.Metal>
0.0000

> <Gold.Chemscore.Lipo>
84.1688

> <Gold.Chemscore.Internal_Hbond>
0.0000

> <Gold.Chemscore.DEClash>
0.0294

> <Gold.Chemscore.DEInternal>
1.6300

> <Gold.Chemscore.Rot>
1.3298

> <Gold.Chemscore.Internal.Correction>
   9.000000E+99

> <Gold.Chemscore.Hbonds>
donor molecule, donor type, donor heavy atom, donor atom, acceptor molecule, acceptor atom, score
      L1  H    10    35       P1  7957  0.89
      L1  H    10    44       P1  7948  1.00
      P1  H  7989  7998       L1     4  0.12

> <Gold.Chemscore.Hbond.Weighted>
-6.7876

> <Gold.Chemscore.Metal.Weighted>
-0.0000

> <Gold.Chemscore.Lipo.Weighted>
-9.8477

> <Gold.Chemscore.Internal_Hbond.Weighted>
0.0000

> <Gold.Chemscore.DEClash.Weighted>
0.0294

> <Gold.Chemscore.DEInternal.Weighted>
1.6300

> <Gold.Chemscore.Rot.Weighted>
3.4043

> <Gold.Chemscore.Internal.Correction.Weighted>
   9.000000E+99

> <Gold.Protein.RotatedTorsions>
[ 6907 6896 6895 6894 ] final  -30.95 input  -60.11 | X-H torsion
[ 7974 7965 7964 7962 ] final   50.59 input  175.53 | X-H torsion
[ 8008 7997 7996 7995 ] final  -58.01 input   59.86 | X-H torsion
[ 10167 10162 10161 10158 ] final -165.84 input  -65.29 | X-H torsion
[ 10718 10713 10712 10709 ] final   42.89 input   66.30 | X-H torsion
[ 10763 10752 10751 10750 ] final -115.93 input  -60.55 | X-H torsion
[ 11005 11000 10999 10996 ] final  155.55 input  -57.11 | X-H torsion

> <Gold.Protein.ActiveResidues>
 VAL166  LYS551  ARG553  GLY616  TRP617  ASP618  TYR619  PRO620  LYS621  CYS622 
 ASP623  PHE694  ASN695  SER759  ASP760  ASP761  ALA762  ILE779  LEU786  VAL792 
 PHE793  MET794  SER795  GLU796  ALA797  LYS798  CYS799  TRP800  GLU811  SER814 

> <Gold.Protein.RotatedAtoms>
  151.0986  134.9959  159.8437 H   0  0  0  0  0  0  0  0  0  0  0  0  # atno 6907 bound_to 6896
  152.5435  134.1977  159.8710 H   0  0  0  0  0  0  0  0  0  0  0  0  # atno 6908 bound_to 6896
  151.2019  133.4562  159.2629 H   0  0  0  0  0  0  0  0  0  0  0  0  # atno 6909 bound_to 6896
  145.9997  139.4426  143.0023 H   0  0  0  0  0  0  0  0  0  0  0  0  # atno 7974 bound_to 7965
  154.4291  140.1094  156.5889 H   0  0  0  0  0  0  0  0  0  0  0  0  # atno 8008 bound_to 7997
  155.6033  140.3493  155.4581 H   0  0  0  0  0  0  0  0  0  0  0  0  # atno 8009 bound_to 7997
  156.0156  140.1228  157.0399 H   0  0  0  0  0  0  0  0  0  0  0  0  # atno 8010 bound_to 7997
  139.6155  144.0729  152.1883 H   0  0  0  0  0  0  0  0  0  0  0  0  # atno 10167 bound_to 10162
  157.4099  130.7908  149.7421 H   0  0  0  0  0  0  0  0  0  0  0  0  # atno 10718 bound_to 10713
  154.8500  135.4364  154.1740 H   0  0  0  0  0  0  0  0  0  0  0  0  # atno 10763 bound_to 10752
  153.2847  135.6956  153.7357 H   0  0  0  0  0  0  0  0  0  0  0  0  # atno 10764 bound_to 10752
  153.6548  135.3445  155.3085 H   0  0  0  0  0  0  0  0  0  0  0  0  # atno 10765 bound_to 10752
  140.1592  134.8621  157.2552 H   0  0  0  0  0  0  0  0  0  0  0  0  # atno 11005 bound_to 11000
  145.7506  140.9974  143.1252 LP  0  0  0  0  0  0  0  0  0  0  0  0  # atno 17320 bound_to 7965
  144.6915  139.9210  143.7468 LP  0  0  0  0  0  0  0  0  0  0  0  0  # atno 17321 bound_to 7965
  140.0358  144.6046  150.7451 LP  0  0  0  0  0  0  0  0  0  0  0  0  # atno 17342 bound_to 10162
  140.7348  143.2733  151.3820 LP  0  0  0  0  0  0  0  0  0  0  0  0  # atno 17343 bound_to 10162
  155.9847  130.3989  150.3296 LP  0  0  0  0  0  0  0  0  0  0  0  0  # atno 17370 bound_to 10713
  157.1433  131.0302  151.2918 LP  0  0  0  0  0  0  0  0  0  0  0  0  # atno 17371 bound_to 10713
  140.2510  134.3682  155.7442 LP  0  0  0  0  0  0  0  0  0  0  0  0  # atno 17394 bound_to 11000
  141.2207  133.7317  156.8936 LP  0  0  0  0  0  0  0  0  0  0  0  0  # atno 17395 bound_to 11000

$$$$
