AV-unprocessed.smi:276|AV-procd|sdf|2080|dock3
  -GOLD-   2262021343D 1   1.00000     0.00000
 Structure written by MMmdl.
 57 61  0  0  0  0  0  0  0  0  1 V2000
  144.6242  134.2584  162.9208 C   0  0  0  0  0  0  0  0  0  0  0  0
  144.8298  135.2973  161.9798 O   0  0  0  0  0  0  0  0  0  0  0  0
  146.1082  135.8997  162.1018 C   0  0  2  0  0  0  0  0  0  0  0  0
  146.5212  136.7571  160.9000 C   0  0  0  0  0  0  0  0  0  0  0  0
  147.9396  136.2058  161.0971 C   0  0  2  0  0  0  0  0  0  0  0  0
  148.6520  135.9913  159.8351 N   0  0  0  0  0  0  0  0  0  0  0  0
  147.8604  135.4531  158.7360 C   0  0  0  0  0  0  0  0  0  0  0  0
  149.4145  137.0190  159.3976 C   0  0  0  0  0  0  0  0  0  0  0  0
  150.7365  136.9731  159.6990 N   0  0  0  0  0  0  0  0  0  0  0  0
  151.5482  137.9594  159.3069 C   0  0  0  0  0  0  0  0  0  0  0  0
  151.2511  139.0580  158.6097 N   0  0  0  0  0  0  0  0  0  0  0  0
  149.9267  139.0955  158.2850 C   0  0  0  0  0  0  0  0  0  0  0  0
  148.9450  138.1239  158.6300 C   0  0  0  0  0  0  0  0  0  0  0  0
  147.7109  138.4960  158.1086 N   0  0  0  0  0  0  0  0  0  0  0  0
  147.9470  139.6274  157.5026 C   0  0  0  0  0  0  0  0  0  0  0  0
  149.2516  140.0601  157.5589 N   0  0  0  0  0  0  0  0  0  0  0  0
  149.7882  141.2733  156.9675 C   0  0  0  0  0  0  0  0  0  0  0  0
  149.4839  142.5254  157.8139 C   0  0  2  0  0  0  0  0  0  0  0  0
  148.2325  143.0600  157.4251 O   0  0  0  0  0  0  0  0  0  0  0  0
  150.5626  143.6132  157.6549 C   0  0  1  0  0  0  0  0  0  0  0  0
  150.2753  144.9062  158.4196 C   0  0  0  0  0  0  0  0  0  0  0  0
  151.6617  145.4902  158.5636 C   0  0  0  0  0  0  0  0  0  0  0  0
  152.5055  144.2420  158.8060 C   0  0  0  0  0  0  0  0  0  0  0  0
  151.8064  143.1638  158.1882 O   0  0  0  0  0  0  0  0  0  0  0  0
  147.2771  134.9603  161.7458 C   0  0  0  0  0  0  0  0  0  0  0  0
  147.9810  134.1463  162.8393 C   0  0  0  0  0  0  0  0  0  0  0  0
  148.0789  132.9663  161.8670 C   0  0  0  0  0  0  0  0  0  0  0  0
  147.0259  133.6431  160.9831 C   0  0  0  0  0  0  0  0  0  0  0  0
  143.6324  133.8290  162.7803 H   0  0  0  0  0  0  0  0  0  0  0  0
  144.6869  134.6305  163.9440 H   0  0  0  0  0  0  0  0  0  0  0  0
  145.3575  133.4612  162.7925 H   0  0  0  0  0  0  0  0  0  0  0  0
  146.2651  136.4031  163.0585 H   0  0  0  0  0  0  0  0  0  0  0  0
  146.0526  136.4337  159.9682 H   0  0  0  0  0  0  0  0  0  0  0  0
  146.4235  137.8322  161.0514 H   0  0  0  0  0  0  0  0  0  0  0  0
  148.4862  136.8080  161.8240 H   0  0  0  0  0  0  0  0  0  0  0  0
  147.1039  136.1711  158.4168 H   0  0  0  0  0  0  0  0  0  0  0  0
  147.3528  134.5365  159.0366 H   0  0  0  0  0  0  0  0  0  0  0  0
  148.4903  135.2131  157.8785 H   0  0  0  0  0  0  0  0  0  0  0  0
  152.5838  137.8537  159.5942 H   0  0  0  0  0  0  0  0  0  0  0  0
  147.1720  140.1788  156.9902 H   0  0  0  0  0  0  0  0  0  0  0  0
  150.8652  141.1452  156.8546 H   0  0  0  0  0  0  0  0  0  0  0  0
  149.3824  141.3829  155.9611 H   0  0  0  0  0  0  0  0  0  0  0  0
  149.4136  142.2402  158.8645 H   0  0  0  0  0  0  0  0  0  0  0  0
  148.3675  143.6338  156.6863 H   0  0  0  0  0  0  0  0  0  0  0  0
  150.7159  143.8464  156.5997 H   0  0  0  0  0  0  0  0  0  0  0  0
  149.5872  145.5686  157.8942 H   0  0  0  0  0  0  0  0  0  0  0  0
  149.8576  144.6885  159.4038 H   0  0  0  0  0  0  0  0  0  0  0  0
  151.9618  145.9723  157.6323 H   0  0  0  0  0  0  0  0  0  0  0  0
  151.7390  146.2214  159.3686 H   0  0  0  0  0  0  0  0  0  0  0  0
  153.5142  144.3429  158.4046 H   0  0  0  0  0  0  0  0  0  0  0  0
  152.5852  144.0353  159.8737 H   0  0  0  0  0  0  0  0  0  0  0  0
  148.9423  134.5461  163.1612 H   0  0  0  0  0  0  0  0  0  0  0  0
  147.3299  133.9352  163.6887 H   0  0  0  0  0  0  0  0  0  0  0  0
  149.0554  132.8899  161.3889 H   0  0  0  0  0  0  0  0  0  0  0  0
  147.7659  132.0106  162.2880 H   0  0  0  0  0  0  0  0  0  0  0  0
  146.0315  133.2286  161.1514 H   0  0  0  0  0  0  0  0  0  0  0  0
  147.2663  133.6584  159.9206 H   0  0  0  0  0  0  0  0  0  0  0  0
  1  2  1  0  0  0  0
  1 29  1  0  0  0  0
  1 30  1  0  0  0  0
  1 31  1  0  0  0  0
  2  3  1  0  0  0  0
  3 25  1  0  0  0  0
  3  4  1  0  0  0  0
  3 32  1  0  0  0  0
  4  5  1  0  0  0  0
  4 33  1  0  0  0  0
  4 34  1  0  0  0  0
  5  6  1  0  0  0  0
  5 25  1  0  0  0  0
  5 35  1  0  0  0  0
  6  7  1  0  0  0  0
  6  8  1  0  0  0  0
  7 36  1  0  0  0  0
  7 37  1  0  0  0  0
  7 38  1  0  0  0  0
  8 13  1  0  0  0  0
  8  9  2  0  0  0  0
  9 10  1  0  0  0  0
 10 11  2  0  0  0  0
 10 39  1  0  0  0  0
 11 12  1  0  0  0  0
 12 16  1  0  0  0  0
 12 13  2  0  0  0  0
 13 14  1  0  0  0  0
 14 15  2  0  0  0  0
 15 16  1  0  0  0  0
 15 40  1  0  0  0  0
 16 17  1  0  0  0  0
 17 18  1  0  0  0  0
 17 41  1  0  0  0  0
 17 42  1  0  0  0  0
 18 19  1  0  0  0  0
 18 20  1  0  0  0  0
 18 43  1  0  0  0  0
 19 44  1  0  0  0  0
 20 24  1  0  0  0  0
 20 21  1  0  0  0  0
 20 45  1  0  0  0  0
 21 22  1  0  0  0  0
 21 46  1  0  0  0  0
 21 47  1  0  0  0  0
 22 23  1  0  0  0  0
 22 48  1  0  0  0  0
 22 49  1  0  0  0  0
 23 24  1  0  0  0  0
 23 50  1  0  0  0  0
 23 51  1  0  0  0  0
 25 28  1  0  0  0  0
 25 26  1  0  0  0  0
 26 27  1  0  0  0  0
 26 52  1  0  0  0  0
 26 53  1  0  0  0  0
 27 28  1  0  0  0  0
 27 54  1  0  0  0  0
 27 55  1  0  0  0  0
 28 56  1  0  0  0  0
 28 57  1  0  0  0  0
M  END
> <s_m_source_file>
AV-unprocessed.smi

> <i_m_source_file_index>
276

> <i_lp_mmshare_version>
43012

> <i_f3d_flags>
0

> <s_epik_input>
W0NIMl0xW0NIMl1bQ0gyXUMxMltDQEhdKE9bQ0gzXSlbQ0gyXVtDQEhdMk4oW0NIM10pYyhuW2NIXW4zKWMoYzM0KW5bY0hdbjRbQ0gyXVtDQEhdKFtPSF0pW0NAQEhdNVtDSDJdW0NIMl1bQ0gyXU81

> <s_epik_cmdline>
J2VwaWtfcHl0aG9uJywgJy1waCcsICc3LjAnLCAnLXRuJywgJzgnLCAnLW1hJywgJzIwMCcsICctbWV0YWxfYmluZGluZycsICctaW1hZScsICc8aW5maWxlLm1hZT4nLCAnLW9tYWUnLCAnPG91dGZpbGUubWFlPic=

> <r_lp_tautomer_probability>
1

> <r_epik_Ionization_Penalty>
0.00204117

> <r_epik_Ionization_Penalty_Charging>
0

> <r_epik_Ionization_Penalty_Neutral>
0.00204117

> <r_epik_State_Penalty>
0.00127401

> <r_epik_Charging_Adjusted_Penalty>
0.00127401

> <i_epik_Tot_Q>
0

> <i_epik_Tot_abs_Q>
0

> <r_epik_Metal_State_Penalty>
-0

> <b_epik_Metal_Only>
0

> <s_lp_Force_Field>
OPLS_2005

> <r_lp_Energy>
54.5778

> <b_lp_Chiralities_Consistent>
1

> <s_lp_Variant>
AV-unprocessed.smi:276-11

> <Gold.Version>
5.8.1

> <Gold.Id.Protein>
6NUR|6NUR_protein|mol2

> <Gold.PLP.Fitness>
48.9209

> <Gold.PLP.PLP>
-45.1111

> <Gold.PLP.part.hbond>
-3.3298

> <Gold.PLP.part.metal>
0.0000

> <Gold.PLP.part.buried>
-5.5002

> <Gold.PLP.part.nonpolar>
-36.3317

> <Gold.PLP.part.repulsive>
0.0156

> <Gold.PLP.ligand.clash>
0.0000

> <Gold.PLP.ligand.torsion>
1.4853

> <Gold.PLP.Chemscore.Hbond>
2.0000

> <Gold.PLP.Chemscore.CHOScore>
0.0000

> <Gold.PLP.Chemscore.Metal>
0.0000

> <Gold.Chemscore.Hbonds>
donor molecule, donor type, donor heavy atom, donor atom, acceptor molecule, acceptor atom, score
      L1  H    19    44       P1  8028  0.80
      P1  H  6896  6908       L1     9  0.95

> <Gold.PLP.Chemscore.Internal.Correction>
0.7805

> <Gold.Rescore>
     Score         DG    S(hbond)    S(metal)    S(lipo)     H(rot)  DE(clash)    DE(int)     intcor
     14.75     -18.41       1.66        0.00     122.45       2.72       0.92       2.74       ----

> <Gold.Chemscore.Fitness>
14.7523

> <Gold.Chemscore.DG>
-18.4068

> <Gold.Chemscore.ZeroCoef>
-5.4800

> <Gold.Chemscore.Hbond>
1.6635

> <Gold.Chemscore.Metal>
0.0000

> <Gold.Chemscore.Lipo>
122.4513

> <Gold.Chemscore.Internal_Hbond>
0.0000

> <Gold.Chemscore.DEClash>
0.9194

> <Gold.Chemscore.DEInternal>
2.7351

> <Gold.Chemscore.Rot>
2.7172

> <Gold.Chemscore.Internal.Correction>
   9.000000E+99

> <Gold.Chemscore.Hbonds>
donor molecule, donor type, donor heavy atom, donor atom, acceptor molecule, acceptor atom, score
      L1  H    19    44       P1  8028  0.11
      P1  H  6896  6908       L1     9  0.20

> <Gold.Chemscore.Hbond.Weighted>
-5.5559

> <Gold.Chemscore.Metal.Weighted>
-0.0000

> <Gold.Chemscore.Lipo.Weighted>
-14.3268

> <Gold.Chemscore.Internal_Hbond.Weighted>
0.0000

> <Gold.Chemscore.DEClash.Weighted>
0.9194

> <Gold.Chemscore.DEInternal.Weighted>
2.7351

> <Gold.Chemscore.Rot.Weighted>
6.9560

> <Gold.Chemscore.Internal.Correction.Weighted>
   9.000000E+99

> <Gold.Protein.RotatedTorsions>
[ 6907 6896 6895 6894 ] final -160.31 input  -60.11 | X-H torsion
[ 7974 7965 7964 7962 ] final  -80.88 input  175.53 | X-H torsion
[ 8008 7997 7996 7995 ] final -177.47 input   59.86 | X-H torsion
[ 10167 10162 10161 10158 ] final  103.95 input  -65.29 | X-H torsion
[ 10718 10713 10712 10709 ] final -137.23 input   66.30 | X-H torsion
[ 10763 10752 10751 10750 ] final -175.07 input  -60.55 | X-H torsion
[ 11005 11000 10999 10996 ] final   55.38 input  -57.11 | X-H torsion

> <Gold.Protein.ActiveResidues>
 VAL166  LYS551  ARG553  GLY616  TRP617  ASP618  TYR619  PRO620  LYS621  CYS622 
 ASP623  PHE694  ASN695  SER759  ASP760  ASP761  ALA762  ILE779  LEU786  VAL792 
 PHE793  MET794  SER795  GLU796  ALA797  LYS798  CYS799  TRP800  GLU811  SER814 

> <Gold.Protein.RotatedAtoms>
  151.3471  133.3940  159.2676 H   0  0  0  0  0  0  0  0  0  0  0  0  # atno 6907 bound_to 6896
  150.9831  134.9183  159.7866 H   0  0  0  0  0  0  0  0  0  0  0  0  # atno 6908 bound_to 6896
  152.5223  134.3435  159.9278 H   0  0  0  0  0  0  0  0  0  0  0  0  # atno 6909 bound_to 6896
  145.5540  140.9492  143.1483 H   0  0  0  0  0  0  0  0  0  0  0  0  # atno 7974 bound_to 7965
  156.0074  140.1233  157.0488 H   0  0  0  0  0  0  0  0  0  0  0  0  # atno 8008 bound_to 7997
  154.4263  140.1094  156.5850 H   0  0  0  0  0  0  0  0  0  0  0  0  # atno 8009 bound_to 7997
  155.6128  140.3471  155.4630 H   0  0  0  0  0  0  0  0  0  0  0  0  # atno 8010 bound_to 7997
  139.7218  144.7056  151.0860 H   0  0  0  0  0  0  0  0  0  0  0  0  # atno 10167 bound_to 10162
  156.2858  130.7346  151.1357 H   0  0  0  0  0  0  0  0  0  0  0  0  # atno 10718 bound_to 10713
  154.5887  135.2843  155.0658 H   0  0  0  0  0  0  0  0  0  0  0  0  # atno 10763 bound_to 10752
  154.1967  135.6431  153.5079 H   0  0  0  0  0  0  0  0  0  0  0  0  # atno 10764 bound_to 10752
  153.0113  135.5459  154.6565 H   0  0  0  0  0  0  0  0  0  0  0  0  # atno 10765 bound_to 10752
  140.0612  134.5600  155.9150 H   0  0  0  0  0  0  0  0  0  0  0  0  # atno 11005 bound_to 11000
  144.7515  139.7182  143.7271 LP  0  0  0  0  0  0  0  0  0  0  0  0  # atno 17320 bound_to 7965
  146.1897  139.5130  142.9813 LP  0  0  0  0  0  0  0  0  0  0  0  0  # atno 17321 bound_to 7965
  140.7755  143.5156  150.9599 LP  0  0  0  0  0  0  0  0  0  0  0  0  # atno 17342 bound_to 10162
  139.8843  143.7033  152.3153 LP  0  0  0  0  0  0  0  0  0  0  0  0  # atno 17343 bound_to 10162
  157.7328  131.0596  150.5610 LP  0  0  0  0  0  0  0  0  0  0  0  0  # atno 17370 bound_to 10713
  156.5721  130.4282  149.6015 LP  0  0  0  0  0  0  0  0  0  0  0  0  # atno 17371 bound_to 10713
  141.1974  133.6596  156.5738 LP  0  0  0  0  0  0  0  0  0  0  0  0  # atno 17394 bound_to 11000
  140.3768  134.7558  157.4635 LP  0  0  0  0  0  0  0  0  0  0  0  0  # atno 17395 bound_to 11000

$$$$
