AV-unprocessed.smi:2784|AV-procd|sdf|10736|dock7
  -GOLD-   2272015173D 1   1.00000     0.00000
 Structure written by MMmdl.
 31 32  0  0  0  0  0  0  0  0  1 V2000
  151.1896  141.3806  156.0576 C   0  0  0  0  0  0  0  0  0  0  0  0
  150.7561  140.1218  156.5462 O   0  0  0  0  0  0  0  0  0  0  0  0
  151.6517  139.0523  156.2542 C   0  0  2  0  0  0  0  0  0  0  0  0
  151.6411  138.8736  154.7351 C   0  0  0  0  0  0  0  0  0  0  0  0
  150.4044  138.0211  154.4651 C   0  0  0  0  0  0  0  0  0  0  0  0
  150.3390  137.0482  155.6453 C   0  0  0  0  0  0  0  0  0  0  0  0
  151.1170  137.7079  156.8013 C   0  0  2  0  0  0  0  0  0  0  0  0
  150.2680  137.8666  157.9809 N   0  0  0  0  0  0  0  0  0  0  0  0
  149.6112  136.8799  158.6082 C   0  0  0  0  0  0  0  0  0  0  0  0
  149.6716  135.7112  158.2128 O   0  0  0  0  0  0  0  0  0  0  0  0
  148.9220  137.3886  159.7001 N   0  0  0  0  0  0  0  0  0  0  0  0
  148.2149  136.5997  160.4500 C   0  0  0  0  0  0  0  0  0  0  0  0
  147.9551  135.2323  160.4105 N   0  0  0  0  0  0  0  0  0  0  0  0
  147.1329  134.9240  161.4580 C   0  0  0  0  0  0  0  0  0  0  0  0
  146.8849  136.0439  162.1301 C   0  0  0  0  0  0  0  0  0  0  0  0
  147.5329  137.0855  161.5371 O   0  0  0  0  0  0  0  0  0  0  0  0
  150.4801  142.1523  156.3553 H   0  0  0  0  0  0  0  0  0  0  0  0
  151.2463  141.3766  154.9685 H   0  0  0  0  0  0  0  0  0  0  0  0
  152.1676  141.6500  156.4575 H   0  0  0  0  0  0  0  0  0  0  0  0
  152.6626  139.2600  156.6114 H   0  0  0  0  0  0  0  0  0  0  0  0
  151.6285  139.8211  154.1952 H   0  0  0  0  0  0  0  0  0  0  0  0
  152.5331  138.3279  154.4243 H   0  0  0  0  0  0  0  0  0  0  0  0
  149.5176  138.6566  154.4633 H   0  0  0  0  0  0  0  0  0  0  0  0
  150.4486  137.5106  153.5028 H   0  0  0  0  0  0  0  0  0  0  0  0
  149.3050  136.8152  155.9040 H   0  0  0  0  0  0  0  0  0  0  0  0
  150.8186  136.1063  155.3749 H   0  0  0  0  0  0  0  0  0  0  0  0
  151.9637  137.0607  157.0383 H   0  0  0  0  0  0  0  0  0  0  0  0
  150.1879  138.7994  158.3593 H   0  0  0  0  0  0  0  0  0  0  0  0
  148.2906  134.5520  159.7435 H   0  0  0  0  0  0  0  0  0  0  0  0
  146.8045  133.9069  161.6145 H   0  0  0  0  0  0  0  0  0  0  0  0
  146.2950  136.2563  163.0098 H   0  0  0  0  0  0  0  0  0  0  0  0
  1  2  1  0  0  0  0
  1 17  1  0  0  0  0
  1 18  1  0  0  0  0
  1 19  1  0  0  0  0
  2  3  1  0  0  0  0
  3  7  1  0  0  0  0
  3  4  1  0  0  0  0
  3 20  1  0  0  0  0
  4  5  1  0  0  0  0
  4 21  1  0  0  0  0
  4 22  1  0  0  0  0
  5  6  1  0  0  0  0
  5 23  1  0  0  0  0
  5 24  1  0  0  0  0
  6  7  1  0  0  0  0
  6 25  1  0  0  0  0
  6 26  1  0  0  0  0
  7  8  1  0  0  0  0
  7 27  1  0  0  0  0
  8 28  1  0  0  0  0
  8  9  1  0  0  0  0
  9 11  1  0  0  0  0
  9 10  2  0  0  0  0
 11 12  2  0  0  0  0
 12 16  1  0  0  0  0
 12 13  1  0  0  0  0
 13 29  1  0  0  0  0
 13 14  1  0  0  0  0
 14 30  1  0  0  0  0
 14 15  2  0  0  0  0
 15 31  1  0  0  0  0
 15 16  1  0  0  0  0
M  END
> <s_m_source_file>
AV-unprocessed.smi

> <i_m_source_file_index>
2784

> <i_lp_mmshare_version>
43012

> <i_f3d_flags>
0

> <s_epik_input>
W0NIM11PW0NAQEhdMVtDSDJdW0NIMl1bQ0gyXVtDQEhdMVtOSF1DKD1PKVtOSF1jMm5bY0hdW2NIXW8y

> <s_epik_cmdline>
J2VwaWtfcHl0aG9uJywgJy1waCcsICc3LjAnLCAnLXRuJywgJzgnLCAnLW1hJywgJzIwMCcsICctbWV0YWxfYmluZGluZycsICctaW1hZScsICc8aW5maWxlLm1hZT4nLCAnLW9tYWUnLCAnPG91dGZpbGUubWFlPic=

> <r_lp_tautomer_probability>
0.107061

> <r_epik_Ionization_Penalty>
1.29244

> <r_epik_Ionization_Penalty_Charging>
1.29208

> <r_epik_Ionization_Penalty_Neutral>
0.000359742

> <r_epik_State_Penalty>
2.59896

> <r_epik_Charging_Adjusted_Penalty>
3.89105

> <i_epik_Tot_Q>
0

> <i_epik_Tot_abs_Q>
0

> <r_epik_Metal_State_Penalty>
3.62496

> <b_epik_Metal_Only>
0

> <s_lp_Force_Field>
OPLS_2005

> <r_lp_Energy>
46.1047

> <b_lp_Chiralities_Consistent>
1

> <s_lp_Variant>
AV-unprocessed.smi:2784-11

> <Gold.Version>
5.8.1

> <Gold.Id.Protein>
6NUR|6NUR_protein|mol2

> <Gold.PLP.Fitness>
33.0339

> <Gold.PLP.PLP>
-26.5350

> <Gold.PLP.part.hbond>
-4.5002

> <Gold.PLP.part.metal>
0.0000

> <Gold.PLP.part.buried>
-3.0537

> <Gold.PLP.part.nonpolar>
-17.9748

> <Gold.PLP.part.repulsive>
0.1982

> <Gold.PLP.ligand.clash>
0.0000

> <Gold.PLP.ligand.torsion>
0.0257

> <Gold.PLP.Chemscore.Hbond>
2.1792

> <Gold.PLP.Chemscore.CHOScore>
0.0000

> <Gold.PLP.Chemscore.Metal>
0.0000

> <Gold.Chemscore.Hbonds>
donor molecule, donor type, donor heavy atom, donor atom, acceptor molecule, acceptor atom, score
      P1  H  6896  6907       L1    10  1.00
      P1  H  6931  6943       L1    16  0.45
      P1  H  6934  6947       L1    16  0.80

> <Gold.PLP.Chemscore.Internal.Correction>
0.0127

> <Gold.Rescore>
     Score         DG    S(hbond)    S(metal)    S(lipo)     H(rot)  DE(clash)    DE(int)     intcor
     12.51     -13.60       1.61        0.00      52.44       1.32       0.32       0.77       ----

> <Gold.Chemscore.Fitness>
12.5123

> <Gold.Chemscore.DG>
-13.6026

> <Gold.Chemscore.ZeroCoef>
-5.4800

> <Gold.Chemscore.Hbond>
1.6093

> <Gold.Chemscore.Metal>
0.0000

> <Gold.Chemscore.Lipo>
52.4413

> <Gold.Chemscore.Internal_Hbond>
0.0000

> <Gold.Chemscore.DEClash>
0.3209

> <Gold.Chemscore.DEInternal>
0.7694

> <Gold.Chemscore.Rot>
1.3235

> <Gold.Chemscore.Internal.Correction>
   9.000000E+99

> <Gold.Chemscore.Hbonds>
donor molecule, donor type, donor heavy atom, donor atom, acceptor molecule, acceptor atom, score
      P1  H  6896  6907       L1    10  0.77
      P1  H  6931  6943       L1    16  0.01
      P1  H  6934  6947       L1    16  0.22

> <Gold.Chemscore.Hbond.Weighted>
-5.3751

> <Gold.Chemscore.Metal.Weighted>
-0.0000

> <Gold.Chemscore.Lipo.Weighted>
-6.1356

> <Gold.Chemscore.Internal_Hbond.Weighted>
0.0000

> <Gold.Chemscore.DEClash.Weighted>
0.3209

> <Gold.Chemscore.DEInternal.Weighted>
0.7694

> <Gold.Chemscore.Rot.Weighted>
3.3882

> <Gold.Chemscore.Internal.Correction.Weighted>
   9.000000E+99

> <Gold.Protein.RotatedTorsions>
[ 6907 6896 6895 6894 ] final  -76.62 input  -60.11 | X-H torsion
[ 7974 7965 7964 7962 ] final  143.33 input  175.53 | X-H torsion
[ 8008 7997 7996 7995 ] final   88.61 input   59.86 | X-H torsion
[ 10167 10162 10161 10158 ] final -168.17 input  -65.29 | X-H torsion
[ 10718 10713 10712 10709 ] final   91.99 input   66.30 | X-H torsion
[ 10763 10752 10751 10750 ] final   30.18 input  -60.55 | X-H torsion
[ 11005 11000 10999 10996 ] final  110.57 input  -57.11 | X-H torsion

> <Gold.Protein.ActiveResidues>
 VAL166  LYS551  ARG553  GLY616  TRP617  ASP618  TYR619  PRO620  LYS621  CYS622 
 ASP623  PHE694  ASN695  SER759  ASP760  ASP761  ALA762  ILE779  LEU786  VAL792 
 PHE793  MET794  SER795  GLU796  ALA797  LYS798  CYS799  TRP800  GLU811  SER814 

> <Gold.Protein.RotatedAtoms>
  150.7022  134.4544  159.5350 H   0  0  0  0  0  0  0  0  0  0  0  0  # atno 6907 bound_to 6896
  152.2230  134.8391  160.0492 H   0  0  0  0  0  0  0  0  0  0  0  0  # atno 6908 bound_to 6896
  151.9235  133.3557  159.3942 H   0  0  0  0  0  0  0  0  0  0  0  0  # atno 6909 bound_to 6896
  144.8930  139.5530  143.5789 H   0  0  0  0  0  0  0  0  0  0  0  0  # atno 7974 bound_to 7965
  155.9899  140.3369  155.6743 H   0  0  0  0  0  0  0  0  0  0  0  0  # atno 8008 bound_to 7997
  155.6435  140.0698  157.2629 H   0  0  0  0  0  0  0  0  0  0  0  0  # atno 8009 bound_to 7997
  154.4216  140.1738  156.1585 H   0  0  0  0  0  0  0  0  0  0  0  0  # atno 8010 bound_to 7997
  139.6002  144.1027  152.1734 H   0  0  0  0  0  0  0  0  0  0  0  0  # atno 10167 bound_to 10162
  157.6959  131.0427  150.3813 H   0  0  0  0  0  0  0  0  0  0  0  0  # atno 10718 bound_to 10713
  153.0387  135.6470  154.1004 H   0  0  0  0  0  0  0  0  0  0  0  0  # atno 10763 bound_to 10752
  154.0715  135.2880  155.3309 H   0  0  0  0  0  0  0  0  0  0  0  0  # atno 10764 bound_to 10752
  154.6591  135.5398  153.8060 H   0  0  0  0  0  0  0  0  0  0  0  0  # atno 10765 bound_to 10752
  139.8884  134.9487  156.6298 H   0  0  0  0  0  0  0  0  0  0  0  0  # atno 11005 bound_to 11000
  146.3065  139.7598  142.9052 LP  0  0  0  0  0  0  0  0  0  0  0  0  # atno 17320 bound_to 7965
  145.3749  141.0349  143.3210 LP  0  0  0  0  0  0  0  0  0  0  0  0  # atno 17321 bound_to 7965
  140.0621  144.5848  150.7255 LP  0  0  0  0  0  0  0  0  0  0  0  0  # atno 17342 bound_to 10162
  140.7243  143.2620  151.4172 LP  0  0  0  0  0  0  0  0  0  0  0  0  # atno 17343 bound_to 10162
  156.4227  130.3956  149.6814 LP  0  0  0  0  0  0  0  0  0  0  0  0  # atno 17370 bound_to 10713
  156.4059  130.7698  151.2708 LP  0  0  0  0  0  0  0  0  0  0  0  0  # atno 17371 bound_to 10713
  140.7675  133.8766  155.8466 LP  0  0  0  0  0  0  0  0  0  0  0  0  # atno 17394 bound_to 11000
  140.9870  134.1329  157.4443 LP  0  0  0  0  0  0  0  0  0  0  0  0  # atno 17395 bound_to 11000

$$$$
