AV-unprocessed.smi:2248|AV-procd|sdf|9094|dock7
  -GOLD-   2272012293D 1   1.00000     0.00000
 Structure written by MMmdl.
 35 36  0  0  0  0  0  0  0  0  1 V2000
  153.5838  141.8229  160.5000 C   0  0  0  0  0  0  0  0  0  0  0  0
  152.6246  142.8578  159.9504 C   0  0  0  0  0  0  0  0  0  0  0  0
  152.5080  144.1276  160.5488 C   0  0  0  0  0  0  0  0  0  0  0  0
  151.6004  145.0436  159.9878 C   0  0  0  0  0  0  0  0  0  0  0  0
  150.8530  144.6556  158.8589 C   0  0  0  0  0  0  0  0  0  0  0  0
  151.0311  143.3621  158.3184 C   0  0  0  0  0  0  0  0  0  0  0  0
  150.2316  143.0684  157.1822 N   0  0  0  0  0  0  0  0  0  0  0  0
  150.2333  141.9530  156.4310 C   0  0  0  0  0  0  0  0  0  0  0  0
  150.9588  140.9739  156.6083 O   0  0  0  0  0  0  0  0  0  0  0  0
  149.3298  142.0314  155.4437 N   0  0  0  0  0  0  0  0  0  0  0  0
  149.0793  140.9841  154.4599 C   0  0  2  0  0  0  0  0  0  0  0  0
  147.9875  141.4002  153.5128 C   0  0  0  0  0  0  0  0  0  0  0  0
  146.9848  140.5262  153.4686 C   0  0  0  0  0  0  0  0  0  0  0  0
  147.1952  139.3471  154.3840 C   0  0  2  0  0  0  0  0  0  0  0  0
  146.0267  139.1318  155.3612 C   0  0  0  0  0  0  0  0  0  0  0  0
  144.8309  138.8710  154.6568 O   0  0  0  0  0  0  0  0  0  0  0  0
  148.5311  139.6792  155.0960 C   0  0  0  0  0  0  0  0  0  0  0  0
  151.9087  142.4857  158.8677 N   0  0  0  0  0  0  0  0  0  0  0  0
  149.9818  140.7864  153.8790 H   0  0  0  0  0  0  0  0  0  0  0  0
  147.3256  138.4592  153.7638 H   0  0  0  0  0  0  0  0  0  0  0  0
  153.9443  142.1057  161.4892 H   0  0  0  0  0  0  0  0  0  0  0  0
  154.4444  141.7185  159.8388 H   0  0  0  0  0  0  0  0  0  0  0  0
  153.0941  140.8521  160.5830 H   0  0  0  0  0  0  0  0  0  0  0  0
  153.0966  144.3951  161.4140 H   0  0  0  0  0  0  0  0  0  0  0  0
  151.4792  146.0280  160.4148 H   0  0  0  0  0  0  0  0  0  0  0  0
  150.1520  145.3479  158.4158 H   0  0  0  0  0  0  0  0  0  0  0  0
  149.5807  143.7906  156.9115 H   0  0  0  0  0  0  0  0  0  0  0  0
  148.7739  142.8705  155.3680 H   0  0  0  0  0  0  0  0  0  0  0  0
  148.0447  142.3085  152.9311 H   0  0  0  0  0  0  0  0  0  0  0  0
  146.1072  140.6211  152.8461 H   0  0  0  0  0  0  0  0  0  0  0  0
  146.2333  138.2845  156.0158 H   0  0  0  0  0  0  0  0  0  0  0  0
  145.8855  140.0058  155.9980 H   0  0  0  0  0  0  0  0  0  0  0  0
  144.6690  139.5879  154.0624 H   0  0  0  0  0  0  0  0  0  0  0  0
  149.2461  138.8637  154.9814 H   0  0  0  0  0  0  0  0  0  0  0  0
  148.3725  139.8037  156.1686 H   0  0  0  0  0  0  0  0  0  0  0  0
  1  2  1  0  0  0  0
  1 21  1  0  0  0  0
  1 22  1  0  0  0  0
  1 23  1  0  0  0  0
  2 18  1  0  0  0  0
  2  3  2  0  0  0  0
  3  4  1  0  0  0  0
  3 24  1  0  0  0  0
  4  5  2  0  0  0  0
  4 25  1  0  0  0  0
  5  6  1  0  0  0  0
  5 26  1  0  0  0  0
  6  7  1  0  0  0  0
  6 18  2  0  0  0  0
  7  8  1  0  0  0  0
  7 27  1  0  0  0  0
  8  9  2  0  0  0  0
  8 10  1  0  0  0  0
 10 11  1  0  0  0  0
 10 28  1  0  0  0  0
 11 19  1  0  0  0  0
 11 17  1  0  0  0  0
 11 12  1  0  0  0  0
 12 13  2  0  0  0  0
 12 29  1  0  0  0  0
 13 14  1  0  0  0  0
 13 30  1  0  0  0  0
 14 20  1  0  0  0  0
 14 15  1  0  0  0  0
 14 17  1  0  0  0  0
 15 16  1  0  0  0  0
 15 31  1  0  0  0  0
 15 32  1  0  0  0  0
 16 33  1  0  0  0  0
 17 34  1  0  0  0  0
 17 35  1  0  0  0  0
M  END
> <s_m_source_file>
AV-unprocessed.smi

> <i_m_source_file_index>
2248

> <i_lp_mmshare_version>
43012

> <i_f3d_flags>
0

> <s_epik_input>
W0NIM11jMVtjSF1bY0hdW2NIXWMobjEpW05IXUMoPU8pW05IXVtDQEBIXTJbQ0hdPVtDSF1bQ0BASF0oW0NIMl0yKVtDSDJdW09IXQ==

> <s_epik_cmdline>
J2VwaWtfcHl0aG9uJywgJy1waCcsICc3LjAnLCAnLXRuJywgJzgnLCAnLW1hJywgJzIwMCcsICctbWV0YWxfYmluZGluZycsICctaW1hZScsICc8aW5maWxlLm1hZT4nLCAnLW9tYWUnLCAnPG91dGZpbGUubWFlPic=

> <r_lp_tautomer_probability>
1

> <r_epik_Ionization_Penalty>
8.36606e-05

> <r_epik_Ionization_Penalty_Charging>
0

> <r_epik_Ionization_Penalty_Neutral>
8.36606e-05

> <r_epik_State_Penalty>
-0

> <r_epik_Charging_Adjusted_Penalty>
0

> <i_epik_Tot_Q>
0

> <i_epik_Tot_abs_Q>
0

> <r_epik_Metal_State_Penalty>
-0

> <b_epik_Metal_Only>
0

> <s_lp_Force_Field>
OPLS_2005

> <r_lp_Energy>
17.2686

> <b_lp_Chiralities_Consistent>
1

> <s_lp_Variant>
AV-unprocessed.smi:2248-1

> <Gold.Version>
5.8.1

> <Gold.Id.Protein>
6NUR|6NUR_protein|mol2

> <Gold.PLP.Fitness>
44.3146

> <Gold.PLP.PLP>
-35.6356

> <Gold.PLP.part.hbond>
-3.0000

> <Gold.PLP.part.metal>
0.0000

> <Gold.PLP.part.buried>
-4.2708

> <Gold.PLP.part.nonpolar>
-28.1594

> <Gold.PLP.part.repulsive>
0.1973

> <Gold.PLP.ligand.clash>
0.0000

> <Gold.PLP.ligand.torsion>
0.0112

> <Gold.PLP.Chemscore.Hbond>
2.8960

> <Gold.PLP.Chemscore.CHOScore>
0.0000

> <Gold.PLP.Chemscore.Metal>
0.0000

> <Gold.Chemscore.Hbonds>
donor molecule, donor type, donor heavy atom, donor atom, acceptor molecule, acceptor atom, score
      L1  H     7    27       P1  8028  0.98
      L1  H    10    28       P1  8028  0.83
      L1  H    16    33       P1 10175  0.91

> <Gold.PLP.Chemscore.Internal.Correction>
0.0133

> <Gold.Rescore>
     Score         DG    S(hbond)    S(metal)    S(lipo)     H(rot)  DE(clash)    DE(int)     intcor
     18.91     -20.27       2.80        0.00      86.31       1.82       0.07       1.30       ----

> <Gold.Chemscore.Fitness>
18.9091

> <Gold.Chemscore.DG>
-20.2746

> <Gold.Chemscore.ZeroCoef>
-5.4800

> <Gold.Chemscore.Hbond>
2.7997

> <Gold.Chemscore.Metal>
0.0000

> <Gold.Chemscore.Lipo>
86.3134

> <Gold.Chemscore.Internal_Hbond>
0.0000

> <Gold.Chemscore.DEClash>
0.0650

> <Gold.Chemscore.DEInternal>
1.3005

> <Gold.Chemscore.Rot>
1.8184

> <Gold.Chemscore.Internal.Correction>
   9.000000E+99

> <Gold.Chemscore.Hbonds>
donor molecule, donor type, donor heavy atom, donor atom, acceptor molecule, acceptor atom, score
      L1  H     7    27       P1  8028  0.87
      L1  H    10    28       P1  8028  0.83
      L1  H    16    33       P1 10175  0.85

> <Gold.Chemscore.Hbond.Weighted>
-9.3510

> <Gold.Chemscore.Metal.Weighted>
-0.0000

> <Gold.Chemscore.Lipo.Weighted>
-10.0987

> <Gold.Chemscore.Internal_Hbond.Weighted>
0.0000

> <Gold.Chemscore.DEClash.Weighted>
0.0650

> <Gold.Chemscore.DEInternal.Weighted>
1.3005

> <Gold.Chemscore.Rot.Weighted>
4.6551

> <Gold.Chemscore.Internal.Correction.Weighted>
   9.000000E+99

> <Gold.Protein.RotatedTorsions>
[ 6907 6896 6895 6894 ] final  -51.43 input  -60.11 | X-H torsion
[ 7974 7965 7964 7962 ] final   84.26 input  175.53 | X-H torsion
[ 8008 7997 7996 7995 ] final -136.25 input   59.86 | X-H torsion
[ 10167 10162 10161 10158 ] final  120.85 input  -65.29 | X-H torsion
[ 10718 10713 10712 10709 ] final  177.06 input   66.30 | X-H torsion
[ 10763 10752 10751 10750 ] final -166.67 input  -60.55 | X-H torsion
[ 11005 11000 10999 10996 ] final  146.25 input  -57.11 | X-H torsion

> <Gold.Protein.ActiveResidues>
 VAL166  LYS551  ARG553  GLY616  TRP617  ASP618  TYR619  PRO620  LYS621  CYS622 
 ASP623  PHE694  ASN695  SER759  ASP760  ASP761  ALA762  ILE779  LEU786  VAL792 
 PHE793  MET794  SER795  GLU796  ALA797  LYS798  CYS799  TRP800  GLU811  SER814 

> <Gold.Protein.RotatedAtoms>
  150.8612  134.7965  159.7084 H   0  0  0  0  0  0  0  0  0  0  0  0  # atno 6907 bound_to 6896
  152.4649  134.5096  159.9759 H   0  0  0  0  0  0  0  0  0  0  0  0  # atno 6908 bound_to 6896
  151.5200  133.3430  159.2935 H   0  0  0  0  0  0  0  0  0  0  0  0  # atno 6909 bound_to 6896
  145.6010  139.2352  143.2245 H   0  0  0  0  0  0  0  0  0  0  0  0  # atno 7974 bound_to 7965
  155.3922  140.0500  157.3040 H   0  0  0  0  0  0  0  0  0  0  0  0  # atno 8008 bound_to 7997
  154.5031  140.2164  155.9268 H   0  0  0  0  0  0  0  0  0  0  0  0  # atno 8009 bound_to 7997
  156.1492  140.3139  155.8625 H   0  0  0  0  0  0  0  0  0  0  0  0  # atno 8010 bound_to 7997
  139.5956  144.7040  151.3185 H   0  0  0  0  0  0  0  0  0  0  0  0  # atno 10167 bound_to 10162
  156.9110  130.9909  151.3021 H   0  0  0  0  0  0  0  0  0  0  0  0  # atno 10718 bound_to 10713
  154.6810  135.2954  154.9613 H   0  0  0  0  0  0  0  0  0  0  0  0  # atno 10763 bound_to 10752
  154.0608  135.6631  153.4815 H   0  0  0  0  0  0  0  0  0  0  0  0  # atno 10764 bound_to 10752
  153.0547  135.5152  154.7853 H   0  0  0  0  0  0  0  0  0  0  0  0  # atno 10765 bound_to 10752
  140.0778  134.9115  157.1450 H   0  0  0  0  0  0  0  0  0  0  0  0  # atno 11005 bound_to 11000
  146.1576  140.6835  142.9293 LP  0  0  0  0  0  0  0  0  0  0  0  0  # atno 17320 bound_to 7965
  144.7310  140.4670  143.6938 LP  0  0  0  0  0  0  0  0  0  0  0  0  # atno 17321 bound_to 7965
  140.7209  143.7139  150.7748 LP  0  0  0  0  0  0  0  0  0  0  0  0  # atno 17342 bound_to 10162
  140.0704  143.5067  152.2582 LP  0  0  0  0  0  0  0  0  0  0  0  0  # atno 17343 bound_to 10162
  157.5968  130.8483  149.8740 LP  0  0  0  0  0  0  0  0  0  0  0  0  # atno 17370 bound_to 10713
  156.0536  130.3713  150.1143 LP  0  0  0  0  0  0  0  0  0  0  0  0  # atno 17371 bound_to 10713
  140.3533  134.2575  155.7196 LP  0  0  0  0  0  0  0  0  0  0  0  0  # atno 17394 bound_to 11000
  141.2036  133.7909  157.0333 LP  0  0  0  0  0  0  0  0  0  0  0  0  # atno 17395 bound_to 11000

$$$$
