#       Name:                AV-unprocessed.smi:763
#       Creating user name   scv26
#       Creation time:       Fri Mar 27 01:03:33 2020


#       File generated by GOLD software.
#

@<TRIPOS>MOLECULE
AV-unprocessed.smi:763
    51    52     1
SMALL
NO_CHARGES


@<TRIPOS>ATOM
      1 ****        -3.1473   4.9338   0.9418 C.3            1 S1                 0.0000
      2 ****        -3.0653   4.0388  -0.1561 O.3            1 S1                 0.0000
      3 ****        -2.2331   2.9110   0.0773 C.3            1 S1                 0.0000
      4 ****        -0.7419   3.2716   0.0106 C.3            1 S1                 0.0000
      5 ****         0.0151   2.0657  -0.0156 O.3            1 S1                 0.0000
      6 ****         1.3938   2.1485  -0.0556 C.ar           1 S1                 0.0000
      7 ****         1.9706   3.3766  -0.0734 N.ar           1 S1                 0.0000
      8 ****         3.3176   3.4525  -0.1050 C.ar           1 S1                 0.0000
      9 ****         4.1541   2.3206  -0.1195 C.ar           1 S1                 0.0000
     10 ****         3.5563   1.0468  -0.1028 C.ar           1 S1                 0.0000
     11 ****         2.1478   0.9534  -0.0721 C.ar           1 S1                 0.0000
     12 ****         1.4926  -0.2813  -0.0563 N.pl3          1 S1                 0.0000
     13 ****        -0.2109  -0.6005  -0.0171 S.o2           1 S1                 0.0000
     14 ****        -0.6972  -0.0188   1.2434 O.2            1 S1                 0.0000
     15 ****        -0.7267  -0.1376  -1.3147 O.2            1 S1                 0.0000
     16 ****        -0.2795  -2.4551   0.0584 C.3            1 S1                 0.0000
     17 ****         0.2589  -3.0497  -1.2598 C.3            1 S1                 0.0000
     18 ****         0.2575  -4.5855  -1.2389 C.3            1 S1                 0.0000
     19 ****         1.0437  -5.1217  -0.0343 C.3            1 S1                 0.0000
     20 ****         0.4761  -4.5668   1.2796 C.3            1 S1                 0.0000
     21 ****         0.4704  -3.0268   1.2877 C.3            1 S1                 0.0000
     22 ****        -0.1375  -2.6090   2.4927 O.3            1 S1                 0.0000
     23 ****        -3.8475   5.7347   0.7047 H              1 S1                 0.0000
     24 ****        -2.1840   5.3933   1.1627 H              1 S1                 0.0000
     25 ****        -3.5094   4.4286   1.8380 H              1 S1                 0.0000
     26 ****        -2.4805   2.4286   1.0242 H              1 S1                 0.0000
     27 ****        -2.4550   2.1853  -0.7058 H              1 S1                 0.0000
     28 ****        -0.5457   3.8496  -0.8940 H              1 S1                 0.0000
     29 ****        -0.4601   3.8794   0.8715 H              1 S1                 0.0000
     30 ****         3.7414   4.4457  -0.1182 H              1 S1                 0.0000
     31 ****         5.2286   2.4268  -0.1435 H              1 S1                 0.0000
     32 ****         4.1780   0.1641  -0.1138 H              1 S1                 0.0000
     33 ****         2.0985  -1.0883  -0.0877 H              1 S1                 0.0000
     34 ****        -1.3351  -2.7183   0.1379 H              1 S1                 0.0000
     35 ****        -0.3382  -2.6975  -2.1013 H              1 S1                 0.0000
     36 ****         1.2757  -2.6971  -1.4364 H              1 S1                 0.0000
     37 ****        -0.7695  -4.9508  -1.1998 H              1 S1                 0.0000
     38 ****         0.6879  -4.9694  -2.1641 H              1 S1                 0.0000
     39 ****         1.0095  -6.2115  -0.0227 H              1 S1                 0.0000
     40 ****         2.0948  -4.8448  -0.1266 H              1 S1                 0.0000
     41 ****        -0.5394  -4.9416   1.4171 H              1 S1                 0.0000
     42 ****         1.0602  -4.9435   2.1202 H              1 S1                 0.0000
     43 ****         1.5012  -2.6713   1.2885 H              1 S1                 0.0000
     44 ****        -1.0301  -2.9189   2.5054 H              1 S1                 0.0000
     45 ****        -2.7035   4.5388  -0.9429 LP             1 S1                 0.0000
     46 ****        -3.9870   3.7115  -0.3643 LP             1 S1                 0.0000
     47 ****        -0.2727   1.5550  -0.8258 LP             1 S1                 0.0000
     48 ****        -0.2251   1.5495   0.8065 LP             1 S1                 0.0000
     49 ****         1.4111   4.2053  -0.0633 LP             1 S1                 0.0000
     50 ****        -0.1272  -1.6104   2.5460 LP             1 S1                 0.0000
     51 ****         0.3619  -2.9895   3.2710 LP             1 S1                 0.0000
@<TRIPOS>BOND
    1    1    2 1     
    2    1   23 1     
    3    1   24 1     
    4    1   25 1     
    5    2    3 1     
    6    3    4 1     
    7    3   26 1     
    8    3   27 1     
    9    4    5 1     
   10    4   28 1     
   11    4   29 1     
   12    5    6 1     
   13    6   11 ar    
   14    6    7 ar    
   15    7    8 ar    
   16    8    9 ar    
   17    8   30 1     
   18    9   10 ar    
   19    9   31 1     
   20   10   11 ar    
   21   10   32 1     
   22   11   12 1     
   23   12   13 1     
   24   12   33 1     
   25   13   14 2     
   26   13   15 2     
   27   13   16 1     
   28   16   21 1     
   29   16   17 1     
   30   16   34 1     
   31   17   18 1     
   32   17   35 1     
   33   17   36 1     
   34   18   19 1     
   35   18   37 1     
   36   18   38 1     
   37   19   20 1     
   38   19   39 1     
   39   19   40 1     
   40   20   21 1     
   41   20   41 1     
   42   20   42 1     
   43   21   22 1     
   44   21   43 1     
   45   22   44 1     
   46    2   45 1     
   47    2   46 1     
   48    5   47 1     
   49    5   48 1     
   50    7   49 1     
   51   22   50 1     
   52   22   51 1     
@<TRIPOS>SUBSTRUCTURE
      1 S1             1
@<TRIPOS>SET
LONE_PAIRS      STATIC     ATOMS    <user>   **** ""
9 45 46 47 48 49 14 15 50 51
DONOR_HYDROGENS      STATIC     ATOMS    <user>   **** ""
2 33 44
ATOM$BLUE        STATIC     ATOMS    COLORGROUP SYSTEM
9 45 46 47 48 49 14 15 50 51
ATOM$RED        STATIC     ATOMS    COLORGROUP SYSTEM
2 33 44
