#       Name:                AV-unprocessed.smi:3173
#       Creating user name   scv26
#       Creation time:       Fri Mar 27 17:55:40 2020


#       File generated by GOLD software.
#

@<TRIPOS>MOLECULE
AV-unprocessed.smi:3173
    38    39     1
SMALL
NO_CHARGES


@<TRIPOS>ATOM
      1 ****        -0.5749   1.4444   1.2939 O.2            1 S1                 0.0000
      2 ****        -1.0179   0.2956   1.2942 C.2            1 S1                 0.0000
      3 ****        -2.5302   0.0485   1.2673 C.3            1 S1                 0.0000
      4 ****        -3.2812   0.9805   0.2933 C.3            1 S1                 0.0000
      5 ****        -4.7677   0.7330   0.2934 C.2            1 S1                 0.0000
      6 ****        -5.2628   0.5708  -0.9317 C.2            1 S1                 0.0000
      7 ****        -4.2070   0.6749  -1.9970 C.3            1 S1                 0.0000
      8 ****        -2.8908   0.8014  -1.1987 C.3            1 S1                 0.0000
      9 ****        -0.2355  -0.7942   1.3119 N.am           1 S1                 0.0000
     10 ****         1.2225  -0.7773   1.2964 C.3            1 S1                 0.0000
     11 ****         1.7655  -0.5835  -0.1293 C.3            1 S1                 0.0000
     12 ****         3.2817  -0.5812  -0.1732 C.ar           1 S1                 0.0000
     13 ****         3.9985   0.6337  -0.2142 C.ar           1 S1                 0.0000
     14 ****         5.4053   0.5819  -0.2515 C.ar           1 S1                 0.0000
     15 ****         6.0380  -0.6761  -0.2451 C.ar           1 S1                 0.0000
     16 ****         5.2320  -1.8312  -0.1997 C.ar           1 S1                 0.0000
     17 ****         3.8824  -1.7928  -0.1632 N.ar           1 S1                 0.0000
     18 ****        -2.7279  -0.9926   1.0062 H              1 S1                 0.0000
     19 ****        -2.9109   0.1894   2.2795 H              1 S1                 0.0000
     20 ****        -3.1358   2.0205   0.5892 H              1 S1                 0.0000
     21 ****        -5.3478   0.7131   1.2043 H              1 S1                 0.0000
     22 ****        -6.3031   0.3992  -1.1657 H              1 S1                 0.0000
     23 ****        -4.2119  -0.2080  -2.6368 H              1 S1                 0.0000
     24 ****        -4.3911   1.5554  -2.6133 H              1 S1                 0.0000
     25 ****        -2.2817   1.6327  -1.5551 H              1 S1                 0.0000
     26 ****        -2.3020  -0.1065  -1.3367 H              1 S1                 0.0000
     27 ****        -0.6815  -1.7001   1.3153 H              1 S1                 0.0000
     28 ****         1.5969   0.0060   1.9577 H              1 S1                 0.0000
     29 ****         1.5760  -1.7241   1.7053 H              1 S1                 0.0000
     30 ****         1.3941  -1.3756  -0.7812 H              1 S1                 0.0000
     31 ****         1.3980   0.3539  -0.5490 H              1 S1                 0.0000
     32 ****         3.4841   1.5835  -0.2162 H              1 S1                 0.0000
     33 ****         5.9879   1.4907  -0.2842 H              1 S1                 0.0000
     34 ****         7.1147  -0.7539  -0.2734 H              1 S1                 0.0000
     35 ****         5.6834  -2.8123  -0.1924 H              1 S1                 0.0000
     36 ****        -1.2028   2.2224   1.2760 LP             1 S1                 0.0000
     37 ****         0.4129   1.5994   1.3115 LP             1 S1                 0.0000
     38 ****         3.3438  -2.6347  -0.1298 LP             1 S1                 0.0000
@<TRIPOS>BOND
    1    1    2 2     
    2    2    3 1     
    3    2    9 am    
    4    3    4 1     
    5    3   18 1     
    6    3   19 1     
    7    4    8 1     
    8    4    5 1     
    9    4   20 1     
   10    5    6 2     
   11    5   21 1     
   12    6    7 1     
   13    6   22 1     
   14    7    8 1     
   15    7   23 1     
   16    7   24 1     
   17    8   25 1     
   18    8   26 1     
   19    9   10 1     
   20    9   27 1     
   21   10   11 1     
   22   10   28 1     
   23   10   29 1     
   24   11   12 1     
   25   11   30 1     
   26   11   31 1     
   27   12   17 ar    
   28   12   13 ar    
   29   13   14 ar    
   30   13   32 1     
   31   14   15 ar    
   32   14   33 1     
   33   15   16 ar    
   34   15   34 1     
   35   16   17 ar    
   36   16   35 1     
   37    1   36 1     
   38    1   37 1     
   39   17   38 1     
@<TRIPOS>SUBSTRUCTURE
      1 S1             1
@<TRIPOS>SET
LONE_PAIRS      STATIC     ATOMS    <user>   **** ""
3 36 37 38
DONOR_HYDROGENS      STATIC     ATOMS    <user>   **** ""
1 27
ATOM$BLUE        STATIC     ATOMS    COLORGROUP SYSTEM
3 36 37 38
ATOM$RED        STATIC     ATOMS    COLORGROUP SYSTEM
1 27
