AV-unprocessed.smi:384|AV-procd|sdf|2466|dock4
  -GOLD-   2262022403D 1   1.00000     0.00000
 Structure written by MMmdl.
 32 33  0  0  0  0  0  0  0  0  2 V2000
  146.4959  128.7394  151.6675 C   0  0  0  0  0  0  0  0  0  0  0  0
  146.0021  130.0940  152.1864 C   0  0  1  0  0  0  0  0  0  0  0  0
  147.1200  130.8871  152.8893 C   0  0  0  0  0  0  0  0  0  0  0  0
  146.6297  132.2023  153.2799 N   0  0  0  0  0  0  0  0  0  0  0  0
  147.5558  132.9392  154.0316 C   0  0  0  0  0  0  0  0  0  0  0  0
  148.7886  133.2894  153.4444 C   0  0  0  0  0  0  0  0  0  0  0  0
  149.7143  134.0309  154.2038 C   0  0  0  0  0  0  0  0  0  0  0  0
  149.3811  134.4012  155.5258 C   0  0  0  0  0  0  0  0  0  0  0  0
  150.3348  135.1928  156.3758 C   0  0  0  0  0  0  0  0  0  0  0  0
  150.0201  135.4463  157.5599 O   0  0  0  0  0  0  0  0  0  0  0  0
  151.4150  135.5745  155.8731 O   0  5  0  0  0  0  0  0  0  0  0  0
  148.1185  134.0001  156.0193 C   0  0  0  0  0  0  0  0  0  0  0  0
  147.2258  133.2885  155.2973 N   0  0  0  0  0  0  0  0  0  0  0  0
  146.0725  132.9431  152.1554 C   0  0  0  0  0  0  0  0  0  0  0  0
  144.9737  132.1107  151.4683 C   0  0  1  0  0  0  0  0  0  0  0  0
  144.4202  132.8056  150.2198 C   0  0  0  0  0  0  0  0  0  0  0  0
  145.5192  130.8516  151.0784 O   0  0  0  0  0  0  0  0  0  0  0  0
  146.8661  128.1183  152.4834 H   0  0  0  0  0  0  0  0  0  0  0  0
  147.3047  128.8631  150.9468 H   0  0  0  0  0  0  0  0  0  0  0  0
  145.6908  128.1941  151.1745 H   0  0  0  0  0  0  0  0  0  0  0  0
  145.1811  129.9195  152.8841 H   0  0  0  0  0  0  0  0  0  0  0  0
  147.4668  130.3480  153.7719 H   0  0  0  0  0  0  0  0  0  0  0  0
  147.9756  130.9972  152.2210 H   0  0  0  0  0  0  0  0  0  0  0  0
  149.0241  132.9968  152.4317 H   0  0  0  0  0  0  0  0  0  0  0  0
  150.6635  134.3063  153.7674 H   0  0  0  0  0  0  0  0  0  0  0  0
  147.8039  134.2517  157.0216 H   0  0  0  0  0  0  0  0  0  0  0  0
  145.6629  133.8906  152.5077 H   0  0  0  0  0  0  0  0  0  0  0  0
  146.8630  133.1781  151.4410 H   0  0  0  0  0  0  0  0  0  0  0  0
  144.1504  131.9425  152.1648 H   0  0  0  0  0  0  0  0  0  0  0  0
  143.9809  133.7712  150.4709 H   0  0  0  0  0  0  0  0  0  0  0  0
  143.6448  132.2010  149.7489 H   0  0  0  0  0  0  0  0  0  0  0  0
  145.2043  132.9759  149.4817 H   0  0  0  0  0  0  0  0  0  0  0  0
  1  2  1  0  0  0  0
  1 18  1  0  0  0  0
  1 19  1  0  0  0  0
  1 20  1  0  0  0  0
  2 17  1  0  0  0  0
  2  3  1  0  0  0  0
  2 21  1  0  0  0  0
  3  4  1  0  0  0  0
  3 22  1  0  0  0  0
  3 23  1  0  0  0  0
  4  5  1  0  0  0  0
  4 14  1  0  0  0  0
  5 13  1  0  0  0  0
  5  6  2  0  0  0  0
  6  7  1  0  0  0  0
  6 24  1  0  0  0  0
  7  8  2  0  0  0  0
  7 25  1  0  0  0  0
  8  9  1  0  0  0  0
  8 12  1  0  0  0  0
  9 10  2  0  0  0  0
  9 11  1  0  0  0  0
 12 13  2  0  0  0  0
 12 26  1  0  0  0  0
 14 15  1  0  0  0  0
 14 27  1  0  0  0  0
 14 28  1  0  0  0  0
 15 16  1  0  0  0  0
 15 17  1  0  0  0  0
 15 29  1  0  0  0  0
 16 30  1  0  0  0  0
 16 31  1  0  0  0  0
 16 32  1  0  0  0  0
M  CHG  1  11  -1
M  END
> <s_m_source_file>
AV-unprocessed.smi

> <i_m_source_file_index>
384

> <i_lp_mmshare_version>
43012

> <i_f3d_flags>
0

> <s_epik_input>
W0NIM11bQ0BASF0xW0NIMl1OKFtDSDJdW0NASF0oTzEpW0NIM10pYzJbY0hdW2NIXWMoW2NIXW4yKUMoPU8pW09IXQ==

> <s_epik_cmdline>
J2VwaWtfcHl0aG9uJywgJy1waCcsICc3LjAnLCAnLXRuJywgJzgnLCAnLW1hJywgJzIwMCcsICctbWV0YWxfYmluZGluZycsICctaW1hZScsICc8aW5maWxlLm1hZT4nLCAnLW9tYWUnLCAnPG91dGZpbGUubWFlPic=

> <r_epik_Ionization_Penalty>
0.0114922

> <r_epik_Ionization_Penalty_Charging>
0.000195896

> <r_epik_Ionization_Penalty_Neutral>
0.0112963

> <r_epik_State_Penalty>
0.00868573

> <r_epik_Charging_Adjusted_Penalty>
0.00888162

> <i_epik_Tot_Q>
-1

> <i_epik_Tot_abs_Q>
1

> <r_epik_Metal_State_Penalty>
8.74964e-06

> <b_epik_Metal_Only>
0

> <s_lp_Force_Field>
OPLS_2005

> <r_lp_Energy>
16.9609

> <b_lp_Chiralities_Consistent>
1

> <s_lp_Variant>
AV-unprocessed.smi:384-2

> <Gold.Version>
5.8.1

> <Gold.Id.Protein>
6NUR|6NUR_protein|mol2

> <Gold.PLP.Fitness>
36.9710

> <Gold.PLP.PLP>
-26.3987

> <Gold.PLP.part.hbond>
-2.0000

> <Gold.PLP.part.metal>
0.0000

> <Gold.PLP.part.buried>
-4.3545

> <Gold.PLP.part.nonpolar>
-20.2385

> <Gold.PLP.part.repulsive>
0.2581

> <Gold.PLP.ligand.clash>
0.0000

> <Gold.PLP.ligand.torsion>
0.0659

> <Gold.PLP.Chemscore.Hbond>
3.5360

> <Gold.PLP.Chemscore.CHOScore>
0.0000

> <Gold.PLP.Chemscore.Metal>
0.0000

> <Gold.Chemscore.Hbonds>
donor molecule, donor type, donor heavy atom, donor atom, acceptor molecule, acceptor atom, score
      P1  H  6896  6908       L1    10  0.71
      P1  H 10752 10764       L1    11  2.00

> <Gold.PLP.Chemscore.Internal.Correction>
0.0961

> <Gold.Rescore>
     Score         DG    S(hbond)    S(metal)    S(lipo)     H(rot)  DE(clash)    DE(int)     intcor
     16.03     -16.17       1.77        0.00      62.73       1.00       0.00       0.14       ----

> <Gold.Chemscore.Fitness>
16.0276

> <Gold.Chemscore.DG>
-16.1705

> <Gold.Chemscore.ZeroCoef>
-5.4800

> <Gold.Chemscore.Hbond>
1.7698

> <Gold.Chemscore.Metal>
0.0000

> <Gold.Chemscore.Lipo>
62.7283

> <Gold.Chemscore.Internal_Hbond>
0.0000

> <Gold.Chemscore.DEClash>
0.0000

> <Gold.Chemscore.DEInternal>
0.1429

> <Gold.Chemscore.Rot>
1.0000

> <Gold.Chemscore.Internal.Correction>
   9.000000E+99

> <Gold.Chemscore.Hbonds>
donor molecule, donor type, donor heavy atom, donor atom, acceptor molecule, acceptor atom, score
      P1  H  6896  6908       L1    10  0.35
      P1  H 10752 10764       L1    11  0.98

> <Gold.Chemscore.Hbond.Weighted>
-5.9113

> <Gold.Chemscore.Metal.Weighted>
-0.0000

> <Gold.Chemscore.Lipo.Weighted>
-7.3392

> <Gold.Chemscore.Internal_Hbond.Weighted>
0.0000

> <Gold.Chemscore.DEClash.Weighted>
0.0000

> <Gold.Chemscore.DEInternal.Weighted>
0.1429

> <Gold.Chemscore.Rot.Weighted>
2.5600

> <Gold.Chemscore.Internal.Correction.Weighted>
   9.000000E+99

> <Gold.Protein.RotatedTorsions>
[ 6907 6896 6895 6894 ] final  157.68 input  -60.11 | X-H torsion
[ 7974 7965 7964 7962 ] final -178.19 input  175.53 | X-H torsion
[ 8008 7997 7996 7995 ] final -137.23 input   59.86 | X-H torsion
[ 10167 10162 10161 10158 ] final  -91.05 input  -65.29 | X-H torsion
[ 10718 10713 10712 10709 ] final  -75.80 input   66.30 | X-H torsion
[ 10763 10752 10751 10750 ] final  -25.79 input  -60.55 | X-H torsion
[ 11005 11000 10999 10996 ] final  136.52 input  -57.11 | X-H torsion

> <Gold.Protein.ActiveResidues>
 VAL166  LYS551  ARG553  GLY616  TRP617  ASP618  TYR619  PRO620  LYS621  CYS622 
 ASP623  PHE694  ASN695  SER759  ASP760  ASP761  ALA762  ILE779  LEU786  VAL792 
 PHE793  MET794  SER795  GLU796  ALA797  LYS798  CYS799  TRP800  GLU811  SER814 

> <Gold.Protein.RotatedAtoms>
  152.0115  133.3863  159.4221 H   0  0  0  0  0  0  0  0  0  0  0  0  # atno 6907 bound_to 6896
  150.6899  134.3725  159.5007 H   0  0  0  0  0  0  0  0  0  0  0  0  # atno 6908 bound_to 6896
  152.1486  134.9005  160.0600 H   0  0  0  0  0  0  0  0  0  0  0  0  # atno 6909 bound_to 6896
  144.7130  140.0906  143.6421 H   0  0  0  0  0  0  0  0  0  0  0  0  # atno 7974 bound_to 7965
  155.4084  140.0510  157.3033 H   0  0  0  0  0  0  0  0  0  0  0  0  # atno 8008 bound_to 7997
  154.4957  140.2137  155.9411 H   0  0  0  0  0  0  0  0  0  0  0  0  # atno 8009 bound_to 7997
  156.1403  140.3155  155.8489 H   0  0  0  0  0  0  0  0  0  0  0  0  # atno 8010 bound_to 7997
  140.3488  143.2902  151.9751 H   0  0  0  0  0  0  0  0  0  0  0  0  # atno 10167 bound_to 10162
  156.0195  130.4449  150.3097 H   0  0  0  0  0  0  0  0  0  0  0  0  # atno 10718 bound_to 10713
  153.7055  135.6954  153.5051 H   0  0  0  0  0  0  0  0  0  0  0  0  # atno 10763 bound_to 10752
  153.2310  135.4337  155.0594 H   0  0  0  0  0  0  0  0  0  0  0  0  # atno 10764 bound_to 10752
  154.8331  135.3484  154.6594 H   0  0  0  0  0  0  0  0  0  0  0  0  # atno 10765 bound_to 10752
  140.0052  134.9462  157.0158 H   0  0  0  0  0  0  0  0  0  0  0  0  # atno 11005 bound_to 11000
  145.9624  139.2810  143.1148 LP  0  0  0  0  0  0  0  0  0  0  0  0  # atno 17320 bound_to 7965
  145.9206  140.9117  143.0407 LP  0  0  0  0  0  0  0  0  0  0  0  0  # atno 17321 bound_to 7965
  139.4829  144.6094  151.7461 LP  0  0  0  0  0  0  0  0  0  0  0  0  # atno 17342 bound_to 10162
  140.5239  144.0836  150.6031 LP  0  0  0  0  0  0  0  0  0  0  0  0  # atno 17343 bound_to 10162
  157.1199  131.0244  151.3013 LP  0  0  0  0  0  0  0  0  0  0  0  0  # atno 17370 bound_to 10713
  157.4636  130.7668  149.7259 LP  0  0  0  0  0  0  0  0  0  0  0  0  # atno 17371 bound_to 10713
  140.4655  134.1440  155.7196 LP  0  0  0  0  0  0  0  0  0  0  0  0  # atno 17394 bound_to 11000
  141.1671  133.8681  157.1682 LP  0  0  0  0  0  0  0  0  0  0  0  0  # atno 17395 bound_to 11000

$$$$
