AV-unprocessed.smi:1681|AV-procd|sdf|6741|dock3
  -GOLD-   22720 7493D 1   1.00000     0.00000
 Structure written by MMmdl.
 40 41  0  0  0  0  0  0  0  0  1 V2000
  153.1471  142.2865  162.0973 C   0  0  0  0  0  0  0  0  0  0  0  0
  152.6005  143.3543  161.1469 C   0  0  0  0  0  0  0  0  0  0  0  0
  152.1895  144.4071  161.6353 O   0  0  0  0  0  0  0  0  0  0  0  0
  152.5887  143.1123  159.8138 N   0  0  0  0  0  0  0  0  0  0  0  0
  152.0235  144.0050  158.7937 C   0  0  0  0  0  0  0  0  0  0  0  0
  150.7363  143.3686  158.2400 C   0  0  0  0  0  0  0  0  0  0  0  0
  151.0133  141.9566  157.6889 C   0  0  0  0  0  0  0  0  0  0  0  0
  151.7690  141.0791  158.7148 C   0  0  1  0  0  0  0  0  0  0  0  0
  152.1566  139.7239  158.1076 C   0  0  0  0  0  0  0  0  0  0  0  0
  153.3336  139.3632  158.1177 O   0  0  0  0  0  0  0  0  0  0  0  0
  151.1470  139.0017  157.5910 N   0  0  0  0  0  0  0  0  0  0  0  0
  151.2260  137.7306  156.9700 C   0  0  0  0  0  0  0  0  0  0  0  0
  152.1505  136.6713  157.1934 C   0  0  0  0  0  0  0  0  0  0  0  0
  151.8914  135.6401  156.4034 N   0  0  0  0  0  0  0  0  0  0  0  0
  150.8121  136.0167  155.6724 N   0  0  0  0  0  0  0  0  0  0  0  0
  150.2575  135.1069  154.6858 C   0  0  0  0  0  0  0  0  0  0  0  0
  148.7935  134.7837  154.9901 C   0  0  0  0  0  0  0  0  0  0  0  0
  147.8920  135.0987  154.0562 N   0  0  0  0  0  0  0  0  0  0  0  0
  148.4811  134.2545  156.0544 O   0  0  0  0  0  0  0  0  0  0  0  0
  150.3803  137.2877  155.9981 C   0  0  0  0  0  0  0  0  0  0  0  0
  153.0148  141.8307  159.2366 C   0  0  0  0  0  0  0  0  0  0  0  0
  154.1842  142.0486  161.8584 H   0  0  0  0  0  0  0  0  0  0  0  0
  152.5504  141.3757  162.0394 H   0  0  0  0  0  0  0  0  0  0  0  0
  153.1163  142.6384  163.1291 H   0  0  0  0  0  0  0  0  0  0  0  0
  151.8136  145.0096  159.1580 H   0  0  0  0  0  0  0  0  0  0  0  0
  152.7501  144.1340  157.9902 H   0  0  0  0  0  0  0  0  0  0  0  0
  149.9879  143.3126  159.0317 H   0  0  0  0  0  0  0  0  0  0  0  0
  150.3123  143.9978  157.4571 H   0  0  0  0  0  0  0  0  0  0  0  0
  150.0741  141.4817  157.4027 H   0  0  0  0  0  0  0  0  0  0  0  0
  151.6016  142.0490  156.7745 H   0  0  0  0  0  0  0  0  0  0  0  0
  151.1045  140.8997  159.5623 H   0  0  0  0  0  0  0  0  0  0  0  0
  150.2248  139.4097  157.6449 H   0  0  0  0  0  0  0  0  0  0  0  0
  152.9816  136.6076  157.8796 H   0  0  0  0  0  0  0  0  0  0  0  0
  150.3455  135.5442  153.6897 H   0  0  0  0  0  0  0  0  0  0  0  0
  150.8489  134.1903  154.6866 H   0  0  0  0  0  0  0  0  0  0  0  0
  146.9146  134.8970  154.2121 H   0  0  0  0  0  0  0  0  0  0  0  0
  148.1919  135.5313  153.1945 H   0  0  0  0  0  0  0  0  0  0  0  0
  149.5328  137.7533  155.5169 H   0  0  0  0  0  0  0  0  0  0  0  0
  153.7169  142.0240  158.4236 H   0  0  0  0  0  0  0  0  0  0  0  0
  153.5580  141.2112  159.9522 H   0  0  0  0  0  0  0  0  0  0  0  0
  1  2  1  0  0  0  0
  1 22  1  0  0  0  0
  1 23  1  0  0  0  0
  1 24  1  0  0  0  0
  2  3  2  0  0  0  0
  2  4  1  0  0  0  0
  4 21  1  0  0  0  0
  4  5  1  0  0  0  0
  5  6  1  0  0  0  0
  5 25  1  0  0  0  0
  5 26  1  0  0  0  0
  6  7  1  0  0  0  0
  6 27  1  0  0  0  0
  6 28  1  0  0  0  0
  7  8  1  0  0  0  0
  7 29  1  0  0  0  0
  7 30  1  0  0  0  0
  8  9  1  0  0  0  0
  8 21  1  0  0  0  0
  8 31  1  0  0  0  0
  9 10  2  0  0  0  0
  9 11  1  0  0  0  0
 11 12  1  0  0  0  0
 11 32  1  0  0  0  0
 12 20  2  0  0  0  0
 12 13  1  0  0  0  0
 13 14  2  0  0  0  0
 13 33  1  0  0  0  0
 14 15  1  0  0  0  0
 15 16  1  0  0  0  0
 15 20  1  0  0  0  0
 16 17  1  0  0  0  0
 16 34  1  0  0  0  0
 16 35  1  0  0  0  0
 17 18  1  0  0  0  0
 17 19  2  0  0  0  0
 18 36  1  0  0  0  0
 18 37  1  0  0  0  0
 20 38  1  0  0  0  0
 21 39  1  0  0  0  0
 21 40  1  0  0  0  0
M  END
> <s_m_source_file>
AV-unprocessed.smi

> <i_m_source_file_index>
1681

> <i_lp_mmshare_version>
43012

> <i_f3d_flags>
0

> <s_epik_input>
W0NIM11DKD1PKU4xW0NIMl1bQ0gyXVtDSDJdW0NASF0oW0NIMl0xKUMoPU8pW05IXWMyW2NIXW5uKFtjSF0yKVtDSDJdQyg9TylbTkgyXQ==

> <s_epik_cmdline>
J2VwaWtfcHl0aG9uJywgJy1waCcsICc3LjAnLCAnLXRuJywgJzgnLCAnLW1hJywgJzIwMCcsICctbWV0YWxfYmluZGluZycsICctaW1hZScsICc8aW5maWxlLm1hZT4nLCAnLW9tYWUnLCAnPG91dGZpbGUubWFlPic=

> <r_lp_tautomer_probability>
1

> <r_epik_Ionization_Penalty>
6.05275e-06

> <r_epik_Ionization_Penalty_Charging>
0

> <r_epik_Ionization_Penalty_Neutral>
6.05275e-06

> <r_epik_State_Penalty>
-0

> <r_epik_Charging_Adjusted_Penalty>
0

> <i_epik_Tot_Q>
0

> <i_epik_Tot_abs_Q>
0

> <r_epik_Metal_State_Penalty>
-0

> <b_epik_Metal_Only>
0

> <s_lp_Force_Field>
OPLS_2005

> <r_lp_Energy>
29.0931

> <b_lp_Chiralities_Consistent>
1

> <s_lp_Variant>
AV-unprocessed.smi:1681-1

> <Gold.Version>
5.8.1

> <Gold.Id.Protein>
6NUR|6NUR_protein|mol2

> <Gold.PLP.Fitness>
46.2136

> <Gold.PLP.PLP>
-37.6069

> <Gold.PLP.part.hbond>
-3.0000

> <Gold.PLP.part.metal>
0.0000

> <Gold.PLP.part.buried>
-5.8676

> <Gold.PLP.part.nonpolar>
-29.5453

> <Gold.PLP.part.repulsive>
0.4660

> <Gold.PLP.ligand.clash>
0.0000

> <Gold.PLP.ligand.torsion>
0.2102

> <Gold.PLP.Chemscore.Hbond>
3.0000

> <Gold.PLP.Chemscore.CHOScore>
0.0000

> <Gold.PLP.Chemscore.Metal>
0.0000

> <Gold.Chemscore.Hbonds>
donor molecule, donor type, donor heavy atom, donor atom, acceptor molecule, acceptor atom, score
      L1  H    18    37       P1  7948  1.00
      P1  H  7997  8010       L1    10  1.00
      P1  H 10752 10764       L1    14  1.00

> <Gold.PLP.Chemscore.Internal.Correction>
0.0271

> <Gold.Rescore>
     Score         DG    S(hbond)    S(metal)    S(lipo)     H(rot)  DE(clash)    DE(int)     intcor
     17.47     -18.45       2.83        0.00      73.11       1.96       0.08       0.90       ----

> <Gold.Chemscore.Fitness>
17.4696

> <Gold.Chemscore.DG>
-18.4537

> <Gold.Chemscore.ZeroCoef>
-5.4800

> <Gold.Chemscore.Hbond>
2.8271

> <Gold.Chemscore.Metal>
0.0000

> <Gold.Chemscore.Lipo>
73.1052

> <Gold.Chemscore.Internal_Hbond>
0.0000

> <Gold.Chemscore.DEClash>
0.0799

> <Gold.Chemscore.DEInternal>
0.9042

> <Gold.Chemscore.Rot>
1.9617

> <Gold.Chemscore.Internal.Correction>
   9.000000E+99

> <Gold.Chemscore.Hbonds>
donor molecule, donor type, donor heavy atom, donor atom, acceptor molecule, acceptor atom, score
      L1  H    18    37       P1  7948  1.00
      P1  H  7997  8010       L1    10  0.95
      P1  H 10752 10764       L1    14  0.28

> <Gold.Chemscore.Hbond.Weighted>
-9.4424

> <Gold.Chemscore.Metal.Weighted>
-0.0000

> <Gold.Chemscore.Lipo.Weighted>
-8.5533

> <Gold.Chemscore.Internal_Hbond.Weighted>
0.0000

> <Gold.Chemscore.DEClash.Weighted>
0.0799

> <Gold.Chemscore.DEInternal.Weighted>
0.9042

> <Gold.Chemscore.Rot.Weighted>
5.0220

> <Gold.Chemscore.Internal.Correction.Weighted>
   9.000000E+99

> <Gold.Protein.RotatedTorsions>
[ 6907 6896 6895 6894 ] final  -44.60 input  -60.11 | X-H torsion
[ 7974 7965 7964 7962 ] final  -46.60 input  175.53 | X-H torsion
[ 8008 7997 7996 7995 ] final   48.57 input   59.86 | X-H torsion
[ 10167 10162 10161 10158 ] final   41.05 input  -65.29 | X-H torsion
[ 10718 10713 10712 10709 ] final -165.65 input   66.30 | X-H torsion
[ 10763 10752 10751 10750 ] final  -26.39 input  -60.55 | X-H torsion
[ 11005 11000 10999 10996 ] final -115.84 input  -57.11 | X-H torsion

> <Gold.Protein.ActiveResidues>
 VAL166  LYS551  ARG553  GLY616  TRP617  ASP618  TYR619  PRO620  LYS621  CYS622 
 ASP623  PHE694  ASN695  SER759  ASP760  ASP761  ALA762  ILE779  LEU786  VAL792 
 PHE793  MET794  SER795  GLU796  ALA797  LYS798  CYS799  TRP800  GLU811  SER814 

> <Gold.Protein.RotatedAtoms>
  150.9311  134.8726  159.7551 H   0  0  0  0  0  0  0  0  0  0  0  0  # atno 6907 bound_to 6896
  152.5038  134.4078  159.9448 H   0  0  0  0  0  0  0  0  0  0  0  0  # atno 6908 bound_to 6896
  151.4104  133.3689  159.2778 H   0  0  0  0  0  0  0  0  0  0  0  0  # atno 6909 bound_to 6896
  145.9702  140.7391  142.9414 H   0  0  0  0  0  0  0  0  0  0  0  0  # atno 7974 bound_to 7965
  155.3878  140.3432  155.4250 H   0  0  0  0  0  0  0  0  0  0  0  0  # atno 8008 bound_to 7997
  156.1574  140.1590  156.8702 H   0  0  0  0  0  0  0  0  0  0  0  0  # atno 8009 bound_to 7997
  154.5108  140.0790  156.7967 H   0  0  0  0  0  0  0  0  0  0  0  0  # atno 8010 bound_to 7997
  140.3681  144.2141  150.6134 H   0  0  0  0  0  0  0  0  0  0  0  0  # atno 10167 bound_to 10162
  156.6565  130.9029  151.3022 H   0  0  0  0  0  0  0  0  0  0  0  0  # atno 10718 bound_to 10713
  153.7152  135.6948  153.5027 H   0  0  0  0  0  0  0  0  0  0  0  0  # atno 10763 bound_to 10752
  153.2243  135.4359  155.0524 H   0  0  0  0  0  0  0  0  0  0  0  0  # atno 10764 bound_to 10752
  154.8302  135.3468  154.6687 H   0  0  0  0  0  0  0  0  0  0  0  0  # atno 10765 bound_to 10752
  141.0461  133.9760  157.2914 H   0  0  0  0  0  0  0  0  0  0  0  0  # atno 11005 bound_to 11000
  144.6835  140.2736  143.7302 LP  0  0  0  0  0  0  0  0  0  0  0  0  # atno 17320 bound_to 7965
  145.7917  139.1929  143.2099 LP  0  0  0  0  0  0  0  0  0  0  0  0  # atno 17321 bound_to 7965
  140.5060  143.2304  151.8606 LP  0  0  0  0  0  0  0  0  0  0  0  0  # atno 17342 bound_to 10162
  139.4806  144.5004  151.9067 LP  0  0  0  0  0  0  0  0  0  0  0  0  # atno 17343 bound_to 10162
  157.7124  130.9456  150.1134 LP  0  0  0  0  0  0  0  0  0  0  0  0  # atno 17370 bound_to 10713
  156.2043  130.3662  149.8748 LP  0  0  0  0  0  0  0  0  0  0  0  0  # atno 17371 bound_to 10713
  139.9313  135.0199  156.8410 LP  0  0  0  0  0  0  0  0  0  0  0  0  # atno 17394 bound_to 11000
  140.6143  134.0053  155.7590 LP  0  0  0  0  0  0  0  0  0  0  0  0  # atno 17395 bound_to 11000

$$$$
