AV-unprocessed.smi:1116|AV-procd|sdf|4809|dock2
  -GOLD-   22720 3363D 1   1.00000     0.00000
 Structure written by MMmdl.
 35 36  0  0  0  0  0  0  0  0  2 V2000
  152.5392  143.4423  161.9036 C   0  0  0  0  0  0  0  0  0  0  0  0
  151.8226  143.7172  160.6262 C   0  0  0  0  0  0  0  0  0  0  0  0
  151.3825  142.7611  159.8038 N   0  0  0  0  0  0  0  0  0  0  0  0
  150.7454  143.2768  158.6706 C   0  0  0  0  0  0  0  0  0  0  0  0
  150.1966  142.3485  157.6304 C   0  0  0  0  0  0  0  0  0  0  0  0
  151.2930  141.4757  156.9969 C   0  0  0  0  0  0  0  0  0  0  0  0
  150.7298  140.4214  156.1623 N   0  0  0  0  0  0  0  0  0  0  0  0
  151.4156  139.6894  155.2712 C   0  0  0  0  0  0  0  0  0  0  0  0
  152.6179  139.8403  155.0523 O   0  0  0  0  0  0  0  0  0  0  0  0
  150.6201  138.6292  154.5079 C   0  0  0  0  0  0  0  0  0  0  0  0
  151.2131  137.2185  154.6816 C   0  0  0  0  0  0  0  0  0  0  0  0
  151.1459  136.7166  156.1391 C   0  0  2  0  0  0  0  0  0  0  0  0
  151.6973  135.3783  156.2649 N   0  5  0  0  0  0  0  0  0  0  0  0
  150.7391  134.5645  156.7675 C   0  0  0  0  0  0  0  0  0  0  0  0
  150.8295  133.3661  157.0244 O   0  0  0  0  0  0  0  0  0  0  0  0
  149.6025  135.2395  156.9680 N   0  0  0  0  0  0  0  0  0  0  0  0
  149.7205  136.5161  156.6176 C   0  0  0  0  0  0  0  0  0  0  0  0
  148.8538  137.3879  156.6657 O   0  0  0  0  0  0  0  0  0  0  0  0
  150.7051  144.6488  158.6501 C   0  0  0  0  0  0  0  0  0  0  0  0
  151.4718  145.3427  160.0520 S   0  0  0  0  0  0  0  0  0  0  0  0
  152.7337  142.3750  162.0144 H   0  0  0  0  0  0  0  0  0  0  0  0
  151.9363  143.7774  162.7477 H   0  0  0  0  0  0  0  0  0  0  0  0
  153.4906  143.9741  161.9193 H   0  0  0  0  0  0  0  0  0  0  0  0
  149.4278  141.7135  158.0724 H   0  0  0  0  0  0  0  0  0  0  0  0
  149.6954  142.9229  156.8502 H   0  0  0  0  0  0  0  0  0  0  0  0
  151.9375  142.0907  156.3679 H   0  0  0  0  0  0  0  0  0  0  0  0
  151.9324  141.0410  157.7672 H   0  0  0  0  0  0  0  0  0  0  0  0
  149.7453  140.2260  156.2750 H   0  0  0  0  0  0  0  0  0  0  0  0
  149.5823  138.6422  154.8439 H   0  0  0  0  0  0  0  0  0  0  0  0
  150.6060  138.8992  153.4516 H   0  0  0  0  0  0  0  0  0  0  0  0
  150.6672  136.5263  154.0382 H   0  0  0  0  0  0  0  0  0  0  0  0
  152.2466  137.2037  154.3295 H   0  0  0  0  0  0  0  0  0  0  0  0
  151.6319  137.4324  156.8035 H   0  0  0  0  0  0  0  0  0  0  0  0
  148.7565  134.8263  157.3312 H   0  0  0  0  0  0  0  0  0  0  0  0
  150.2745  145.2903  157.8954 H   0  0  0  0  0  0  0  0  0  0  0  0
  1  2  1  0  0  0  0
  1 21  1  0  0  0  0
  1 22  1  0  0  0  0
  1 23  1  0  0  0  0
  2 20  1  0  0  0  0
  2  3  2  0  0  0  0
  3  4  1  0  0  0  0
  4  5  1  0  0  0  0
  4 19  2  0  0  0  0
  5  6  1  0  0  0  0
  5 24  1  0  0  0  0
  5 25  1  0  0  0  0
  6  7  1  0  0  0  0
  6 26  1  0  0  0  0
  6 27  1  0  0  0  0
  7  8  1  0  0  0  0
  7 28  1  0  0  0  0
  8  9  2  0  0  0  0
  8 10  1  0  0  0  0
 10 11  1  0  0  0  0
 10 29  1  0  0  0  0
 10 30  1  0  0  0  0
 11 12  1  0  0  0  0
 11 31  1  0  0  0  0
 11 32  1  0  0  0  0
 12 17  1  0  0  0  0
 12 13  1  0  0  0  0
 12 33  1  0  0  0  0
 13 14  1  0  0  0  0
 14 15  2  0  0  0  0
 14 16  1  0  0  0  0
 16 17  1  0  0  0  0
 16 34  1  0  0  0  0
 17 18  2  0  0  0  0
 19 20  1  0  0  0  0
 19 35  1  0  0  0  0
M  CHG  1  13  -1
M  END
> <s_m_source_file>
AV-unprocessed.smi

> <i_m_source_file_index>
1116

> <i_lp_mmshare_version>
43012

> <i_f3d_flags>
0

> <s_epik_input>
W0NIM11jMW5jKFtjSF1zMSlbQ0gyXVtDSDJdW05IXUMoPU8pW0NIMl1bQ0gyXVtDQEBIXTJbTkhdQyg9TylbTkhdQzI9Tw==

> <s_epik_cmdline>
J2VwaWtfcHl0aG9uJywgJy1waCcsICc3LjAnLCAnLXRuJywgJzgnLCAnLW1hJywgJzIwMCcsICctbWV0YWxfYmluZGluZycsICctaW1hZScsICc8aW5maWxlLm1hZT4nLCAnLW9tYWUnLCAnPG91dGZpbGUubWFlPic=

> <r_lp_tautomer_probability>
1

> <r_epik_Ionization_Penalty>
5.7962

> <r_epik_Ionization_Penalty_Charging>
5.79516

> <r_epik_Ionization_Penalty_Neutral>
0.00104588

> <r_epik_State_Penalty>
5.80096

> <r_epik_Charging_Adjusted_Penalty>
11.5961

> <i_epik_Tot_Q>
-1

> <i_epik_Tot_abs_Q>
1

> <r_epik_Metal_State_Penalty>
2.1448

> <b_epik_Metal_Only>
1

> <s_lp_Force_Field>
OPLS_2005

> <r_lp_Energy>
4.59195

> <b_lp_Chiralities_Consistent>
1

> <s_lp_Variant>
AV-unprocessed.smi:1116-3

> <Gold.Version>
5.8.1

> <Gold.Id.Protein>
6NUR|6NUR_protein|mol2

> <Gold.PLP.Fitness>
49.2245

> <Gold.PLP.PLP>
-35.9187

> <Gold.PLP.part.hbond>
-4.4424

> <Gold.PLP.part.metal>
0.0000

> <Gold.PLP.part.buried>
-4.5606

> <Gold.PLP.part.nonpolar>
-28.2614

> <Gold.PLP.part.repulsive>
0.1813

> <Gold.PLP.ligand.clash>
0.0000

> <Gold.PLP.ligand.torsion>
0.1385

> <Gold.PLP.Chemscore.Hbond>
3.6354

> <Gold.PLP.Chemscore.CHOScore>
0.8555

> <Gold.PLP.Chemscore.Metal>
0.0000

> <Gold.Chemscore.Hbonds>
donor molecule, donor type, donor heavy atom, donor atom, acceptor molecule, acceptor atom, score
      P1  H  6896  6907       L1    15  0.48
      P1  H  7997  8010       L1     9  0.98
      P1  H 10752 10764       L1    13  2.00
      L1  C    19    35       P1  8028  0.25
      L1  C    19    35       P1  8029  0.62

> <Gold.PLP.Chemscore.Internal.Correction>
0.1100

> <Gold.Rescore>
     Score         DG    S(hbond)    S(metal)    S(lipo)     H(rot)  DE(clash)    DE(int)     intcor
     15.14     -15.63       2.17        0.00      85.33       2.77       0.32       0.16       ----

> <Gold.Chemscore.Fitness>
15.1447

> <Gold.Chemscore.DG>
-15.6297

> <Gold.Chemscore.ZeroCoef>
-5.4800

> <Gold.Chemscore.Hbond>
2.1722

> <Gold.Chemscore.Metal>
0.0000

> <Gold.Chemscore.Lipo>
85.3286

> <Gold.Chemscore.Internal_Hbond>
0.0000

> <Gold.Chemscore.DEClash>
0.3208

> <Gold.Chemscore.DEInternal>
0.1642

> <Gold.Chemscore.Rot>
2.7691

> <Gold.Chemscore.Internal.Correction>
   9.000000E+99

> <Gold.Chemscore.Hbonds>
donor molecule, donor type, donor heavy atom, donor atom, acceptor molecule, acceptor atom, score
      P1  H  6896  6907       L1    15  0.12
      P1  H  7997  8010       L1     9  0.91
      P1  H 10752 10764       L1    13  0.49

> <Gold.Chemscore.Hbond.Weighted>
-7.2552

> <Gold.Chemscore.Metal.Weighted>
-0.0000

> <Gold.Chemscore.Lipo.Weighted>
-9.9834

> <Gold.Chemscore.Internal_Hbond.Weighted>
0.0000

> <Gold.Chemscore.DEClash.Weighted>
0.3208

> <Gold.Chemscore.DEInternal.Weighted>
0.1642

> <Gold.Chemscore.Rot.Weighted>
7.0889

> <Gold.Chemscore.Internal.Correction.Weighted>
   9.000000E+99

> <Gold.Protein.RotatedTorsions>
[ 6907 6896 6895 6894 ] final -148.75 input  -60.11 | X-H torsion
[ 7974 7965 7964 7962 ] final   45.12 input  175.53 | X-H torsion
[ 8008 7997 7996 7995 ] final  100.79 input   59.86 | X-H torsion
[ 10167 10162 10161 10158 ] final  126.51 input  -65.29 | X-H torsion
[ 10718 10713 10712 10709 ] final -173.86 input   66.30 | X-H torsion
[ 10763 10752 10751 10750 ] final  -17.74 input  -60.55 | X-H torsion
[ 11005 11000 10999 10996 ] final   98.14 input  -57.11 | X-H torsion

> <Gold.Protein.ActiveResidues>
 VAL166  LYS551  ARG553  GLY616  TRP617  ASP618  TYR619  PRO620  LYS621  CYS622 
 ASP623  PHE694  ASN695  SER759  ASP760  ASP761  ALA762  ILE779  LEU786  VAL792 
 PHE793  MET794  SER795  GLU796  ALA797  LYS798  CYS799  TRP800  GLU811  SER814 

> <Gold.Protein.RotatedAtoms>
  151.1743  133.4765  159.2593 H   0  0  0  0  0  0  0  0  0  0  0  0  # atno 6907 bound_to 6896
  151.1324  135.0137  159.8598 H   0  0  0  0  0  0  0  0  0  0  0  0  # atno 6908 bound_to 6896
  152.5460  134.1644  159.8624 H   0  0  0  0  0  0  0  0  0  0  0  0  # atno 6909 bound_to 6896
  146.0509  139.4999  142.9719 H   0  0  0  0  0  0  0  0  0  0  0  0  # atno 7974 bound_to 7965
  156.1237  140.3208  155.8245 H   0  0  0  0  0  0  0  0  0  0  0  0  # atno 8008 bound_to 7997
  155.4459  140.0529  157.3023 H   0  0  0  0  0  0  0  0  0  0  0  0  # atno 8009 bound_to 7997
  154.4846  140.2067  155.9698 H   0  0  0  0  0  0  0  0  0  0  0  0  # atno 8010 bound_to 7997
  139.5627  144.6892  151.3997 H   0  0  0  0  0  0  0  0  0  0  0  0  # atno 10167 bound_to 10162
  156.7765  130.9468  151.3120 H   0  0  0  0  0  0  0  0  0  0  0  0  # atno 10718 bound_to 10713
  153.5785  135.7005  153.5473 H   0  0  0  0  0  0  0  0  0  0  0  0  # atno 10763 bound_to 10752
  153.3281  135.4055  155.1473 H   0  0  0  0  0  0  0  0  0  0  0  0  # atno 10764 bound_to 10752
  154.8621  135.3712  154.5312 H   0  0  0  0  0  0  0  0  0  0  0  0  # atno 10765 bound_to 10752
  139.8773  134.9035  156.4412 H   0  0  0  0  0  0  0  0  0  0  0  0  # atno 11005 bound_to 11000
  145.6727  141.0212  143.1649 LP  0  0  0  0  0  0  0  0  0  0  0  0  # atno 17320 bound_to 7965
  144.7122  139.8329  143.7411 LP  0  0  0  0  0  0  0  0  0  0  0  0  # atno 17321 bound_to 7965
  140.6908  143.7865  150.7253 LP  0  0  0  0  0  0  0  0  0  0  0  0  # atno 17342 bound_to 10162
  140.1347  143.4495  152.2232 LP  0  0  0  0  0  0  0  0  0  0  0  0  # atno 17343 bound_to 10162
  157.6666  130.9013  149.9946 LP  0  0  0  0  0  0  0  0  0  0  0  0  # atno 17370 bound_to 10713
  156.1245  130.3645  149.9833 LP  0  0  0  0  0  0  0  0  0  0  0  0  # atno 17371 bound_to 10713
  140.8998  133.7788  155.9667 LP  0  0  0  0  0  0  0  0  0  0  0  0  # atno 17394 bound_to 11000
  140.8663  134.2780  157.5211 LP  0  0  0  0  0  0  0  0  0  0  0  0  # atno 17395 bound_to 11000

$$$$
