#       Name:                AV-unprocessed.smi:2692
#       Creating user name   scv26
#       Creation time:       Fri Mar 27 14:43:11 2020


#       File generated by GOLD software.
#

@<TRIPOS>MOLECULE
AV-unprocessed.smi:2692
    24    24     1
SMALL
NO_CHARGES


@<TRIPOS>ATOM
      1 ****        -1.9603   2.6607   0.2585 N.4            1 S1                 1.0000
      2 ****        -1.4742   1.2710   0.2490 C.3            1 S1                 0.0000
      3 ****         0.0597   1.2158   0.2475 C.3            1 S1                 0.0000
      4 ****         0.5794  -0.2083   0.2350 C.ar           1 S1                 0.0000
      5 ****         0.8326  -0.8965   1.4410 C.ar           1 S1                 0.0000
      6 ****         1.2905  -2.1655   1.4899 N.ar           1 S1                 0.0000
      7 ****         1.5170  -2.8022   0.3205 C.ar           1 S1                 0.0000
      8 ****         1.2972  -2.2064  -0.9383 C.ar           1 S1                 0.0000
      9 ****         1.5417  -2.8978  -2.0892 O.3            1 S1                 0.0000
     10 ****         0.8192  -0.8819  -0.9807 C.ar           1 S1                 0.0000
     11 ****        -2.9704   2.6641   0.2598 H              1 S1                 0.0000
     12 ****        -1.6240   3.1417  -0.5636 H              1 S1                 0.0000
     13 ****        -1.8721   0.7560   1.1240 H              1 S1                 0.0000
     14 ****        -1.8741   0.7671  -0.6316 H              1 S1                 0.0000
     15 ****         0.4547   1.7445  -0.6213 H              1 S1                 0.0000
     16 ****         0.4546   1.7284   1.1260 H              1 S1                 0.0000
     17 ****         0.6601  -0.4170   2.3934 H              1 S1                 0.0000
     18 ****         1.8841  -3.8154   0.3923 H              1 S1                 0.0000
     19 ****         1.3681  -2.3973  -2.8716 H              1 S1                 0.0000
     20 ****         0.6382  -0.3932  -1.9271 H              1 S1                 0.0000
     21 ****        -1.6222   3.1313   1.0859 H              1 S1                 0.0000
     22 ****         1.4569  -2.6200   2.3650 LP             1 S1                 0.0000
     23 ****         0.9619  -3.7124  -2.0988 LP             1 S1                 0.0000
     24 ****         2.5031  -3.1728  -2.0956 LP             1 S1                 0.0000
@<TRIPOS>BOND
    1    1    2 1     
    2    1   11 1     
    3    1   12 1     
    4    1   21 1     
    5    2    3 1     
    6    2   13 1     
    7    2   14 1     
    8    3    4 1     
    9    3   15 1     
   10    3   16 1     
   11    4   10 ar    
   12    4    5 ar    
   13    5    6 ar    
   14    5   17 1     
   15    6    7 ar    
   16    7    8 ar    
   17    7   18 1     
   18    8    9 1     
   19    8   10 ar    
   20    9   19 1     
   21   10   20 1     
   22    6   22 1     
   23    9   23 1     
   24    9   24 1     
@<TRIPOS>SUBSTRUCTURE
      1 S1             1
@<TRIPOS>SET
LONE_PAIRS      STATIC     ATOMS    <user>   **** ""
3 22 23 24
DONOR_HYDROGENS      STATIC     ATOMS    <user>   **** ""
4 11 12 21 19
ATOM$BLUE        STATIC     ATOMS    COLORGROUP SYSTEM
3 22 23 24
ATOM$RED        STATIC     ATOMS    COLORGROUP SYSTEM
4 11 12 21 19
