AV-unprocessed.smi:1301|AV-procd|sdf|5421|dock2
  -GOLD-   22720 4583D 1   1.00000     0.00000
 Structure written by MMmdl.
 45 46  0  0  0  0  0  0  0  0  2 V2000
  147.6037  129.8819  153.3287 C   0  0  0  0  0  0  0  0  0  0  0  0
  148.2729  131.1361  153.7754 C   0  0  0  0  0  0  0  0  0  0  0  0
  148.1422  132.4443  153.4023 C   0  0  0  0  0  0  0  0  0  0  0  0
  149.0850  133.1086  154.2311 C   0  0  0  0  0  0  0  0  0  0  0  0
  149.2634  134.5134  154.1511 N   0  0  0  0  0  0  0  0  0  0  0  0
  149.7109  135.3369  155.1145 C   0  0  0  0  0  0  0  0  0  0  0  0
  150.0497  134.9852  156.2448 O   0  0  0  0  0  0  0  0  0  0  0  0
  149.7468  136.6091  154.6900 N   0  0  0  0  0  0  0  0  0  0  0  0
  150.1856  137.7569  155.4804 C   0  0  2  0  0  0  0  0  0  0  0  0
  149.0171  138.7319  155.6921 C   0  0  0  0  0  0  0  0  0  0  0  0
  149.4779  139.9943  156.4398 C   0  0  0  0  0  0  0  0  0  0  0  0
  150.5973  140.6646  155.7289 N   0  3  1  0  0  0  0  0  0  0  0  0
  150.9715  141.9559  156.3617 C   0  0  0  0  0  0  0  0  0  0  0  0
  150.9593  141.8975  157.9044 C   0  0  0  0  0  0  0  0  0  0  0  0
  151.2369  143.2862  158.4986 C   0  0  0  0  0  0  0  0  0  0  0  0
  151.9679  140.8705  158.4463 C   0  0  0  0  0  0  0  0  0  0  0  0
  151.7528  139.7469  155.5396 C   0  0  0  0  0  0  0  0  0  0  0  0
  151.3386  138.4820  154.7690 C   0  0  0  0  0  0  0  0  0  0  0  0
  149.7310  132.2811  155.0382 N   0  0  0  0  0  0  0  0  0  0  0  0
  149.2139  131.0126  154.7504 O   0  0  0  0  0  0  0  0  0  0  0  0
  146.9402  130.0740  152.4853 H   0  0  0  0  0  0  0  0  0  0  0  0
  147.0099  129.4525  154.1358 H   0  0  0  0  0  0  0  0  0  0  0  0
  148.3397  129.1406  153.0176 H   0  0  0  0  0  0  0  0  0  0  0  0
  147.4788  132.8549  152.6557 H   0  0  0  0  0  0  0  0  0  0  0  0
  149.0248  134.9345  153.2655 H   0  0  0  0  0  0  0  0  0  0  0  0
  149.4463  136.7981  153.7448 H   0  0  0  0  0  0  0  0  0  0  0  0
  150.5394  137.4332  156.4611 H   0  0  0  0  0  0  0  0  0  0  0  0
  148.5897  139.0172  154.7295 H   0  0  0  0  0  0  0  0  0  0  0  0
  148.2188  138.2431  156.2521 H   0  0  0  0  0  0  0  0  0  0  0  0
  148.6347  140.6804  156.5290 H   0  0  0  0  0  0  0  0  0  0  0  0
  149.7894  139.7398  157.4542 H   0  0  0  0  0  0  0  0  0  0  0  0
  151.9742  142.2442  156.0422 H   0  0  0  0  0  0  0  0  0  0  0  0
  150.3039  142.7390  155.9990 H   0  0  0  0  0  0  0  0  0  0  0  0
  149.9670  141.6035  158.2454 H   0  0  0  0  0  0  0  0  0  0  0  0
  152.2223  143.6532  158.2090 H   0  0  0  0  0  0  0  0  0  0  0  0
  151.1983  143.2634  159.5881 H   0  0  0  0  0  0  0  0  0  0  0  0
  150.4985  144.0140  158.1610 H   0  0  0  0  0  0  0  0  0  0  0  0
  152.9847  141.1082  158.1321 H   0  0  0  0  0  0  0  0  0  0  0  0
  151.7387  139.8627  158.0987 H   0  0  0  0  0  0  0  0  0  0  0  0
  151.9553  140.8470  159.5364 H   0  0  0  0  0  0  0  0  0  0  0  0
  152.5508  140.2470  154.9924 H   0  0  0  0  0  0  0  0  0  0  0  0
  152.1641  139.4719  156.5124 H   0  0  0  0  0  0  0  0  0  0  0  0
  152.1955  137.8145  154.6692 H   0  0  0  0  0  0  0  0  0  0  0  0
  151.0397  138.7557  153.7558 H   0  0  0  0  0  0  0  0  0  0  0  0
  150.2463  140.8924  154.8095 H   0  0  0  0  0  0  0  0  0  0  0  0
  1  2  1  0  0  0  0
  1 21  1  0  0  0  0
  1 22  1  0  0  0  0
  1 23  1  0  0  0  0
  2 20  1  0  0  0  0
  2  3  2  0  0  0  0
  3  4  1  0  0  0  0
  3 24  1  0  0  0  0
  4  5  1  0  0  0  0
  4 19  2  0  0  0  0
  5  6  1  0  0  0  0
  5 25  1  0  0  0  0
  6  7  2  0  0  0  0
  6  8  1  0  0  0  0
  8  9  1  0  0  0  0
  8 26  1  0  0  0  0
  9 18  1  0  0  0  0
  9 10  1  0  0  0  0
  9 27  1  0  0  0  0
 10 11  1  0  0  0  0
 10 28  1  0  0  0  0
 10 29  1  0  0  0  0
 11 12  1  0  0  0  0
 11 30  1  0  0  0  0
 11 31  1  0  0  0  0
 12 13  1  0  0  0  0
 12 17  1  0  0  0  0
 12 45  1  0  0  0  0
 13 14  1  0  0  0  0
 13 32  1  0  0  0  0
 13 33  1  0  0  0  0
 14 15  1  0  0  0  0
 14 16  1  0  0  0  0
 14 34  1  0  0  0  0
 15 35  1  0  0  0  0
 15 36  1  0  0  0  0
 15 37  1  0  0  0  0
 16 38  1  0  0  0  0
 16 39  1  0  0  0  0
 16 40  1  0  0  0  0
 17 18  1  0  0  0  0
 17 41  1  0  0  0  0
 17 42  1  0  0  0  0
 18 43  1  0  0  0  0
 18 44  1  0  0  0  0
 19 20  1  0  0  0  0
M  CHG  1  12   1
M  END
> <s_m_source_file>
AV-unprocessed.smi

> <i_m_source_file_index>
1301

> <i_lp_mmshare_version>
43012

> <i_f3d_flags>
0

> <s_epik_input>
W0NIM11jMVtjSF1jKG5vMSlbTkhdQyg9TylbTkhdW0NIXTJbQ0gyXVtDSDJdTihbQ0gyXVtDSDJdMilbQ0gyXVtDSF0oW0NIM10pW0NIM10=

> <s_epik_cmdline>
J2VwaWtfcHl0aG9uJywgJy1waCcsICc3LjAnLCAnLXRuJywgJzgnLCAnLW1hJywgJzIwMCcsICctbWV0YWxfYmluZGluZycsICctaW1hZScsICc8aW5maWxlLm1hZT4nLCAnLW9tYWUnLCAnPG91dGZpbGUubWFlPic=

> <r_epik_Ionization_Penalty>
0.0020743

> <r_epik_Ionization_Penalty_Charging>
0.0020412

> <r_epik_Ionization_Penalty_Neutral>
3.31029e-05

> <r_epik_State_Penalty>
0.00139626

> <r_epik_Charging_Adjusted_Penalty>
0.00343746

> <i_epik_Tot_Q>
1

> <i_epik_Tot_abs_Q>
1

> <r_epik_Metal_State_Penalty>
0.0141509

> <b_epik_Metal_Only>
0

> <s_lp_Force_Field>
OPLS_2005

> <r_lp_Energy>
17.3221

> <b_lp_Chiralities_Consistent>
1

> <s_lp_Variant>
AV-unprocessed.smi:1301-1

> <Gold.Version>
5.8.1

> <Gold.Id.Protein>
6NUR|6NUR_protein|mol2

> <Gold.PLP.Fitness>
36.4106

> <Gold.PLP.PLP>
-31.5003

> <Gold.PLP.part.hbond>
-2.0000

> <Gold.PLP.part.metal>
0.0000

> <Gold.PLP.part.buried>
-4.4656

> <Gold.PLP.part.nonpolar>
-24.8995

> <Gold.PLP.part.repulsive>
0.2442

> <Gold.PLP.ligand.clash>
0.0000

> <Gold.PLP.ligand.torsion>
0.4082

> <Gold.PLP.Chemscore.Hbond>
1.8920

> <Gold.PLP.Chemscore.CHOScore>
0.0000

> <Gold.PLP.Chemscore.Metal>
0.0000

> <Gold.Chemscore.Hbonds>
donor molecule, donor type, donor heavy atom, donor atom, acceptor molecule, acceptor atom, score
      L1  H     5    25       P1  7948  0.90
      L1  H     8    26       P1  7948  1.00

> <Gold.PLP.Chemscore.Internal.Correction>
0.0507

> <Gold.Rescore>
     Score         DG    S(hbond)    S(metal)    S(lipo)     H(rot)  DE(clash)    DE(int)     intcor
     14.55     -16.29       1.72        0.00      74.74       1.43       0.20       1.55       ----

> <Gold.Chemscore.Fitness>
14.5451

> <Gold.Chemscore.DG>
-16.2943

> <Gold.Chemscore.ZeroCoef>
-5.4800

> <Gold.Chemscore.Hbond>
1.7156

> <Gold.Chemscore.Metal>
0.0000

> <Gold.Chemscore.Lipo>
74.7408

> <Gold.Chemscore.Internal_Hbond>
0.0000

> <Gold.Chemscore.DEClash>
0.1991

> <Gold.Chemscore.DEInternal>
1.5500

> <Gold.Chemscore.Rot>
1.4298

> <Gold.Chemscore.Internal.Correction>
   9.000000E+99

> <Gold.Chemscore.Hbonds>
donor molecule, donor type, donor heavy atom, donor atom, acceptor molecule, acceptor atom, score
      L1  H     5    25       P1  7948  0.18
      L1  H     8    26       P1  7948  0.84

> <Gold.Chemscore.Hbond.Weighted>
-5.7300

> <Gold.Chemscore.Metal.Weighted>
-0.0000

> <Gold.Chemscore.Lipo.Weighted>
-8.7447

> <Gold.Chemscore.Internal_Hbond.Weighted>
0.0000

> <Gold.Chemscore.DEClash.Weighted>
0.1991

> <Gold.Chemscore.DEInternal.Weighted>
1.5500

> <Gold.Chemscore.Rot.Weighted>
3.6604

> <Gold.Chemscore.Internal.Correction.Weighted>
   9.000000E+99

> <Gold.Protein.RotatedTorsions>
[ 6907 6896 6895 6894 ] final  -56.24 input  -60.11 | X-H torsion
[ 7974 7965 7964 7962 ] final -107.62 input  175.53 | X-H torsion
[ 8008 7997 7996 7995 ] final   -2.77 input   59.86 | X-H torsion
[ 10167 10162 10161 10158 ] final  123.33 input  -65.29 | X-H torsion
[ 10718 10713 10712 10709 ] final   40.22 input   66.30 | X-H torsion
[ 10763 10752 10751 10750 ] final -174.55 input  -60.55 | X-H torsion
[ 11005 11000 10999 10996 ] final  -55.54 input  -57.11 | X-H torsion

> <Gold.Protein.ActiveResidues>
 VAL166  LYS551  ARG553  GLY616  TRP617  ASP618  TYR619  PRO620  LYS621  CYS622 
 ASP623  PHE694  ASN695  SER759  ASP760  ASP761  ALA762  ILE779  LEU786  VAL792 
 PHE793  MET794  SER795  GLU796  ALA797  LYS798  CYS799  TRP800  GLU811  SER814 

> <Gold.Protein.RotatedAtoms>
  150.8184  134.7378  159.6749 H   0  0  0  0  0  0  0  0  0  0  0  0  # atno 6907 bound_to 6896
  152.4301  134.5790  159.9952 H   0  0  0  0  0  0  0  0  0  0  0  0  # atno 6908 bound_to 6896
  151.5981  133.3322  159.3077 H   0  0  0  0  0  0  0  0  0  0  0  0  # atno 6909 bound_to 6896
  145.2031  140.9065  143.3358 H   0  0  0  0  0  0  0  0  0  0  0  0  # atno 7974 bound_to 7965
  154.6321  140.2526  155.7422 H   0  0  0  0  0  0  0  0  0  0  0  0  # atno 8008 bound_to 7997
  156.2485  140.2905  156.0597 H   0  0  0  0  0  0  0  0  0  0  0  0  # atno 8009 bound_to 7997
  155.1729  140.0387  157.2857 H   0  0  0  0  0  0  0  0  0  0  0  0  # atno 8010 bound_to 7997
  139.5805  144.6984  151.3540 H   0  0  0  0  0  0  0  0  0  0  0  0  # atno 10167 bound_to 10162
  157.3797  130.7746  149.7183 H   0  0  0  0  0  0  0  0  0  0  0  0  # atno 10718 bound_to 10713
  154.5950  135.2849  155.0596 H   0  0  0  0  0  0  0  0  0  0  0  0  # atno 10763 bound_to 10752
  154.1882  135.6445  153.5056 H   0  0  0  0  0  0  0  0  0  0  0  0  # atno 10764 bound_to 10752
  153.0135  135.5440  154.6648 H   0  0  0  0  0  0  0  0  0  0  0  0  # atno 10765 bound_to 10752
  141.1079  133.6612  156.4485 H   0  0  0  0  0  0  0  0  0  0  0  0  # atno 11005 bound_to 11000
  144.9929  139.3672  143.6206 LP  0  0  0  0  0  0  0  0  0  0  0  0  # atno 17320 bound_to 7965
  146.3413  139.9119  142.8779 LP  0  0  0  0  0  0  0  0  0  0  0  0  # atno 17321 bound_to 7965
  140.7084  143.7454  150.7523 LP  0  0  0  0  0  0  0  0  0  0  0  0  # atno 17342 bound_to 10162
  140.0986  143.4810  152.2438 LP  0  0  0  0  0  0  0  0  0  0  0  0  # atno 17343 bound_to 10162
  155.9773  130.4065  150.3722 LP  0  0  0  0  0  0  0  0  0  0  0  0  # atno 17370 bound_to 10713
  157.1824  131.0395  151.2742 LP  0  0  0  0  0  0  0  0  0  0  0  0  # atno 17371 bound_to 10713
  140.4855  134.6625  157.5189 LP  0  0  0  0  0  0  0  0  0  0  0  0  # atno 17394 bound_to 11000
  139.9957  134.6915  155.9613 LP  0  0  0  0  0  0  0  0  0  0  0  0  # atno 17395 bound_to 11000

$$$$
