AV-unprocessed.smi:1701|AV-procd|sdf|6840|dock2
  -GOLD-   22720 8 13D 1   1.00000     0.00000
 Structure written by MMmdl.
 54 56  0  0  0  0  0  0  0  0  4 V2000
  153.5037  141.4887  160.4697 C   0  0  0  0  0  0  0  0  0  0  0  0
  152.5534  142.6946  160.4262 C   0  0  0  0  0  0  0  0  0  0  0  0
  152.3301  143.1913  159.0684 N   0  0  0  0  0  0  0  0  0  0  0  0
  152.3277  144.6445  158.8835 C   0  0  0  0  0  0  0  0  0  0  0  0
  151.8466  145.4080  160.1276 C   0  0  0  0  0  0  0  0  0  0  0  0
  151.4918  142.3977  158.2506 C   0  0  0  0  0  0  0  0  0  0  0  0
  150.1350  142.7241  158.0125 C   0  0  0  0  0  0  0  0  0  0  0  0
  149.3485  141.8982  157.1841 C   0  0  0  0  0  0  0  0  0  0  0  0
  149.9201  140.7567  156.5866 C   0  0  0  0  0  0  0  0  0  0  0  0
  149.0808  139.9420  155.7802 N   0  0  0  0  0  0  0  0  0  0  0  0
  149.3779  139.2481  154.6536 C   0  0  0  0  0  0  0  0  0  0  0  0
  150.5114  139.3283  154.1840 O   0  0  0  0  0  0  0  0  0  0  0  0
  148.4106  138.4971  154.0443 N   0  5  0  0  0  0  0  0  0  0  0  0
  146.9802  138.8027  153.8521 C   0  0  1  0  0  0  0  0  0  0  0  0
  146.8043  139.6932  152.6060 C   0  0  0  0  0  0  0  0  0  0  0  0
  146.5737  138.7296  151.4228 C   0  0  0  0  0  0  0  0  0  0  0  0
  146.5447  137.3750  152.0099 N   0  3  2  0  0  0  0  0  0  0  0  0
  145.7079  136.3628  151.3279 C   0  0  0  0  0  0  0  0  0  0  0  0
  145.8536  135.0044  152.0433 C   0  0  0  0  0  0  0  0  0  0  0  0
  145.5575  135.1152  153.5530 C   0  0  0  0  0  0  0  0  0  0  0  0
  146.4089  136.2215  154.2050 C   0  0  0  0  0  0  0  0  0  0  0  0
  146.2039  137.5434  153.4320 C   0  0  1  0  0  0  0  0  0  0  0  0
  151.2754  140.4628  156.8649 C   0  0  0  0  0  0  0  0  0  0  0  0
  151.9916  141.2810  157.6657 N   0  3  0  0  0  0  0  0  0  0  0  0
  153.6327  141.1381  161.4936 H   0  0  0  0  0  0  0  0  0  0  0  0
  154.4901  141.7437  160.0814 H   0  0  0  0  0  0  0  0  0  0  0  0
  153.1166  140.6550  159.8832 H   0  0  0  0  0  0  0  0  0  0  0  0
  151.5905  142.4057  160.8490 H   0  0  0  0  0  0  0  0  0  0  0  0
  152.9260  143.4838  161.0773 H   0  0  0  0  0  0  0  0  0  0  0  0
  153.3231  144.9834  158.5939 H   0  0  0  0  0  0  0  0  0  0  0  0
  151.6736  144.8952  158.0476 H   0  0  0  0  0  0  0  0  0  0  0  0
  151.8250  146.4802  159.9334 H   0  0  0  0  0  0  0  0  0  0  0  0
  152.4937  145.2463  160.9892 H   0  0  0  0  0  0  0  0  0  0  0  0
  150.8374  145.1038  160.4066 H   0  0  0  0  0  0  0  0  0  0  0  0
  149.6785  143.5894  158.4681 H   0  0  0  0  0  0  0  0  0  0  0  0
  148.3110  142.1440  157.0092 H   0  0  0  0  0  0  0  0  0  0  0  0
  148.1108  139.9145  156.0581 H   0  0  0  0  0  0  0  0  0  0  0  0
  146.5275  139.2599  154.7327 H   0  0  0  0  0  0  0  0  0  0  0  0
  145.9234  140.3238  152.7320 H   0  0  0  0  0  0  0  0  0  0  0  0
  147.6489  140.3623  152.4349 H   0  0  0  0  0  0  0  0  0  0  0  0
  145.6290  138.9592  150.9273 H   0  0  0  0  0  0  0  0  0  0  0  0
  147.3684  138.7950  150.6789 H   0  0  0  0  0  0  0  0  0  0  0  0
  144.6650  136.6835  151.3296 H   0  0  0  0  0  0  0  0  0  0  0  0
  146.0177  136.2755  150.2861 H   0  0  0  0  0  0  0  0  0  0  0  0
  145.1904  134.2697  151.5862 H   0  0  0  0  0  0  0  0  0  0  0  0
  146.8689  134.6314  151.9039 H   0  0  0  0  0  0  0  0  0  0  0  0
  144.4995  135.3362  153.7003 H   0  0  0  0  0  0  0  0  0  0  0  0
  145.7451  134.1597  154.0436 H   0  0  0  0  0  0  0  0  0  0  0  0
  146.1273  136.3358  155.2530 H   0  0  0  0  0  0  0  0  0  0  0  0
  147.4565  135.9145  154.1929 H   0  0  0  0  0  0  0  0  0  0  0  0
  145.1419  137.7937  153.4865 H   0  0  0  0  0  0  0  0  0  0  0  0
  151.8127  139.6028  156.4941 H   0  0  0  0  0  0  0  0  0  0  0  0
  147.4994  137.0444  152.0011 H   0  0  0  0  0  0  0  0  0  0  0  0
  152.9668  141.0400  157.8428 H   0  0  0  0  0  0  0  0  0  0  0  0
  1  2  1  0  0  0  0
  1 25  1  0  0  0  0
  1 26  1  0  0  0  0
  1 27  1  0  0  0  0
  2  3  1  0  0  0  0
  2 28  1  0  0  0  0
  2 29  1  0  0  0  0
  3  4  1  0  0  0  0
  3  6  1  0  0  0  0
  4  5  1  0  0  0  0
  4 30  1  0  0  0  0
  4 31  1  0  0  0  0
  5 32  1  0  0  0  0
  5 33  1  0  0  0  0
  5 34  1  0  0  0  0
  6 24  1  0  0  0  0
  6  7  2  0  0  0  0
  7  8  1  0  0  0  0
  7 35  1  0  0  0  0
  8  9  2  0  0  0  0
  8 36  1  0  0  0  0
  9 10  1  0  0  0  0
  9 23  1  0  0  0  0
 10 11  1  0  0  0  0
 10 37  1  0  0  0  0
 11 12  2  0  0  0  0
 11 13  1  0  0  0  0
 13 14  1  0  0  0  0
 14 22  1  0  0  0  0
 14 15  1  0  0  0  0
 14 38  1  0  0  0  0
 15 16  1  0  0  0  0
 15 39  1  0  0  0  0
 15 40  1  0  0  0  0
 16 17  1  0  0  0  0
 16 41  1  0  0  0  0
 16 42  1  0  0  0  0
 17 22  1  0  0  0  0
 17 18  1  0  0  0  0
 17 53  1  0  0  0  0
 18 19  1  0  0  0  0
 18 43  1  0  0  0  0
 18 44  1  0  0  0  0
 19 20  1  0  0  0  0
 19 45  1  0  0  0  0
 19 46  1  0  0  0  0
 20 21  1  0  0  0  0
 20 47  1  0  0  0  0
 20 48  1  0  0  0  0
 21 22  1  0  0  0  0
 21 49  1  0  0  0  0
 21 50  1  0  0  0  0
 22 51  1  0  0  0  0
 23 24  2  0  0  0  0
 23 52  1  0  0  0  0
 24 54  1  0  0  0  0
M  CHG  1  13  -1
M  CHG  1  17   1
M  CHG  1  24   1
M  END
> <s_m_source_file>
AV-unprocessed.smi

> <i_m_source_file_index>
1701

> <i_lp_mmshare_version>
43012

> <i_f3d_flags>
0

> <s_epik_input>
W0NIM11bQ0gyXU4oW0NIMl1bQ0gzXSljMVtjSF1bY0hdYyhbY0hdbjEpW05IXUMoPU8pW05IXVtDQEhdKFtDSDJdW0NIMl0yKVtDQEBIXShOMjMpW0NIMl1bQ0gyXVtDSDJdW0NIMl0z

> <s_epik_cmdline>
J2VwaWtfcHl0aG9uJywgJy1waCcsICc3LjAnLCAnLXRuJywgJzgnLCAnLW1hJywgJzIwMCcsICctbWV0YWxfYmluZGluZycsICctaW1hZScsICc8aW5maWxlLm1hZT4nLCAnLW9tYWUnLCAnPG91dGZpbGUubWFlPic=

> <r_lp_tautomer_probability>
0.999994

> <r_epik_Ionization_Penalty>
7.37095

> <r_epik_Ionization_Penalty_Charging>
7.37095

> <r_epik_Ionization_Penalty_Neutral>
3.78969e-06

> <r_epik_State_Penalty>
6.83842

> <r_epik_Charging_Adjusted_Penalty>
14.2094

> <i_epik_Tot_Q>
1

> <i_epik_Tot_abs_Q>
3

> <r_epik_Metal_State_Penalty>
2.78552

> <b_epik_Metal_Only>
1

> <s_lp_Force_Field>
OPLS_2005

> <r_lp_Energy>
51.4286

> <b_lp_Chiralities_Consistent>
1

> <s_lp_Variant>
AV-unprocessed.smi:1701-20

> <Gold.Version>
5.8.1

> <Gold.Id.Protein>
6NUR|6NUR_protein|mol2

> <Gold.PLP.Fitness>
50.2792

> <Gold.PLP.PLP>
-44.8861

> <Gold.PLP.part.hbond>
-2.0000

> <Gold.PLP.part.metal>
0.0000

> <Gold.PLP.part.buried>
-2.2886

> <Gold.PLP.part.nonpolar>
-42.2649

> <Gold.PLP.part.repulsive>
0.5534

> <Gold.PLP.ligand.clash>
0.0000

> <Gold.PLP.ligand.torsion>
2.3266

> <Gold.PLP.Chemscore.Hbond>
3.0000

> <Gold.PLP.Chemscore.CHOScore>
0.0000

> <Gold.PLP.Chemscore.Metal>
0.0000

> <Gold.Chemscore.Hbonds>
donor molecule, donor type, donor heavy atom, donor atom, acceptor molecule, acceptor atom, score
      L1  H    17    53       P1  7948  2.00
      P1  H  7989  7998       L1    12  1.00

> <Gold.PLP.Chemscore.Internal.Correction>
1.0463

> <Gold.Rescore>
     Score         DG    S(hbond)    S(metal)    S(lipo)     H(rot)  DE(clash)    DE(int)     intcor
     18.49     -21.83       1.98        0.00     111.17       1.28       0.21       3.13       ----

> <Gold.Chemscore.Fitness>
18.4881

> <Gold.Chemscore.DG>
-21.8283

> <Gold.Chemscore.ZeroCoef>
-5.4800

> <Gold.Chemscore.Hbond>
1.9845

> <Gold.Chemscore.Metal>
0.0000

> <Gold.Chemscore.Lipo>
111.1678

> <Gold.Chemscore.Internal_Hbond>
0.0000

> <Gold.Chemscore.DEClash>
0.2121

> <Gold.Chemscore.DEInternal>
3.1282

> <Gold.Chemscore.Rot>
1.2838

> <Gold.Chemscore.Internal.Correction>
   9.000000E+99

> <Gold.Chemscore.Hbonds>
donor molecule, donor type, donor heavy atom, donor atom, acceptor molecule, acceptor atom, score
      L1  H    17    53       P1  7948  1.00
      P1  H  7989  7998       L1    12  0.94

> <Gold.Chemscore.Hbond.Weighted>
-6.6282

> <Gold.Chemscore.Metal.Weighted>
-0.0000

> <Gold.Chemscore.Lipo.Weighted>
-13.0066

> <Gold.Chemscore.Internal_Hbond.Weighted>
0.0000

> <Gold.Chemscore.DEClash.Weighted>
0.2121

> <Gold.Chemscore.DEInternal.Weighted>
3.1282

> <Gold.Chemscore.Rot.Weighted>
3.2865

> <Gold.Chemscore.Internal.Correction.Weighted>
   9.000000E+99

> <Gold.Protein.RotatedTorsions>
[ 6907 6896 6895 6894 ] final  -83.72 input  -60.11 | X-H torsion
[ 7974 7965 7964 7962 ] final  116.89 input  175.53 | X-H torsion
[ 8008 7997 7996 7995 ] final  -32.82 input   59.86 | X-H torsion
[ 10167 10162 10161 10158 ] final  -19.43 input  -65.29 | X-H torsion
[ 10718 10713 10712 10709 ] final -179.63 input   66.30 | X-H torsion
[ 10763 10752 10751 10750 ] final   90.26 input  -60.55 | X-H torsion
[ 11005 11000 10999 10996 ] final  141.35 input  -57.11 | X-H torsion

> <Gold.Protein.ActiveResidues>
 VAL166  LYS551  ARG553  GLY616  TRP617  ASP618  TYR619  PRO620  LYS621  CYS622 
 ASP623  PHE694  ASN695  SER759  ASP760  ASP761  ALA762  ILE779  LEU786  VAL792 
 PHE793  MET794  SER795  GLU796  ALA797  LYS798  CYS799  TRP800  GLU811  SER814 

> <Gold.Protein.RotatedAtoms>
  150.6883  134.3468  159.4891 H   0  0  0  0  0  0  0  0  0  0  0  0  # atno 6907 bound_to 6896
  152.1315  134.9129  160.0567 H   0  0  0  0  0  0  0  0  0  0  0  0  # atno 6908 bound_to 6896
  152.0297  133.3897  159.4329 H   0  0  0  0  0  0  0  0  0  0  0  0  # atno 6909 bound_to 6896
  145.1740  139.3086  143.4452 H   0  0  0  0  0  0  0  0  0  0  0  0  # atno 7974 bound_to 7965
  154.4168  140.1727  156.1788 H   0  0  0  0  0  0  0  0  0  0  0  0  # atno 8008 bound_to 7997
  155.9699  140.3386  155.6542 H   0  0  0  0  0  0  0  0  0  0  0  0  # atno 8009 bound_to 7997
  155.6638  140.0704  157.2535 H   0  0  0  0  0  0  0  0  0  0  0  0  # atno 8010 bound_to 7997
  140.7268  143.4819  151.0106 H   0  0  0  0  0  0  0  0  0  0  0  0  # atno 10167 bound_to 10162
  156.8620  130.9755  151.3082 H   0  0  0  0  0  0  0  0  0  0  0  0  # atno 10718 bound_to 10713
  153.1957  135.4440  155.0205 H   0  0  0  0  0  0  0  0  0  0  0  0  # atno 10763 bound_to 10752
  154.8117  135.3297  154.7289 H   0  0  0  0  0  0  0  0  0  0  0  0  # atno 10764 bound_to 10752
  153.7739  135.6982  153.4956 H   0  0  0  0  0  0  0  0  0  0  0  0  # atno 10765 bound_to 10752
  140.0395  134.9312  157.0816 H   0  0  0  0  0  0  0  0  0  0  0  0  # atno 11005 bound_to 11000
  146.3464  140.1896  142.8589 LP  0  0  0  0  0  0  0  0  0  0  0  0  # atno 17320 bound_to 7965
  145.0203  140.8788  143.5170 LP  0  0  0  0  0  0  0  0  0  0  0  0  # atno 17321 bound_to 7965
  139.8518  143.7428  152.3177 LP  0  0  0  0  0  0  0  0  0  0  0  0  # atno 17342 bound_to 10162
  139.7613  144.7506  151.0360 LP  0  0  0  0  0  0  0  0  0  0  0  0  # atno 17343 bound_to 10162
  157.6245  130.8680  149.9165 LP  0  0  0  0  0  0  0  0  0  0  0  0  # atno 17370 bound_to 10713
  156.0772  130.3677  150.0654 LP  0  0  0  0  0  0  0  0  0  0  0  0  # atno 17371 bound_to 10713
  140.4093  134.1999  155.7163 LP  0  0  0  0  0  0  0  0  0  0  0  0  # atno 17394 bound_to 11000
  141.1875  133.8279  157.1029 LP  0  0  0  0  0  0  0  0  0  0  0  0  # atno 17395 bound_to 11000

$$$$
