AV-unprocessed.smi:2805|AV-procd|sdf|10814|dock8
  -GOLD-   2272015253D 1   1.00000     0.00000
 Structure written by MMmdl.
 43 44  0  0  0  0  0  0  0  0  1 V2000
  153.5850  140.0492  159.5311 C   0  0  0  0  0  0  0  0  0  0  0  0
  152.7451  141.3026  159.4047 C   0  0  0  0  0  0  0  0  0  0  0  0
  152.8990  142.3673  160.3130 C   0  0  0  0  0  0  0  0  0  0  0  0
  152.0913  143.5087  160.1422 C   0  0  0  0  0  0  0  0  0  0  0  0
  152.2044  144.6913  161.0814 C   0  0  0  0  0  0  0  0  0  0  0  0
  151.1823  143.6264  159.1507 N   0  0  0  0  0  0  0  0  0  0  0  0
  151.0261  142.6074  158.2698 C   0  0  0  0  0  0  0  0  0  0  0  0
  150.0994  142.6305  157.1942 N   0  0  0  0  0  0  0  0  0  0  0  0
  149.3311  141.6265  156.7372 C   0  0  0  0  0  0  0  0  0  0  0  0
  149.3122  140.4802  157.1866 O   0  0  0  0  0  0  0  0  0  0  0  0
  148.5668  142.0324  155.7131 N   0  0  0  0  0  0  0  0  0  0  0  0
  147.5991  141.2050  154.9945 C   0  0  1  0  0  0  0  0  0  0  0  0
  146.3258  140.9679  155.8335 C   0  0  0  0  0  0  0  0  0  0  0  0
  145.4950  142.2517  156.0045 C   0  0  0  0  0  0  0  0  0  0  0  0
  145.1301  142.8834  154.6441 C   0  0  1  0  0  0  0  0  0  0  0  0
  144.3180  144.1811  154.8090 C   0  0  0  0  0  0  0  0  0  0  0  0
  143.9763  144.7234  153.5509 O   0  0  0  0  0  0  0  0  0  0  0  0
  146.4072  143.1369  153.8182 C   0  0  0  0  0  0  0  0  0  0  0  0
  147.2437  141.8562  153.6447 C   0  0  0  0  0  0  0  0  0  0  0  0
  151.7966  141.4273  158.3698 C   0  0  0  0  0  0  0  0  0  0  0  0
  148.0668  140.2404  154.7886 H   0  0  0  0  0  0  0  0  0  0  0  0
  144.5167  142.1705  154.0906 H   0  0  0  0  0  0  0  0  0  0  0  0
  153.9706  139.9365  160.5448 H   0  0  0  0  0  0  0  0  0  0  0  0
  154.4303  140.0929  158.8443 H   0  0  0  0  0  0  0  0  0  0  0  0
  152.9936  139.1646  159.2937 H   0  0  0  0  0  0  0  0  0  0  0  0
  153.6172  142.3108  161.1182 H   0  0  0  0  0  0  0  0  0  0  0  0
  152.8538  144.4638  161.9272 H   0  0  0  0  0  0  0  0  0  0  0  0
  151.2231  144.9637  161.4711 H   0  0  0  0  0  0  0  0  0  0  0  0
  152.6172  145.5526  160.5556 H   0  0  0  0  0  0  0  0  0  0  0  0
  150.0060  143.5173  156.7218 H   0  0  0  0  0  0  0  0  0  0  0  0
  148.6521  142.9914  155.4101 H   0  0  0  0  0  0  0  0  0  0  0  0
  145.7120  140.2119  155.3424 H   0  0  0  0  0  0  0  0  0  0  0  0
  146.5814  140.5563  156.8106 H   0  0  0  0  0  0  0  0  0  0  0  0
  144.5896  142.0171  156.5649 H   0  0  0  0  0  0  0  0  0  0  0  0
  146.0500  142.9700  156.6093 H   0  0  0  0  0  0  0  0  0  0  0  0
  143.4089  144.0011  155.3838 H   0  0  0  0  0  0  0  0  0  0  0  0
  144.8990  144.9273  155.3521 H   0  0  0  0  0  0  0  0  0  0  0  0
  143.5297  144.0595  153.0481 H   0  0  0  0  0  0  0  0  0  0  0  0
  146.1417  143.5286  152.8358 H   0  0  0  0  0  0  0  0  0  0  0  0
  147.0110  143.9069  154.3001 H   0  0  0  0  0  0  0  0  0  0  0  0
  148.1515  142.0761  153.0815 H   0  0  0  0  0  0  0  0  0  0  0  0
  146.6801  141.1429  153.0421 H   0  0  0  0  0  0  0  0  0  0  0  0
  151.6631  140.6234  157.6601 H   0  0  0  0  0  0  0  0  0  0  0  0
  1  2  1  0  0  0  0
  1 23  1  0  0  0  0
  1 24  1  0  0  0  0
  1 25  1  0  0  0  0
  2 20  1  0  0  0  0
  2  3  2  0  0  0  0
  3  4  1  0  0  0  0
  3 26  1  0  0  0  0
  4  5  1  0  0  0  0
  4  6  2  0  0  0  0
  5 27  1  0  0  0  0
  5 28  1  0  0  0  0
  5 29  1  0  0  0  0
  6  7  1  0  0  0  0
  7  8  1  0  0  0  0
  7 20  2  0  0  0  0
  8  9  1  0  0  0  0
  8 30  1  0  0  0  0
  9 10  2  0  0  0  0
  9 11  1  0  0  0  0
 11 12  1  0  0  0  0
 11 31  1  0  0  0  0
 12 21  1  0  0  0  0
 12 19  1  0  0  0  0
 12 13  1  0  0  0  0
 13 14  1  0  0  0  0
 13 32  1  0  0  0  0
 13 33  1  0  0  0  0
 14 15  1  0  0  0  0
 14 34  1  0  0  0  0
 14 35  1  0  0  0  0
 15 22  1  0  0  0  0
 15 16  1  0  0  0  0
 15 18  1  0  0  0  0
 16 17  1  0  0  0  0
 16 36  1  0  0  0  0
 16 37  1  0  0  0  0
 17 38  1  0  0  0  0
 18 19  1  0  0  0  0
 18 39  1  0  0  0  0
 18 40  1  0  0  0  0
 19 41  1  0  0  0  0
 19 42  1  0  0  0  0
 20 43  1  0  0  0  0
M  END
> <s_m_source_file>
AV-unprocessed.smi

> <i_m_source_file_index>
2805

> <i_lp_mmshare_version>
43012

> <i_f3d_flags>
0

> <s_epik_input>
W0NIM11jMVtjSF1jKFtDSDNdKW5jKFtjSF0xKVtOSF1DKD1PKVtOSF1bQ0BIXTJbQ0gyXVtDSDJdW0NASF0oW0NIMl1bT0hdKVtDSDJdW0NIMl0y

> <s_epik_cmdline>
J2VwaWtfcHl0aG9uJywgJy1waCcsICc3LjAnLCAnLXRuJywgJzgnLCAnLW1hJywgJzIwMCcsICctbWV0YWxfYmluZGluZycsICctaW1hZScsICc8aW5maWxlLm1hZT4nLCAnLW9tYWUnLCAnPG91dGZpbGUubWFlPic=

> <r_lp_tautomer_probability>
1

> <r_epik_Ionization_Penalty>
0.000279533

> <r_epik_Ionization_Penalty_Charging>
0

> <r_epik_Ionization_Penalty_Neutral>
0.000279533

> <r_epik_State_Penalty>
-0

> <r_epik_Charging_Adjusted_Penalty>
0

> <i_epik_Tot_Q>
0

> <i_epik_Tot_abs_Q>
0

> <r_epik_Metal_State_Penalty>
-0

> <b_epik_Metal_Only>
0

> <s_lp_Force_Field>
OPLS_2005

> <r_lp_Energy>
9.89075

> <b_lp_Chiralities_Consistent>
1

> <s_lp_Variant>
AV-unprocessed.smi:2805-2

> <Gold.Version>
5.8.1

> <Gold.Id.Protein>
6NUR|6NUR_protein|mol2

> <Gold.PLP.Fitness>
46.3043

> <Gold.PLP.PLP>
-38.3357

> <Gold.PLP.part.hbond>
-3.0217

> <Gold.PLP.part.metal>
0.0000

> <Gold.PLP.part.buried>
-7.4622

> <Gold.PLP.part.nonpolar>
-28.0750

> <Gold.PLP.part.repulsive>
0.1902

> <Gold.PLP.ligand.clash>
0.0000

> <Gold.PLP.ligand.torsion>
0.5081

> <Gold.PLP.Chemscore.Hbond>
2.9920

> <Gold.PLP.Chemscore.CHOScore>
0.0000

> <Gold.PLP.Chemscore.Metal>
0.0000

> <Gold.Chemscore.Hbonds>
donor molecule, donor type, donor heavy atom, donor atom, acceptor molecule, acceptor atom, score
      L1  H     8    30       P1  8028  0.98
      L1  H    11    31       P1  8028  1.00
      L1  H    17    38       P1 10174  1.00

> <Gold.PLP.Chemscore.Internal.Correction>
0.0088

> <Gold.Rescore>
     Score         DG    S(hbond)    S(metal)    S(lipo)     H(rot)  DE(clash)    DE(int)     intcor
     19.58     -21.74       2.93        0.00      93.77       1.75       0.43       1.72       ----

> <Gold.Chemscore.Fitness>
19.5833

> <Gold.Chemscore.DG>
-21.7416

> <Gold.Chemscore.ZeroCoef>
-5.4800

> <Gold.Chemscore.Hbond>
2.9289

> <Gold.Chemscore.Metal>
0.0000

> <Gold.Chemscore.Lipo>
93.7735

> <Gold.Chemscore.Internal_Hbond>
0.0000

> <Gold.Chemscore.DEClash>
0.4349

> <Gold.Chemscore.DEInternal>
1.7234

> <Gold.Chemscore.Rot>
1.7548

> <Gold.Chemscore.Internal.Correction>
   9.000000E+99

> <Gold.Chemscore.Hbonds>
donor molecule, donor type, donor heavy atom, donor atom, acceptor molecule, acceptor atom, score
      L1  H     8    30       P1  8028  0.92
      L1  H    11    31       P1  8028  0.98
      L1  H    17    38       P1 10174  0.95

> <Gold.Chemscore.Hbond.Weighted>
-9.7825

> <Gold.Chemscore.Metal.Weighted>
-0.0000

> <Gold.Chemscore.Lipo.Weighted>
-10.9715

> <Gold.Chemscore.Internal_Hbond.Weighted>
0.0000

> <Gold.Chemscore.DEClash.Weighted>
0.4349

> <Gold.Chemscore.DEInternal.Weighted>
1.7234

> <Gold.Chemscore.Rot.Weighted>
4.4924

> <Gold.Chemscore.Internal.Correction.Weighted>
   9.000000E+99

> <Gold.Protein.RotatedTorsions>
[ 6907 6896 6895 6894 ] final   27.38 input  -60.11 | X-H torsion
[ 7974 7965 7964 7962 ] final   62.64 input  175.53 | X-H torsion
[ 8008 7997 7996 7995 ] final   69.11 input   59.86 | X-H torsion
[ 10167 10162 10161 10158 ] final  -65.39 input  -65.29 | X-H torsion
[ 10718 10713 10712 10709 ] final   65.81 input   66.30 | X-H torsion
[ 10763 10752 10751 10750 ] final   36.61 input  -60.55 | X-H torsion
[ 11005 11000 10999 10996 ] final -179.08 input  -57.11 | X-H torsion

> <Gold.Protein.ActiveResidues>
 VAL166  LYS551  ARG553  GLY616  TRP617  ASP618  TYR619  PRO620  LYS621  CYS622 
 ASP623  PHE694  ASN695  SER759  ASP760  ASP761  ALA762  ILE779  LEU786  VAL792 
 PHE793  MET794  SER795  GLU796  ALA797  LYS798  CYS799  TRP800  GLU811  SER814 

> <Gold.Protein.RotatedAtoms>
  152.0014  134.9926  160.0564 H   0  0  0  0  0  0  0  0  0  0  0  0  # atno 6907 bound_to 6896
  152.1515  133.4520  159.4824 H   0  0  0  0  0  0  0  0  0  0  0  0  # atno 6908 bound_to 6896
  150.6876  134.2101  159.4399 H   0  0  0  0  0  0  0  0  0  0  0  0  # atno 6909 bound_to 6896
  145.8710  139.3378  143.0762 H   0  0  0  0  0  0  0  0  0  0  0  0  # atno 7974 bound_to 7965
  155.7187  140.3493  155.5006 H   0  0  0  0  0  0  0  0  0  0  0  0  # atno 8008 bound_to 7997
  155.9290  140.1080  157.1169 H   0  0  0  0  0  0  0  0  0  0  0  0  # atno 8009 bound_to 7997
  154.4082  140.1235  156.4764 H   0  0  0  0  0  0  0  0  0  0  0  0  # atno 8010 bound_to 7997
  140.5733  143.2319  151.6494 H   0  0  0  0  0  0  0  0  0  0  0  0  # atno 10167 bound_to 10162
  157.6129  130.9234  150.0026 H   0  0  0  0  0  0  0  0  0  0  0  0  # atno 10718 bound_to 10713
  153.0070  135.6301  154.2012 H   0  0  0  0  0  0  0  0  0  0  0  0  # atno 10763 bound_to 10752
  154.1756  135.2816  155.3069 H   0  0  0  0  0  0  0  0  0  0  0  0  # atno 10764 bound_to 10752
  154.5875  135.5628  153.7305 H   0  0  0  0  0  0  0  0  0  0  0  0  # atno 10765 bound_to 10752
  140.4226  134.6592  157.4672 H   0  0  0  0  0  0  0  0  0  0  0  0  # atno 11005 bound_to 11000
  145.9136  140.9163  143.0441 LP  0  0  0  0  0  0  0  0  0  0  0  0  # atno 17320 bound_to 7965
  144.6726  140.1194  143.7450 LP  0  0  0  0  0  0  0  0  0  0  0  0  # atno 17321 bound_to 7965
  139.5129  144.3461  152.0696 LP  0  0  0  0  0  0  0  0  0  0  0  0  # atno 17342 bound_to 10162
  140.2601  144.4076  150.6189 LP  0  0  0  0  0  0  0  0  0  0  0  0  # atno 17343 bound_to 10162
  156.1239  130.3645  149.9841 LP  0  0  0  0  0  0  0  0  0  0  0  0  # atno 17370 bound_to 10713
  156.7915  130.9258  151.3646 LP  0  0  0  0  0  0  0  0  0  0  0  0  # atno 17371 bound_to 10713
  140.0189  134.6576  155.9268 LP  0  0  0  0  0  0  0  0  0  0  0  0  # atno 17394 bound_to 11000
  141.1778  133.6542  156.4897 LP  0  0  0  0  0  0  0  0  0  0  0  0  # atno 17395 bound_to 11000

$$$$
