AV-unprocessed.smi:2772|AV-procd|sdf|10673|dock8
  -GOLD-   2272015123D 1   1.00000     0.00000
 Structure written by MMmdl.
 56 58  0  0  0  0  0  0  0  0  4 V2000
  151.3635  143.0491  156.9307 C   0  0  0  0  0  0  0  0  0  0  0  0
  150.7186  142.0121  156.0358 C   0  0  0  0  0  0  0  0  0  0  0  0
  151.2984  140.7468  155.8066 C   0  0  0  0  0  0  0  0  0  0  0  0
  150.6394  139.8313  154.9605 C   0  0  0  0  0  0  0  0  0  0  0  0
  149.4098  140.1871  154.3639 C   0  0  0  0  0  0  0  0  0  0  0  0
  148.7887  139.2352  153.5097 N   0  0  0  0  0  0  0  0  0  0  0  0
  147.4766  139.0269  153.3035 C   0  0  0  0  0  0  0  0  0  0  0  0
  146.5651  139.6424  153.8549 O   0  0  0  0  0  0  0  0  0  0  0  0
  147.2776  138.0378  152.4204 N   0  0  0  0  0  0  0  0  0  0  0  0
  145.9787  137.5397  151.9743 C   0  0  2  0  0  0  0  0  0  0  0  0
  145.3956  136.5801  153.0286 C   0  0  0  0  0  0  0  0  0  0  0  0
  144.1168  135.8931  152.5113 C   0  0  0  0  0  0  0  0  0  0  0  0
  144.3563  135.1648  151.2319 N   0  3  2  0  0  0  0  0  0  0  0  0
  145.1781  133.9101  151.3490 C   0  0  2  0  0  0  0  0  0  0  0  0
  144.8144  132.8653  150.2632 C   0  0  0  0  0  0  0  0  0  0  0  0
  145.5923  131.5482  150.4258 C   0  0  0  0  0  0  0  0  0  0  0  0
  145.3806  130.9642  151.7698 N   0  3  1  0  0  0  0  0  0  0  0  0
  146.0139  129.6355  151.9149 C   0  0  0  0  0  0  0  0  0  0  0  0
  145.7908  131.9060  152.8360 C   0  0  0  0  0  0  0  0  0  0  0  0
  145.0178  133.2323  152.7338 C   0  0  0  0  0  0  0  0  0  0  0  0
  144.8176  136.1382  150.2003 C   0  0  0  0  0  0  0  0  0  0  0  0
  146.1293  136.8328  150.6145 C   0  0  0  0  0  0  0  0  0  0  0  0
  148.8846  141.4777  154.6232 C   0  0  0  0  0  0  0  0  0  0  0  0
  149.5479  142.3262  155.4387 N   0  3  0  0  0  0  0  0  0  0  0  0
  152.2897  142.6721  157.3651 H   0  0  0  0  0  0  0  0  0  0  0  0
  150.6914  143.3194  157.7458 H   0  0  0  0  0  0  0  0  0  0  0  0
  151.5959  143.9500  156.3622 H   0  0  0  0  0  0  0  0  0  0  0  0
  152.2362  140.4782  156.2708 H   0  0  0  0  0  0  0  0  0  0  0  0
  151.0764  138.8601  154.7777 H   0  0  0  0  0  0  0  0  0  0  0  0
  149.4176  138.6030  153.0362 H   0  0  0  0  0  0  0  0  0  0  0  0
  148.0922  137.5914  152.0250 H   0  0  0  0  0  0  0  0  0  0  0  0
  145.2743  138.3637  151.8460 H   0  0  0  0  0  0  0  0  0  0  0  0
  146.1349  135.8283  153.3073 H   0  0  0  0  0  0  0  0  0  0  0  0
  145.1693  137.1326  153.9414 H   0  0  0  0  0  0  0  0  0  0  0  0
  143.6804  135.2537  153.2754 H   0  0  0  0  0  0  0  0  0  0  0  0
  143.3575  136.6552  152.3292 H   0  0  0  0  0  0  0  0  0  0  0  0
  146.2302  134.1665  151.2236 H   0  0  0  0  0  0  0  0  0  0  0  0
  143.7430  132.6610  150.2892 H   0  0  0  0  0  0  0  0  0  0  0  0
  145.0386  133.2417  149.2663 H   0  0  0  0  0  0  0  0  0  0  0  0
  145.2667  130.8379  149.6645 H   0  0  0  0  0  0  0  0  0  0  0  0
  146.6580  131.7187  150.2642 H   0  0  0  0  0  0  0  0  0  0  0  0
  147.0981  129.7039  151.8154 H   0  0  0  0  0  0  0  0  0  0  0  0
  145.6430  128.9471  151.1547 H   0  0  0  0  0  0  0  0  0  0  0  0
  145.7860  129.2048  152.8906 H   0  0  0  0  0  0  0  0  0  0  0  0
  145.6083  131.4537  153.8117 H   0  0  0  0  0  0  0  0  0  0  0  0
  146.8642  132.0907  152.7688 H   0  0  0  0  0  0  0  0  0  0  0  0
  145.3884  133.8750  153.5310 H   0  0  0  0  0  0  0  0  0  0  0  0
  143.9611  133.0544  152.9393 H   0  0  0  0  0  0  0  0  0  0  0  0
  144.9088  135.6849  149.2155 H   0  0  0  0  0  0  0  0  0  0  0  0
  144.0416  136.8957  150.0787 H   0  0  0  0  0  0  0  0  0  0  0  0
  146.4134  137.5601  149.8528 H   0  0  0  0  0  0  0  0  0  0  0  0
  146.9400  136.1045  150.6530 H   0  0  0  0  0  0  0  0  0  0  0  0
  147.9712  141.8743  154.2071 H   0  0  0  0  0  0  0  0  0  0  0  0
  143.4456  134.8556  150.9223 H   0  0  0  0  0  0  0  0  0  0  0  0
  144.3863  130.8181  151.8734 H   0  0  0  0  0  0  0  0  0  0  0  0
  149.1460  143.2483  155.6094 H   0  0  0  0  0  0  0  0  0  0  0  0
  1  2  1  0  0  0  0
  1 25  1  0  0  0  0
  1 26  1  0  0  0  0
  1 27  1  0  0  0  0
  2 24  1  0  0  0  0
  2  3  2  0  0  0  0
  3  4  1  0  0  0  0
  3 28  1  0  0  0  0
  4  5  2  0  0  0  0
  4 29  1  0  0  0  0
  5  6  1  0  0  0  0
  5 23  1  0  0  0  0
  6  7  1  0  0  0  0
  6 30  1  0  0  0  0
  7  8  2  0  0  0  0
  7  9  1  0  0  0  0
  9 10  1  0  0  0  0
  9 31  1  0  0  0  0
 10 22  1  0  0  0  0
 10 11  1  0  0  0  0
 10 32  1  0  0  0  0
 11 12  1  0  0  0  0
 11 33  1  0  0  0  0
 11 34  1  0  0  0  0
 12 13  1  0  0  0  0
 12 35  1  0  0  0  0
 12 36  1  0  0  0  0
 13 14  1  0  0  0  0
 13 21  1  0  0  0  0
 13 54  1  0  0  0  0
 14 20  1  0  0  0  0
 14 15  1  0  0  0  0
 14 37  1  0  0  0  0
 15 16  1  0  0  0  0
 15 38  1  0  0  0  0
 15 39  1  0  0  0  0
 16 17  1  0  0  0  0
 16 40  1  0  0  0  0
 16 41  1  0  0  0  0
 17 18  1  0  0  0  0
 17 19  1  0  0  0  0
 17 55  1  0  0  0  0
 18 42  1  0  0  0  0
 18 43  1  0  0  0  0
 18 44  1  0  0  0  0
 19 20  1  0  0  0  0
 19 45  1  0  0  0  0
 19 46  1  0  0  0  0
 20 47  1  0  0  0  0
 20 48  1  0  0  0  0
 21 22  1  0  0  0  0
 21 49  1  0  0  0  0
 21 50  1  0  0  0  0
 22 51  1  0  0  0  0
 22 52  1  0  0  0  0
 23 24  2  0  0  0  0
 23 53  1  0  0  0  0
 24 56  1  0  0  0  0
M  CHG  1  13   1
M  CHG  1  17   1
M  CHG  1  24   1
M  END
> <s_m_source_file>
AV-unprocessed.smi

> <i_m_source_file_index>
2772

> <i_lp_mmshare_version>
43012

> <i_f3d_flags>
0

> <s_epik_input>
W0NIM11jMVtjSF1bY0hdYyhbY0hdbjEpW05IXUMoPU8pW05IXVtDSF0yW0NIMl1bQ0gyXU4oW0NIMl1bQ0gyXTIpW0NIXTNbQ0gyXVtDSDJdTihbQ0gzXSlbQ0gyXVtDSDJdMw==

> <s_epik_cmdline>
J2VwaWtfcHl0aG9uJywgJy1waCcsICc3LjAnLCAnLXRuJywgJzgnLCAnLW1hJywgJzIwMCcsICctbWV0YWxfYmluZGluZycsICctaW1hZScsICc8aW5maWxlLm1hZT4nLCAnLW9tYWUnLCAnPG91dGZpbGUubWFlPic=

> <r_epik_Ionization_Penalty>
2.34117

> <r_epik_Ionization_Penalty_Charging>
2.34115

> <r_epik_Ionization_Penalty_Neutral>
2.22786e-05

> <r_epik_State_Penalty>
2.43944

> <r_epik_Charging_Adjusted_Penalty>
4.78059

> <i_epik_Tot_Q>
3

> <i_epik_Tot_abs_Q>
3

> <r_epik_Metal_State_Penalty>
2.45906

> <b_epik_Metal_Only>
0

> <s_lp_Force_Field>
OPLS_2005

> <r_lp_Energy>
52.8488

> <b_lp_Chiralities_Consistent>
1

> <s_lp_Variant>
AV-unprocessed.smi:2772-10

> <Gold.Version>
5.8.1

> <Gold.Id.Protein>
6NUR|6NUR_protein|mol2

> <Gold.PLP.Fitness>
48.3933

> <Gold.PLP.PLP>
-41.5971

> <Gold.PLP.part.hbond>
-3.0000

> <Gold.PLP.part.metal>
0.0000

> <Gold.PLP.part.buried>
0.7832

> <Gold.PLP.part.nonpolar>
-39.7820

> <Gold.PLP.part.repulsive>
0.5018

> <Gold.PLP.ligand.clash>
0.0000

> <Gold.PLP.ligand.torsion>
1.1111

> <Gold.PLP.Chemscore.Hbond>
2.9920

> <Gold.PLP.Chemscore.CHOScore>
0.0000

> <Gold.PLP.Chemscore.Metal>
0.0000

> <Gold.Chemscore.Hbonds>
donor molecule, donor type, donor heavy atom, donor atom, acceptor molecule, acceptor atom, score
      L1  H     9    31       P1  7948  0.98
      L1  H    24    56       P1  8028  1.82

> <Gold.PLP.Chemscore.Internal.Correction>
0.0425

> <Gold.Rescore>
     Score         DG    S(hbond)    S(metal)    S(lipo)     H(rot)  DE(clash)    DE(int)     intcor
     19.42     -23.44       1.92        0.00     125.29       1.22       2.93       1.08       ----

> <Gold.Chemscore.Fitness>
19.4249

> <Gold.Chemscore.DG>
-23.4369

> <Gold.Chemscore.ZeroCoef>
-5.4800

> <Gold.Chemscore.Hbond>
1.9241

> <Gold.Chemscore.Metal>
0.0000

> <Gold.Chemscore.Lipo>
125.2933

> <Gold.Chemscore.Internal_Hbond>
0.0000

> <Gold.Chemscore.DEClash>
2.9323

> <Gold.Chemscore.DEInternal>
1.0797

> <Gold.Chemscore.Rot>
1.2222

> <Gold.Chemscore.Internal.Correction>
   9.000000E+99

> <Gold.Chemscore.Hbonds>
donor molecule, donor type, donor heavy atom, donor atom, acceptor molecule, acceptor atom, score
      L1  H     9    31       P1  7948  0.92
      L1  H    24    56       P1  8028  0.87

> <Gold.Chemscore.Hbond.Weighted>
-6.4265

> <Gold.Chemscore.Metal.Weighted>
-0.0000

> <Gold.Chemscore.Lipo.Weighted>
-14.6593

> <Gold.Chemscore.Internal_Hbond.Weighted>
0.0000

> <Gold.Chemscore.DEClash.Weighted>
2.9323

> <Gold.Chemscore.DEInternal.Weighted>
1.0797

> <Gold.Chemscore.Rot.Weighted>
3.1289

> <Gold.Chemscore.Internal.Correction.Weighted>
   9.000000E+99

> <Gold.Protein.RotatedTorsions>
[ 6907 6896 6895 6894 ] final  -31.66 input  -60.11 | X-H torsion
[ 7974 7965 7964 7962 ] final -166.19 input  175.53 | X-H torsion
[ 8008 7997 7996 7995 ] final -161.78 input   59.86 | X-H torsion
[ 10167 10162 10161 10158 ] final   34.43 input  -65.29 | X-H torsion
[ 10718 10713 10712 10709 ] final  -62.37 input   66.30 | X-H torsion
[ 10763 10752 10751 10750 ] final -179.43 input  -60.55 | X-H torsion
[ 11005 11000 10999 10996 ] final  -39.30 input  -57.11 | X-H torsion

> <Gold.Protein.ActiveResidues>
 VAL166  LYS551  ARG553  GLY616  TRP617  ASP618  TYR619  PRO620  LYS621  CYS622 
 ASP623  PHE694  ASN695  SER759  ASP760  ASP761  ALA762  ILE779  LEU786  VAL792 
 PHE793  MET794  SER795  GLU796  ALA797  LYS798  CYS799  TRP800  GLU811  SER814 

> <Gold.Protein.RotatedAtoms>
  151.0891  134.9905  159.8393 H   0  0  0  0  0  0  0  0  0  0  0  0  # atno 6907 bound_to 6896
  152.5427  134.2087  159.8751 H   0  0  0  0  0  0  0  0  0  0  0  0  # atno 6908 bound_to 6896
  151.2122  133.4505  159.2632 H   0  0  0  0  0  0  0  0  0  0  0  0  # atno 6909 bound_to 6896
  144.7251  140.2704  143.6251 H   0  0  0  0  0  0  0  0  0  0  0  0  # atno 7974 bound_to 7965
  155.7972  140.0886  157.1977 H   0  0  0  0  0  0  0  0  0  0  0  0  # atno 8008 bound_to 7997
  154.3983  140.1479  156.3290 H   0  0  0  0  0  0  0  0  0  0  0  0  # atno 8009 bound_to 7997
  155.8499  140.3435  155.5689 H   0  0  0  0  0  0  0  0  0  0  0  0  # atno 8010 bound_to 7997
  140.4316  144.1317  150.6160 H   0  0  0  0  0  0  0  0  0  0  0  0  # atno 10167 bound_to 10162
  156.0860  130.4208  150.1125 H   0  0  0  0  0  0  0  0  0  0  0  0  # atno 10718 bound_to 10713
  154.5352  135.2802  155.1145 H   0  0  0  0  0  0  0  0  0  0  0  0  # atno 10763 bound_to 10752
  154.2649  135.6314  153.5292 H   0  0  0  0  0  0  0  0  0  0  0  0  # atno 10764 bound_to 10752
  152.9966  135.5614  154.5876 H   0  0  0  0  0  0  0  0  0  0  0  0  # atno 10765 bound_to 10752
  141.0092  133.6916  156.2168 H   0  0  0  0  0  0  0  0  0  0  0  0  # atno 11005 bound_to 11000
  145.8049  139.1979  143.2027 LP  0  0  0  0  0  0  0  0  0  0  0  0  # atno 17320 bound_to 7965
  146.0645  140.7935  142.9718 LP  0  0  0  0  0  0  0  0  0  0  0  0  # atno 17321 bound_to 7965
  140.4421  143.2522  151.9459 LP  0  0  0  0  0  0  0  0  0  0  0  0  # atno 17342 bound_to 10162
  139.4785  144.5644  151.8188 LP  0  0  0  0  0  0  0  0  0  0  0  0  # atno 17343 bound_to 10162
  156.9146  130.9663  151.3558 LP  0  0  0  0  0  0  0  0  0  0  0  0  # atno 17370 bound_to 10713
  157.5994  130.8501  149.8779 LP  0  0  0  0  0  0  0  0  0  0  0  0  # atno 17371 bound_to 10713
  140.6762  134.4815  157.5588 LP  0  0  0  0  0  0  0  0  0  0  0  0  # atno 17394 bound_to 11000
  139.9080  134.8407  156.1633 LP  0  0  0  0  0  0  0  0  0  0  0  0  # atno 17395 bound_to 11000

$$$$
