AV-unprocessed.smi:2503|AV-procd|sdf|9847|dock7
  -GOLD-   2272013473D 1   1.00000     0.00000
 Structure written by MMmdl.
 37 38  0  0  0  0  0  0  0  0  2 V2000
  151.6925  139.8179  155.1421 C   0  0  0  0  0  0  0  0  0  0  0  0
  150.5817  138.7600  155.0912 C   0  0  0  0  0  0  0  0  0  0  0  0
  151.0556  137.4768  154.3906 C   0  0  0  0  0  0  0  0  0  0  0  0
  149.3302  139.3157  154.4685 C   0  0  0  0  0  0  0  0  0  0  0  0
  148.6619  138.7624  153.4482 N   0  3  0  0  0  0  0  0  0  0  0  0
  147.5881  139.5345  153.1003 C   0  0  0  0  0  0  0  0  0  0  0  0
  147.6086  140.6211  153.9334 C   0  0  0  0  0  0  0  0  0  0  0  0
  148.6949  140.4675  154.7578 N   0  0  0  0  0  0  0  0  0  0  0  0
  149.1158  141.4051  155.8107 C   0  0  0  0  0  0  0  0  0  0  0  0
  148.1447  141.4296  156.9973 C   0  0  0  0  0  0  0  0  0  0  0  0
  147.5785  140.3888  157.3399 O   0  0  0  0  0  0  0  0  0  0  0  0
  147.9963  142.6393  157.5846 N   0  0  0  0  0  0  0  0  0  0  0  0
  147.2665  143.0250  158.6583 C   0  0  0  0  0  0  0  0  0  0  0  0
  146.6027  142.2024  159.2866 O   0  0  0  0  0  0  0  0  0  0  0  0
  147.3000  144.3299  158.9867 N   0  0  0  0  0  0  0  0  0  0  0  0
  146.6049  144.9341  160.0768 C   0  0  0  0  0  0  0  0  0  0  0  0
  147.4326  145.6209  161.1412 C   0  0  0  0  0  0  0  0  0  0  0  0
  146.7670  144.3069  161.4444 C   0  0  0  0  0  0  0  0  0  0  0  0
  151.3727  140.6982  155.7003 H   0  0  0  0  0  0  0  0  0  0  0  0
  151.9772  140.1434  154.1410 H   0  0  0  0  0  0  0  0  0  0  0  0
  152.5849  139.4253  155.6302 H   0  0  0  0  0  0  0  0  0  0  0  0
  150.3244  138.4887  156.1140 H   0  0  0  0  0  0  0  0  0  0  0  0
  150.2749  136.7156  154.3978 H   0  0  0  0  0  0  0  0  0  0  0  0
  151.9268  137.0565  154.8937 H   0  0  0  0  0  0  0  0  0  0  0  0
  151.3330  137.6631  153.3527 H   0  0  0  0  0  0  0  0  0  0  0  0
  146.9104  139.2624  152.3042 H   0  0  0  0  0  0  0  0  0  0  0  0
  146.9473  141.4732  153.9977 H   0  0  0  0  0  0  0  0  0  0  0  0
  150.1239  141.1366  156.1297 H   0  0  0  0  0  0  0  0  0  0  0  0
  149.1725  142.4032  155.3745 H   0  0  0  0  0  0  0  0  0  0  0  0
  148.5219  143.3857  157.1534 H   0  0  0  0  0  0  0  0  0  0  0  0
  147.8637  144.9432  158.4150 H   0  0  0  0  0  0  0  0  0  0  0  0
  145.6313  145.3752  159.8676 H   0  0  0  0  0  0  0  0  0  0  0  0
  148.5149  145.6201  161.0253 H   0  0  0  0  0  0  0  0  0  0  0  0
  147.0152  146.5142  161.6018 H   0  0  0  0  0  0  0  0  0  0  0  0
  145.9051  144.3223  162.1082 H   0  0  0  0  0  0  0  0  0  0  0  0
  147.4057  143.4297  161.5311 H   0  0  0  0  0  0  0  0  0  0  0  0
  148.9171  137.8906  153.0014 H   0  0  0  0  0  0  0  0  0  0  0  0
  1  2  1  0  0  0  0
  1 19  1  0  0  0  0
  1 20  1  0  0  0  0
  1 21  1  0  0  0  0
  2  3  1  0  0  0  0
  2  4  1  0  0  0  0
  2 22  1  0  0  0  0
  3 23  1  0  0  0  0
  3 24  1  0  0  0  0
  3 25  1  0  0  0  0
  4  8  1  0  0  0  0
  4  5  2  0  0  0  0
  5  6  1  0  0  0  0
  5 37  1  0  0  0  0
  6  7  2  0  0  0  0
  6 26  1  0  0  0  0
  7  8  1  0  0  0  0
  7 27  1  0  0  0  0
  8  9  1  0  0  0  0
  9 10  1  0  0  0  0
  9 28  1  0  0  0  0
  9 29  1  0  0  0  0
 10 11  2  0  0  0  0
 10 12  1  0  0  0  0
 12 13  1  0  0  0  0
 12 30  1  0  0  0  0
 13 14  2  0  0  0  0
 13 15  1  0  0  0  0
 15 16  1  0  0  0  0
 15 31  1  0  0  0  0
 16 18  1  0  0  0  0
 16 17  1  0  0  0  0
 16 32  1  0  0  0  0
 17 18  1  0  0  0  0
 17 33  1  0  0  0  0
 17 34  1  0  0  0  0
 18 35  1  0  0  0  0
 18 36  1  0  0  0  0
M  CHG  1   5   1
M  END
> <s_m_source_file>
AV-unprocessed.smi

> <i_m_source_file_index>
2503

> <i_lp_mmshare_version>
43012

> <i_f3d_flags>
0

> <s_epik_input>
W0NIM11bQ0hdKFtDSDNdKWMxbltjSF1bY0hdbjFbQ0gyXUMoPU8pW05IXUMoPU8pW05IXVtDSF0yW0NIMl1bQ0gyXTI=

> <s_epik_cmdline>
J2VwaWtfcHl0aG9uJywgJy1waCcsICc3LjAnLCAnLXRuJywgJzgnLCAnLW1hJywgJzIwMCcsICctbWV0YWxfYmluZGluZycsICctaW1hZScsICc8aW5maWxlLm1hZT4nLCAnLW9tYWUnLCAnPG91dGZpbGUubWFlPic=

> <r_lp_tautomer_probability>
1

> <r_epik_Ionization_Penalty>
0.381304

> <r_epik_Ionization_Penalty_Charging>
0

> <r_epik_Ionization_Penalty_Neutral>
0.381304

> <r_epik_State_Penalty>
0.37936

> <r_epik_Charging_Adjusted_Penalty>
0.37936

> <i_epik_Tot_Q>
1

> <i_epik_Tot_abs_Q>
1

> <r_epik_Metal_State_Penalty>
0.628559

> <b_epik_Metal_Only>
0

> <s_lp_Force_Field>
OPLS_2005

> <r_lp_Energy>
25.6891

> <b_lp_Chiralities_Consistent>
1

> <s_lp_Variant>
AV-unprocessed.smi:2503-1

> <Gold.Version>
5.8.1

> <Gold.Id.Protein>
6NUR|6NUR_protein|mol2

> <Gold.PLP.Fitness>
45.1928

> <Gold.PLP.PLP>
-31.9075

> <Gold.PLP.part.hbond>
-4.7272

> <Gold.PLP.part.metal>
0.0000

> <Gold.PLP.part.buried>
-0.5397

> <Gold.PLP.part.nonpolar>
-26.9911

> <Gold.PLP.part.repulsive>
0.2272

> <Gold.PLP.ligand.clash>
0.0000

> <Gold.PLP.ligand.torsion>
0.5759

> <Gold.PLP.Chemscore.Hbond>
4.7817

> <Gold.PLP.Chemscore.CHOScore>
0.0000

> <Gold.PLP.Chemscore.Metal>
0.0000

> <Gold.Chemscore.Hbonds>
donor molecule, donor type, donor heavy atom, donor atom, acceptor molecule, acceptor atom, score
      L1  H     5    37       P1  7948  2.00
      L1  H    12    30       P1  8028  0.90
      L1  H    15    31       P1  8029  0.89
      P1  H  6934  6946       L1    14  0.94

> <Gold.PLP.Chemscore.Internal.Correction>
0.0920

> <Gold.Rescore>
     Score         DG    S(hbond)    S(metal)    S(lipo)     H(rot)  DE(clash)    DE(int)     intcor
     14.43     -17.17       2.97        0.00      55.06       1.82       0.30       2.45       ----

> <Gold.Chemscore.Fitness>
14.4285

> <Gold.Chemscore.DG>
-17.1742

> <Gold.Chemscore.ZeroCoef>
-5.4800

> <Gold.Chemscore.Hbond>
2.9691

> <Gold.Chemscore.Metal>
0.0000

> <Gold.Chemscore.Lipo>
55.0570

> <Gold.Chemscore.Internal_Hbond>
0.0000

> <Gold.Chemscore.DEClash>
0.3006

> <Gold.Chemscore.DEInternal>
2.4451

> <Gold.Chemscore.Rot>
1.8220

> <Gold.Chemscore.Internal.Correction>
   9.000000E+99

> <Gold.Chemscore.Hbonds>
donor molecule, donor type, donor heavy atom, donor atom, acceptor molecule, acceptor atom, score
      L1  H     5    37       P1  7948  0.97
      L1  H    12    30       P1  8028  0.16
      L1  H    15    31       P1  8029  0.81
      P1  H  6934  6946       L1    14  0.89

> <Gold.Chemscore.Hbond.Weighted>
-9.9168

> <Gold.Chemscore.Metal.Weighted>
-0.0000

> <Gold.Chemscore.Lipo.Weighted>
-6.4417

> <Gold.Chemscore.Internal_Hbond.Weighted>
0.0000

> <Gold.Chemscore.DEClash.Weighted>
0.3006

> <Gold.Chemscore.DEInternal.Weighted>
2.4451

> <Gold.Chemscore.Rot.Weighted>
4.6643

> <Gold.Chemscore.Internal.Correction.Weighted>
   9.000000E+99

> <Gold.Protein.RotatedTorsions>
[ 6907 6896 6895 6894 ] final   24.72 input  -60.11 | X-H torsion
[ 7974 7965 7964 7962 ] final  179.02 input  175.53 | X-H torsion
[ 8008 7997 7996 7995 ] final   48.97 input   59.86 | X-H torsion
[ 10167 10162 10161 10158 ] final  -35.56 input  -65.29 | X-H torsion
[ 10718 10713 10712 10709 ] final  127.88 input   66.30 | X-H torsion
[ 10763 10752 10751 10750 ] final  155.05 input  -60.55 | X-H torsion
[ 11005 11000 10999 10996 ] final -153.62 input  -57.11 | X-H torsion

> <Gold.Protein.ActiveResidues>
 VAL166  LYS551  ARG553  GLY616  TRP617  ASP618  TYR619  PRO620  LYS621  CYS622 
 ASP623  PHE694  ASN695  SER759  ASP760  ASP761  ALA762  ILE779  LEU786  VAL792 
 PHE793  MET794  SER795  GLU796  ALA797  LYS798  CYS799  TRP800  GLU811  SER814 

> <Gold.Protein.RotatedAtoms>
  151.9618  135.0120  160.0547 H   0  0  0  0  0  0  0  0  0  0  0  0  # atno 6907 bound_to 6896
  152.1862  133.4736  159.4992 H   0  0  0  0  0  0  0  0  0  0  0  0  # atno 6908 bound_to 6896
  150.6926  134.1688  159.4247 H   0  0  0  0  0  0  0  0  0  0  0  0  # atno 6909 bound_to 6896
  144.7150  140.0486  143.6436 H   0  0  0  0  0  0  0  0  0  0  0  0  # atno 7974 bound_to 7965
  155.3945  140.3435  155.4253 H   0  0  0  0  0  0  0  0  0  0  0  0  # atno 8008 bound_to 7997
  156.1539  140.1579  156.8758 H   0  0  0  0  0  0  0  0  0  0  0  0  # atno 8009 bound_to 7997
  154.5077  140.0798  156.7908 H   0  0  0  0  0  0  0  0  0  0  0  0  # atno 8010 bound_to 7997
  140.7162  143.3469  151.2238 H   0  0  0  0  0  0  0  0  0  0  0  0  # atno 10167 bound_to 10162
  157.5293  131.1098  150.9033 H   0  0  0  0  0  0  0  0  0  0  0  0  # atno 10718 bound_to 10713
  154.1622  135.2809  155.3105 H   0  0  0  0  0  0  0  0  0  0  0  0  # atno 10763 bound_to 10752
  154.6138  135.5490  153.7505 H   0  0  0  0  0  0  0  0  0  0  0  0  # atno 10764 bound_to 10752
  153.0189  135.6422  154.1763 H   0  0  0  0  0  0  0  0  0  0  0  0  # atno 10765 bound_to 10752
  140.7062  134.3883  157.5203 H   0  0  0  0  0  0  0  0  0  0  0  0  # atno 11005 bound_to 11000
  145.9963  139.3055  143.0954 LP  0  0  0  0  0  0  0  0  0  0  0  0  # atno 17320 bound_to 7965
  145.8844  140.9342  143.0584 LP  0  0  0  0  0  0  0  0  0  0  0  0  # atno 17321 bound_to 7965
  139.6990  143.9565  152.2896 LP  0  0  0  0  0  0  0  0  0  0  0  0  # atno 17342 bound_to 10162
  139.9251  144.6775  150.8420 LP  0  0  0  0  0  0  0  0  0  0  0  0  # atno 17343 bound_to 10162
  156.9619  130.5458  149.5286 LP  0  0  0  0  0  0  0  0  0  0  0  0  # atno 17370 bound_to 10713
  156.0411  130.5493  150.8772 LP  0  0  0  0  0  0  0  0  0  0  0  0  # atno 17371 bound_to 10713
  139.8884  134.8858  156.2478 LP  0  0  0  0  0  0  0  0  0  0  0  0  # atno 17394 bound_to 11000
  141.0123  133.7088  156.1131 LP  0  0  0  0  0  0  0  0  0  0  0  0  # atno 17395 bound_to 11000

$$$$
