AV-unprocessed.smi:2915|AV-procd|sdf|11187|dock3
  -GOLD-   2272016 83D 1   1.00000     0.00000
 Structure written by MMmdl.
 41 42  0  0  0  0  0  0  0  0  1 V2000
  152.7614  142.9976  161.9172 C   0  0  0  0  0  0  0  0  0  0  0  0
  152.3669  143.3646  160.5278 C   0  0  0  0  0  0  0  0  0  0  0  0
  152.0943  142.4688  159.5754 N   0  0  0  0  0  0  0  0  0  0  0  0
  151.7418  143.0652  158.3600 C   0  0  0  0  0  0  0  0  0  0  0  0
  151.3956  142.2082  157.1745 C   0  0  0  0  0  0  0  0  0  0  0  0
  151.5863  140.7127  157.4606 C   0  0  0  0  0  0  0  0  0  0  0  0
  152.5045  140.0731  156.9447 O   0  0  0  0  0  0  0  0  0  0  0  0
  150.6900  140.1671  158.2971 N   0  0  0  0  0  0  0  0  0  0  0  0
  150.6359  138.7631  158.7070 C   0  0  0  0  0  0  0  0  0  0  0  0
  149.9287  137.8402  157.6742 C   0  0  0  0  0  0  0  0  0  0  0  0
  150.9343  137.5882  156.5143 C   0  0  0  0  0  0  0  0  0  0  0  0
  150.4262  136.7565  155.3171 C   0  0  0  0  0  0  0  0  0  0  0  0
  151.4817  136.5551  154.4025 O   0  0  0  0  0  0  0  0  0  0  0  0
  149.4781  136.5092  158.3377 C   0  0  0  0  0  0  0  0  0  0  0  0
  148.0361  136.2706  157.8883 C   0  0  0  0  0  0  0  0  0  0  0  0
  147.4621  137.6740  157.7335 C   0  0  0  0  0  0  0  0  0  0  0  0
  148.6176  138.4915  157.1530 C   0  0  0  0  0  0  0  0  0  0  0  0
  151.7660  144.4376  158.4049 C   0  0  0  0  0  0  0  0  0  0  0  0
  152.2168  145.0294  159.9798 S   0  0  0  0  0  0  0  0  0  0  0  0
  152.6634  141.9228  162.0738 H   0  0  0  0  0  0  0  0  0  0  0  0
  152.1233  143.5144  162.6340 H   0  0  0  0  0  0  0  0  0  0  0  0
  153.7970  143.2854  162.0978 H   0  0  0  0  0  0  0  0  0  0  0  0
  150.3600  142.3754  156.8768 H   0  0  0  0  0  0  0  0  0  0  0  0
  152.0109  142.4818  156.3160 H   0  0  0  0  0  0  0  0  0  0  0  0
  149.9729  140.7713  158.6714 H   0  0  0  0  0  0  0  0  0  0  0  0
  151.6377  138.3848  158.9173 H   0  0  0  0  0  0  0  0  0  0  0  0
  150.1026  138.7266  159.6575 H   0  0  0  0  0  0  0  0  0  0  0  0
  151.2879  138.5519  156.1439 H   0  0  0  0  0  0  0  0  0  0  0  0
  151.8163  137.0882  156.9176 H   0  0  0  0  0  0  0  0  0  0  0  0
  150.0637  135.7794  155.6340 H   0  0  0  0  0  0  0  0  0  0  0  0
  149.6094  137.2489  154.7920 H   0  0  0  0  0  0  0  0  0  0  0  0
  151.1172  136.4780  153.5339 H   0  0  0  0  0  0  0  0  0  0  0  0
  150.1271  135.6662  158.1006 H   0  0  0  0  0  0  0  0  0  0  0  0
  149.4865  136.5855  159.4248 H   0  0  0  0  0  0  0  0  0  0  0  0
  148.0244  135.7586  156.9254 H   0  0  0  0  0  0  0  0  0  0  0  0
  147.4715  135.6627  158.5959 H   0  0  0  0  0  0  0  0  0  0  0  0
  146.5734  137.6979  157.1024 H   0  0  0  0  0  0  0  0  0  0  0  0
  147.1865  138.0687  158.7125 H   0  0  0  0  0  0  0  0  0  0  0  0
  148.5291  139.5467  157.4118 H   0  0  0  0  0  0  0  0  0  0  0  0
  148.5607  138.4558  156.0663 H   0  0  0  0  0  0  0  0  0  0  0  0
  151.5398  145.1335  157.6107 H   0  0  0  0  0  0  0  0  0  0  0  0
  1  2  1  0  0  0  0
  1 20  1  0  0  0  0
  1 21  1  0  0  0  0
  1 22  1  0  0  0  0
  2 19  1  0  0  0  0
  2  3  2  0  0  0  0
  3  4  1  0  0  0  0
  4  5  1  0  0  0  0
  4 18  2  0  0  0  0
  5  6  1  0  0  0  0
  5 23  1  0  0  0  0
  5 24  1  0  0  0  0
  6  7  2  0  0  0  0
  6  8  1  0  0  0  0
  8  9  1  0  0  0  0
  8 25  1  0  0  0  0
  9 10  1  0  0  0  0
  9 26  1  0  0  0  0
  9 27  1  0  0  0  0
 10 17  1  0  0  0  0
 10 11  1  0  0  0  0
 10 14  1  0  0  0  0
 11 12  1  0  0  0  0
 11 28  1  0  0  0  0
 11 29  1  0  0  0  0
 12 13  1  0  0  0  0
 12 30  1  0  0  0  0
 12 31  1  0  0  0  0
 13 32  1  0  0  0  0
 14 15  1  0  0  0  0
 14 33  1  0  0  0  0
 14 34  1  0  0  0  0
 15 16  1  0  0  0  0
 15 35  1  0  0  0  0
 15 36  1  0  0  0  0
 16 17  1  0  0  0  0
 16 37  1  0  0  0  0
 16 38  1  0  0  0  0
 17 39  1  0  0  0  0
 17 40  1  0  0  0  0
 18 19  1  0  0  0  0
 18 41  1  0  0  0  0
M  END
> <s_m_source_file>
AV-unprocessed.smi

> <i_m_source_file_index>
2915

> <i_lp_mmshare_version>
43012

> <i_f3d_flags>
0

> <s_epik_input>
W0NIM11jMW5jKFtjSF1zMSlbQ0gyXUMoPU8pW05IXVtDSDJdQzIoW0NIMl1bQ0gyXVtPSF0pW0NIMl1bQ0gyXVtDSDJdW0NIMl0y

> <s_epik_cmdline>
J2VwaWtfcHl0aG9uJywgJy1waCcsICc3LjAnLCAnLXRuJywgJzgnLCAnLW1hJywgJzIwMCcsICctbWV0YWxfYmluZGluZycsICctaW1hZScsICc8aW5maWxlLm1hZT4nLCAnLW9tYWUnLCAnPG91dGZpbGUubWFlPic=

> <r_lp_tautomer_probability>
1

> <r_epik_Ionization_Penalty>
5.95244e-05

> <r_epik_Ionization_Penalty_Charging>
0

> <r_epik_Ionization_Penalty_Neutral>
5.95244e-05

> <r_epik_State_Penalty>
-0

> <r_epik_Charging_Adjusted_Penalty>
0

> <i_epik_Tot_Q>
0

> <i_epik_Tot_abs_Q>
0

> <r_epik_Metal_State_Penalty>
-0

> <b_epik_Metal_Only>
0

> <s_lp_Force_Field>
OPLS_2005

> <r_lp_Energy>
27.9647

> <b_lp_Chiralities_Consistent>
1

> <s_lp_Variant>
AV-unprocessed.smi:2915-1

> <Gold.Version>
5.8.1

> <Gold.Id.Protein>
6NUR|6NUR_protein|mol2

> <Gold.PLP.Fitness>
41.0308

> <Gold.PLP.PLP>
-33.0273

> <Gold.PLP.part.hbond>
-3.0000

> <Gold.PLP.part.metal>
0.0000

> <Gold.PLP.part.buried>
-5.8354

> <Gold.PLP.part.nonpolar>
-23.5413

> <Gold.PLP.part.repulsive>
0.1434

> <Gold.PLP.ligand.clash>
0.0000

> <Gold.PLP.ligand.torsion>
0.5134

> <Gold.PLP.Chemscore.Hbond>
3.0000

> <Gold.PLP.Chemscore.CHOScore>
0.0000

> <Gold.PLP.Chemscore.Metal>
0.0000

> <Gold.Chemscore.Hbonds>
donor molecule, donor type, donor heavy atom, donor atom, acceptor molecule, acceptor atom, score
      L1  H    13    32       P1  7949  0.83
      P1  H  7997  8008       L1     7  1.00
      P1  H 10752 10765       L1    13  1.00

> <Gold.PLP.Chemscore.Internal.Correction>
0.0303

> <Gold.Rescore>
     Score         DG    S(hbond)    S(metal)    S(lipo)     H(rot)  DE(clash)    DE(int)     intcor
     17.70     -18.49       2.64        0.00      89.26       2.45       0.13       0.66       ----

> <Gold.Chemscore.Fitness>
17.6972

> <Gold.Chemscore.DG>
-18.4906

> <Gold.Chemscore.ZeroCoef>
-5.4800

> <Gold.Chemscore.Hbond>
2.6441

> <Gold.Chemscore.Metal>
0.0000

> <Gold.Chemscore.Lipo>
89.2595

> <Gold.Chemscore.Internal_Hbond>
0.0000

> <Gold.Chemscore.DEClash>
0.1341

> <Gold.Chemscore.DEInternal>
0.6594

> <Gold.Chemscore.Rot>
2.4469

> <Gold.Chemscore.Internal.Correction>
   9.000000E+99

> <Gold.Chemscore.Hbonds>
donor molecule, donor type, donor heavy atom, donor atom, acceptor molecule, acceptor atom, score
      L1  H    13    32       P1  7949  0.32
      P1  H  7997  8008       L1     7  0.98
      P1  H 10752 10765       L1    13  0.65

> <Gold.Chemscore.Hbond.Weighted>
-8.8312

> <Gold.Chemscore.Metal.Weighted>
-0.0000

> <Gold.Chemscore.Lipo.Weighted>
-10.4434

> <Gold.Chemscore.Internal_Hbond.Weighted>
0.0000

> <Gold.Chemscore.DEClash.Weighted>
0.1341

> <Gold.Chemscore.DEInternal.Weighted>
0.6594

> <Gold.Chemscore.Rot.Weighted>
6.2640

> <Gold.Chemscore.Internal.Correction.Weighted>
   9.000000E+99

> <Gold.Protein.RotatedTorsions>
[ 6907 6896 6895 6894 ] final -142.80 input  -60.11 | X-H torsion
[ 7974 7965 7964 7962 ] final  -27.94 input  175.53 | X-H torsion
[ 8008 7997 7996 7995 ] final  -49.77 input   59.86 | X-H torsion
[ 10167 10162 10161 10158 ] final -169.38 input  -65.29 | X-H torsion
[ 10718 10713 10712 10709 ] final  -94.77 input   66.30 | X-H torsion
[ 10763 10752 10751 10750 ] final  173.53 input  -60.55 | X-H torsion
[ 11005 11000 10999 10996 ] final  -33.49 input  -57.11 | X-H torsion

> <Gold.Protein.ActiveResidues>
 VAL166  LYS551  ARG553  GLY616  TRP617  ASP618  TYR619  PRO620  LYS621  CYS622 
 ASP623  PHE694  ASN695  SER759  ASP760  ASP761  ALA762  ILE779  LEU786  VAL792 
 PHE793  MET794  SER795  GLU796  ALA797  LYS798  CYS799  TRP800  GLU811  SER814 

> <Gold.Protein.RotatedAtoms>
  151.0919  133.5309  159.2614 H   0  0  0  0  0  0  0  0  0  0  0  0  # atno 6907 bound_to 6896
  151.2173  135.0504  159.8945 H   0  0  0  0  0  0  0  0  0  0  0  0  # atno 6908 bound_to 6896
  152.5435  134.0726  159.8254 H   0  0  0  0  0  0  0  0  0  0  0  0  # atno 6909 bound_to 6896
  146.1323  140.5217  142.8688 H   0  0  0  0  0  0  0  0  0  0  0  0  # atno 7974 bound_to 7965
  154.4050  140.1288  156.4557 H   0  0  0  0  0  0  0  0  0  0  0  0  # atno 8008 bound_to 7997
  155.7322  140.3491  155.5045 H   0  0  0  0  0  0  0  0  0  0  0  0  # atno 8009 bound_to 7997
  155.9117  140.1037  157.1265 H   0  0  0  0  0  0  0  0  0  0  0  0  # atno 8010 bound_to 7997
  139.5926  144.1180  152.1652 H   0  0  0  0  0  0  0  0  0  0  0  0  # atno 10167 bound_to 10162
  156.0032  130.5081  150.5976 H   0  0  0  0  0  0  0  0  0  0  0  0  # atno 10718 bound_to 10713
  154.4414  135.2762  155.1845 H   0  0  0  0  0  0  0  0  0  0  0  0  # atno 10763 bound_to 10752
  154.3710  135.6108  153.5743 H   0  0  0  0  0  0  0  0  0  0  0  0  # atno 10764 bound_to 10752
  152.9841  135.5857  154.4742 H   0  0  0  0  0  0  0  0  0  0  0  0  # atno 10765 bound_to 10752
  140.9639  133.7148  156.1413 H   0  0  0  0  0  0  0  0  0  0  0  0  # atno 11005 bound_to 11000
  144.7703  140.5623  143.6674 LP  0  0  0  0  0  0  0  0  0  0  0  0  # atno 17320 bound_to 7965
  145.5233  139.1476  143.3540 LP  0  0  0  0  0  0  0  0  0  0  0  0  # atno 17321 bound_to 7965
  140.0758  144.5741  150.7158 LP  0  0  0  0  0  0  0  0  0  0  0  0  # atno 17342 bound_to 10162
  140.7186  143.2567  151.4354 LP  0  0  0  0  0  0  0  0  0  0  0  0  # atno 17343 bound_to 10162
  157.3830  131.0784  151.1460 LP  0  0  0  0  0  0  0  0  0  0  0  0  # atno 17370 bound_to 10713
  157.2176  130.6466  149.5798 LP  0  0  0  0  0  0  0  0  0  0  0  0  # atno 17371 bound_to 10713
  140.7428  134.4131  157.5552 LP  0  0  0  0  0  0  0  0  0  0  0  0  # atno 17394 bound_to 11000
  139.8887  134.8848  156.2457 LP  0  0  0  0  0  0  0  0  0  0  0  0  # atno 17395 bound_to 11000

$$$$
