#       Name:                AV-unprocessed.smi:2305
#       Creating user name   scv26
#       Creation time:       Fri Mar 27 12:46:33 2020


#       File generated by GOLD software.
#

@<TRIPOS>MOLECULE
AV-unprocessed.smi:2305
    45    46     1
SMALL
NO_CHARGES


@<TRIPOS>ATOM
      1 ****        -3.9533   4.5312  -0.0442 C.3            1 S1                 0.0000
      2 ****        -3.3893   3.1214  -0.0630 C.2            1 S1                 0.0000
      3 ****        -3.4212   2.4750  -1.3019 N.2            1 S1                 0.0000
      4 ****        -2.9609   1.2719  -1.4138 C.2            1 S1                 0.0000
      5 ****        -2.4286   0.5805  -0.3133 N.am           1 S1                 0.0000
      6 ****        -1.9387  -0.7837  -0.5738 C.3            1 S1                 0.0000
      7 ****        -0.4028  -0.8291  -0.7375 C.3            1 S1                 0.0000
      8 ****        -0.0853  -0.4717  -2.0685 O.3            1 S1                 0.0000
      9 ****         0.1592  -2.2409  -0.4829 C.3            1 S1                 0.0000
     10 ****         1.6690  -2.2510  -0.3212 C.ar           1 S1                 0.0000
     11 ****         2.2494  -1.9053   0.9162 C.ar           1 S1                 0.0000
     12 ****         3.6494  -1.9105   1.0677 C.ar           1 S1                 0.0000
     13 ****         4.4836  -2.2639  -0.0146 C.ar           1 S1                 0.0000
     14 ****         5.9953  -2.2573   0.1589 C.3            1 S1                 0.0000
     15 ****         6.5957  -3.0012  -0.7709 F              1 S1                 0.0000
     16 ****         6.4433  -1.0063   0.0610 F              1 S1                 0.0000
     17 ****         6.3265  -2.7398   1.3569 F              1 S1                 0.0000
     18 ****         3.8992  -2.6042  -1.2546 C.ar           1 S1                 0.0000
     19 ****         2.4989  -2.6003  -1.4063 C.ar           1 S1                 0.0000
     20 ****        -2.3528   1.1399   0.9291 C.2            1 S1                 0.0000
     21 ****        -1.8702   0.5288   1.8848 O.2            1 S1                 0.0000
     22 ****        -2.8786   2.5101   1.0406 C.2            1 S1                 0.0000
     23 ****        -2.8126   3.1662   2.4141 C.3            1 S1                 0.0000
     24 ****        -4.7821   4.6025   0.6606 H              1 S1                 0.0000
     25 ****        -4.3250   4.8237  -1.0271 H              1 S1                 0.0000
     26 ****        -3.1837   5.2462   0.2479 H              1 S1                 0.0000
     27 ****        -2.9547   0.7271  -2.3595 H              1 S1                 0.0000
     28 ****        -2.2360  -1.4140   0.2662 H              1 S1                 0.0000
     29 ****        -2.4289  -1.2424  -1.4354 H              1 S1                 0.0000
     30 ****         0.0680  -0.1262  -0.0489 H              1 S1                 0.0000
     31 ****         0.8552  -0.4784  -2.1632 H              1 S1                 0.0000
     32 ****        -0.2645  -2.6433   0.4382 H              1 S1                 0.0000
     33 ****        -0.1408  -2.9281  -1.2757 H              1 S1                 0.0000
     34 ****         1.6217  -1.6323   1.7521 H              1 S1                 0.0000
     35 ****         4.0828  -1.6397   2.0193 H              1 S1                 0.0000
     36 ****         4.5201  -2.8682  -2.0977 H              1 S1                 0.0000
     37 ****         2.0643  -2.8632  -2.3598 H              1 S1                 0.0000
     38 ****        -1.7786   3.2160   2.7574 H              1 S1                 0.0000
     39 ****        -3.3814   2.5815   3.1379 H              1 S1                 0.0000
     40 ****        -3.2097   4.1799   2.4256 H              1 S1                 0.0000
     41 ****        -3.7996   2.9425  -2.1008 LP             1 S1                 0.0000
     42 ****        -0.4381   0.4430  -2.2659 LP             1 S1                 0.0000
     43 ****        -0.4932  -1.1299  -2.7013 LP             1 S1                 0.0000
     44 ****        -1.5222  -0.4004   1.7599 LP             1 S1                 0.0000
     45 ****        -1.8268   0.9622   2.7849 LP             1 S1                 0.0000
@<TRIPOS>BOND
    1    1    2 1     
    2    1   24 1     
    3    1   25 1     
    4    1   26 1     
    5    2   22 2     
    6    2    3 1     
    7    3    4 2     
    8    4    5 1     
    9    4   27 1     
   10    5    6 1     
   11    5   20 am    
   12    6    7 1     
   13    6   28 1     
   14    6   29 1     
   15    7    8 1     
   16    7    9 1     
   17    7   30 1     
   18    8   31 1     
   19    9   10 1     
   20    9   32 1     
   21    9   33 1     
   22   10   19 ar    
   23   10   11 ar    
   24   11   12 ar    
   25   11   34 1     
   26   12   13 ar    
   27   12   35 1     
   28   13   14 1     
   29   13   18 ar    
   30   14   15 1     
   31   14   16 1     
   32   14   17 1     
   33   18   19 ar    
   34   18   36 1     
   35   19   37 1     
   36   20   21 2     
   37   20   22 1     
   38   22   23 1     
   39   23   38 1     
   40   23   39 1     
   41   23   40 1     
   42    3   41 1     
   43    8   42 1     
   44    8   43 1     
   45   21   44 1     
   46   21   45 1     
@<TRIPOS>SUBSTRUCTURE
      1 S1             1
@<TRIPOS>SET
LONE_PAIRS      STATIC     ATOMS    <user>   **** ""
5 41 42 43 44 45
DONOR_HYDROGENS      STATIC     ATOMS    <user>   **** ""
1 31
ATOM$BLUE        STATIC     ATOMS    COLORGROUP SYSTEM
5 41 42 43 44 45
ATOM$RED        STATIC     ATOMS    COLORGROUP SYSTEM
1 31
