AV-unprocessed.smi:252|AV-procd|sdf|1937|dock10
  -GOLD-   2262021 63D 1   1.00000     0.00000
 Structure written by MMmdl.
 56 59  0  0  0  0  0  0  0  0  1 V2000
  145.3421  134.2638  151.8736 C   0  0  0  0  0  0  0  0  0  0  0  0
  145.9053  135.5433  152.5117 C   0  0  0  0  0  0  0  0  0  0  0  0
  146.5230  135.3135  153.8947 C   0  0  0  0  0  0  0  0  0  0  0  0
  145.8096  135.1420  154.8841 O   0  0  0  0  0  0  0  0  0  0  0  0
  147.8640  135.3211  153.9478 N   0  0  0  0  0  0  0  0  0  0  0  0
  148.6612  135.1311  155.1553 C   0  0  1  0  0  0  0  0  0  0  0  0
  149.3416  133.7505  155.1186 C   0  0  0  0  0  0  0  0  0  0  0  0
  150.2560  133.5664  156.3400 C   0  0  0  0  0  0  0  0  0  0  0  0
  151.2674  134.7187  156.4537 C   0  0  0  0  0  0  0  0  0  0  0  0
  150.5817  136.0115  156.4471 N   0  0  0  0  0  0  0  0  0  0  0  0
  151.2716  137.1009  156.8702 C   0  0  0  0  0  0  0  0  0  0  0  0
  152.4816  136.9476  157.4722 N   0  0  0  0  0  0  0  0  0  0  0  0
  153.1740  138.0167  157.8765 C   0  0  0  0  0  0  0  0  0  0  0  0
  152.8492  139.3071  157.7804 N   0  0  0  0  0  0  0  0  0  0  0  0
  151.6331  139.4679  157.1845 C   0  0  0  0  0  0  0  0  0  0  0  0
  150.7844  138.4287  156.7085 C   0  0  0  0  0  0  0  0  0  0  0  0
  149.6193  138.9742  156.1821 N   0  0  0  0  0  0  0  0  0  0  0  0
  149.7763  140.2613  156.3263 C   0  0  0  0  0  0  0  0  0  0  0  0
  150.9621  140.6471  156.9097 N   0  0  0  0  0  0  0  0  0  0  0  0
  151.3966  142.0090  157.1817 C   0  0  0  0  0  0  0  0  0  0  0  0
  151.4017  142.3635  158.6922 C   0  0  1  0  0  0  0  0  0  0  0  0
  150.0716  142.2561  159.1708 O   0  0  0  0  0  0  0  0  0  0  0  0
  152.2751  141.4369  159.5338 C   0  0  0  0  0  0  0  0  0  0  0  0
  152.6896  142.3224  160.6985 C   0  0  0  0  0  0  0  0  0  0  0  0
  152.9244  143.5675  160.0653 O   0  0  0  0  0  0  0  0  0  0  0  0
  151.9257  143.7783  159.0700 C   0  0  1  0  0  0  0  0  0  0  0  0
  152.5630  144.6049  157.9422 C   0  0  0  0  0  0  0  0  0  0  0  0
  149.7173  136.2466  155.2913 C   0  0  0  0  0  0  0  0  0  0  0  0
  144.9535  134.4705  150.8763 H   0  0  0  0  0  0  0  0  0  0  0  0
  144.5242  133.8496  152.4644 H   0  0  0  0  0  0  0  0  0  0  0  0
  146.1109  133.4963  151.7754 H   0  0  0  0  0  0  0  0  0  0  0  0
  146.6611  135.9708  151.8513 H   0  0  0  0  0  0  0  0  0  0  0  0
  145.1135  136.2869  152.6051 H   0  0  0  0  0  0  0  0  0  0  0  0
  148.3709  135.4712  153.0874 H   0  0  0  0  0  0  0  0  0  0  0  0
  147.9994  135.1630  156.0233 H   0  0  0  0  0  0  0  0  0  0  0  0
  148.5916  132.9590  155.0935 H   0  0  0  0  0  0  0  0  0  0  0  0
  149.9323  133.6511  154.2068 H   0  0  0  0  0  0  0  0  0  0  0  0
  149.6503  133.5247  157.2460 H   0  0  0  0  0  0  0  0  0  0  0  0
  150.7820  132.6137  156.2745 H   0  0  0  0  0  0  0  0  0  0  0  0
  151.8452  134.6034  157.3717 H   0  0  0  0  0  0  0  0  0  0  0  0
  151.9713  134.6809  155.6211 H   0  0  0  0  0  0  0  0  0  0  0  0
  154.1261  137.8083  158.3420 H   0  0  0  0  0  0  0  0  0  0  0  0
  149.0268  140.9695  156.0044 H   0  0  0  0  0  0  0  0  0  0  0  0
  152.3953  142.1225  156.7592 H   0  0  0  0  0  0  0  0  0  0  0  0
  150.7486  142.6921  156.6313 H   0  0  0  0  0  0  0  0  0  0  0  0
  149.5106  142.0214  158.4475 H   0  0  0  0  0  0  0  0  0  0  0  0
  151.7742  140.5196  159.8470 H   0  0  0  0  0  0  0  0  0  0  0  0
  153.1683  141.1539  158.9754 H   0  0  0  0  0  0  0  0  0  0  0  0
  151.8823  142.4222  161.4257 H   0  0  0  0  0  0  0  0  0  0  0  0
  153.5785  141.9571  161.2129 H   0  0  0  0  0  0  0  0  0  0  0  0
  151.1286  144.3720  159.5216 H   0  0  0  0  0  0  0  0  0  0  0  0
  151.8450  144.8198  157.1507 H   0  0  0  0  0  0  0  0  0  0  0  0
  153.4163  144.0903  157.5004 H   0  0  0  0  0  0  0  0  0  0  0  0
  152.9220  145.5609  158.3237 H   0  0  0  0  0  0  0  0  0  0  0  0
  150.3407  136.2805  154.3967 H   0  0  0  0  0  0  0  0  0  0  0  0
  149.2213  137.2142  155.3575 H   0  0  0  0  0  0  0  0  0  0  0  0
  1  2  1  0  0  0  0
  1 29  1  0  0  0  0
  1 30  1  0  0  0  0
  1 31  1  0  0  0  0
  2  3  1  0  0  0  0
  2 32  1  0  0  0  0
  2 33  1  0  0  0  0
  3  4  2  0  0  0  0
  3  5  1  0  0  0  0
  5  6  1  0  0  0  0
  5 34  1  0  0  0  0
  6 28  1  0  0  0  0
  6  7  1  0  0  0  0
  6 35  1  0  0  0  0
  7  8  1  0  0  0  0
  7 36  1  0  0  0  0
  7 37  1  0  0  0  0
  8  9  1  0  0  0  0
  8 38  1  0  0  0  0
  8 39  1  0  0  0  0
  9 10  1  0  0  0  0
  9 40  1  0  0  0  0
  9 41  1  0  0  0  0
 10 11  1  0  0  0  0
 10 28  1  0  0  0  0
 11 16  1  0  0  0  0
 11 12  2  0  0  0  0
 12 13  1  0  0  0  0
 13 14  2  0  0  0  0
 13 42  1  0  0  0  0
 14 15  1  0  0  0  0
 15 19  1  0  0  0  0
 15 16  2  0  0  0  0
 16 17  1  0  0  0  0
 17 18  2  0  0  0  0
 18 19  1  0  0  0  0
 18 43  1  0  0  0  0
 19 20  1  0  0  0  0
 20 21  1  0  0  0  0
 20 44  1  0  0  0  0
 20 45  1  0  0  0  0
 21 26  1  0  0  0  0
 21 22  1  0  0  0  0
 21 23  1  0  0  0  0
 22 46  1  0  0  0  0
 23 24  1  0  0  0  0
 23 47  1  0  0  0  0
 23 48  1  0  0  0  0
 24 25  1  0  0  0  0
 24 49  1  0  0  0  0
 24 50  1  0  0  0  0
 25 26  1  0  0  0  0
 26 27  1  0  0  0  0
 26 51  1  0  0  0  0
 27 52  1  0  0  0  0
 27 53  1  0  0  0  0
 27 54  1  0  0  0  0
 28 55  1  0  0  0  0
 28 56  1  0  0  0  0
M  END
> <s_m_source_file>
AV-unprocessed.smi

> <i_m_source_file_index>
252

> <i_lp_mmshare_version>
43012

> <i_f3d_flags>
0

> <s_epik_input>
W0NIM11bQ0gyXUMoPU8pW05IXVtDQEBIXTFbQ0gyXVtDSDJdW0NIMl1OKFtDSDJdMSljKG5bY0hdbjIpYyhjMjMpbltjSF1uM1tDSDJdW0NAQF00KFtPSF0pW0NIMl1bQ0gyXU9bQ0BIXTRbQ0gzXQ==

> <s_epik_cmdline>
J2VwaWtfcHl0aG9uJywgJy1waCcsICc3LjAnLCAnLXRuJywgJzgnLCAnLW1hJywgJzIwMCcsICctbWV0YWxfYmluZGluZycsICctaW1hZScsICc8aW5maWxlLm1hZT4nLCAnLW9tYWUnLCAnPG91dGZpbGUubWFlPic=

> <r_lp_tautomer_probability>
1

> <r_epik_Ionization_Penalty>
0.00182575

> <r_epik_Ionization_Penalty_Charging>
0

> <r_epik_Ionization_Penalty_Neutral>
0.00182575

> <r_epik_State_Penalty>
0.00104524

> <r_epik_Charging_Adjusted_Penalty>
0.00104524

> <i_epik_Tot_Q>
0

> <i_epik_Tot_abs_Q>
0

> <r_epik_Metal_State_Penalty>
-0

> <b_epik_Metal_Only>
0

> <s_lp_Force_Field>
OPLS_2005

> <r_lp_Energy>
35.3243

> <b_lp_Chiralities_Consistent>
1

> <s_lp_Variant>
AV-unprocessed.smi:252-2

> <Gold.Version>
5.8.1

> <Gold.Id.Protein>
6NUR|6NUR_protein|mol2

> <Gold.PLP.Fitness>
41.2759

> <Gold.PLP.PLP>
-36.6410

> <Gold.PLP.part.hbond>
-2.9350

> <Gold.PLP.part.metal>
0.0000

> <Gold.PLP.part.buried>
-5.4567

> <Gold.PLP.part.nonpolar>
-29.0783

> <Gold.PLP.part.repulsive>
0.0499

> <Gold.PLP.ligand.clash>
0.0000

> <Gold.PLP.ligand.torsion>
0.8763

> <Gold.PLP.Chemscore.Hbond>
1.9913

> <Gold.PLP.Chemscore.CHOScore>
0.0000

> <Gold.PLP.Chemscore.Metal>
0.0000

> <Gold.Chemscore.Hbonds>
donor molecule, donor type, donor heavy atom, donor atom, acceptor molecule, acceptor atom, score
      L1  H     5    34       P1  7948  1.00
      P1  H  7997  8010       L1    14  1.00

> <Gold.PLP.Chemscore.Internal.Correction>
0.4137

> <Gold.Rescore>
     Score         DG    S(hbond)    S(metal)    S(lipo)     H(rot)  DE(clash)    DE(int)     intcor
     12.23     -15.84       1.84        0.00      95.16       2.70       0.08       3.53       ----

> <Gold.Chemscore.Fitness>
12.2301

> <Gold.Chemscore.DG>
-15.8363

> <Gold.Chemscore.ZeroCoef>
-5.4800

> <Gold.Chemscore.Hbond>
1.8399

> <Gold.Chemscore.Metal>
0.0000

> <Gold.Chemscore.Lipo>
95.1593

> <Gold.Chemscore.Internal_Hbond>
0.0000

> <Gold.Chemscore.DEClash>
0.0762

> <Gold.Chemscore.DEInternal>
3.5300

> <Gold.Chemscore.Rot>
2.7041

> <Gold.Chemscore.Internal.Correction>
   9.000000E+99

> <Gold.Chemscore.Hbonds>
donor molecule, donor type, donor heavy atom, donor atom, acceptor molecule, acceptor atom, score
      L1  H     5    34       P1  7948  0.92
      P1  H  7997  8010       L1    14  0.24

> <Gold.Chemscore.Hbond.Weighted>
-6.1452

> <Gold.Chemscore.Metal.Weighted>
-0.0000

> <Gold.Chemscore.Lipo.Weighted>
-11.1336

> <Gold.Chemscore.Internal_Hbond.Weighted>
0.0000

> <Gold.Chemscore.DEClash.Weighted>
0.0762

> <Gold.Chemscore.DEInternal.Weighted>
3.5300

> <Gold.Chemscore.Rot.Weighted>
6.9225

> <Gold.Chemscore.Internal.Correction.Weighted>
   9.000000E+99

> <Gold.Protein.RotatedTorsions>
[ 6907 6896 6895 6894 ] final   25.42 input  -60.11 | X-H torsion
[ 7974 7965 7964 7962 ] final  -40.67 input  175.53 | X-H torsion
[ 8008 7997 7996 7995 ] final   37.40 input   59.86 | X-H torsion
[ 10167 10162 10161 10158 ] final   38.66 input  -65.29 | X-H torsion
[ 10718 10713 10712 10709 ] final -118.78 input   66.30 | X-H torsion
[ 10763 10752 10751 10750 ] final  164.71 input  -60.55 | X-H torsion
[ 11005 11000 10999 10996 ] final  176.66 input  -57.11 | X-H torsion

> <Gold.Protein.ActiveResidues>
 VAL166  LYS551  ARG553  GLY616  TRP617  ASP618  TYR619  PRO620  LYS621  CYS622 
 ASP623  PHE694  ASN695  SER759  ASP760  ASP761  ALA762  ILE779  LEU786  VAL792 
 PHE793  MET794  SER795  GLU796  ALA797  LYS798  CYS799  TRP800  GLU811  SER814 

> <Gold.Protein.RotatedAtoms>
  151.9722  135.0071  160.0553 H   0  0  0  0  0  0  0  0  0  0  0  0  # atno 6907 bound_to 6896
  152.1773  133.4678  159.4948 H   0  0  0  0  0  0  0  0  0  0  0  0  # atno 6908 bound_to 6896
  150.6911  134.1796  159.4286 H   0  0  0  0  0  0  0  0  0  0  0  0  # atno 6909 bound_to 6896
  146.0283  140.6764  142.9145 H   0  0  0  0  0  0  0  0  0  0  0  0  # atno 7974 bound_to 7965
  155.2032  140.3317  155.4340 H   0  0  0  0  0  0  0  0  0  0  0  0  # atno 8008 bound_to 7997
  156.2399  140.1890  156.7067 H   0  0  0  0  0  0  0  0  0  0  0  0  # atno 8009 bound_to 7997
  154.6127  140.0606  156.9501 H   0  0  0  0  0  0  0  0  0  0  0  0  # atno 8010 bound_to 7997
  140.3915  144.1846  150.6131 H   0  0  0  0  0  0  0  0  0  0  0  0  # atno 10167 bound_to 10162
  156.1131  130.6265  150.9333 H   0  0  0  0  0  0  0  0  0  0  0  0  # atno 10718 bound_to 10713
  154.3130  135.2757  155.2557 H   0  0  0  0  0  0  0  0  0  0  0  0  # atno 10763 bound_to 10752
  154.4944  135.5825  153.6486 H   0  0  0  0  0  0  0  0  0  0  0  0  # atno 10764 bound_to 10752
  152.9886  135.6142  154.3308 H   0  0  0  0  0  0  0  0  0  0  0  0  # atno 10765 bound_to 10752
  140.3756  134.6991  157.4419 H   0  0  0  0  0  0  0  0  0  0  0  0  # atno 11005 bound_to 11000
  144.7019  140.3689  143.7149 LP  0  0  0  0  0  0  0  0  0  0  0  0  # atno 17320 bound_to 7965
  145.7082  139.1678  143.2554 LP  0  0  0  0  0  0  0  0  0  0  0  0  # atno 17321 bound_to 7965
  140.4834  143.2371  151.8922 LP  0  0  0  0  0  0  0  0  0  0  0  0  # atno 17342 bound_to 10162
  139.4789  144.5244  151.8755 LP  0  0  0  0  0  0  0  0  0  0  0  0  # atno 17343 bound_to 10162
  157.6314  131.0920  150.8435 LP  0  0  0  0  0  0  0  0  0  0  0  0  # atno 17370 bound_to 10713
  156.8542  130.5091  149.5309 LP  0  0  0  0  0  0  0  0  0  0  0  0  # atno 17371 bound_to 10713
  140.0518  134.6120  155.8853 LP  0  0  0  0  0  0  0  0  0  0  0  0  # atno 17394 bound_to 11000
  141.1940  133.6581  156.5576 LP  0  0  0  0  0  0  0  0  0  0  0  0  # atno 17395 bound_to 11000

$$$$
