AV-unprocessed.smi:2883|AV-procd|sdf|11075|dock1
  -GOLD-   2272015543D 1   1.00000     0.00000
 Structure written by MMmdl.
 40 42  0  0  0  0  0  0  0  0  2 V2000
  151.9437  137.8713  156.8730 C   0  0  0  0  0  0  0  0  0  0  0  0
  151.7305  138.3467  155.4168 C   0  0  0  0  0  0  0  0  0  0  0  0
  153.0759  138.7847  154.8100 C   0  0  0  0  0  0  0  0  0  0  0  0
  151.1827  137.1291  154.6383 C   0  0  0  0  0  0  0  0  0  0  0  0
  150.7413  139.5199  155.3639 C   0  0  0  0  0  0  0  0  0  0  0  0
  149.6757  139.4458  154.5462 N   0  3  0  0  0  0  0  0  0  0  0  0
  148.8551  140.5142  154.3978 C   0  0  0  0  0  0  0  0  0  0  0  0
  149.1277  141.7199  155.0687 C   0  0  0  0  0  0  0  0  0  0  0  0
  150.2785  141.7512  155.8730 C   0  0  0  0  0  0  0  0  0  0  0  0
  150.6154  142.9275  156.5567 N   0  0  0  0  0  0  0  0  0  0  0  0
  151.0893  142.8873  157.9364 C   0  0  2  0  0  0  0  0  0  0  0  0
  150.1902  143.6670  158.9052 C   0  0  0  0  0  0  0  0  0  0  0  0
  151.1831  144.6505  159.5370 C   0  0  1  0  0  0  0  0  0  0  0  0
  152.1976  143.9482  160.4496 C   0  0  0  0  0  0  0  0  0  0  0  0
  153.0991  143.2472  159.4339 C   0  0  0  0  0  0  0  0  0  0  0  0
  152.4295  143.6227  158.1049 C   0  0  2  0  0  0  0  0  0  0  0  0
  151.9945  144.9374  158.4121 O   0  0  0  0  0  0  0  0  0  0  0  0
  151.0691  140.6621  155.9876 N   0  0  0  0  0  0  0  0  0  0  0  0
  152.6145  137.0126  156.9158 H   0  0  0  0  0  0  0  0  0  0  0  0
  151.0022  137.5739  157.3368 H   0  0  0  0  0  0  0  0  0  0  0  0
  152.3875  138.6483  157.4968 H   0  0  0  0  0  0  0  0  0  0  0  0
  153.5023  139.6269  155.3565 H   0  0  0  0  0  0  0  0  0  0  0  0
  152.9607  139.0932  153.7703 H   0  0  0  0  0  0  0  0  0  0  0  0
  153.8059  137.9748  154.8339 H   0  0  0  0  0  0  0  0  0  0  0  0
  151.8625  136.2786  154.7049 H   0  0  0  0  0  0  0  0  0  0  0  0
  151.0540  137.3459  153.5771 H   0  0  0  0  0  0  0  0  0  0  0  0
  150.2175  136.8068  155.0310 H   0  0  0  0  0  0  0  0  0  0  0  0
  148.0117  140.3716  153.7382 H   0  0  0  0  0  0  0  0  0  0  0  0
  148.4853  142.5815  154.9590 H   0  0  0  0  0  0  0  0  0  0  0  0
  150.3621  143.8229  156.1645 H   0  0  0  0  0  0  0  0  0  0  0  0
  151.2008  141.8470  158.2457 H   0  0  0  0  0  0  0  0  0  0  0  0
  149.4068  144.2137  158.3778 H   0  0  0  0  0  0  0  0  0  0  0  0
  149.7124  143.0234  159.6447 H   0  0  0  0  0  0  0  0  0  0  0  0
  150.7131  145.5255  159.9864 H   0  0  0  0  0  0  0  0  0  0  0  0
  152.7684  144.6740  161.0299 H   0  0  0  0  0  0  0  0  0  0  0  0
  151.7193  143.2554  161.1427 H   0  0  0  0  0  0  0  0  0  0  0  0
  154.1121  143.6481  159.4821 H   0  0  0  0  0  0  0  0  0  0  0  0
  153.1520  142.1687  159.5862 H   0  0  0  0  0  0  0  0  0  0  0  0
  153.0978  143.5527  157.2457 H   0  0  0  0  0  0  0  0  0  0  0  0
  149.4754  138.5849  154.0366 H   0  0  0  0  0  0  0  0  0  0  0  0
  1  2  1  0  0  0  0
  1 19  1  0  0  0  0
  1 20  1  0  0  0  0
  1 21  1  0  0  0  0
  2  3  1  0  0  0  0
  2  4  1  0  0  0  0
  2  5  1  0  0  0  0
  3 22  1  0  0  0  0
  3 23  1  0  0  0  0
  3 24  1  0  0  0  0
  4 25  1  0  0  0  0
  4 26  1  0  0  0  0
  4 27  1  0  0  0  0
  5 18  1  0  0  0  0
  5  6  2  0  0  0  0
  6  7  1  0  0  0  0
  6 40  1  0  0  0  0
  7  8  2  0  0  0  0
  7 28  1  0  0  0  0
  8  9  1  0  0  0  0
  8 29  1  0  0  0  0
  9 10  1  0  0  0  0
  9 18  2  0  0  0  0
 10 11  1  0  0  0  0
 10 30  1  0  0  0  0
 11 16  1  0  0  0  0
 11 12  1  0  0  0  0
 11 31  1  0  0  0  0
 12 13  1  0  0  0  0
 12 32  1  0  0  0  0
 12 33  1  0  0  0  0
 13 17  1  0  0  0  0
 13 14  1  0  0  0  0
 13 34  1  0  0  0  0
 14 15  1  0  0  0  0
 14 35  1  0  0  0  0
 14 36  1  0  0  0  0
 15 16  1  0  0  0  0
 15 37  1  0  0  0  0
 15 38  1  0  0  0  0
 16 17  1  0  0  0  0
 16 39  1  0  0  0  0
M  CHG  1   6   1
M  END
> <s_m_source_file>
AV-unprocessed.smi

> <i_m_source_file_index>
2883

> <i_lp_mmshare_version>
43012

> <i_f3d_flags>
0

> <s_epik_input>
W0NIM11DKFtDSDNdKShbQ0gzXSljMW5bY0hdW2NIXWMobjEpW05IXVtDQEhdKFtDSDJdW0NAQEhdMjMpW0NAQEhdKE8zKVtDSDJdW0NIMl0y

> <s_epik_cmdline>
J2VwaWtfcHl0aG9uJywgJy1waCcsICc3LjAnLCAnLXRuJywgJzgnLCAnLW1hJywgJzIwMCcsICctbWV0YWxfYmluZGluZycsICctaW1hZScsICc8aW5maWxlLm1hZT4nLCAnLW9tYWUnLCAnPG91dGZpbGUubWFlPic=

> <r_lp_tautomer_probability>
0.999336

> <r_epik_Ionization_Penalty>
0.371831

> <r_epik_Ionization_Penalty_Charging>
0.371821

> <r_epik_Ionization_Penalty_Neutral>
1.06897e-05

> <r_epik_State_Penalty>
0.369311

> <r_epik_Charging_Adjusted_Penalty>
0.741132

> <i_epik_Tot_Q>
1

> <i_epik_Tot_abs_Q>
1

> <r_epik_Metal_State_Penalty>
0.621338

> <b_epik_Metal_Only>
0

> <s_lp_Force_Field>
OPLS_2005

> <r_lp_Energy>
38.7215

> <b_lp_Chiralities_Consistent>
1

> <s_lp_Variant>
AV-unprocessed.smi:2883-1

> <Gold.Version>
5.8.1

> <Gold.Id.Protein>
6NUR|6NUR_protein|mol2

> <Gold.PLP.Fitness>
40.3694

> <Gold.PLP.PLP>
-38.5400

> <Gold.PLP.part.hbond>
-1.0190

> <Gold.PLP.part.metal>
0.0000

> <Gold.PLP.part.buried>
-4.0703

> <Gold.PLP.part.nonpolar>
-34.9024

> <Gold.PLP.part.repulsive>
0.2623

> <Gold.PLP.ligand.clash>
0.0000

> <Gold.PLP.ligand.torsion>
0.4615

> <Gold.PLP.Chemscore.Hbond>
0.8640

> <Gold.PLP.Chemscore.CHOScore>
0.0000

> <Gold.PLP.Chemscore.Metal>
0.0000

> <Gold.Chemscore.Hbonds>
donor molecule, donor type, donor heavy atom, donor atom, acceptor molecule, acceptor atom, score
      L1  H    10    30       P1  8028  0.82

> <Gold.PLP.Chemscore.Internal.Correction>
0.1605

> <Gold.Rescore>
     Score         DG    S(hbond)    S(metal)    S(lipo)     H(rot)  DE(clash)    DE(int)     intcor
     17.41     -18.18       0.95        0.00     106.91       1.16       0.13       0.64       ----

> <Gold.Chemscore.Fitness>
17.4094

> <Gold.Chemscore.DG>
-18.1778

> <Gold.Chemscore.ZeroCoef>
-5.4800

> <Gold.Chemscore.Hbond>
0.9478

> <Gold.Chemscore.Metal>
0.0000

> <Gold.Chemscore.Lipo>
106.9107

> <Gold.Chemscore.Internal_Hbond>
0.0000

> <Gold.Chemscore.DEClash>
0.1307

> <Gold.Chemscore.DEInternal>
0.6377

> <Gold.Chemscore.Rot>
1.1626

> <Gold.Chemscore.Internal.Correction>
   9.000000E+99

> <Gold.Chemscore.Hbonds>
donor molecule, donor type, donor heavy atom, donor atom, acceptor molecule, acceptor atom, score
      L1  H    10    30       P1  8028  0.80

> <Gold.Chemscore.Hbond.Weighted>
-3.1655

> <Gold.Chemscore.Metal.Weighted>
-0.0000

> <Gold.Chemscore.Lipo.Weighted>
-12.5086

> <Gold.Chemscore.Internal_Hbond.Weighted>
0.0000

> <Gold.Chemscore.DEClash.Weighted>
0.1307

> <Gold.Chemscore.DEInternal.Weighted>
0.6377

> <Gold.Chemscore.Rot.Weighted>
2.9763

> <Gold.Chemscore.Internal.Correction.Weighted>
   9.000000E+99

> <Gold.Protein.RotatedTorsions>
[ 6907 6896 6895 6894 ] final  -90.61 input  -60.11 | X-H torsion
[ 7974 7965 7964 7962 ] final   46.27 input  175.53 | X-H torsion
[ 8008 7997 7996 7995 ] final   36.22 input   59.86 | X-H torsion
[ 10167 10162 10161 10158 ] final  130.53 input  -65.29 | X-H torsion
[ 10718 10713 10712 10709 ] final -177.48 input   66.30 | X-H torsion
[ 10763 10752 10751 10750 ] final  -61.84 input  -60.55 | X-H torsion
[ 11005 11000 10999 10996 ] final  138.37 input  -57.11 | X-H torsion

> <Gold.Protein.ActiveResidues>
 VAL166  LYS551  ARG553  GLY616  TRP617  ASP618  TYR619  PRO620  LYS621  CYS622 
 ASP623  PHE694  ASN695  SER759  ASP760  ASP761  ALA762  ILE779  LEU786  VAL792 
 PHE793  MET794  SER795  GLU796  ALA797  LYS798  CYS799  TRP800  GLU811  SER814 

> <Gold.Protein.RotatedAtoms>
  150.6883  134.2405  159.4470 H   0  0  0  0  0  0  0  0  0  0  0  0  # atno 6907 bound_to 6896
  152.0349  134.9743  160.0582 H   0  0  0  0  0  0  0  0  0  0  0  0  # atno 6908 bound_to 6896
  152.1268  133.4350  159.4738 H   0  0  0  0  0  0  0  0  0  0  0  0  # atno 6909 bound_to 6896
  146.0405  139.4874  142.9781 H   0  0  0  0  0  0  0  0  0  0  0  0  # atno 7974 bound_to 7965
  155.1838  140.3302  155.4370 H   0  0  0  0  0  0  0  0  0  0  0  0  # atno 8008 bound_to 7997
  156.2467  140.1922  156.6885 H   0  0  0  0  0  0  0  0  0  0  0  0  # atno 8009 bound_to 7997
  154.6253  140.0590  156.9651 H   0  0  0  0  0  0  0  0  0  0  0  0  # atno 8010 bound_to 7997
  139.5426  144.6744  151.4576 H   0  0  0  0  0  0  0  0  0  0  0  0  # atno 10167 bound_to 10162
  156.8301  130.9650  151.3107 H   0  0  0  0  0  0  0  0  0  0  0  0  # atno 10718 bound_to 10713
  154.2907  135.6254  153.5384 H   0  0  0  0  0  0  0  0  0  0  0  0  # atno 10763 bound_to 10752
  152.9853  135.5655  154.5393 H   0  0  0  0  0  0  0  0  0  0  0  0  # atno 10764 bound_to 10752
  154.5003  135.2871  155.1401 H   0  0  0  0  0  0  0  0  0  0  0  0  # atno 10765 bound_to 10752
  140.0179  134.9410  157.0414 H   0  0  0  0  0  0  0  0  0  0  0  0  # atno 11005 bound_to 11000
  145.6893  141.0169  143.1564 LP  0  0  0  0  0  0  0  0  0  0  0  0  # atno 17320 bound_to 7965
  144.7072  139.8513  143.7426 LP  0  0  0  0  0  0  0  0  0  0  0  0  # atno 17321 bound_to 7965
  140.6662  143.8393  150.6944 LP  0  0  0  0  0  0  0  0  0  0  0  0  # atno 17342 bound_to 10162
  140.1803  143.4120  152.1937 LP  0  0  0  0  0  0  0  0  0  0  0  0  # atno 17343 bound_to 10162
  157.6411  130.8806  149.9451 LP  0  0  0  0  0  0  0  0  0  0  0  0  # atno 17370 bound_to 10713
  156.0939  130.3661  150.0343 LP  0  0  0  0  0  0  0  0  0  0  0  0  # atno 17371 bound_to 10713
  140.4439  134.1653  155.7176 LP  0  0  0  0  0  0  0  0  0  0  0  0  # atno 17394 bound_to 11000
  141.1755  133.8523  157.1436 LP  0  0  0  0  0  0  0  0  0  0  0  0  # atno 17395 bound_to 11000

$$$$
