AV-unprocessed.smi:34|AV-procd|sdf|232|dock9
  -GOLD-   2262015563D 1   1.00000     0.00000
 Structure written by MMmdl.
 54 58  0  0  0  0  0  0  0  0  2 V2000
  152.9263  140.3027  158.0938 O   0  0  0  0  0  0  0  0  0  0  0  0
  151.9547  140.9577  157.7105 C   0  0  0  0  0  0  0  0  0  0  0  0
  151.0655  140.6361  156.7366 N   0  5  0  0  0  0  0  0  0  0  0  0
  151.2118  139.4952  156.0455 C   0  0  0  0  0  0  0  0  0  0  0  0
  151.6374  139.5247  154.7568 N   0  0  0  0  0  0  0  0  0  0  0  0
  151.7771  138.3879  154.0654 C   0  0  0  0  0  0  0  0  0  0  0  0
  151.5457  137.1328  154.4600 N   0  0  0  0  0  0  0  0  0  0  0  0
  151.1091  137.0868  155.7518 C   0  0  0  0  0  0  0  0  0  0  0  0
  150.9167  138.2181  156.5980 C   0  0  0  0  0  0  0  0  0  0  0  0
  150.4635  137.8263  157.8491 N   0  0  0  0  0  0  0  0  0  0  0  0
  150.4060  136.5039  157.7117 C   0  0  0  0  0  0  0  0  0  0  0  0
  150.7676  135.9843  156.5220 N   0  0  0  0  0  0  0  0  0  0  0  0
  150.7863  134.5343  156.1472 C   0  0  1  0  0  0  0  0  0  0  0  0
  150.2133  133.7713  157.1692 O   0  0  0  0  0  0  0  0  0  0  0  0
  149.3469  132.7638  156.6376 C   0  0  1  0  0  0  0  0  0  0  0  0
  147.8969  133.1009  157.0212 C   0  0  0  0  0  0  0  0  0  0  0  0
  147.9003  133.8617  158.2182 O   0  0  0  0  0  0  0  0  0  0  0  0
  148.2066  133.2744  159.3913 C   0  0  0  0  0  0  0  0  0  0  0  0
  148.5974  132.1094  159.4911 O   0  0  0  0  0  0  0  0  0  0  0  0
  148.0195  134.1819  160.5598 C   0  0  0  0  0  0  0  0  0  0  0  0
  148.0370  135.5820  160.3597 C   0  0  0  0  0  0  0  0  0  0  0  0
  147.8677  136.4637  161.4449 C   0  0  0  0  0  0  0  0  0  0  0  0
  147.6809  135.9560  162.7438 C   0  0  0  0  0  0  0  0  0  0  0  0
  147.6623  134.5651  162.9561 C   0  0  0  0  0  0  0  0  0  0  0  0
  147.8303  133.6818  161.8719 C   0  0  0  0  0  0  0  0  0  0  0  0
  149.6102  132.7958  155.1283 C   0  0  1  0  0  0  0  0  0  0  0  0
  148.6014  132.3662  154.3679 F   0  0  0  0  0  0  0  0  0  0  0  0
  150.0162  134.2319  154.8552 C   0  0  1  0  0  0  0  0  0  0  0  0
  148.9034  135.0843  154.6478 O   0  0  0  0  0  0  0  0  0  0  0  0
  151.7098  142.3143  158.3165 C   0  0  0  0  0  0  0  0  0  0  0  0
  152.7878  143.0338  158.8815 C   0  0  0  0  0  0  0  0  0  0  0  0
  152.5757  144.2929  159.4764 C   0  0  0  0  0  0  0  0  0  0  0  0
  151.2810  144.8423  159.5220 C   0  0  0  0  0  0  0  0  0  0  0  0
  150.1974  144.1297  158.9754 C   0  0  0  0  0  0  0  0  0  0  0  0
  150.4086  142.8707  158.3800 C   0  0  0  0  0  0  0  0  0  0  0  0
  152.1236  138.4990  153.0486 H   0  0  0  0  0  0  0  0  0  0  0  0
  150.0844  135.8734  158.5276 H   0  0  0  0  0  0  0  0  0  0  0  0
  151.8441  134.2785  156.0711 H   0  0  0  0  0  0  0  0  0  0  0  0
  149.6136  131.7883  157.0457 H   0  0  0  0  0  0  0  0  0  0  0  0
  147.4026  133.6484  156.2191 H   0  0  0  0  0  0  0  0  0  0  0  0
  147.3275  132.1860  157.1885 H   0  0  0  0  0  0  0  0  0  0  0  0
  148.1812  135.9946  159.3716 H   0  0  0  0  0  0  0  0  0  0  0  0
  147.8824  137.5308  161.2799 H   0  0  0  0  0  0  0  0  0  0  0  0
  147.5530  136.6319  163.5761 H   0  0  0  0  0  0  0  0  0  0  0  0
  147.5198  134.1741  163.9528 H   0  0  0  0  0  0  0  0  0  0  0  0
  147.8141  132.6200  162.0699 H   0  0  0  0  0  0  0  0  0  0  0  0
  150.4563  132.1439  154.9066 H   0  0  0  0  0  0  0  0  0  0  0  0
  150.6843  134.3160  153.9975 H   0  0  0  0  0  0  0  0  0  0  0  0
  148.8629  135.3100  153.7308 H   0  0  0  0  0  0  0  0  0  0  0  0
  153.7877  142.6252  158.8575 H   0  0  0  0  0  0  0  0  0  0  0  0
  153.4075  144.8362  159.8996 H   0  0  0  0  0  0  0  0  0  0  0  0
  151.1182  145.8072  159.9788 H   0  0  0  0  0  0  0  0  0  0  0  0
  149.2020  144.5464  159.0154 H   0  0  0  0  0  0  0  0  0  0  0  0
  149.5610  142.3361  157.9761 H   0  0  0  0  0  0  0  0  0  0  0  0
  1  2  2  0  0  0  0
  2  3  1  0  0  0  0
  2 30  1  0  0  0  0
  3  4  1  0  0  0  0
  4  9  1  0  0  0  0
  4  5  2  0  0  0  0
  5  6  1  0  0  0  0
  6  7  2  0  0  0  0
  6 36  1  0  0  0  0
  7  8  1  0  0  0  0
  8 12  1  0  0  0  0
  8  9  2  0  0  0  0
  9 10  1  0  0  0  0
 10 11  2  0  0  0  0
 11 12  1  0  0  0  0
 11 37  1  0  0  0  0
 12 13  1  0  0  0  0
 13 28  1  0  0  0  0
 13 14  1  0  0  0  0
 13 38  1  0  0  0  0
 14 15  1  0  0  0  0
 15 16  1  0  0  0  0
 15 26  1  0  0  0  0
 15 39  1  0  0  0  0
 16 17  1  0  0  0  0
 16 40  1  0  0  0  0
 16 41  1  0  0  0  0
 17 18  1  0  0  0  0
 18 19  2  0  0  0  0
 18 20  1  0  0  0  0
 20 25  1  0  0  0  0
 20 21  2  0  0  0  0
 21 22  1  0  0  0  0
 21 42  1  0  0  0  0
 22 23  2  0  0  0  0
 22 43  1  0  0  0  0
 23 24  1  0  0  0  0
 23 44  1  0  0  0  0
 24 25  2  0  0  0  0
 24 45  1  0  0  0  0
 25 46  1  0  0  0  0
 26 27  1  0  0  0  0
 26 28  1  0  0  0  0
 26 47  1  0  0  0  0
 28 29  1  0  0  0  0
 28 48  1  0  0  0  0
 29 49  1  0  0  0  0
 30 35  1  0  0  0  0
 30 31  2  0  0  0  0
 31 32  1  0  0  0  0
 31 50  1  0  0  0  0
 32 33  2  0  0  0  0
 32 51  1  0  0  0  0
 33 34  1  0  0  0  0
 33 52  1  0  0  0  0
 34 35  2  0  0  0  0
 34 53  1  0  0  0  0
 35 54  1  0  0  0  0
M  CHG  1   3  -1
M  END
> <s_m_source_file>
AV-unprocessed.smi

> <i_m_source_file_index>
34

> <i_lp_mmshare_version>
43012

> <i_f3d_flags>
0

> <s_epik_input>
W2NIXTFbY0hdW2NIXVtjSF1bY0hdYzFDKD1PKVtOSF1jKG5bY0hdbjIpYyhjMjMpbltjSF1uM1tDQEBIXTRPW0NASF0oW0NAQEhdKEYpW0NASF00W09IXSlbQ0gyXU9DKD1PKWM1W2NIXVtjSF1bY0hdW2NIXVtjSF01

> <s_epik_cmdline>
J2VwaWtfcHl0aG9uJywgJy1waCcsICc3LjAnLCAnLXRuJywgJzgnLCAnLW1hJywgJzIwMCcsICctbWV0YWxfYmluZGluZycsICctaW1hZScsICc8aW5maWxlLm1hZT4nLCAnLW9tYWUnLCAnPG91dGZpbGUubWFlPic=

> <r_lp_tautomer_probability>
1

> <r_epik_Ionization_Penalty>
4.33227

> <r_epik_Ionization_Penalty_Charging>
3.41027

> <r_epik_Ionization_Penalty_Neutral>
0.922001

> <r_epik_State_Penalty>
3.41358

> <r_epik_Charging_Adjusted_Penalty>
6.82385

> <i_epik_Tot_Q>
-1

> <i_epik_Tot_abs_Q>
1

> <r_epik_Metal_State_Penalty>
0.496292

> <b_epik_Metal_Only>
1

> <s_epik_Chemistry_Notes>
This compound has an ester and may undergo hydrolysis at high or low pH. This compound contains an acetal/aminal-like group ( X-CH(R)-Y where X, Y are N, S, or O) that may be acid/base labile, releasing an aldehyde.

> <s_lp_Force_Field>
OPLS_2005

> <r_lp_Energy>
54.2336

> <b_lp_Chiralities_Consistent>
1

> <s_lp_Variant>
AV-unprocessed.smi:34-18

> <Gold.Version>
5.8.1

> <Gold.Id.Protein>
6NUR|6NUR_protein|mol2

> <Gold.PLP.Fitness>
71.2654

> <Gold.PLP.PLP>
-60.5858

> <Gold.PLP.part.hbond>
-5.0000

> <Gold.PLP.part.metal>
0.0000

> <Gold.PLP.part.buried>
-9.2981

> <Gold.PLP.part.nonpolar>
-46.4913

> <Gold.PLP.part.repulsive>
0.1948

> <Gold.PLP.ligand.clash>
0.0000

> <Gold.PLP.ligand.torsion>
1.8644

> <Gold.PLP.Chemscore.Hbond>
4.6261

> <Gold.PLP.Chemscore.CHOScore>
0.0000

> <Gold.PLP.Chemscore.Metal>
0.0000

> <Gold.Chemscore.Hbonds>
donor molecule, donor type, donor heavy atom, donor atom, acceptor molecule, acceptor atom, score
      L1  H    29    49       P1  7948  0.93
      P1  H  6896  6908       L1    14  0.62
      P1  H  7989  7998       L1     5  1.00
      P1  H  7997  8009       L1     1  0.91
      P1  H 10752 10763       L1     7  0.98

> <Gold.PLP.Chemscore.Internal.Correction>
0.5302

> <Gold.Rescore>
     Score         DG    S(hbond)    S(metal)    S(lipo)     H(rot)  DE(clash)    DE(int)     intcor
     21.56     -25.34       3.40        0.00     131.76       2.69       0.04       3.74       ----

> <Gold.Chemscore.Fitness>
21.5605

> <Gold.Chemscore.DG>
-25.3430

> <Gold.Chemscore.ZeroCoef>
-5.4800

> <Gold.Chemscore.Hbond>
3.3966

> <Gold.Chemscore.Metal>
0.0000

> <Gold.Chemscore.Lipo>
131.7581

> <Gold.Chemscore.Internal_Hbond>
0.0000

> <Gold.Chemscore.DEClash>
0.0436

> <Gold.Chemscore.DEInternal>
3.7389

> <Gold.Chemscore.Rot>
2.6944

> <Gold.Chemscore.Internal.Correction>
   9.000000E+99

> <Gold.Chemscore.Hbonds>
donor molecule, donor type, donor heavy atom, donor atom, acceptor molecule, acceptor atom, score
      L1  H    29    49       P1  7948  0.69
      P1  H  6896  6908       L1    14  0.58
      P1  H  7989  7998       L1     5  0.49
      P1  H  7997  8009       L1     1  0.85
      P1  H 10752 10763       L1     7  0.32

> <Gold.Chemscore.Hbond.Weighted>
-11.3448

> <Gold.Chemscore.Metal.Weighted>
-0.0000

> <Gold.Chemscore.Lipo.Weighted>
-15.4157

> <Gold.Chemscore.Internal_Hbond.Weighted>
0.0000

> <Gold.Chemscore.DEClash.Weighted>
0.0436

> <Gold.Chemscore.DEInternal.Weighted>
3.7389

> <Gold.Chemscore.Rot.Weighted>
6.8975

> <Gold.Chemscore.Internal.Correction.Weighted>
   9.000000E+99

> <Gold.Protein.RotatedTorsions>
[ 6907 6896 6895 6894 ] final  111.92 input  -60.11 | X-H torsion
[ 7974 7965 7964 7962 ] final   73.76 input  175.53 | X-H torsion
[ 8008 7997 7996 7995 ] final  156.01 input   59.86 | X-H torsion
[ 10167 10162 10161 10158 ] final -126.52 input  -65.29 | X-H torsion
[ 10718 10713 10712 10709 ] final   44.89 input   66.30 | X-H torsion
[ 10763 10752 10751 10750 ] final   51.18 input  -60.55 | X-H torsion
[ 11005 11000 10999 10996 ] final -136.70 input  -57.11 | X-H torsion

> <Gold.Protein.ActiveResidues>
 VAL166  LYS551  ARG553  GLY616  TRP617  ASP618  TYR619  PRO620  LYS621  CYS622 
 ASP623  PHE694  ASN695  SER759  ASP760  ASP761  ALA762  ILE779  LEU786  VAL792 
 PHE793  MET794  SER795  GLU796  ALA797  LYS798  CYS799  TRP800  GLU811  SER814 

> <Gold.Protein.RotatedAtoms>
  152.4944  133.8590  159.7239 H   0  0  0  0  0  0  0  0  0  0  0  0  # atno 6907 bound_to 6896
  150.9106  133.6993  159.2862 H   0  0  0  0  0  0  0  0  0  0  0  0  # atno 6908 bound_to 6896
  151.4403  135.1024  159.9720 H   0  0  0  0  0  0  0  0  0  0  0  0  # atno 6909 bound_to 6896
  145.7368  139.2705  143.1509 H   0  0  0  0  0  0  0  0  0  0  0  0  # atno 7974 bound_to 7965
  156.2446  140.1924  156.6890 H   0  0  0  0  0  0  0  0  0  0  0  0  # atno 8008 bound_to 7997
  154.6266  140.0601  156.9707 H   0  0  0  0  0  0  0  0  0  0  0  0  # atno 8009 bound_to 7997
  155.1777  140.3273  155.4383 H   0  0  0  0  0  0  0  0  0  0  0  0  # atno 8010 bound_to 7997
  139.9706  143.5849  152.2414 H   0  0  0  0  0  0  0  0  0  0  0  0  # atno 10167 bound_to 10162
  157.4316  130.8028  149.7609 H   0  0  0  0  0  0  0  0  0  0  0  0  # atno 10718 bound_to 10713
  152.9785  135.5854  154.4374 H   0  0  0  0  0  0  0  0  0  0  0  0  # atno 10763 bound_to 10752
  154.3979  135.2768  155.2116 H   0  0  0  0  0  0  0  0  0  0  0  0  # atno 10764 bound_to 10752
  154.3960  135.6114  153.5924 H   0  0  0  0  0  0  0  0  0  0  0  0  # atno 10765 bound_to 10752
  140.8781  134.1967  157.4609 H   0  0  0  0  0  0  0  0  0  0  0  0  # atno 11005 bound_to 11000
  146.0485  140.8093  142.9793 LP  0  0  0  0  0  0  0  0  0  0  0  0  # atno 17320 bound_to 7965
  144.6880  140.3017  143.7262 LP  0  0  0  0  0  0  0  0  0  0  0  0  # atno 17321 bound_to 7965
  139.6484  144.7659  151.2197 LP  0  0  0  0  0  0  0  0  0  0  0  0  # atno 17342 bound_to 10162
  140.7523  143.6201  150.8521 LP  0  0  0  0  0  0  0  0  0  0  0  0  # atno 17343 bound_to 10162
  155.9915  130.3937  150.2980 LP  0  0  0  0  0  0  0  0  0  0  0  0  # atno 17370 bound_to 10713
  157.1137  131.0228  151.3037 LP  0  0  0  0  0  0  0  0  0  0  0  0  # atno 17371 bound_to 10713
  139.8717  134.9804  156.5077 LP  0  0  0  0  0  0  0  0  0  0  0  0  # atno 17394 bound_to 11000
  140.8494  133.8143  155.9154 LP  0  0  0  0  0  0  0  0  0  0  0  0  # atno 17395 bound_to 11000

$$$$
