AV-unprocessed.smi:2290|AV-procd|sdf|9210|dock1
  -GOLD-   2272012423D 1   1.00000     0.00000
 Structure written by MMmdl.
 38 39  0  0  0  0  0  0  0  0  1 V2000
  152.4260  143.4804  161.5080 C   0  0  0  0  0  0  0  0  0  0  0  0
  152.0650  143.0208  160.1065 C   0  0  0  0  0  0  0  0  0  0  0  0
  151.1668  143.8391  159.4152 N   0  0  0  0  0  0  0  0  0  0  0  0
  150.8026  143.5268  158.2147 C   0  0  0  0  0  0  0  0  0  0  0  0
  151.2874  142.3756  157.5728 N   0  0  0  0  0  0  0  0  0  0  0  0
  150.8010  142.1391  156.2037 C   0  0  0  0  0  0  0  0  0  0  0  0
  150.1207  140.7595  156.0554 C   0  0  2  0  0  0  0  0  0  0  0  0
  150.7666  139.9913  155.0599 O   0  0  0  0  0  0  0  0  0  0  0  0
  148.6334  140.8624  155.6794 C   0  0  0  0  0  0  0  0  0  0  0  0
  148.4809  141.6342  154.4939 O   0  0  0  0  0  0  0  0  0  0  0  0
  147.2594  141.4029  153.8052 C   0  0  0  0  0  0  0  0  0  0  0  0
  146.2140  142.3284  154.3478 C   0  0  0  0  0  0  0  0  0  0  0  0
  145.6651  142.3133  155.6048 C   0  0  0  0  0  0  0  0  0  0  0  0
  144.6791  143.3247  155.8007 C   0  0  0  0  0  0  0  0  0  0  0  0
  144.4803  144.0955  154.6866 C   0  0  0  0  0  0  0  0  0  0  0  0
  145.5010  143.5895  153.3686 S   0  0  0  0  0  0  0  0  0  0  0  0
  152.1702  141.5257  158.1730 C   0  0  0  0  0  0  0  0  0  0  0  0
  152.5984  140.5245  157.5953 O   0  0  0  0  0  0  0  0  0  0  0  0
  152.5726  141.8918  159.5406 C   0  0  0  0  0  0  0  0  0  0  0  0
  153.5539  140.9628  160.2447 C   0  0  0  0  0  0  0  0  0  0  0  0
  152.1482  142.7241  162.2426 H   0  0  0  0  0  0  0  0  0  0  0  0
  151.9085  144.4048  161.7683 H   0  0  0  0  0  0  0  0  0  0  0  0
  153.4978  143.6654  161.5847 H   0  0  0  0  0  0  0  0  0  0  0  0
  150.1078  144.1330  157.6309 H   0  0  0  0  0  0  0  0  0  0  0  0
  150.0821  142.9224  155.9565 H   0  0  0  0  0  0  0  0  0  0  0  0
  151.5911  142.2581  155.4594 H   0  0  0  0  0  0  0  0  0  0  0  0
  150.1875  140.2008  156.9897 H   0  0  0  0  0  0  0  0  0  0  0  0
  150.3995  139.1207  155.0658 H   0  0  0  0  0  0  0  0  0  0  0  0
  148.1935  139.8715  155.5545 H   0  0  0  0  0  0  0  0  0  0  0  0
  148.1001  141.3446  156.4997 H   0  0  0  0  0  0  0  0  0  0  0  0
  147.4149  141.6148  152.7473 H   0  0  0  0  0  0  0  0  0  0  0  0
  146.9510  140.3591  153.8809 H   0  0  0  0  0  0  0  0  0  0  0  0
  145.9370  141.6186  156.3857 H   0  0  0  0  0  0  0  0  0  0  0  0
  144.1564  143.4482  156.7377 H   0  0  0  0  0  0  0  0  0  0  0  0
  143.7975  144.9225  154.5585 H   0  0  0  0  0  0  0  0  0  0  0  0
  154.4838  140.8999  159.6785 H   0  0  0  0  0  0  0  0  0  0  0  0
  153.1339  139.9591  160.3183 H   0  0  0  0  0  0  0  0  0  0  0  0
  153.8056  141.2872  161.2531 H   0  0  0  0  0  0  0  0  0  0  0  0
  1  2  1  0  0  0  0
  1 21  1  0  0  0  0
  1 22  1  0  0  0  0
  1 23  1  0  0  0  0
  2 19  2  0  0  0  0
  2  3  1  0  0  0  0
  3  4  2  0  0  0  0
  4  5  1  0  0  0  0
  4 24  1  0  0  0  0
  5  6  1  0  0  0  0
  5 17  1  0  0  0  0
  6  7  1  0  0  0  0
  6 25  1  0  0  0  0
  6 26  1  0  0  0  0
  7  8  1  0  0  0  0
  7  9  1  0  0  0  0
  7 27  1  0  0  0  0
  8 28  1  0  0  0  0
  9 10  1  0  0  0  0
  9 29  1  0  0  0  0
  9 30  1  0  0  0  0
 10 11  1  0  0  0  0
 11 12  1  0  0  0  0
 11 31  1  0  0  0  0
 11 32  1  0  0  0  0
 12 16  1  0  0  0  0
 12 13  2  0  0  0  0
 13 14  1  0  0  0  0
 13 33  1  0  0  0  0
 14 15  2  0  0  0  0
 14 34  1  0  0  0  0
 15 16  1  0  0  0  0
 15 35  1  0  0  0  0
 17 18  2  0  0  0  0
 17 19  1  0  0  0  0
 19 20  1  0  0  0  0
 20 36  1  0  0  0  0
 20 37  1  0  0  0  0
 20 38  1  0  0  0  0
M  END
> <s_m_source_file>
AV-unprocessed.smi

> <i_m_source_file_index>
2290

> <i_lp_mmshare_version>
43012

> <i_f3d_flags>
0

> <s_epik_input>
W0NIM11jMW5bY0hdbihjKD1PKWMxW0NIM10pW0NIMl1bQ0BIXShbT0hdKVtDSDJdT1tDSDJdYzJbY0hdW2NIXVtjSF1zMg==

> <s_epik_cmdline>
J2VwaWtfcHl0aG9uJywgJy1waCcsICc3LjAnLCAnLXRuJywgJzgnLCAnLW1hJywgJzIwMCcsICctbWV0YWxfYmluZGluZycsICctaW1hZScsICc8aW5maWxlLm1hZT4nLCAnLW9tYWUnLCAnPG91dGZpbGUubWFlPic=

> <r_lp_tautomer_probability>
1

> <r_epik_Ionization_Penalty>
4.77825e-05

> <r_epik_Ionization_Penalty_Charging>
1.20754e-07

> <r_epik_Ionization_Penalty_Neutral>
4.76618e-05

> <r_epik_State_Penalty>
-0

> <r_epik_Charging_Adjusted_Penalty>
1.20754e-07

> <i_epik_Tot_Q>
0

> <i_epik_Tot_abs_Q>
0

> <r_epik_Metal_State_Penalty>
-0

> <b_epik_Metal_Only>
0

> <s_lp_Force_Field>
OPLS_2005

> <r_lp_Energy>
18.6865

> <b_lp_Chiralities_Consistent>
1

> <s_lp_Variant>
AV-unprocessed.smi:2290-1

> <Gold.Version>
5.8.1

> <Gold.Id.Protein>
6NUR|6NUR_protein|mol2

> <Gold.PLP.Fitness>
49.7429

> <Gold.PLP.PLP>
-43.0471

> <Gold.PLP.part.hbond>
-2.1773

> <Gold.PLP.part.metal>
0.0000

> <Gold.PLP.part.buried>
-7.3777

> <Gold.PLP.part.nonpolar>
-33.8968

> <Gold.PLP.part.repulsive>
0.1998

> <Gold.PLP.ligand.clash>
0.0000

> <Gold.PLP.ligand.torsion>
1.0911

> <Gold.PLP.Chemscore.Hbond>
1.9120

> <Gold.PLP.Chemscore.CHOScore>
1.0000

> <Gold.PLP.Chemscore.Metal>
0.0000

> <Gold.Chemscore.Hbonds>
donor molecule, donor type, donor heavy atom, donor atom, acceptor molecule, acceptor atom, score
      P1  H  7989  7998       L1     8  1.00
      P1  H  7997  8008       L1    18  0.80
      L1  C     4    24       P1  8028  1.00
      L1  C     4    24       P1  8029  0.01

> <Gold.PLP.Chemscore.Internal.Correction>
0.1420

> <Gold.Rescore>
     Score         DG    S(hbond)    S(metal)    S(lipo)     H(rot)  DE(clash)    DE(int)     intcor
     14.12     -16.15       1.84        0.00      94.42       2.55       0.05       1.98       ----

> <Gold.Chemscore.Fitness>
14.1212

> <Gold.Chemscore.DG>
-16.1465

> <Gold.Chemscore.ZeroCoef>
-5.4800

> <Gold.Chemscore.Hbond>
1.8410

> <Gold.Chemscore.Metal>
0.0000

> <Gold.Chemscore.Lipo>
94.4226

> <Gold.Chemscore.Internal_Hbond>
0.0000

> <Gold.Chemscore.DEClash>
0.0473

> <Gold.Chemscore.DEInternal>
1.9780

> <Gold.Chemscore.Rot>
2.5507

> <Gold.Chemscore.Internal.Correction>
   9.000000E+99

> <Gold.Chemscore.Hbonds>
donor molecule, donor type, donor heavy atom, donor atom, acceptor molecule, acceptor atom, score
      P1  H  7989  7998       L1     8  0.95
      P1  H  7997  8008       L1    18  0.76

> <Gold.Chemscore.Hbond.Weighted>
-6.1489

> <Gold.Chemscore.Metal.Weighted>
-0.0000

> <Gold.Chemscore.Lipo.Weighted>
-11.0474

> <Gold.Chemscore.Internal_Hbond.Weighted>
0.0000

> <Gold.Chemscore.DEClash.Weighted>
0.0473

> <Gold.Chemscore.DEInternal.Weighted>
1.9780

> <Gold.Chemscore.Rot.Weighted>
6.5298

> <Gold.Chemscore.Internal.Correction.Weighted>
   9.000000E+99

> <Gold.Protein.RotatedTorsions>
[ 6907 6896 6895 6894 ] final -177.58 input  -60.11 | X-H torsion
[ 7974 7965 7964 7962 ] final -140.03 input  175.53 | X-H torsion
[ 8008 7997 7996 7995 ] final  -63.36 input   59.86 | X-H torsion
[ 10167 10162 10161 10158 ] final  -65.65 input  -65.29 | X-H torsion
[ 10718 10713 10712 10709 ] final  144.71 input   66.30 | X-H torsion
[ 10763 10752 10751 10750 ] final  136.39 input  -60.55 | X-H torsion
[ 11005 11000 10999 10996 ] final  147.02 input  -57.11 | X-H torsion

> <Gold.Protein.ActiveResidues>
 VAL166  LYS551  ARG553  GLY616  TRP617  ASP618  TYR619  PRO620  LYS621  CYS622 
 ASP623  PHE694  ASN695  SER759  ASP760  ASP761  ALA762  ILE779  LEU786  VAL792 
 PHE793  MET794  SER795  GLU796  ALA797  LYS798  CYS799  TRP800  GLU811  SER814 

> <Gold.Protein.RotatedAtoms>
  151.6233  133.3337  159.3092 H   0  0  0  0  0  0  0  0  0  0  0  0  # atno 6907 bound_to 6896
  150.8094  134.7244  159.6686 H   0  0  0  0  0  0  0  0  0  0  0  0  # atno 6908 bound_to 6896
  152.4191  134.5993  160.0047 H   0  0  0  0  0  0  0  0  0  0  0  0  # atno 6909 bound_to 6896
  144.8630  140.6249  143.5316 H   0  0  0  0  0  0  0  0  0  0  0  0  # atno 7974 bound_to 7965
  154.4550  140.0976  156.6730 H   0  0  0  0  0  0  0  0  0  0  0  0  # atno 8008 bound_to 7997
  155.5167  140.3478  155.4380 H   0  0  0  0  0  0  0  0  0  0  0  0  # atno 8009 bound_to 7997
  156.0758  140.1361  156.9761 H   0  0  0  0  0  0  0  0  0  0  0  0  # atno 8010 bound_to 7997
  140.5714  143.2318  151.6530 H   0  0  0  0  0  0  0  0  0  0  0  0  # atno 10167 bound_to 10162
  157.3540  131.0955  151.0975 H   0  0  0  0  0  0  0  0  0  0  0  0  # atno 10718 bound_to 10713
  153.8557  135.3073  155.3435 H   0  0  0  0  0  0  0  0  0  0  0  0  # atno 10763 bound_to 10752
  154.7871  135.4803  153.9974 H   0  0  0  0  0  0  0  0  0  0  0  0  # atno 10764 bound_to 10752
  153.1492  135.6839  153.9002 H   0  0  0  0  0  0  0  0  0  0  0  0  # atno 10765 bound_to 10752
  140.0841  134.9080  157.1548 H   0  0  0  0  0  0  0  0  0  0  0  0  # atno 11005 bound_to 11000
  145.4276  139.1554  143.4040 LP  0  0  0  0  0  0  0  0  0  0  0  0  # atno 17320 bound_to 7965
  146.2874  140.4390  142.8752 LP  0  0  0  0  0  0  0  0  0  0  0  0  # atno 17321 bound_to 7965
  139.5119  144.3492  152.0668 LP  0  0  0  0  0  0  0  0  0  0  0  0  # atno 17342 bound_to 10162
  140.2630  144.4046  150.6178 LP  0  0  0  0  0  0  0  0  0  0  0  0  # atno 17343 bound_to 10162
  157.2140  130.6451  149.5785 LP  0  0  0  0  0  0  0  0  0  0  0  0  # atno 17370 bound_to 10713
  155.9726  130.4651  150.6240 LP  0  0  0  0  0  0  0  0  0  0  0  0  # atno 17371 bound_to 10713
  140.3445  134.2667  155.7207 LP  0  0  0  0  0  0  0  0  0  0  0  0  # atno 17394 bound_to 11000
  141.2057  133.7854  157.0220 LP  0  0  0  0  0  0  0  0  0  0  0  0  # atno 17395 bound_to 11000

$$$$
