AV-unprocessed.smi:1247|AV-procd|sdf|5246|dock2
  -GOLD-   22720 4353D 1   1.00000     0.00000
 Structure written by MMmdl.
 47 48  0  0  0  0  0  0  0  0  2 V2000
  153.9894  141.8799  160.7555 C   0  0  0  0  0  0  0  0  0  0  0  0
  152.9950  142.4842  159.8087 C   0  0  0  0  0  0  0  0  0  0  0  0
  152.3686  141.8725  158.6843 C   0  0  0  0  0  0  0  0  0  0  0  0
  151.5719  142.8743  158.2007 C   0  0  0  0  0  0  0  0  0  0  0  0
  150.7291  142.8505  157.1340 N   0  0  0  0  0  0  0  0  0  0  0  0
  150.6201  141.9196  156.1702 C   0  0  0  0  0  0  0  0  0  0  0  0
  151.3141  140.9074  156.0706 O   0  0  0  0  0  0  0  0  0  0  0  0
  149.6507  142.2343  155.2989 N   0  0  0  0  0  0  0  0  0  0  0  0
  149.2847  141.4350  154.1355 C   0  0  0  0  0  0  0  0  0  0  0  0
  147.7643  141.4645  153.8892 C   0  0  0  0  0  0  0  0  0  0  0  0
  147.0418  142.2535  154.9175 N   0  3  1  0  0  0  0  0  0  0  0  0
  145.7338  142.7534  154.4320 C   0  0  0  0  0  0  0  0  0  0  0  0
  145.0533  143.6202  155.5084 C   0  0  1  0  0  0  0  0  0  0  0  0
  143.6628  144.0965  155.0744 C   0  0  0  0  0  0  0  0  0  0  0  0
  144.9091  142.8530  156.6983 O   0  0  0  0  0  0  0  0  0  0  0  0
  146.1591  142.4324  157.2336 C   0  0  1  0  0  0  0  0  0  0  0  0
  145.8913  141.6999  158.5527 C   0  0  0  0  0  0  0  0  0  0  0  0
  146.8718  141.5346  156.2041 C   0  0  0  0  0  0  0  0  0  0  0  0
  151.7242  143.9882  158.9987 N   0  0  0  0  0  0  0  0  0  0  0  0
  151.1038  145.2962  158.9109 C   0  0  0  0  0  0  0  0  0  0  0  0
  152.6089  143.7422  159.9883 N   0  0  0  0  0  0  0  0  0  0  0  0
  154.1249  140.8162  160.5594 H   0  0  0  0  0  0  0  0  0  0  0  0
  153.6629  141.9869  161.7903 H   0  0  0  0  0  0  0  0  0  0  0  0
  154.9627  142.3619  160.6608 H   0  0  0  0  0  0  0  0  0  0  0  0
  152.4940  140.8658  158.3153 H   0  0  0  0  0  0  0  0  0  0  0  0
  150.1117  143.6454  157.0580 H   0  0  0  0  0  0  0  0  0  0  0  0
  149.1271  143.0838  155.4533 H   0  0  0  0  0  0  0  0  0  0  0  0
  149.8384  141.7913  153.2663 H   0  0  0  0  0  0  0  0  0  0  0  0
  149.6123  140.4102  154.3120 H   0  0  0  0  0  0  0  0  0  0  0  0
  147.5906  141.9097  152.9083 H   0  0  0  0  0  0  0  0  0  0  0  0
  147.3520  140.4551  153.8456 H   0  0  0  0  0  0  0  0  0  0  0  0
  145.8784  143.3420  153.5250 H   0  0  0  0  0  0  0  0  0  0  0  0
  145.0964  141.9078  154.1678 H   0  0  0  0  0  0  0  0  0  0  0  0
  145.6688  144.4970  155.7188 H   0  0  0  0  0  0  0  0  0  0  0  0
  143.7203  144.7082  154.1737 H   0  0  0  0  0  0  0  0  0  0  0  0
  143.1963  144.6987  155.8546 H   0  0  0  0  0  0  0  0  0  0  0  0
  143.0030  143.2538  154.8658 H   0  0  0  0  0  0  0  0  0  0  0  0
  146.7734  143.3102  157.4435 H   0  0  0  0  0  0  0  0  0  0  0  0
  146.8217  141.3633  159.0107 H   0  0  0  0  0  0  0  0  0  0  0  0
  145.2584  140.8254  158.3978 H   0  0  0  0  0  0  0  0  0  0  0  0
  145.3876  142.3532  159.2657 H   0  0  0  0  0  0  0  0  0  0  0  0
  146.2953  140.6228  156.0382 H   0  0  0  0  0  0  0  0  0  0  0  0
  147.8403  141.2308  156.5998 H   0  0  0  0  0  0  0  0  0  0  0  0
  150.3268  145.3048  158.1466 H   0  0  0  0  0  0  0  0  0  0  0  0
  151.8573  146.0423  158.6567 H   0  0  0  0  0  0  0  0  0  0  0  0
  150.6543  145.5563  159.8698 H   0  0  0  0  0  0  0  0  0  0  0  0
  147.6048  143.0708  155.1051 H   0  0  0  0  0  0  0  0  0  0  0  0
  1  2  1  0  0  0  0
  1 22  1  0  0  0  0
  1 23  1  0  0  0  0
  1 24  1  0  0  0  0
  2 21  2  0  0  0  0
  2  3  1  0  0  0  0
  3  4  2  0  0  0  0
  3 25  1  0  0  0  0
  4  5  1  0  0  0  0
  4 19  1  0  0  0  0
  5  6  1  0  0  0  0
  5 26  1  0  0  0  0
  6  7  2  0  0  0  0
  6  8  1  0  0  0  0
  8  9  1  0  0  0  0
  8 27  1  0  0  0  0
  9 10  1  0  0  0  0
  9 28  1  0  0  0  0
  9 29  1  0  0  0  0
 10 11  1  0  0  0  0
 10 30  1  0  0  0  0
 10 31  1  0  0  0  0
 11 18  1  0  0  0  0
 11 12  1  0  0  0  0
 11 47  1  0  0  0  0
 12 13  1  0  0  0  0
 12 32  1  0  0  0  0
 12 33  1  0  0  0  0
 13 14  1  0  0  0  0
 13 15  1  0  0  0  0
 13 34  1  0  0  0  0
 14 35  1  0  0  0  0
 14 36  1  0  0  0  0
 14 37  1  0  0  0  0
 15 16  1  0  0  0  0
 16 17  1  0  0  0  0
 16 18  1  0  0  0  0
 16 38  1  0  0  0  0
 17 39  1  0  0  0  0
 17 40  1  0  0  0  0
 17 41  1  0  0  0  0
 18 42  1  0  0  0  0
 18 43  1  0  0  0  0
 19 20  1  0  0  0  0
 19 21  1  0  0  0  0
 20 44  1  0  0  0  0
 20 45  1  0  0  0  0
 20 46  1  0  0  0  0
M  CHG  1  11   1
M  END
> <s_m_source_file>
AV-unprocessed.smi

> <i_m_source_file_index>
1247

> <i_lp_mmshare_version>
43012

> <i_f3d_flags>
0

> <s_epik_input>
W0NIM11jMVtjSF1jKG4objEpW0NIM10pW05IXUMoPU8pW05IXVtDSDJdW0NIMl1OMltDSDJdW0NAQEhdKFtDSDNdKU9bQ0BASF0oW0NIM10pW0NIMl0y

> <s_epik_cmdline>
J2VwaWtfcHl0aG9uJywgJy1waCcsICc3LjAnLCAnLXRuJywgJzgnLCAnLW1hJywgJzIwMCcsICctbWV0YWxfYmluZGluZycsICctaW1hZScsICc8aW5maWxlLm1hZT4nLCAnLW9tYWUnLCAnPG91dGZpbGUubWFlPic=

> <r_lp_tautomer_probability>
1

> <r_epik_Ionization_Penalty>
0.663902

> <r_epik_Ionization_Penalty_Charging>
0.663826

> <r_epik_Ionization_Penalty_Neutral>
7.65444e-05

> <r_epik_State_Penalty>
0.683414

> <r_epik_Charging_Adjusted_Penalty>
1.34724

> <i_epik_Tot_Q>
1

> <i_epik_Tot_abs_Q>
1

> <r_epik_Metal_State_Penalty>
0.683419

> <b_epik_Metal_Only>
0

> <s_lp_Force_Field>
OPLS_2005

> <r_lp_Energy>
16.001

> <b_lp_Chiralities_Consistent>
1

> <s_lp_Variant>
AV-unprocessed.smi:1247-4

> <Gold.Version>
5.8.1

> <Gold.Id.Protein>
6NUR|6NUR_protein|mol2

> <Gold.PLP.Fitness>
51.5345

> <Gold.PLP.PLP>
-42.0984

> <Gold.PLP.part.hbond>
-2.9448

> <Gold.PLP.part.metal>
0.0000

> <Gold.PLP.part.buried>
-6.0841

> <Gold.PLP.part.nonpolar>
-33.2448

> <Gold.PLP.part.repulsive>
0.4266

> <Gold.PLP.ligand.clash>
0.0000

> <Gold.PLP.ligand.torsion>
0.7639

> <Gold.PLP.Chemscore.Hbond>
3.6460

> <Gold.PLP.Chemscore.CHOScore>
0.0000

> <Gold.PLP.Chemscore.Metal>
0.0000

> <Gold.Chemscore.Hbonds>
donor molecule, donor type, donor heavy atom, donor atom, acceptor molecule, acceptor atom, score
      L1  H     5    26       P1  8028  0.65
      L1  H     8    27       P1  8028  1.00
      L1  H    11    47       P1  8028  1.53

> <Gold.PLP.Chemscore.Internal.Correction>
0.0257

> <Gold.Rescore>
     Score         DG    S(hbond)    S(metal)    S(lipo)     H(rot)  DE(clash)    DE(int)     intcor
     16.77     -18.93       2.35        0.00      81.31       1.52       0.17       1.99       ----

> <Gold.Chemscore.Fitness>
16.7692

> <Gold.Chemscore.DG>
-18.9326

> <Gold.Chemscore.ZeroCoef>
-5.4800

> <Gold.Chemscore.Hbond>
2.3460

> <Gold.Chemscore.Metal>
0.0000

> <Gold.Chemscore.Lipo>
81.3142

> <Gold.Chemscore.Internal_Hbond>
0.0000

> <Gold.Chemscore.DEClash>
0.1720

> <Gold.Chemscore.DEInternal>
1.9913

> <Gold.Chemscore.Rot>
1.5221

> <Gold.Chemscore.Internal.Correction>
   9.000000E+99

> <Gold.Chemscore.Hbonds>
donor molecule, donor type, donor heavy atom, donor atom, acceptor molecule, acceptor atom, score
      L1  H     5    26       P1  8028  0.61
      L1  H     8    27       P1  8028  0.99
      L1  H    11    47       P1  8028  0.38

> <Gold.Chemscore.Hbond.Weighted>
-7.8355

> <Gold.Chemscore.Metal.Weighted>
-0.0000

> <Gold.Chemscore.Lipo.Weighted>
-9.5138

> <Gold.Chemscore.Internal_Hbond.Weighted>
0.0000

> <Gold.Chemscore.DEClash.Weighted>
0.1720

> <Gold.Chemscore.DEInternal.Weighted>
1.9913

> <Gold.Chemscore.Rot.Weighted>
3.8967

> <Gold.Chemscore.Internal.Correction.Weighted>
   9.000000E+99

> <Gold.Protein.RotatedTorsions>
[ 6907 6896 6895 6894 ] final   -1.63 input  -60.11 | X-H torsion
[ 7974 7965 7964 7962 ] final -170.73 input  175.53 | X-H torsion
[ 8008 7997 7996 7995 ] final   55.22 input   59.86 | X-H torsion
[ 10167 10162 10161 10158 ] final -148.97 input  -65.29 | X-H torsion
[ 10718 10713 10712 10709 ] final  151.13 input   66.30 | X-H torsion
[ 10763 10752 10751 10750 ] final -104.32 input  -60.55 | X-H torsion
[ 11005 11000 10999 10996 ] final -106.36 input  -57.11 | X-H torsion

> <Gold.Protein.ActiveResidues>
 VAL166  LYS551  ARG553  GLY616  TRP617  ASP618  TYR619  PRO620  LYS621  CYS622 
 ASP623  PHE694  ASN695  SER759  ASP760  ASP761  ALA762  ILE779  LEU786  VAL792 
 PHE793  MET794  SER795  GLU796  ALA797  LYS798  CYS799  TRP800  GLU811  SER814 

> <Gold.Protein.RotatedAtoms>
  151.5430  135.1068  159.9930 H   0  0  0  0  0  0  0  0  0  0  0  0  # atno 6907 bound_to 6896
  152.4526  133.7656  159.6781 H   0  0  0  0  0  0  0  0  0  0  0  0  # atno 6908 bound_to 6896
  150.8460  133.7795  159.3067 H   0  0  0  0  0  0  0  0  0  0  0  0  # atno 6909 bound_to 6896
  144.7166  140.2028  143.6336 H   0  0  0  0  0  0  0  0  0  0  0  0  # atno 7974 bound_to 7965
  155.4975  140.3473  155.4365 H   0  0  0  0  0  0  0  0  0  0  0  0  # atno 8008 bound_to 7997
  156.0936  140.1417  156.9588 H   0  0  0  0  0  0  0  0  0  0  0  0  # atno 8009 bound_to 7997
  154.4649  140.0921  156.6972 H   0  0  0  0  0  0  0  0  0  0  0  0  # atno 8010 bound_to 7997
  139.7484  143.8555  152.2580 H   0  0  0  0  0  0  0  0  0  0  0  0  # atno 10167 bound_to 10162
  157.2746  131.0823  151.1575 H   0  0  0  0  0  0  0  0  0  0  0  0  # atno 10718 bound_to 10713
  154.7870  135.4790  153.9968 H   0  0  0  0  0  0  0  0  0  0  0  0  # atno 10763 bound_to 10752
  153.1575  135.6802  153.8798 H   0  0  0  0  0  0  0  0  0  0  0  0  # atno 10764 bound_to 10752
  153.8423  135.3178  155.3405 H   0  0  0  0  0  0  0  0  0  0  0  0  # atno 10765 bound_to 10752
  141.1008  133.8887  157.1846 H   0  0  0  0  0  0  0  0  0  0  0  0  # atno 11005 bound_to 11000
  145.8663  139.2249  143.1687 LP  0  0  0  0  0  0  0  0  0  0  0  0  # atno 17320 bound_to 7965
  146.0126  140.8421  142.9963 LP  0  0  0  0  0  0  0  0  0  0  0  0  # atno 17321 bound_to 7965
  139.8526  144.7157  150.9195 LP  0  0  0  0  0  0  0  0  0  0  0  0  # atno 17342 bound_to 10162
  140.7795  143.3886  151.1350 LP  0  0  0  0  0  0  0  0  0  0  0  0  # atno 17343 bound_to 10162
  157.3033  130.6853  149.6176 LP  0  0  0  0  0  0  0  0  0  0  0  0  # atno 17370 bound_to 10713
  155.9663  130.4385  150.5221 LP  0  0  0  0  0  0  0  0  0  0  0  0  # atno 17371 bound_to 10713
  139.9859  135.0082  156.9862 LP  0  0  0  0  0  0  0  0  0  0  0  0  # atno 17394 bound_to 11000
  140.5026  134.1082  155.7253 LP  0  0  0  0  0  0  0  0  0  0  0  0  # atno 17395 bound_to 11000

$$$$
