AV-unprocessed.smi:649|AV-procd|sdf|3181|dock4
  -GOLD-   22720 0103D 1   1.00000     0.00000
 Structure written by MMmdl.
 34 35  0  0  0  0  0  0  0  0  2 V2000
  154.3001  140.7241  160.6308 C   0  0  0  0  0  0  0  0  0  0  0  0
  153.2984  141.8096  160.2967 C   0  0  0  0  0  0  0  0  0  0  0  0
  153.0718  142.8703  161.1922 C   0  0  0  0  0  0  0  0  0  0  0  0
  152.1516  143.8813  160.8628 C   0  0  0  0  0  0  0  0  0  0  0  0
  151.4500  143.8515  159.6379 C   0  0  0  0  0  0  0  0  0  0  0  0
  150.4842  144.9887  159.3463 C   0  0  0  0  0  0  0  0  0  0  0  0
  151.6715  142.7780  158.7291 C   0  0  0  0  0  0  0  0  0  0  0  0
  150.9899  142.6688  157.3601 C   0  0  1  0  0  0  0  0  0  0  0  0
  151.0543  143.8565  156.5979 O   0  0  0  0  0  0  0  0  0  0  0  0
  151.4787  141.4746  156.5044 C   0  0  0  0  0  0  0  0  0  0  0  0
  150.4439  140.9713  155.5872 N   0  0  0  0  0  0  0  0  0  0  0  0
  149.2556  141.7129  155.4662 C   0  0  0  0  0  0  0  0  0  0  0  0
  148.2709  141.3525  154.6212 C   0  0  0  0  0  0  0  0  0  0  0  0
  146.8293  142.2941  154.4812 Cl  0  0  0  0  0  0  0  0  0  0  0  0
  148.4624  140.1454  153.8200 C   0  0  0  0  0  0  0  0  0  0  0  0
  147.5823  139.7868  153.0387 O   0  0  0  0  0  0  0  0  0  0  0  0
  149.6314  139.4579  153.9782 N   0  5  0  0  0  0  0  0  0  0  0  0
  150.6245  139.8444  154.8371 C   0  0  0  0  0  0  0  0  0  0  0  0
  151.6773  139.2166  154.9520 O   0  0  0  0  0  0  0  0  0  0  0  0
  152.5970  141.7677  159.0772 C   0  0  0  0  0  0  0  0  0  0  0  0
  154.5049  140.6926  161.7012 H   0  0  0  0  0  0  0  0  0  0  0  0
  155.2383  140.9064  160.1061 H   0  0  0  0  0  0  0  0  0  0  0  0
  153.9222  139.7469  160.3294 H   0  0  0  0  0  0  0  0  0  0  0  0
  153.6048  142.9159  162.1305 H   0  0  0  0  0  0  0  0  0  0  0  0
  151.9916  144.6903  161.5601 H   0  0  0  0  0  0  0  0  0  0  0  0
  149.4534  144.6388  159.3984 H   0  0  0  0  0  0  0  0  0  0  0  0
  150.6603  145.4186  158.3626 H   0  0  0  0  0  0  0  0  0  0  0  0
  150.5941  145.7942  160.0726 H   0  0  0  0  0  0  0  0  0  0  0  0
  149.9253  142.5186  157.5435 H   0  0  0  0  0  0  0  0  0  0  0  0
  150.2019  144.0135  156.2218 H   0  0  0  0  0  0  0  0  0  0  0  0
  152.3722  141.7589  155.9458 H   0  0  0  0  0  0  0  0  0  0  0  0
  151.8100  140.6611  157.1484 H   0  0  0  0  0  0  0  0  0  0  0  0
  149.2011  142.5958  156.0861 H   0  0  0  0  0  0  0  0  0  0  0  0
  152.7882  140.9557  158.3904 H   0  0  0  0  0  0  0  0  0  0  0  0
  1  2  1  0  0  0  0
  1 21  1  0  0  0  0
  1 22  1  0  0  0  0
  1 23  1  0  0  0  0
  2 20  1  0  0  0  0
  2  3  2  0  0  0  0
  3  4  1  0  0  0  0
  3 24  1  0  0  0  0
  4  5  2  0  0  0  0
  4 25  1  0  0  0  0
  5  6  1  0  0  0  0
  5  7  1  0  0  0  0
  6 26  1  0  0  0  0
  6 27  1  0  0  0  0
  6 28  1  0  0  0  0
  7  8  1  0  0  0  0
  7 20  2  0  0  0  0
  8  9  1  0  0  0  0
  8 10  1  0  0  0  0
  8 29  1  0  0  0  0
  9 30  1  0  0  0  0
 10 11  1  0  0  0  0
 10 31  1  0  0  0  0
 10 32  1  0  0  0  0
 11 18  1  0  0  0  0
 11 12  1  0  0  0  0
 12 13  2  0  0  0  0
 12 33  1  0  0  0  0
 13 14  1  0  0  0  0
 13 15  1  0  0  0  0
 15 16  2  0  0  0  0
 15 17  1  0  0  0  0
 17 18  1  0  0  0  0
 18 19  2  0  0  0  0
 20 34  1  0  0  0  0
M  CHG  1  17  -1
M  END
> <s_m_source_file>
AV-unprocessed.smi

> <i_m_source_file_index>
649

> <i_lp_mmshare_version>
43012

> <i_f3d_flags>
0

> <s_epik_input>
W0NIM11jMVtjSF1bY0hdYyhbQ0gzXSljKFtjSF0xKVtDQEhdKFtPSF0pW0NIMl1uMltjSF1jKENsKWMoPU8pW25IXWMyPU8=

> <s_epik_cmdline>
J2VwaWtfcHl0aG9uJywgJy1waCcsICc3LjAnLCAnLXRuJywgJzgnLCAnLW1hJywgJzIwMCcsICctbWV0YWxfYmluZGluZycsICctaW1hZScsICc8aW5maWxlLm1hZT4nLCAnLW9tYWUnLCAnPG91dGZpbGUubWFlPic=

> <r_epik_Ionization_Penalty>
1.7979

> <r_epik_Ionization_Penalty_Charging>
3.23819e-08

> <r_epik_Ionization_Penalty_Neutral>
1.7979

> <r_epik_State_Penalty>
1.91135

> <r_epik_Charging_Adjusted_Penalty>
1.91135

> <i_epik_Tot_Q>
-1

> <i_epik_Tot_abs_Q>
1

> <r_epik_Metal_State_Penalty>
0.014155

> <b_epik_Metal_Only>
0

> <s_lp_Force_Field>
OPLS_2005

> <r_lp_Energy>
20.3663

> <b_lp_Chiralities_Consistent>
1

> <s_lp_Variant>
AV-unprocessed.smi:649-4

> <Gold.Version>
5.8.1

> <Gold.Id.Protein>
6NUR|6NUR_protein|mol2

> <Gold.PLP.Fitness>
50.2381

> <Gold.PLP.PLP>
-45.4186

> <Gold.PLP.part.hbond>
-1.0000

> <Gold.PLP.part.metal>
0.0000

> <Gold.PLP.part.buried>
-5.1051

> <Gold.PLP.part.nonpolar>
-40.2393

> <Gold.PLP.part.repulsive>
1.3265

> <Gold.PLP.ligand.clash>
0.3606

> <Gold.PLP.ligand.torsion>
0.4472

> <Gold.PLP.Chemscore.Hbond>
1.0000

> <Gold.PLP.Chemscore.CHOScore>
1.0000

> <Gold.PLP.Chemscore.Metal>
0.0000

> <Gold.Chemscore.Hbonds>
donor molecule, donor type, donor heavy atom, donor atom, acceptor molecule, acceptor atom, score
      L1  H     9    30       P1  8028  1.00
      L1  C    12    33       P1  8028  1.00

> <Gold.PLP.Chemscore.Internal.Correction>
0.0745

> <Gold.Rescore>
     Score         DG    S(hbond)    S(metal)    S(lipo)     H(rot)  DE(clash)    DE(int)     intcor
     16.64     -17.18       1.00        0.00     117.22       2.09       0.15       0.39       ----

> <Gold.Chemscore.Fitness>
16.6392

> <Gold.Chemscore.DG>
-17.1763

> <Gold.Chemscore.ZeroCoef>
-5.4800

> <Gold.Chemscore.Hbond>
0.9952

> <Gold.Chemscore.Metal>
0.0000

> <Gold.Chemscore.Lipo>
117.2192

> <Gold.Chemscore.Internal_Hbond>
0.0000

> <Gold.Chemscore.DEClash>
0.1455

> <Gold.Chemscore.DEInternal>
0.3915

> <Gold.Chemscore.Rot>
2.0868

> <Gold.Chemscore.Internal.Correction>
   9.000000E+99

> <Gold.Chemscore.Hbonds>
donor molecule, donor type, donor heavy atom, donor atom, acceptor molecule, acceptor atom, score
      L1  H     9    30       P1  8028  0.97

> <Gold.Chemscore.Hbond.Weighted>
-3.3239

> <Gold.Chemscore.Metal.Weighted>
-0.0000

> <Gold.Chemscore.Lipo.Weighted>
-13.7146

> <Gold.Chemscore.Internal_Hbond.Weighted>
0.0000

> <Gold.Chemscore.DEClash.Weighted>
0.1455

> <Gold.Chemscore.DEInternal.Weighted>
0.3915

> <Gold.Chemscore.Rot.Weighted>
5.3423

> <Gold.Chemscore.Internal.Correction.Weighted>
   9.000000E+99

> <Gold.Protein.RotatedTorsions>
[ 6907 6896 6895 6894 ] final   18.10 input  -60.11 | X-H torsion
[ 7974 7965 7964 7962 ] final  -21.75 input  175.53 | X-H torsion
[ 8008 7997 7996 7995 ] final  132.51 input   59.86 | X-H torsion
[ 10167 10162 10161 10158 ] final   17.90 input  -65.29 | X-H torsion
[ 10718 10713 10712 10709 ] final  148.42 input   66.30 | X-H torsion
[ 10763 10752 10751 10750 ] final   16.17 input  -60.55 | X-H torsion
[ 11005 11000 10999 10996 ] final  106.09 input  -57.11 | X-H torsion

> <Gold.Protein.ActiveResidues>
 VAL166  LYS551  ARG553  GLY616  TRP617  ASP618  TYR619  PRO620  LYS621  CYS622 
 ASP623  PHE694  ASN695  SER759  ASP760  ASP761  ALA762  ILE779  LEU786  VAL792 
 PHE793  MET794  SER795  GLU796  ALA797  LYS798  CYS799  TRP800  GLU811  SER814 

> <Gold.Protein.RotatedAtoms>
  151.8600  135.0527  160.0468 H   0  0  0  0  0  0  0  0  0  0  0  0  # atno 6907 bound_to 6896
  152.2670  133.5343  159.5424 H   0  0  0  0  0  0  0  0  0  0  0  0  # atno 6908 bound_to 6896
  150.7137  134.0667  159.3892 H   0  0  0  0  0  0  0  0  0  0  0  0  # atno 6909 bound_to 6896
  146.1715  140.4384  142.8530 H   0  0  0  0  0  0  0  0  0  0  0  0  # atno 7974 bound_to 7965
  156.2983  140.2544  156.3101 H   0  0  0  0  0  0  0  0  0  0  0  0  # atno 8008 bound_to 7997
  154.9335  140.0398  157.2079 H   0  0  0  0  0  0  0  0  0  0  0  0  # atno 8009 bound_to 7997
  154.8195  140.2858  155.5801 H   0  0  0  0  0  0  0  0  0  0  0  0  # atno 8010 bound_to 7997
  140.5692  143.9193  150.6700 H   0  0  0  0  0  0  0  0  0  0  0  0  # atno 10167 bound_to 10162
  157.3088  131.0884  151.1333 H   0  0  0  0  0  0  0  0  0  0  0  0  # atno 10718 bound_to 10713
  153.1456  135.6768  153.8960 H   0  0  0  0  0  0  0  0  0  0  0  0  # atno 10763 bound_to 10752
  153.8403  135.3106  155.3427 H   0  0  0  0  0  0  0  0  0  0  0  0  # atno 10764 bound_to 10752
  154.7822  135.4882  153.9954 H   0  0  0  0  0  0  0  0  0  0  0  0  # atno 10765 bound_to 10752
  139.8810  134.9357  156.5613 H   0  0  0  0  0  0  0  0  0  0  0  0  # atno 11005 bound_to 11000
  144.8171  140.6486  143.6377 LP  0  0  0  0  0  0  0  0  0  0  0  0  # atno 17320 bound_to 7965
  145.4327  139.1547  143.4013 LP  0  0  0  0  0  0  0  0  0  0  0  0  # atno 17321 bound_to 7965
  140.2664  143.3487  152.1277 LP  0  0  0  0  0  0  0  0  0  0  0  0  # atno 17342 bound_to 10162
  139.5109  144.6891  151.5808 LP  0  0  0  0  0  0  0  0  0  0  0  0  # atno 17343 bound_to 10162
  157.2663  130.6683  149.5998 LP  0  0  0  0  0  0  0  0  0  0  0  0  # atno 17370 bound_to 10713
  155.9676  130.4493  150.5653 LP  0  0  0  0  0  0  0  0  0  0  0  0  # atno 17371 bound_to 10713
  140.8167  133.8386  155.8858 LP  0  0  0  0  0  0  0  0  0  0  0  0  # atno 17394 bound_to 11000
  140.9456  134.1844  157.4766 LP  0  0  0  0  0  0  0  0  0  0  0  0  # atno 17395 bound_to 11000

$$$$
