#       Name:                AV-unprocessed.smi:913
#       Creating user name   scv26
#       Creation time:       Fri Mar 27 02:05:33 2020


#       File generated by GOLD software.
#

@<TRIPOS>MOLECULE
AV-unprocessed.smi:913
    28    28     1
SMALL
NO_CHARGES


@<TRIPOS>ATOM
      1 ****        -3.5202  -0.2842   0.2738 C.3            1 S1                 0.0000
      2 ****        -2.0066  -0.2802   0.2531 C.2            1 S1                 0.0000
      3 ****        -1.3854   0.8366   0.1841 N.2            1 S1                 0.0000
      4 ****         0.0164   0.8257   0.1674 C.2            1 S1                 0.0000
      5 ****         0.5566   2.0945   0.0994 N.pl3          1 S1                 0.0000
      6 ****         0.7383  -0.3266   0.2148 C.2            1 S1                 0.0000
      7 ****         2.2662  -0.3488   0.2189 C.3            1 S1                 0.0000
      8 ****         2.8758  -0.1031  -1.1624 C.2            1 S1                 0.0000
      9 ****         3.4458   0.9954  -1.3472 O.co2          1 S1                 0.0000
     10 ****         2.7709  -1.0182  -2.0083 O.co2          1 S1                -1.0000
     11 ****        -0.0194  -1.5892   0.2893 C.2            1 S1                 0.0000
     12 ****         0.5708  -2.6681   0.3308 O.2            1 S1                 0.0000
     13 ****        -1.3832  -1.5089   0.3115 N.pl3          1 S1                -1.0000
     14 ****        -3.9169   0.7318   0.2722 H              1 S1                 0.0000
     15 ****        -3.8846  -0.7914   1.1676 H              1 S1                 0.0000
     16 ****        -3.9078  -0.8044  -0.6025 H              1 S1                 0.0000
     17 ****        -0.0498   2.9022   0.0678 H              1 S1                 0.0000
     18 ****         1.5026   2.2665   0.4060 H              1 S1                 0.0000
     19 ****         2.6228   0.4186   0.9072 H              1 S1                 0.0000
     20 ****         2.6507  -1.2894   0.6137 H              1 S1                 0.0000
     21 ****        -1.8895   1.6993   0.1430 LP             1 S1                 0.0000
     22 ****         3.8657   1.1983  -2.2318 LP             1 S1                 0.0000
     23 ****         3.4814   1.6705  -0.6102 LP             1 S1                 0.0000
     24 ****         3.1617  -0.9022  -2.9214 LP             1 S1                 0.0000
     25 ****         2.2962  -1.8659  -1.7715 LP             1 S1                 0.0000
     26 ****         1.5704  -2.6922   0.3141 LP             1 S1                 0.0000
     27 ****         0.0509  -3.5208   0.3813 LP             1 S1                 0.0000
     28 ****        -1.9308  -2.3435   0.3703 LP             1 S1                 0.0000
@<TRIPOS>BOND
    1    1    2 1     
    2    1   14 1     
    3    1   15 1     
    4    1   16 1     
    5    2   13 1     
    6    2    3 2     
    7    3    4 1     
    8    4    5 1     
    9    4    6 2     
   10    5   17 1     
   11    5   18 1     
   12    6    7 1     
   13    6   11 1     
   14    7    8 1     
   15    7   19 1     
   16    7   20 1     
   17    8    9 ar    
   18    8   10 ar    
   19   11   12 2     
   20   11   13 1     
   21    3   21 1     
   22    9   22 1     
   23    9   23 1     
   24   10   24 1     
   25   10   25 1     
   26   12   26 1     
   27   12   27 1     
   28   13   28 1     
@<TRIPOS>SUBSTRUCTURE
      1 S1             1
@<TRIPOS>SET
LONE_PAIRS      STATIC     ATOMS    <user>   **** ""
8 21 22 23 24 25 26 27 28
DONOR_HYDROGENS      STATIC     ATOMS    <user>   **** ""
2 17 18
ATOM$BLUE        STATIC     ATOMS    COLORGROUP SYSTEM
8 21 22 23 24 25 26 27 28
ATOM$RED        STATIC     ATOMS    COLORGROUP SYSTEM
2 17 18
