AV-unprocessed.smi:101|AV-procd|sdf|929|dock1
  -GOLD-   2262017443D 1   1.00000     0.00000
 Structure written by MMmdl.
 43 45  0  0  0  0  0  0  0  0  2 V2000
  144.9817  145.4713  153.1989 C   0  0  0  0  0  0  0  0  0  0  0  0
  145.0784  144.3163  154.1807 C   0  0  0  0  0  0  0  0  0  0  0  0
  145.7626  143.1851  153.9002 C   0  0  0  0  0  0  0  0  0  0  0  0
  145.8540  142.1284  154.7952 N   0  0  0  0  0  0  0  0  0  0  0  0
  146.7058  140.8947  154.5111 C   0  0  2  0  0  0  0  0  0  0  0  0
  147.4932  140.6542  155.6340 O   0  0  0  0  0  0  0  0  0  0  0  0
  148.7316  141.3308  155.4708 C   0  0  1  0  0  0  0  0  0  0  0  0
  149.7702  140.8138  156.4767 C   0  0  0  0  0  0  0  0  0  0  0  0
  150.2271  141.9048  157.2586 O   0  0  0  0  0  0  0  0  0  0  0  0
  151.0834  141.6982  158.2760 C   0  0  0  0  0  0  0  0  0  0  0  0
  151.5675  140.5976  158.5481 O   0  0  0  0  0  0  0  0  0  0  0  0
  151.3877  142.9438  159.0379 C   0  0  0  0  0  0  0  0  0  0  0  0
  151.1015  144.2008  158.4557 C   0  0  0  0  0  0  0  0  0  0  0  0
  151.3769  145.3936  159.1526 C   0  0  0  0  0  0  0  0  0  0  0  0
  151.9418  145.3441  160.4403 C   0  0  0  0  0  0  0  0  0  0  0  0
  152.2319  144.1001  161.0302 C   0  0  0  0  0  0  0  0  0  0  0  0
  151.9580  142.9062  160.3347 C   0  0  0  0  0  0  0  0  0  0  0  0
  149.0509  141.1084  153.9815 C   0  0  1  0  0  0  0  0  0  0  0  0
  149.8176  139.9280  153.7974 O   0  0  0  0  0  0  0  0  0  0  0  0
  147.6675  141.0363  153.3109 C   0  0  1  0  0  0  0  0  0  0  0  0
  147.5483  139.9593  152.3998 O   0  0  0  0  0  0  0  0  0  0  0  0
  145.2955  142.2831  156.0946 C   0  0  0  0  0  0  0  0  0  0  0  0
  145.4739  141.3861  156.9188 O   0  0  0  0  0  0  0  0  0  0  0  0
  144.5864  143.4121  156.3802 N   0  5  0  0  0  0  0  0  0  0  0  0
  144.4285  144.4312  155.4895 C   0  0  0  0  0  0  0  0  0  0  0  0
  143.7697  145.4364  155.7541 O   0  0  0  0  0  0  0  0  0  0  0  0
  145.5199  145.2547  152.2759 H   0  0  0  0  0  0  0  0  0  0  0  0
  145.4061  146.3768  153.6336 H   0  0  0  0  0  0  0  0  0  0  0  0
  143.9399  145.6672  152.9440 H   0  0  0  0  0  0  0  0  0  0  0  0
  146.2655  143.1315  152.9480 H   0  0  0  0  0  0  0  0  0  0  0  0
  146.0008  140.0775  154.3528 H   0  0  0  0  0  0  0  0  0  0  0  0
  148.5800  142.3972  155.6409 H   0  0  0  0  0  0  0  0  0  0  0  0
  149.3412  140.0366  157.1109 H   0  0  0  0  0  0  0  0  0  0  0  0
  150.6199  140.3811  155.9466 H   0  0  0  0  0  0  0  0  0  0  0  0
  150.6675  144.2639  157.4682 H   0  0  0  0  0  0  0  0  0  0  0  0
  151.1539  146.3473  158.6976 H   0  0  0  0  0  0  0  0  0  0  0  0
  152.1525  146.2588  160.9748 H   0  0  0  0  0  0  0  0  0  0  0  0
  152.6661  144.0600  162.0186 H   0  0  0  0  0  0  0  0  0  0  0  0
  152.1946  141.9686  160.8166 H   0  0  0  0  0  0  0  0  0  0  0  0
  149.6326  141.9412  153.5851 H   0  0  0  0  0  0  0  0  0  0  0  0
  149.6688  139.6058  152.9218 H   0  0  0  0  0  0  0  0  0  0  0  0
  147.4491  141.9331  152.7348 H   0  0  0  0  0  0  0  0  0  0  0  0
  148.4127  139.7457  152.0823 H   0  0  0  0  0  0  0  0  0  0  0  0
  1  2  1  0  0  0  0
  1 27  1  0  0  0  0
  1 28  1  0  0  0  0
  1 29  1  0  0  0  0
  2 25  1  0  0  0  0
  2  3  2  0  0  0  0
  3  4  1  0  0  0  0
  3 30  1  0  0  0  0
  4  5  1  0  0  0  0
  4 22  1  0  0  0  0
  5 20  1  0  0  0  0
  5  6  1  0  0  0  0
  5 31  1  0  0  0  0
  6  7  1  0  0  0  0
  7  8  1  0  0  0  0
  7 18  1  0  0  0  0
  7 32  1  0  0  0  0
  8  9  1  0  0  0  0
  8 33  1  0  0  0  0
  8 34  1  0  0  0  0
  9 10  1  0  0  0  0
 10 11  2  0  0  0  0
 10 12  1  0  0  0  0
 12 17  1  0  0  0  0
 12 13  2  0  0  0  0
 13 14  1  0  0  0  0
 13 35  1  0  0  0  0
 14 15  2  0  0  0  0
 14 36  1  0  0  0  0
 15 16  1  0  0  0  0
 15 37  1  0  0  0  0
 16 17  2  0  0  0  0
 16 38  1  0  0  0  0
 17 39  1  0  0  0  0
 18 19  1  0  0  0  0
 18 20  1  0  0  0  0
 18 40  1  0  0  0  0
 19 41  1  0  0  0  0
 20 21  1  0  0  0  0
 20 42  1  0  0  0  0
 21 43  1  0  0  0  0
 22 23  2  0  0  0  0
 22 24  1  0  0  0  0
 24 25  1  0  0  0  0
 25 26  2  0  0  0  0
M  CHG  1  24  -1
M  END
> <s_m_source_file>
AV-unprocessed.smi

> <i_m_source_file_index>
101

> <i_lp_mmshare_version>
43012

> <i_f3d_flags>
0

> <s_epik_input>
Tz1jMVtuSF1jKD1PKW4oW2NIXWMxW0NIM10pW0NAQEhdMk9bQ0BIXShbQ0BASF0oW09IXSlbQ0BIXTJbT0hdKVtDSDJdT0MoPU8pYzNbY0hdW2NIXVtjSF1bY0hdW2NIXTM=

> <s_epik_cmdline>
J2VwaWtfcHl0aG9uJywgJy1waCcsICc3LjAnLCAnLXRuJywgJzgnLCAnLW1hJywgJzIwMCcsICctbWV0YWxfYmluZGluZycsICctaW1hZScsICc8aW5maWxlLm1hZT4nLCAnLW9tYWUnLCAnPG91dGZpbGUubWFlPic=

> <r_lp_tautomer_probability>
0.999537

> <r_epik_Ionization_Penalty>
3.21006

> <r_epik_Ionization_Penalty_Charging>
5.75142e-08

> <r_epik_Ionization_Penalty_Neutral>
3.21006

> <r_epik_State_Penalty>
3.20925

> <r_epik_Charging_Adjusted_Penalty>
3.20925

> <i_epik_Tot_Q>
-1

> <i_epik_Tot_abs_Q>
1

> <r_epik_Metal_State_Penalty>
0.119957

> <b_epik_Metal_Only>
1

> <s_epik_Chemistry_Notes>
This compound has an ester and may undergo hydrolysis at high or low pH. This compound contains an acetal/aminal-like group ( X-CH(R)-Y where X, Y are N, S, or O) that may be acid/base labile, releasing an aldehyde.

> <s_lp_Force_Field>
OPLS_2005

> <r_lp_Energy>
45.1107

> <b_lp_Chiralities_Consistent>
1

> <s_lp_Variant>
AV-unprocessed.smi:101-17

> <Gold.Version>
5.8.1

> <Gold.Id.Protein>
6NUR|6NUR_protein|mol2

> <Gold.PLP.Fitness>
54.2150

> <Gold.PLP.PLP>
-48.4649

> <Gold.PLP.part.hbond>
-2.7932

> <Gold.PLP.part.metal>
0.0000

> <Gold.PLP.part.buried>
-6.5815

> <Gold.PLP.part.nonpolar>
-39.5119

> <Gold.PLP.part.repulsive>
0.1994

> <Gold.PLP.ligand.clash>
0.0000

> <Gold.PLP.ligand.torsion>
1.3119

> <Gold.PLP.Chemscore.Hbond>
2.7120

> <Gold.PLP.Chemscore.CHOScore>
0.0000

> <Gold.PLP.Chemscore.Metal>
0.0000

> <Gold.Chemscore.Hbonds>
donor molecule, donor type, donor heavy atom, donor atom, acceptor molecule, acceptor atom, score
      L1  H    19    41       P1  7957  0.91
      L1  H    21    43       P1  7957  0.97
      P1  H  7989  7998       L1    19  0.55

> <Gold.PLP.Chemscore.Internal.Correction>
0.2379

> <Gold.Rescore>
     Score         DG    S(hbond)    S(metal)    S(lipo)     H(rot)  DE(clash)    DE(int)     intcor
     14.21     -17.48       2.04        0.00     115.85       3.27       0.15       3.12       ----

> <Gold.Chemscore.Fitness>
14.2128

> <Gold.Chemscore.DG>
-17.4806

> <Gold.Chemscore.ZeroCoef>
-5.4800

> <Gold.Chemscore.Hbond>
2.0377

> <Gold.Chemscore.Metal>
0.0000

> <Gold.Chemscore.Lipo>
115.8510

> <Gold.Chemscore.Internal_Hbond>
0.0000

> <Gold.Chemscore.DEClash>
0.1491

> <Gold.Chemscore.DEInternal>
3.1187

> <Gold.Chemscore.Rot>
3.2656

> <Gold.Chemscore.Internal.Correction>
   9.000000E+99

> <Gold.Chemscore.Hbonds>
donor molecule, donor type, donor heavy atom, donor atom, acceptor molecule, acceptor atom, score
      L1  H    19    41       P1  7957  0.90
      L1  H    21    43       P1  7957  0.87
      P1  H  7989  7998       L1    19  0.02

> <Gold.Chemscore.Hbond.Weighted>
-6.8059

> <Gold.Chemscore.Metal.Weighted>
-0.0000

> <Gold.Chemscore.Lipo.Weighted>
-13.5546

> <Gold.Chemscore.Internal_Hbond.Weighted>
0.0000

> <Gold.Chemscore.DEClash.Weighted>
0.1491

> <Gold.Chemscore.DEInternal.Weighted>
3.1187

> <Gold.Chemscore.Rot.Weighted>
8.3598

> <Gold.Chemscore.Internal.Correction.Weighted>
   9.000000E+99

> <Gold.Protein.RotatedTorsions>
[ 6907 6896 6895 6894 ] final -170.50 input  -60.11 | X-H torsion
[ 7974 7965 7964 7962 ] final  -81.12 input  175.53 | X-H torsion
[ 8008 7997 7996 7995 ] final  -74.33 input   59.86 | X-H torsion
[ 10167 10162 10161 10158 ] final   32.18 input  -65.29 | X-H torsion
[ 10718 10713 10712 10709 ] final  -43.97 input   66.30 | X-H torsion
[ 10763 10752 10751 10750 ] final   10.63 input  -60.55 | X-H torsion
[ 11005 11000 10999 10996 ] final   32.50 input  -57.11 | X-H torsion

> <Gold.Protein.ActiveResidues>
 VAL166  LYS551  ARG553  GLY616  TRP617  ASP618  TYR619  PRO620  LYS621  CYS622 
 ASP623  PHE694  ASN695  SER759  ASP760  ASP761  ALA762  ILE779  LEU786  VAL792 
 PHE793  MET794  SER795  GLU796  ALA797  LYS798  CYS799  TRP800  GLU811  SER814 

> <Gold.Protein.RotatedAtoms>
  151.5087  133.3489  159.2880 H   0  0  0  0  0  0  0  0  0  0  0  0  # atno 6907 bound_to 6896
  150.8726  134.8105  159.7177 H   0  0  0  0  0  0  0  0  0  0  0  0  # atno 6908 bound_to 6896
  152.4709  134.4973  159.9765 H   0  0  0  0  0  0  0  0  0  0  0  0  # atno 6909 bound_to 6896
  145.5509  140.9497  143.1500 H   0  0  0  0  0  0  0  0  0  0  0  0  # atno 7974 bound_to 7965
  154.5322  140.0763  156.8364 H   0  0  0  0  0  0  0  0  0  0  0  0  # atno 8008 bound_to 7997
  155.3352  140.3404  155.4221 H   0  0  0  0  0  0  0  0  0  0  0  0  # atno 8009 bound_to 7997
  156.1792  140.1646  156.8292 H   0  0  0  0  0  0  0  0  0  0  0  0  # atno 8010 bound_to 7997
  140.4522  144.1031  150.6194 H   0  0  0  0  0  0  0  0  0  0  0  0  # atno 10167 bound_to 10162
  156.2434  130.4182  149.8734 H   0  0  0  0  0  0  0  0  0  0  0  0  # atno 10718 bound_to 10713
  153.2012  135.6856  153.8229 H   0  0  0  0  0  0  0  0  0  0  0  0  # atno 10763 bound_to 10752
  153.7494  135.3226  155.3319 H   0  0  0  0  0  0  0  0  0  0  0  0  # atno 10764 bound_to 10752
  154.8172  135.4677  154.0779 H   0  0  0  0  0  0  0  0  0  0  0  0  # atno 10765 bound_to 10752
  140.2728  134.3062  155.7823 H   0  0  0  0  0  0  0  0  0  0  0  0  # atno 11005 bound_to 11000
  144.7530  139.7146  143.7265 LP  0  0  0  0  0  0  0  0  0  0  0  0  # atno 17320 bound_to 7965
  146.1917  139.5162  142.9800 LP  0  0  0  0  0  0  0  0  0  0  0  0  # atno 17321 bound_to 7965
  140.4193  143.2619  151.9735 LP  0  0  0  0  0  0  0  0  0  0  0  0  # atno 17342 bound_to 10162
  139.4798  144.5845  151.7877 LP  0  0  0  0  0  0  0  0  0  0  0  0  # atno 17343 bound_to 10162
  156.6308  130.8665  151.3495 LP  0  0  0  0  0  0  0  0  0  0  0  0  # atno 17370 bound_to 10713
  157.7185  130.9527  150.1345 LP  0  0  0  0  0  0  0  0  0  0  0  0  # atno 17371 bound_to 10713
  141.2175  133.7477  156.9361 LP  0  0  0  0  0  0  0  0  0  0  0  0  # atno 17394 bound_to 11000
  140.1357  134.9327  157.2398 LP  0  0  0  0  0  0  0  0  0  0  0  0  # atno 17395 bound_to 11000

$$$$
