AV-unprocessed.smi:102|AV-procd|sdf|954|dock10
  -GOLD-   2262017483D 1   1.00000     0.00000
 Structure written by MMmdl.
 44 45  0  0  0  0  0  0  0  0  1 V2000
  146.7442  135.1148  161.0558 C   0  0  0  0  0  0  0  0  0  0  0  0
  147.2113  136.4983  160.6236 C   0  0  0  0  0  0  0  0  0  0  0  0
  147.5191  137.3597  161.4475 O   0  0  0  0  0  0  0  0  0  0  0  0
  147.2350  136.6373  159.2889 O   0  0  0  0  0  0  0  0  0  0  0  0
  147.8572  137.7739  158.7126 C   0  0  0  0  0  0  0  0  0  0  0  0
  149.3325  137.8242  159.1379 C   0  0  1  0  0  0  0  0  0  0  0  0
  149.9753  136.5998  158.7891 O   0  0  0  0  0  0  0  0  0  0  0  0
  150.6933  136.7147  157.5946 C   0  0  1  0  0  0  0  0  0  0  0  0
  150.1545  135.7354  156.5684 N   0  0  0  0  0  0  0  0  0  0  0  0
  149.2943  134.6957  156.9023 C   0  0  0  0  0  0  0  0  0  0  0  0
  148.8034  133.8241  155.9898 C   0  0  0  0  0  0  0  0  0  0  0  0
  147.9749  132.8438  156.3881 F   0  0  0  0  0  0  0  0  0  0  0  0
  149.1698  133.9343  154.5807 C   0  0  0  0  0  0  0  0  0  0  0  0
  148.7728  133.1967  153.6810 O   0  0  0  0  0  0  0  0  0  0  0  0
  150.0492  134.9822  154.2936 N   0  0  0  0  0  0  0  0  0  0  0  0
  150.5634  135.8860  155.2247 C   0  0  0  0  0  0  0  0  0  0  0  0
  151.3331  136.7750  154.8630 O   0  0  0  0  0  0  0  0  0  0  0  0
  150.6076  138.1862  157.1341 C   0  0  1  0  0  0  0  0  0  0  0  0
  149.6842  138.3607  156.0617 O   0  0  0  0  0  0  0  0  0  0  0  0
  149.8262  139.3795  155.1998 C   0  0  0  0  0  0  0  0  0  0  0  0
  148.5239  139.7173  154.4871 C   0  0  0  0  0  0  0  0  0  0  0  0
  150.8636  140.0038  154.9789 O   0  0  0  0  0  0  0  0  0  0  0  0
  150.1070  138.9037  158.3764 C   0  0  2  0  0  0  0  0  0  0  0  0
  151.2196  139.3820  159.1229 O   0  0  0  0  0  0  0  0  0  0  0  0
  152.1208  140.2012  158.5522 C   0  0  0  0  0  0  0  0  0  0  0  0
  153.0248  140.8733  159.5769 C   0  0  0  0  0  0  0  0  0  0  0  0
  152.2387  140.4225  157.3468 O   0  0  0  0  0  0  0  0  0  0  0  0
  150.3357  135.0940  153.3318 H   0  0  0  0  0  0  0  0  0  0  0  0
  145.8161  134.8505  160.5482 H   0  0  0  0  0  0  0  0  0  0  0  0
  146.5685  135.0893  162.1316 H   0  0  0  0  0  0  0  0  0  0  0  0
  147.4992  134.3678  160.8107 H   0  0  0  0  0  0  0  0  0  0  0  0
  147.7750  137.7593  157.6254 H   0  0  0  0  0  0  0  0  0  0  0  0
  147.3369  138.6662  159.0628 H   0  0  0  0  0  0  0  0  0  0  0  0
  149.3878  137.9845  160.2155 H   0  0  0  0  0  0  0  0  0  0  0  0
  151.7172  136.3918  157.7926 H   0  0  0  0  0  0  0  0  0  0  0  0
  148.9910  134.5490  157.9266 H   0  0  0  0  0  0  0  0  0  0  0  0
  151.6030  138.5199  156.8362 H   0  0  0  0  0  0  0  0  0  0  0  0
  148.0859  138.8191  154.0511 H   0  0  0  0  0  0  0  0  0  0  0  0
  148.6992  140.4387  153.6887 H   0  0  0  0  0  0  0  0  0  0  0  0
  147.8092  140.1455  155.1900 H   0  0  0  0  0  0  0  0  0  0  0  0
  149.4668  139.7453  158.1062 H   0  0  0  0  0  0  0  0  0  0  0  0
  153.4712  140.1288  160.2364 H   0  0  0  0  0  0  0  0  0  0  0  0
  152.4515  141.5751  160.1829 H   0  0  0  0  0  0  0  0  0  0  0  0
  153.8269  141.4201  159.0806 H   0  0  0  0  0  0  0  0  0  0  0  0
  1  2  1  0  0  0  0
  1 29  1  0  0  0  0
  1 30  1  0  0  0  0
  1 31  1  0  0  0  0
  2  3  2  0  0  0  0
  2  4  1  0  0  0  0
  4  5  1  0  0  0  0
  5  6  1  0  0  0  0
  5 32  1  0  0  0  0
  5 33  1  0  0  0  0
  6 23  1  0  0  0  0
  6  7  1  0  0  0  0
  6 34  1  0  0  0  0
  7  8  1  0  0  0  0
  8  9  1  0  0  0  0
  8 18  1  0  0  0  0
  8 35  1  0  0  0  0
  9 16  1  0  0  0  0
  9 10  1  0  0  0  0
 10 11  2  0  0  0  0
 10 36  1  0  0  0  0
 11 12  1  0  0  0  0
 11 13  1  0  0  0  0
 13 14  2  0  0  0  0
 13 15  1  0  0  0  0
 15 28  1  0  0  0  0
 15 16  1  0  0  0  0
 16 17  2  0  0  0  0
 18 19  1  0  0  0  0
 18 23  1  0  0  0  0
 18 37  1  0  0  0  0
 19 20  1  0  0  0  0
 20 21  1  0  0  0  0
 20 22  2  0  0  0  0
 21 38  1  0  0  0  0
 21 39  1  0  0  0  0
 21 40  1  0  0  0  0
 23 24  1  0  0  0  0
 23 41  1  0  0  0  0
 24 25  1  0  0  0  0
 25 26  1  0  0  0  0
 25 27  2  0  0  0  0
 26 42  1  0  0  0  0
 26 43  1  0  0  0  0
 26 44  1  0  0  0  0
M  END
> <s_m_source_file>
AV-unprocessed.smi

> <i_m_source_file_index>
102

> <i_lp_mmshare_version>
43012

> <i_f3d_flags>
0

> <s_epik_input>
W0NIM11DKD1PKU9bQ0gyXVtDQEBIXTFPW0NASF0oW0NAQEhdKE9DKD1PKVtDSDNdKVtDQEhdMU9DKD1PKVtDSDNdKW4yW2NIXWMoRiljKD1PKVtuSF1jMj1P

> <s_epik_cmdline>
J2VwaWtfcHl0aG9uJywgJy1waCcsICc3LjAnLCAnLXRuJywgJzgnLCAnLW1hJywgJzIwMCcsICctbWV0YWxfYmluZGluZycsICctaW1hZScsICc8aW5maWxlLm1hZT4nLCAnLW9tYWUnLCAnPG91dGZpbGUubWFlPic=

> <r_lp_tautomer_probability>
0.999537

> <r_epik_Ionization_Penalty>
0.058267

> <r_epik_Ionization_Penalty_Charging>
0.058267

> <r_epik_Ionization_Penalty_Neutral>
6.57791e-16

> <r_epik_State_Penalty>
0.0503774

> <r_epik_Charging_Adjusted_Penalty>
0.108644

> <i_epik_Tot_Q>
0

> <i_epik_Tot_abs_Q>
0

> <r_epik_Metal_State_Penalty>
2.6644

> <b_epik_Metal_Only>
0

> <s_epik_Chemistry_Notes>
This compound has an ester and may undergo hydrolysis at high or low pH. This compound contains an acetal/aminal-like group ( X-CH(R)-Y where X, Y are N, S, or O) that may be acid/base labile, releasing an aldehyde.

> <s_lp_Force_Field>
OPLS_2005

> <r_lp_Energy>
14.5716

> <b_lp_Chiralities_Consistent>
1

> <s_lp_Variant>
AV-unprocessed.smi:102-10

> <Gold.Version>
5.8.1

> <Gold.Id.Protein>
6NUR|6NUR_protein|mol2

> <Gold.PLP.Fitness>
44.4997

> <Gold.PLP.PLP>
-29.6179

> <Gold.PLP.part.hbond>
-8.0000

> <Gold.PLP.part.metal>
0.0000

> <Gold.PLP.part.buried>
-2.4725

> <Gold.PLP.part.nonpolar>
-18.6471

> <Gold.PLP.part.repulsive>
0.4885

> <Gold.PLP.ligand.clash>
0.0000

> <Gold.PLP.ligand.torsion>
1.2949

> <Gold.PLP.Chemscore.Hbond>
5.7920

> <Gold.PLP.Chemscore.CHOScore>
0.0000

> <Gold.PLP.Chemscore.Metal>
0.0000

> <Gold.Chemscore.Hbonds>
donor molecule, donor type, donor heavy atom, donor atom, acceptor molecule, acceptor atom, score
      P1  H  6896  6908       L1     7  0.71
      P1  H  6931  6943       L1     3  0.85
      P1  H  6934  6947       L1     3  0.83
      P1  H  7989  7998       L1    22  1.00
      P1  H  7997  8009       L1    27  0.38
      P1  H 10752 10763       L1    17  0.96

> <Gold.PLP.Chemscore.Internal.Correction>
0.0956

> <Gold.Rescore>
     Score         DG    S(hbond)    S(metal)    S(lipo)     H(rot)  DE(clash)    DE(int)     intcor
      7.88     -16.81       5.22        0.00      36.44       4.05       0.02       8.91       ----

> <Gold.Chemscore.Fitness>
7.8796

> <Gold.Chemscore.DG>
-16.8084

> <Gold.Chemscore.ZeroCoef>
-5.4800

> <Gold.Chemscore.Hbond>
5.2210

> <Gold.Chemscore.Metal>
0.0000

> <Gold.Chemscore.Lipo>
36.4387

> <Gold.Chemscore.Internal_Hbond>
0.0000

> <Gold.Chemscore.DEClash>
0.0224

> <Gold.Chemscore.DEInternal>
8.9065

> <Gold.Chemscore.Rot>
4.0520

> <Gold.Chemscore.Internal.Correction>
   9.000000E+99

> <Gold.Chemscore.Hbonds>
donor molecule, donor type, donor heavy atom, donor atom, acceptor molecule, acceptor atom, score
      P1  H  6896  6908       L1     7  0.24
      P1  H  6931  6943       L1     3  0.85
      P1  H  6934  6947       L1     3  0.75
      P1  H  7989  7998       L1    22  1.00
      P1  H  7997  8009       L1    27  0.30
      P1  H 10752 10763       L1    17  0.27

> <Gold.Chemscore.Hbond.Weighted>
-17.4383

> <Gold.Chemscore.Metal.Weighted>
-0.0000

> <Gold.Chemscore.Lipo.Weighted>
-4.2633

> <Gold.Chemscore.Internal_Hbond.Weighted>
0.0000

> <Gold.Chemscore.DEClash.Weighted>
0.0224

> <Gold.Chemscore.DEInternal.Weighted>
8.9065

> <Gold.Chemscore.Rot.Weighted>
10.3732

> <Gold.Chemscore.Internal.Correction.Weighted>
   9.000000E+99

> <Gold.Protein.RotatedTorsions>
[ 6907 6896 6895 6894 ] final -173.93 input  -60.11 | X-H torsion
[ 7974 7965 7964 7962 ] final  178.08 input  175.53 | X-H torsion
[ 8008 7997 7996 7995 ] final  177.89 input   59.86 | X-H torsion
[ 10167 10162 10161 10158 ] final  -38.61 input  -65.29 | X-H torsion
[ 10718 10713 10712 10709 ] final -148.59 input   66.30 | X-H torsion
[ 10763 10752 10751 10750 ] final   39.15 input  -60.55 | X-H torsion
[ 11005 11000 10999 10996 ] final  -53.17 input  -57.11 | X-H torsion

> <Gold.Protein.ActiveResidues>
 VAL166  LYS551  ARG553  GLY616  TRP617  ASP618  TYR619  PRO620  LYS621  CYS622 
 ASP623  PHE694  ASN695  SER759  ASP760  ASP761  ALA762  ILE779  LEU786  VAL792 
 PHE793  MET794  SER795  GLU796  ALA797  LYS798  CYS799  TRP800  GLU811  SER814 

> <Gold.Protein.RotatedAtoms>
  151.5642  133.3399  159.2976 H   0  0  0  0  0  0  0  0  0  0  0  0  # atno 6907 bound_to 6896
  150.8405  134.7698  159.6940 H   0  0  0  0  0  0  0  0  0  0  0  0  # atno 6908 bound_to 6896
  152.4473  134.5474  159.9908 H   0  0  0  0  0  0  0  0  0  0  0  0  # atno 6909 bound_to 6896
  144.7160  140.0343  143.6438 H   0  0  0  0  0  0  0  0  0  0  0  0  # atno 7974 bound_to 7965
  156.0607  140.1347  156.9944 H   0  0  0  0  0  0  0  0  0  0  0  0  # atno 8008 bound_to 7997
  154.4480  140.0992  156.6583 H   0  0  0  0  0  0  0  0  0  0  0  0  # atno 8009 bound_to 7997
  155.5382  140.3460  155.4443 H   0  0  0  0  0  0  0  0  0  0  0  0  # atno 8010 bound_to 7997
  140.7087  143.3266  151.2665 H   0  0  0  0  0  0  0  0  0  0  0  0  # atno 10167 bound_to 10162
  156.4223  130.8035  151.2258 H   0  0  0  0  0  0  0  0  0  0  0  0  # atno 10718 bound_to 10713
  152.9977  135.6229  154.2419 H   0  0  0  0  0  0  0  0  0  0  0  0  # atno 10763 bound_to 10752
  154.2160  135.2798  155.2943 H   0  0  0  0  0  0  0  0  0  0  0  0  # atno 10764 bound_to 10752
  154.5568  135.5717  153.7030 H   0  0  0  0  0  0  0  0  0  0  0  0  # atno 10765 bound_to 10752
  141.0962  133.6624  156.4132 H   0  0  0  0  0  0  0  0  0  0  0  0  # atno 11005 bound_to 11000
  146.0076  139.3143  143.0890 LP  0  0  0  0  0  0  0  0  0  0  0  0  # atno 17320 bound_to 7965
  145.8719  140.9414  143.0646 LP  0  0  0  0  0  0  0  0  0  0  0  0  # atno 17321 bound_to 7965
  139.6736  143.9976  152.2768 LP  0  0  0  0  0  0  0  0  0  0  0  0  # atno 17342 bound_to 10162
  139.9583  144.6575  150.8104 LP  0  0  0  0  0  0  0  0  0  0  0  0  # atno 17343 bound_to 10162
  157.7508  131.0224  150.3791 LP  0  0  0  0  0  0  0  0  0  0  0  0  # atno 17370 bound_to 10713
  156.4111  130.3934  149.6891 LP  0  0  0  0  0  0  0  0  0  0  0  0  # atno 17371 bound_to 10713
  140.5134  134.6373  157.5292 LP  0  0  0  0  0  0  0  0  0  0  0  0  # atno 17394 bound_to 11000
  139.9799  134.7154  155.9878 LP  0  0  0  0  0  0  0  0  0  0  0  0  # atno 17395 bound_to 11000

$$$$
