AV-unprocessed.smi:1240|AV-procd|sdf|5199|dock3
  -GOLD-   22720 4283D 1   1.00000     0.00000
 Structure written by MMmdl.
 48 50  0  0  0  0  0  0  0  0  2 V2000
  144.3965  136.4941  152.0095 O   0  0  0  0  0  0  0  0  0  0  0  0
  145.6079  136.3415  151.8556 C   0  0  0  0  0  0  0  0  0  0  0  0
  146.5163  137.2623  152.2051 N   0  0  0  0  0  0  0  0  0  0  0  0
  146.2134  138.5361  152.8469 C   0  0  0  0  0  0  0  0  0  0  0  0
  146.5249  138.5237  154.3677 C   0  0  2  0  0  0  0  0  0  0  0  0
  145.3708  139.0858  155.2469 C   0  0  2  0  0  0  0  0  0  0  0  0
  145.6498  139.0429  156.7411 C   0  0  0  0  0  0  0  0  0  0  0  0
  144.2568  139.2107  157.3314 C   0  0  0  0  0  0  0  0  0  0  0  0
  143.4002  138.4997  156.4489 O   0  0  0  0  0  0  0  0  0  0  0  0
  144.0444  138.3130  155.1920 C   0  0  0  0  0  0  0  0  0  0  0  0
  147.7966  139.2435  154.6805 N   0  3  0  0  0  0  0  0  0  0  0  0
  149.0243  138.4638  154.3885 C   0  0  0  0  0  0  0  0  0  0  0  0
  150.2608  139.2048  154.9259 C   0  0  0  0  0  0  0  0  0  0  0  0
  150.3198  140.5116  154.3659 O   0  0  0  0  0  0  0  0  0  0  0  0
  149.1814  141.2936  154.7079 C   0  0  0  0  0  0  0  0  0  0  0  0
  147.9142  140.6260  154.1498 C   0  0  0  0  0  0  0  0  0  0  0  0
  146.1992  135.2618  151.3153 N   0  0  0  0  0  0  0  0  0  0  0  0
  145.6104  134.0458  150.8724 C   0  0  0  0  0  0  0  0  0  0  0  0
  144.2032  133.9919  150.7976 C   0  0  0  0  0  0  0  0  0  0  0  0
  143.5910  132.8063  150.3446 C   0  0  0  0  0  0  0  0  0  0  0  0
  144.2837  131.7117  149.9665 N   0  0  0  0  0  0  0  0  0  0  0  0
  145.6311  131.7690  150.0259 C   0  0  0  0  0  0  0  0  0  0  0  0
  146.3423  132.9043  150.4643 C   0  0  0  0  0  0  0  0  0  0  0  0
  147.4896  137.0588  152.0298 H   0  0  0  0  0  0  0  0  0  0  0  0
  146.7974  139.3018  152.3367 H   0  0  0  0  0  0  0  0  0  0  0  0
  145.1627  138.7833  152.6883 H   0  0  0  0  0  0  0  0  0  0  0  0
  146.6729  137.4854  154.6699 H   0  0  0  0  0  0  0  0  0  0  0  0
  145.1664  140.1207  154.9686 H   0  0  0  0  0  0  0  0  0  0  0  0
  146.0621  138.0740  157.0269 H   0  0  0  0  0  0  0  0  0  0  0  0
  146.3377  139.8203  157.0752 H   0  0  0  0  0  0  0  0  0  0  0  0
  144.1834  138.8353  158.3522 H   0  0  0  0  0  0  0  0  0  0  0  0
  143.9673  140.2623  157.3321 H   0  0  0  0  0  0  0  0  0  0  0  0
  143.4007  138.6543  154.3809 H   0  0  0  0  0  0  0  0  0  0  0  0
  144.2176  137.2443  155.0594 H   0  0  0  0  0  0  0  0  0  0  0  0
  148.9619  137.4784  154.8514 H   0  0  0  0  0  0  0  0  0  0  0  0
  149.1259  138.3092  153.3141 H   0  0  0  0  0  0  0  0  0  0  0  0
  150.2364  139.2649  156.0152 H   0  0  0  0  0  0  0  0  0  0  0  0
  151.1689  138.6644  154.6578 H   0  0  0  0  0  0  0  0  0  0  0  0
  149.1159  141.4108  155.7909 H   0  0  0  0  0  0  0  0  0  0  0  0
  149.2979  142.2917  154.2852 H   0  0  0  0  0  0  0  0  0  0  0  0
  147.9674  140.6116  153.0608 H   0  0  0  0  0  0  0  0  0  0  0  0
  147.0416  141.2179  154.4243 H   0  0  0  0  0  0  0  0  0  0  0  0
  147.1977  135.3256  151.1824 H   0  0  0  0  0  0  0  0  0  0  0  0
  143.5984  134.8398  151.0844 H   0  0  0  0  0  0  0  0  0  0  0  0
  142.5151  132.7372  150.2823 H   0  0  0  0  0  0  0  0  0  0  0  0
  146.1610  130.8835  149.7074 H   0  0  0  0  0  0  0  0  0  0  0  0
  147.4204  132.8766  150.4649 H   0  0  0  0  0  0  0  0  0  0  0  0
  147.7901  139.3419  155.6858 H   0  0  0  0  0  0  0  0  0  0  0  0
  1  2  2  0  0  0  0
  2  3  1  0  0  0  0
  2 17  1  0  0  0  0
  3  4  1  0  0  0  0
  3 24  1  0  0  0  0
  4  5  1  0  0  0  0
  4 25  1  0  0  0  0
  4 26  1  0  0  0  0
  5  6  1  0  0  0  0
  5 11  1  0  0  0  0
  5 27  1  0  0  0  0
  6 10  1  0  0  0  0
  6  7  1  0  0  0  0
  6 28  1  0  0  0  0
  7  8  1  0  0  0  0
  7 29  1  0  0  0  0
  7 30  1  0  0  0  0
  8  9  1  0  0  0  0
  8 31  1  0  0  0  0
  8 32  1  0  0  0  0
  9 10  1  0  0  0  0
 10 33  1  0  0  0  0
 10 34  1  0  0  0  0
 11 16  1  0  0  0  0
 11 12  1  0  0  0  0
 11 48  1  0  0  0  0
 12 13  1  0  0  0  0
 12 35  1  0  0  0  0
 12 36  1  0  0  0  0
 13 14  1  0  0  0  0
 13 37  1  0  0  0  0
 13 38  1  0  0  0  0
 14 15  1  0  0  0  0
 15 16  1  0  0  0  0
 15 39  1  0  0  0  0
 15 40  1  0  0  0  0
 16 41  1  0  0  0  0
 16 42  1  0  0  0  0
 17 18  1  0  0  0  0
 17 43  1  0  0  0  0
 18 23  1  0  0  0  0
 18 19  2  0  0  0  0
 19 20  1  0  0  0  0
 19 44  1  0  0  0  0
 20 21  2  0  0  0  0
 20 45  1  0  0  0  0
 21 22  1  0  0  0  0
 22 23  2  0  0  0  0
 22 46  1  0  0  0  0
 23 47  1  0  0  0  0
M  CHG  1  11   1
M  END
> <s_m_source_file>
AV-unprocessed.smi

> <i_m_source_file_index>
1240

> <i_lp_mmshare_version>
43012

> <i_f3d_flags>
0

> <s_epik_input>
W2NIXTFbY0hdbltjSF1bY0hdYzFbTkhdQyg9TylbTkhdW0NIMl1bQ0BIXShbQ0BASF0yW0NIMl1bQ0gyXU9bQ0gyXTIpTjNbQ0gyXVtDSDJdT1tDSDJdW0NIMl0z

> <s_epik_cmdline>
J2VwaWtfcHl0aG9uJywgJy1waCcsICc3LjAnLCAnLXRuJywgJzgnLCAnLW1hJywgJzIwMCcsICctbWV0YWxfYmluZGluZycsICctaW1hZScsICc8aW5maWxlLm1hZT4nLCAnLW9tYWUnLCAnPG91dGZpbGUubWFlPic=

> <r_epik_Ionization_Penalty>
1.08433

> <r_epik_Ionization_Penalty_Charging>
0.98326

> <r_epik_Ionization_Penalty_Neutral>
0.10107

> <r_epik_State_Penalty>
1.11265

> <r_epik_Charging_Adjusted_Penalty>
2.09591

> <i_epik_Tot_Q>
1

> <i_epik_Tot_abs_Q>
1

> <r_epik_Metal_State_Penalty>
1.10731

> <b_epik_Metal_Only>
0

> <s_lp_Force_Field>
OPLS_2005

> <r_lp_Energy>
43.6027

> <b_lp_Chiralities_Consistent>
1

> <s_lp_Variant>
AV-unprocessed.smi:1240-5

> <Gold.Version>
5.8.1

> <Gold.Id.Protein>
6NUR|6NUR_protein|mol2

> <Gold.PLP.Fitness>
43.6391

> <Gold.PLP.PLP>
-31.8019

> <Gold.PLP.part.hbond>
-3.9324

> <Gold.PLP.part.metal>
0.0000

> <Gold.PLP.part.buried>
-2.9167

> <Gold.PLP.part.nonpolar>
-26.9723

> <Gold.PLP.part.repulsive>
1.4058

> <Gold.PLP.ligand.clash>
0.0000

> <Gold.PLP.ligand.torsion>
1.0932

> <Gold.PLP.Chemscore.Hbond>
3.0064

> <Gold.PLP.Chemscore.CHOScore>
1.5627

> <Gold.PLP.Chemscore.Metal>
0.0000

> <Gold.Chemscore.Hbonds>
donor molecule, donor type, donor heavy atom, donor atom, acceptor molecule, acceptor atom, score
      L1  H     3    24       P1  7948  1.00
      L1  H    17    43       P1  7948  0.92
      P1  H  7989  7998       L1    14  0.91
      P1  H 10785 10796       L1    21  0.27
      L1  C    20    45       P1 10186  0.96
      L1  C    22    46       P1 10747  0.14

> <Gold.PLP.Chemscore.Internal.Correction>
0.3164

> <Gold.Rescore>
     Score         DG    S(hbond)    S(metal)    S(lipo)     H(rot)  DE(clash)    DE(int)     intcor
     16.94     -19.47       2.85        0.00      75.54       1.70       0.17       2.36       ----

> <Gold.Chemscore.Fitness>
16.9383

> <Gold.Chemscore.DG>
-19.4672

> <Gold.Chemscore.ZeroCoef>
-5.4800

> <Gold.Chemscore.Hbond>
2.8464

> <Gold.Chemscore.Metal>
0.0000

> <Gold.Chemscore.Lipo>
75.5371

> <Gold.Chemscore.Internal_Hbond>
0.0000

> <Gold.Chemscore.DEClash>
0.1731

> <Gold.Chemscore.DEInternal>
2.3558

> <Gold.Chemscore.Rot>
1.7021

> <Gold.Chemscore.Internal.Correction>
   9.000000E+99

> <Gold.Chemscore.Hbonds>
donor molecule, donor type, donor heavy atom, donor atom, acceptor molecule, acceptor atom, score
      L1  H     3    24       P1  7948  1.00
      L1  H    17    43       P1  7948  0.65
      P1  H  7989  7998       L1    14  0.85
      P1  H 10785 10796       L1    21  0.26

> <Gold.Chemscore.Hbond.Weighted>
-9.5069

> <Gold.Chemscore.Metal.Weighted>
-0.0000

> <Gold.Chemscore.Lipo.Weighted>
-8.8378

> <Gold.Chemscore.Internal_Hbond.Weighted>
0.0000

> <Gold.Chemscore.DEClash.Weighted>
0.1731

> <Gold.Chemscore.DEInternal.Weighted>
2.3558

> <Gold.Chemscore.Rot.Weighted>
4.3575

> <Gold.Chemscore.Internal.Correction.Weighted>
   9.000000E+99

> <Gold.Protein.RotatedTorsions>
[ 6907 6896 6895 6894 ] final -165.11 input  -60.11 | X-H torsion
[ 7974 7965 7964 7962 ] final -156.11 input  175.53 | X-H torsion
[ 8008 7997 7996 7995 ] final -153.49 input   59.86 | X-H torsion
[ 10167 10162 10161 10158 ] final -124.84 input  -65.29 | X-H torsion
[ 10718 10713 10712 10709 ] final  -92.11 input   66.30 | X-H torsion
[ 10763 10752 10751 10750 ] final  146.02 input  -60.55 | X-H torsion
[ 11005 11000 10999 10996 ] final   55.65 input  -57.11 | X-H torsion

> <Gold.Protein.ActiveResidues>
 VAL166  LYS551  ARG553  GLY616  TRP617  ASP618  TYR619  PRO620  LYS621  CYS622 
 ASP623  PHE694  ASN695  SER759  ASP760  ASP761  ALA762  ILE779  LEU786  VAL792 
 PHE793  MET794  SER795  GLU796  ALA797  LYS798  CYS799  TRP800  GLU811  SER814 

> <Gold.Protein.RotatedAtoms>
  151.4225  133.3694  159.2757 H   0  0  0  0  0  0  0  0  0  0  0  0  # atno 6907 bound_to 6896
  150.9283  134.8701  159.7545 H   0  0  0  0  0  0  0  0  0  0  0  0  # atno 6908 bound_to 6896
  152.5016  134.4168  159.9519 H   0  0  0  0  0  0  0  0  0  0  0  0  # atno 6909 bound_to 6896
  144.7608  140.4156  143.5978 H   0  0  0  0  0  0  0  0  0  0  0  0  # atno 7974 bound_to 7965
  155.6716  140.0734  157.2518 H   0  0  0  0  0  0  0  0  0  0  0  0  # atno 8008 bound_to 7997
  154.4122  140.1698  156.1936 H   0  0  0  0  0  0  0  0  0  0  0  0  # atno 8009 bound_to 7997
  155.9612  140.3369  155.6495 H   0  0  0  0  0  0  0  0  0  0  0  0  # atno 8010 bound_to 7997
  139.9884  143.5667  152.2351 H   0  0  0  0  0  0  0  0  0  0  0  0  # atno 10167 bound_to 10162
  155.9999  130.4974  150.5576 H   0  0  0  0  0  0  0  0  0  0  0  0  # atno 10718 bound_to 10713
  154.0149  135.2911  155.3388 H   0  0  0  0  0  0  0  0  0  0  0  0  # atno 10763 bound_to 10752
  154.7081  135.5161  153.8628 H   0  0  0  0  0  0  0  0  0  0  0  0  # atno 10764 bound_to 10752
  153.0706  135.6646  154.0377 H   0  0  0  0  0  0  0  0  0  0  0  0  # atno 10765 bound_to 10752
  140.0590  134.5629  155.9174 H   0  0  0  0  0  0  0  0  0  0  0  0  # atno 11005 bound_to 11000
  145.6625  139.1584  143.2800 LP  0  0  0  0  0  0  0  0  0  0  0  0  # atno 17320 bound_to 7965
  146.1669  140.6704  142.9251 LP  0  0  0  0  0  0  0  0  0  0  0  0  # atno 17321 bound_to 7965
  139.6358  144.7649  151.2442 LP  0  0  0  0  0  0  0  0  0  0  0  0  # atno 17342 bound_to 10162
  140.7463  143.6401  150.8342 LP  0  0  0  0  0  0  0  0  0  0  0  0  # atno 17343 bound_to 10162
  157.3490  131.0730  151.1729 LP  0  0  0  0  0  0  0  0  0  0  0  0  # atno 17370 bound_to 10713
  157.2551  130.6632  149.5949 LP  0  0  0  0  0  0  0  0  0  0  0  0  # atno 17371 bound_to 10713
  141.1965  133.6592  156.5693 LP  0  0  0  0  0  0  0  0  0  0  0  0  # atno 17394 bound_to 11000
  140.3799  134.7532  157.4654 LP  0  0  0  0  0  0  0  0  0  0  0  0  # atno 17395 bound_to 11000

$$$$
