AV-unprocessed.smi:2475|AV-procd|sdf|9755|dock8
  -GOLD-   2272013393D 1   1.00000     0.00000
 Structure written by MMmdl.
 37 38  0  0  0  0  0  0  0  0  1 V2000
  151.9458  145.8469  159.8406 C   0  0  0  0  0  0  0  0  0  0  0  0
  151.8948  144.4721  159.2086 C   0  0  0  0  0  0  0  0  0  0  0  0
  151.0650  144.1981  158.1013 C   0  0  0  0  0  0  0  0  0  0  0  0
  151.0918  142.8832  157.5852 C   0  0  0  0  0  0  0  0  0  0  0  0
  150.2465  142.6374  156.4723 N   0  0  0  0  0  0  0  0  0  0  0  0
  150.0356  141.4750  155.8252 C   0  0  0  0  0  0  0  0  0  0  0  0
  150.5454  140.4004  156.1449 O   0  0  0  0  0  0  0  0  0  0  0  0
  149.0615  141.5256  154.6382 C   0  0  2  0  0  0  0  0  0  0  0  0
  147.6862  142.1434  154.9605 C   0  0  0  0  0  0  0  0  0  0  0  0
  146.6887  141.0829  154.5236 C   0  0  0  0  0  0  0  0  0  0  0  0
  147.5005  140.2241  153.5644 C   0  0  0  0  0  0  0  0  0  0  0  0
  148.7765  140.2052  154.1791 O   0  0  0  0  0  0  0  0  0  0  0  0
  151.8954  141.9505  158.1529 N   0  0  0  0  0  0  0  0  0  0  0  0
  152.6415  142.3113  159.2021 C   0  0  0  0  0  0  0  0  0  0  0  0
  153.5404  141.2431  159.8112 C   0  0  0  0  0  0  0  0  0  0  0  0
  153.0787  139.8257  159.4396 C   0  0  0  0  0  0  0  0  0  0  0  0
  153.7233  141.4369  161.3246 C   0  0  0  0  0  0  0  0  0  0  0  0
  152.6835  143.5251  159.7583 N   0  0  0  0  0  0  0  0  0  0  0  0
  151.2868  146.5438  159.3223 H   0  0  0  0  0  0  0  0  0  0  0  0
  152.9603  146.2444  159.8020 H   0  0  0  0  0  0  0  0  0  0  0  0
  151.6353  145.7958  160.8845 H   0  0  0  0  0  0  0  0  0  0  0  0
  150.4360  144.9627  157.6685 H   0  0  0  0  0  0  0  0  0  0  0  0
  149.7455  143.4390  156.1175 H   0  0  0  0  0  0  0  0  0  0  0  0
  149.5298  142.0785  153.8226 H   0  0  0  0  0  0  0  0  0  0  0  0
  147.5472  142.3932  156.0133 H   0  0  0  0  0  0  0  0  0  0  0  0
  147.5478  143.0599  154.3859 H   0  0  0  0  0  0  0  0  0  0  0  0
  146.3839  140.4855  155.3838 H   0  0  0  0  0  0  0  0  0  0  0  0
  145.7925  141.5014  154.0652 H   0  0  0  0  0  0  0  0  0  0  0  0
  147.0927  139.2198  153.4474 H   0  0  0  0  0  0  0  0  0  0  0  0
  147.5699  140.6899  152.5799 H   0  0  0  0  0  0  0  0  0  0  0  0
  154.5305  141.3664  159.3686 H   0  0  0  0  0  0  0  0  0  0  0  0
  153.0333  139.7008  158.3574 H   0  0  0  0  0  0  0  0  0  0  0  0
  152.0881  139.6113  159.8422 H   0  0  0  0  0  0  0  0  0  0  0  0
  153.7653  139.0744  159.8306 H   0  0  0  0  0  0  0  0  0  0  0  0
  154.1175  142.4288  161.5473 H   0  0  0  0  0  0  0  0  0  0  0  0
  154.4204  140.7047  161.7324 H   0  0  0  0  0  0  0  0  0  0  0  0
  152.7783  141.3262  161.8576 H   0  0  0  0  0  0  0  0  0  0  0  0
  1  2  1  0  0  0  0
  1 19  1  0  0  0  0
  1 20  1  0  0  0  0
  1 21  1  0  0  0  0
  2 18  1  0  0  0  0
  2  3  2  0  0  0  0
  3  4  1  0  0  0  0
  3 22  1  0  0  0  0
  4  5  1  0  0  0  0
  4 13  2  0  0  0  0
  5  6  1  0  0  0  0
  5 23  1  0  0  0  0
  6  7  2  0  0  0  0
  6  8  1  0  0  0  0
  8 12  1  0  0  0  0
  8  9  1  0  0  0  0
  8 24  1  0  0  0  0
  9 10  1  0  0  0  0
  9 25  1  0  0  0  0
  9 26  1  0  0  0  0
 10 11  1  0  0  0  0
 10 27  1  0  0  0  0
 10 28  1  0  0  0  0
 11 12  1  0  0  0  0
 11 29  1  0  0  0  0
 11 30  1  0  0  0  0
 13 14  1  0  0  0  0
 14 15  1  0  0  0  0
 14 18  2  0  0  0  0
 15 16  1  0  0  0  0
 15 17  1  0  0  0  0
 15 31  1  0  0  0  0
 16 32  1  0  0  0  0
 16 33  1  0  0  0  0
 16 34  1  0  0  0  0
 17 35  1  0  0  0  0
 17 36  1  0  0  0  0
 17 37  1  0  0  0  0
M  END
> <s_m_source_file>
AV-unprocessed.smi

> <i_m_source_file_index>
2475

> <i_lp_mmshare_version>
43012

> <i_f3d_flags>
0

> <s_epik_input>
W0NIM11bQ0hdKFtDSDNdKWMobjEpbmMoW2NIXWMxW0NIM10pW05IXUMoPU8pW0NAQEhdMltDSDJdW0NIMl1bQ0gyXU8y

> <s_epik_cmdline>
J2VwaWtfcHl0aG9uJywgJy1waCcsICc3LjAnLCAnLXRuJywgJzgnLCAnLW1hJywgJzIwMCcsICctbWV0YWxfYmluZGluZycsICctaW1hZScsICc8aW5maWxlLm1hZT4nLCAnLW9tYWUnLCAnPG91dGZpbGUubWFlPic=

> <r_lp_tautomer_probability>
1

> <r_epik_Ionization_Penalty>
1.42804e-05

> <r_epik_Ionization_Penalty_Charging>
0

> <r_epik_Ionization_Penalty_Neutral>
1.42804e-05

> <r_epik_State_Penalty>
-0

> <r_epik_Charging_Adjusted_Penalty>
0

> <i_epik_Tot_Q>
0

> <i_epik_Tot_abs_Q>
0

> <r_epik_Metal_State_Penalty>
-0

> <b_epik_Metal_Only>
0

> <s_lp_Force_Field>
OPLS_2005

> <r_lp_Energy>
10.8571

> <b_lp_Chiralities_Consistent>
1

> <s_lp_Variant>
AV-unprocessed.smi:2475-1

> <Gold.Version>
5.8.1

> <Gold.Id.Protein>
6NUR|6NUR_protein|mol2

> <Gold.PLP.Fitness>
41.5451

> <Gold.PLP.PLP>
-39.9781

> <Gold.PLP.part.hbond>
-1.0000

> <Gold.PLP.part.metal>
0.0000

> <Gold.PLP.part.buried>
-2.4052

> <Gold.PLP.part.nonpolar>
-37.0867

> <Gold.PLP.part.repulsive>
0.7272

> <Gold.PLP.ligand.clash>
0.0000

> <Gold.PLP.ligand.torsion>
0.7529

> <Gold.PLP.Chemscore.Hbond>
1.0000

> <Gold.PLP.Chemscore.CHOScore>
0.0000

> <Gold.PLP.Chemscore.Metal>
0.0000

> <Gold.Chemscore.Hbonds>
donor molecule, donor type, donor heavy atom, donor atom, acceptor molecule, acceptor atom, score
      L1  H     5    23       P1  8028  1.00

> <Gold.PLP.Chemscore.Internal.Correction>
0.0728

> <Gold.Rescore>
     Score         DG    S(hbond)    S(metal)    S(lipo)     H(rot)  DE(clash)    DE(int)     intcor
     13.72     -16.08       1.00        0.00      88.01       1.18       0.23       2.13       ----

> <Gold.Chemscore.Fitness>
13.7227

> <Gold.Chemscore.DG>
-16.0849

> <Gold.Chemscore.ZeroCoef>
-5.4800

> <Gold.Chemscore.Hbond>
0.9997

> <Gold.Chemscore.Metal>
0.0000

> <Gold.Chemscore.Lipo>
88.0120

> <Gold.Chemscore.Internal_Hbond>
0.0000

> <Gold.Chemscore.DEClash>
0.2287

> <Gold.Chemscore.DEInternal>
2.1335

> <Gold.Chemscore.Rot>
1.1842

> <Gold.Chemscore.Internal.Correction>
   9.000000E+99

> <Gold.Chemscore.Hbonds>
donor molecule, donor type, donor heavy atom, donor atom, acceptor molecule, acceptor atom, score
      L1  H     5    23       P1  8028  0.99

> <Gold.Chemscore.Hbond.Weighted>
-3.3390

> <Gold.Chemscore.Metal.Weighted>
-0.0000

> <Gold.Chemscore.Lipo.Weighted>
-10.2974

> <Gold.Chemscore.Internal_Hbond.Weighted>
0.0000

> <Gold.Chemscore.DEClash.Weighted>
0.2287

> <Gold.Chemscore.DEInternal.Weighted>
2.1335

> <Gold.Chemscore.Rot.Weighted>
3.0315

> <Gold.Chemscore.Internal.Correction.Weighted>
   9.000000E+99

> <Gold.Protein.RotatedTorsions>
[ 6907 6896 6895 6894 ] final  -89.90 input  -60.11 | X-H torsion
[ 7974 7965 7964 7962 ] final  161.43 input  175.53 | X-H torsion
[ 8008 7997 7996 7995 ] final -141.88 input   59.86 | X-H torsion
[ 10167 10162 10161 10158 ] final  -81.77 input  -65.29 | X-H torsion
[ 10718 10713 10712 10709 ] final   -5.50 input   66.30 | X-H torsion
[ 10763 10752 10751 10750 ] final  -13.64 input  -60.55 | X-H torsion
[ 11005 11000 10999 10996 ] final   91.48 input  -57.11 | X-H torsion

> <Gold.Protein.ActiveResidues>
 VAL166  LYS551  ARG553  GLY616  TRP617  ASP618  TYR619  PRO620  LYS621  CYS622 
 ASP623  PHE694  ASN695  SER759  ASP760  ASP761  ALA762  ILE779  LEU786  VAL792 
 PHE793  MET794  SER795  GLU796  ALA797  LYS798  CYS799  TRP800  GLU811  SER814 

> <Gold.Protein.RotatedAtoms>
  150.6877  134.2515  159.4512 H   0  0  0  0  0  0  0  0  0  0  0  0  # atno 6907 bound_to 6896
  152.0452  134.9685  160.0583 H   0  0  0  0  0  0  0  0  0  0  0  0  # atno 6908 bound_to 6896
  152.1171  133.4298  159.4695 H   0  0  0  0  0  0  0  0  0  0  0  0  # atno 6909 bound_to 6896
  144.7686  139.7898  143.6306 H   0  0  0  0  0  0  0  0  0  0  0  0  # atno 7974 bound_to 7965
  155.4851  140.0563  157.2962 H   0  0  0  0  0  0  0  0  0  0  0  0  # atno 8008 bound_to 7997
  154.4645  140.2012  156.0107 H   0  0  0  0  0  0  0  0  0  0  0  0  # atno 8009 bound_to 7997
  156.0950  140.3228  155.7870 H   0  0  0  0  0  0  0  0  0  0  0  0  # atno 8010 bound_to 7997
  140.4382  143.2524  151.8664 H   0  0  0  0  0  0  0  0  0  0  0  0  # atno 10167 bound_to 10162
  156.7456  130.5223  149.5815 H   0  0  0  0  0  0  0  0  0  0  0  0  # atno 10718 bound_to 10713
  153.5164  135.7016  153.5754 H   0  0  0  0  0  0  0  0  0  0  0  0  # atno 10763 bound_to 10752
  153.3822  135.3917  155.1865 H   0  0  0  0  0  0  0  0  0  0  0  0  # atno 10764 bound_to 10752
  154.8698  135.3838  154.4649 H   0  0  0  0  0  0  0  0  0  0  0  0  # atno 10765 bound_to 10752
  139.8838  134.8676  156.3434 H   0  0  0  0  0  0  0  0  0  0  0  0  # atno 11005 bound_to 11000
  146.1814  139.5008  142.9864 LP  0  0  0  0  0  0  0  0  0  0  0  0  # atno 17320 bound_to 7965
  145.6393  141.0287  143.1820 LP  0  0  0  0  0  0  0  0  0  0  0  0  # atno 17321 bound_to 7965
  139.4788  144.5259  151.8736 LP  0  0  0  0  0  0  0  0  0  0  0  0  # atno 17342 bound_to 10162
  140.4349  144.2065  150.5889 LP  0  0  0  0  0  0  0  0  0  0  0  0  # atno 17343 bound_to 10162
  156.1435  130.6261  151.0500 LP  0  0  0  0  0  0  0  0  0  0  0  0  # atno 17370 bound_to 10713
  157.6799  131.0840  150.7396 LP  0  0  0  0  0  0  0  0  0  0  0  0  # atno 17371 bound_to 10713
  140.9643  133.7368  156.0445 LP  0  0  0  0  0  0  0  0  0  0  0  0  # atno 17394 bound_to 11000
  140.7950  134.3574  157.5454 LP  0  0  0  0  0  0  0  0  0  0  0  0  # atno 17395 bound_to 11000

$$$$
