#       Name:                AV-unprocessed.smi:8
#       Creating user name   scv26
#       Creation time:       Thu Mar 26 15:16:36 2020


#       File generated by GOLD software.
#

@<TRIPOS>MOLECULE
AV-unprocessed.smi:8
    40    41     1
SMALL
NO_CHARGES


@<TRIPOS>ATOM
      1 ****        -4.3992   2.5755  -0.5690 C.3            1 S1                 0.0000
      2 ****        -4.0202   1.6415  -1.7268 C.3            1 S1                 0.0000
      3 ****        -3.2398   0.4901  -1.2546 N.am           1 S1                 0.0000
      4 ****        -1.8395   0.6000  -1.2828 C.2            1 S1                 0.0000
      5 ****        -1.0256  -0.3911  -0.8641 C.2            1 S1                 0.0000
      6 ****         0.4901  -0.2754  -0.9180 C.3            1 S1                 0.0000
      7 ****         1.1086  -0.3039   0.4018 N.pl3          1 S1                 0.0000
      8 ****         2.5071  -0.3394   0.4978 C.ar           1 S1                 0.0000
      9 ****         3.2496   0.1491  -0.5218 N.ar           1 S1                 0.0000
     10 ****         4.5849   0.1256  -0.4368 C.ar           1 S1                 0.0000
     11 ****         5.2400  -0.3628   0.6264 N.pl3          1 S1                 1.0000
     12 ****         4.5374  -0.8602   1.6728 C.ar           1 S1                 0.0000
     13 ****         3.1284  -0.8669   1.6499 C.ar           1 S1                 0.0000
     14 ****         2.3339  -1.4250   2.8167 C.3            1 S1                 0.0000
     15 ****        -1.6609  -1.6243  -0.3855 C.2            1 S1                 0.0000
     16 ****        -0.9617  -2.5665  -0.0131 O.2            1 S1                 0.0000
     17 ****        -3.0244  -1.6772  -0.3688 N.pl3          1 S1                -1.0000
     18 ****        -3.8262  -0.6502  -0.7857 C.2            1 S1                 0.0000
     19 ****        -5.0553  -0.7188  -0.7515 O.2            1 S1                 0.0000
     20 ****        -4.9650   3.4331  -0.9332 H              1 S1                 0.0000
     21 ****        -3.5119   2.9536  -0.0606 H              1 S1                 0.0000
     22 ****        -5.0153   2.0613   0.1692 H              1 S1                 0.0000
     23 ****        -4.9203   1.3112  -2.2477 H              1 S1                 0.0000
     24 ****        -3.4508   2.1994  -2.4714 H              1 S1                 0.0000
     25 ****        -1.4682   1.5413  -1.6612 H              1 S1                 0.0000
     26 ****         0.8849  -1.0912  -1.5252 H              1 S1                 0.0000
     27 ****         0.7573   0.6558  -1.4193 H              1 S1                 0.0000
     28 ****         0.5965  -0.7956   1.1207 H              1 S1                 0.0000
     29 ****         5.1884   0.5115  -1.2451 H              1 S1                 0.0000
     30 ****         5.1281  -1.2371   2.4950 H              1 S1                 0.0000
     31 ****         2.9931  -1.7936   3.6032 H              1 S1                 0.0000
     32 ****         1.7041  -2.2521   2.4869 H              1 S1                 0.0000
     33 ****         1.6936  -0.6536   3.2453 H              1 S1                 0.0000
     34 ****         6.2599  -0.3641   0.6558 H              1 S1                 0.0000
     35 ****         2.8035   0.5254  -1.3339 LP             1 S1                 0.0000
     36 ****         0.0350  -2.4897  -0.0374 LP             1 S1                 0.0000
     37 ****        -1.3905  -3.4087   0.3138 LP             1 S1                 0.0000
     38 ****        -3.4612  -2.5120  -0.0336 LP             1 S1                 0.0000
     39 ****        -5.6081   0.0536  -1.0643 LP             1 S1                 0.0000
     40 ****        -5.5006  -1.5469  -0.4109 LP             1 S1                 0.0000
@<TRIPOS>BOND
    1    1    2 1     
    2    1   20 1     
    3    1   21 1     
    4    1   22 1     
    5    2    3 1     
    6    2   23 1     
    7    2   24 1     
    8    3   18 am    
    9    3    4 1     
   10    4    5 2     
   11    4   25 1     
   12    5    6 1     
   13    5   15 1     
   14    6    7 1     
   15    6   26 1     
   16    6   27 1     
   17    7    8 1     
   18    7   28 1     
   19    8   13 ar    
   20    8    9 ar    
   21    9   10 ar    
   22   10   11 ar    
   23   10   29 1     
   24   11   12 ar    
   25   11   34 1     
   26   12   13 ar    
   27   12   30 1     
   28   13   14 1     
   29   14   31 1     
   30   14   32 1     
   31   14   33 1     
   32   15   16 2     
   33   15   17 1     
   34   17   18 1     
   35   18   19 2     
   36    9   35 1     
   37   16   36 1     
   38   16   37 1     
   39   17   38 1     
   40   19   39 1     
   41   19   40 1     
@<TRIPOS>SUBSTRUCTURE
      1 S1             1
@<TRIPOS>SET
LONE_PAIRS      STATIC     ATOMS    <user>   **** ""
6 35 36 37 38 39 40
DONOR_HYDROGENS      STATIC     ATOMS    <user>   **** ""
2 28 34
ATOM$BLUE        STATIC     ATOMS    COLORGROUP SYSTEM
6 35 36 37 38 39 40
ATOM$RED        STATIC     ATOMS    COLORGROUP SYSTEM
2 28 34
