AV-unprocessed.smi:1055|AV-procd|sdf|4624|dock1
  -GOLD-   22720 3123D 1   1.00000     0.00000
 Structure written by MMmdl.
 52 53  0  0  0  0  0  0  0  0  3 V2000
  146.0471  133.2028  150.5953 C   0  0  0  0  0  0  0  0  0  0  0  0
  145.8510  134.0280  151.6372 C   0  0  0  0  0  0  0  0  0  0  0  0
  146.2695  133.6551  153.0472 C   0  0  0  0  0  0  0  0  0  0  0  0
  145.1914  135.3887  151.4768 C   0  0  0  0  0  0  0  0  0  0  0  0
  146.0846  136.4885  151.9192 N   0  3  2  0  0  0  0  0  0  0  0  0
  146.1020  136.6399  153.3959 C   0  0  0  0  0  0  0  0  0  0  0  0
  147.1522  137.6743  153.8338 C   0  0  0  0  0  0  0  0  0  0  0  0
  146.9123  139.0359  153.1541 C   0  0  1  0  0  0  0  0  0  0  0  0
  147.9745  139.9810  153.4883 N   0  0  0  0  0  0  0  0  0  0  0  0
  148.3050  140.3643  154.7300 C   0  0  0  0  0  0  0  0  0  0  0  0
  147.7397  139.9453  155.7394 O   0  0  0  0  0  0  0  0  0  0  0  0
  149.3276  141.2373  154.7129 N   0  0  0  0  0  0  0  0  0  0  0  0
  149.9748  141.8787  155.8049 C   0  0  0  0  0  0  0  0  0  0  0  0
  150.1820  141.1224  156.9775 C   0  0  0  0  0  0  0  0  0  0  0  0
  150.8287  141.7054  158.0864 C   0  0  0  0  0  0  0  0  0  0  0  0
  151.2730  143.0485  158.0171 C   0  0  0  0  0  0  0  0  0  0  0  0
  151.9287  143.7020  159.0829 N   0  0  0  0  0  0  0  0  0  0  0  0
  151.9000  145.1580  159.1673 C   0  0  0  0  0  0  0  0  0  0  0  0
  152.5267  142.9170  160.1552 C   0  0  0  0  0  0  0  0  0  0  0  0
  151.0595  143.7324  156.8665 N   0  3  0  0  0  0  0  0  0  0  0  0
  150.4449  143.2138  155.7815 C   0  0  0  0  0  0  0  0  0  0  0  0
  146.8473  138.8456  151.6296 C   0  0  0  0  0  0  0  0  0  0  0  0
  145.8065  137.7821  151.2406 C   0  0  0  0  0  0  0  0  0  0  0  0
  146.5150  132.2376  150.7247 H   0  0  0  0  0  0  0  0  0  0  0  0
  145.7433  133.4783  149.5959 H   0  0  0  0  0  0  0  0  0  0  0  0
  145.4080  133.6731  153.7151 H   0  0  0  0  0  0  0  0  0  0  0  0
  147.0130  134.3568  153.4259 H   0  0  0  0  0  0  0  0  0  0  0  0
  146.7028  132.6547  153.0820 H   0  0  0  0  0  0  0  0  0  0  0  0
  144.8869  135.5532  150.4418 H   0  0  0  0  0  0  0  0  0  0  0  0
  144.2792  135.3845  152.0751 H   0  0  0  0  0  0  0  0  0  0  0  0
  145.1115  136.9362  153.7453 H   0  0  0  0  0  0  0  0  0  0  0  0
  146.3292  135.6805  153.8621 H   0  0  0  0  0  0  0  0  0  0  0  0
  147.1256  137.7823  154.9187 H   0  0  0  0  0  0  0  0  0  0  0  0
  148.1486  137.3058  153.5851 H   0  0  0  0  0  0  0  0  0  0  0  0
  145.9560  139.4409  153.4912 H   0  0  0  0  0  0  0  0  0  0  0  0
  148.4925  140.3742  152.7160 H   0  0  0  0  0  0  0  0  0  0  0  0
  149.7150  141.4428  153.8036 H   0  0  0  0  0  0  0  0  0  0  0  0
  149.8454  140.0973  157.0334 H   0  0  0  0  0  0  0  0  0  0  0  0
  150.9748  141.1084  158.9741 H   0  0  0  0  0  0  0  0  0  0  0  0
  152.2952  145.6056  158.2549 H   0  0  0  0  0  0  0  0  0  0  0  0
  152.5040  145.5185  160.0001 H   0  0  0  0  0  0  0  0  0  0  0  0
  150.8792  145.5119  159.3144 H   0  0  0  0  0  0  0  0  0  0  0  0
  153.3358  142.2962  159.7695 H   0  0  0  0  0  0  0  0  0  0  0  0
  151.7817  142.2711  160.6209 H   0  0  0  0  0  0  0  0  0  0  0  0
  152.9414  143.5597  160.9322 H   0  0  0  0  0  0  0  0  0  0  0  0
  150.3686  143.8907  154.9447 H   0  0  0  0  0  0  0  0  0  0  0  0
  146.6040  139.7918  151.1445 H   0  0  0  0  0  0  0  0  0  0  0  0
  147.8257  138.5462  151.2503 H   0  0  0  0  0  0  0  0  0  0  0  0
  145.8227  137.6520  150.1583 H   0  0  0  0  0  0  0  0  0  0  0  0
  144.8038  138.1238  151.5020 H   0  0  0  0  0  0  0  0  0  0  0  0
  147.0196  136.2138  151.6535 H   0  0  0  0  0  0  0  0  0  0  0  0
  151.3848  144.6980  156.8142 H   0  0  0  0  0  0  0  0  0  0  0  0
  1  2  2  0  0  0  0
  1 24  1  0  0  0  0
  1 25  1  0  0  0  0
  2  3  1  0  0  0  0
  2  4  1  0  0  0  0
  3 26  1  0  0  0  0
  3 27  1  0  0  0  0
  3 28  1  0  0  0  0
  4  5  1  0  0  0  0
  4 29  1  0  0  0  0
  4 30  1  0  0  0  0
  5 23  1  0  0  0  0
  5  6  1  0  0  0  0
  5 51  1  0  0  0  0
  6  7  1  0  0  0  0
  6 31  1  0  0  0  0
  6 32  1  0  0  0  0
  7  8  1  0  0  0  0
  7 33  1  0  0  0  0
  7 34  1  0  0  0  0
  8  9  1  0  0  0  0
  8 22  1  0  0  0  0
  8 35  1  0  0  0  0
  9 10  1  0  0  0  0
  9 36  1  0  0  0  0
 10 11  2  0  0  0  0
 10 12  1  0  0  0  0
 12 13  1  0  0  0  0
 12 37  1  0  0  0  0
 13 21  1  0  0  0  0
 13 14  2  0  0  0  0
 14 15  1  0  0  0  0
 14 38  1  0  0  0  0
 15 16  2  0  0  0  0
 15 39  1  0  0  0  0
 16 17  1  0  0  0  0
 16 20  1  0  0  0  0
 17 18  1  0  0  0  0
 17 19  1  0  0  0  0
 18 40  1  0  0  0  0
 18 41  1  0  0  0  0
 18 42  1  0  0  0  0
 19 43  1  0  0  0  0
 19 44  1  0  0  0  0
 19 45  1  0  0  0  0
 20 21  2  0  0  0  0
 20 52  1  0  0  0  0
 21 46  1  0  0  0  0
 22 23  1  0  0  0  0
 22 47  1  0  0  0  0
 22 48  1  0  0  0  0
 23 49  1  0  0  0  0
 23 50  1  0  0  0  0
M  CHG  1   5   1
M  CHG  1  20   1
M  END
> <s_m_source_file>
AV-unprocessed.smi

> <i_m_source_file_index>
1055

> <i_lp_mmshare_version>
43012

> <i_f3d_flags>
0

> <s_epik_input>
W0NIMl09QyhbQ0gzXSlbQ0gyXU4xW0NIMl1bQ0gyXVtDSF0oW0NIMl1bQ0gyXTEpW05IXUMoPU8pW05IXWMyW2NIXVtjSF1jKE4oW0NIM10pW0NIM10pbltjSF0y

> <s_epik_cmdline>
J2VwaWtfcHl0aG9uJywgJy1waCcsICc3LjAnLCAnLXRuJywgJzgnLCAnLW1hJywgJzIwMCcsICctbWV0YWxfYmluZGluZycsICctaW1hZScsICc8aW5maWxlLm1hZT4nLCAnLW9tYWUnLCAnPG91dGZpbGUubWFlPic=

> <r_lp_tautomer_probability>
0.999994

> <r_epik_Ionization_Penalty>
0.344238

> <r_epik_Ionization_Penalty_Charging>
0.344219

> <r_epik_Ionization_Penalty_Neutral>
1.87459e-05

> <r_epik_State_Penalty>
0.320654

> <r_epik_Charging_Adjusted_Penalty>
0.664873

> <i_epik_Tot_Q>
2

> <i_epik_Tot_abs_Q>
2

> <r_epik_Metal_State_Penalty>
0.58246

> <b_epik_Metal_Only>
0

> <s_lp_Force_Field>
OPLS_2005

> <r_lp_Energy>
26.1172

> <b_lp_Chiralities_Consistent>
1

> <s_lp_Variant>
AV-unprocessed.smi:1055-1

> <Gold.Version>
5.8.1

> <Gold.Id.Protein>
6NUR|6NUR_protein|mol2

> <Gold.PLP.Fitness>
45.0852

> <Gold.PLP.PLP>
-37.5746

> <Gold.PLP.part.hbond>
-3.0000

> <Gold.PLP.part.metal>
0.0000

> <Gold.PLP.part.buried>
6.6710

> <Gold.PLP.part.nonpolar>
-41.3904

> <Gold.PLP.part.repulsive>
0.3022

> <Gold.PLP.ligand.clash>
0.0000

> <Gold.PLP.ligand.torsion>
0.7220

> <Gold.PLP.Chemscore.Hbond>
2.9440

> <Gold.PLP.Chemscore.CHOScore>
0.0000

> <Gold.PLP.Chemscore.Metal>
0.0000

> <Gold.Chemscore.Hbonds>
donor molecule, donor type, donor heavy atom, donor atom, acceptor molecule, acceptor atom, score
      L1  H     5    51       P1  7948  2.00
      L1  H     9    36       P1  7957  0.94

> <Gold.PLP.Chemscore.Internal.Correction>
0.1226

> <Gold.Rescore>
     Score         DG    S(hbond)    S(metal)    S(lipo)     H(rot)  DE(clash)    DE(int)     intcor
     13.57     -21.32       1.94        0.00     109.46       1.35       5.85       1.91       ----

> <Gold.Chemscore.Fitness>
13.5690

> <Gold.Chemscore.DG>
-21.3221

> <Gold.Chemscore.ZeroCoef>
-5.4800

> <Gold.Chemscore.Hbond>
1.9408

> <Gold.Chemscore.Metal>
0.0000

> <Gold.Chemscore.Lipo>
109.4605

> <Gold.Chemscore.Internal_Hbond>
0.0000

> <Gold.Chemscore.DEClash>
5.8467

> <Gold.Chemscore.DEInternal>
1.9063

> <Gold.Chemscore.Rot>
1.3465

> <Gold.Chemscore.Internal.Correction>
   9.000000E+99

> <Gold.Chemscore.Hbonds>
donor molecule, donor type, donor heavy atom, donor atom, acceptor molecule, acceptor atom, score
      L1  H     5    51       P1  7948  0.97
      L1  H     9    36       P1  7957  0.92

> <Gold.Chemscore.Hbond.Weighted>
-6.4822

> <Gold.Chemscore.Metal.Weighted>
-0.0000

> <Gold.Chemscore.Lipo.Weighted>
-12.8069

> <Gold.Chemscore.Internal_Hbond.Weighted>
0.0000

> <Gold.Chemscore.DEClash.Weighted>
5.8467

> <Gold.Chemscore.DEInternal.Weighted>
1.9063

> <Gold.Chemscore.Rot.Weighted>
3.4470

> <Gold.Chemscore.Internal.Correction.Weighted>
   9.000000E+99

> <Gold.Protein.RotatedTorsions>
[ 6907 6896 6895 6894 ] final   64.87 input  -60.11 | X-H torsion
[ 7974 7965 7964 7962 ] final  -17.01 input  175.53 | X-H torsion
[ 8008 7997 7996 7995 ] final  178.13 input   59.86 | X-H torsion
[ 10167 10162 10161 10158 ] final -144.46 input  -65.29 | X-H torsion
[ 10718 10713 10712 10709 ] final  -97.43 input   66.30 | X-H torsion
[ 10763 10752 10751 10750 ] final  111.59 input  -60.55 | X-H torsion
[ 11005 11000 10999 10996 ] final -143.94 input  -57.11 | X-H torsion

> <Gold.Protein.ActiveResidues>
 VAL166  LYS551  ARG553  GLY616  TRP617  ASP618  TYR619  PRO620  LYS621  CYS622 
 ASP623  PHE694  ASN695  SER759  ASP760  ASP761  ALA762  ILE779  LEU786  VAL792 
 PHE793  MET794  SER795  GLU796  ALA797  LYS798  CYS799  TRP800  GLU811  SER814 

> <Gold.Protein.RotatedAtoms>
  152.4364  134.5677  159.9912 H   0  0  0  0  0  0  0  0  0  0  0  0  # atno 6907 bound_to 6896
  151.5786  133.3375  159.3012 H   0  0  0  0  0  0  0  0  0  0  0  0  # atno 6908 bound_to 6896
  150.8264  134.7531  159.6880 H   0  0  0  0  0  0  0  0  0  0  0  0  # atno 6909 bound_to 6896
  146.1961  140.3717  142.8440 H   0  0  0  0  0  0  0  0  0  0  0  0  # atno 7974 bound_to 7965
  156.0581  140.1341  156.9973 H   0  0  0  0  0  0  0  0  0  0  0  0  # atno 8008 bound_to 7997
  154.4468  140.0997  156.6546 H   0  0  0  0  0  0  0  0  0  0  0  0  # atno 8009 bound_to 7997
  155.5420  140.3461  155.4451 H   0  0  0  0  0  0  0  0  0  0  0  0  # atno 8010 bound_to 7997
  139.7896  143.7984  152.2648 H   0  0  0  0  0  0  0  0  0  0  0  0  # atno 10167 bound_to 10162
  156.0083  130.5194  150.6373 H   0  0  0  0  0  0  0  0  0  0  0  0  # atno 10718 bound_to 10713
  153.4656  135.3712  155.2362 H   0  0  0  0  0  0  0  0  0  0  0  0  # atno 10763 bound_to 10752
  154.8757  135.3919  154.3873 H   0  0  0  0  0  0  0  0  0  0  0  0  # atno 10764 bound_to 10752
  153.4453  135.7085  153.6207 H   0  0  0  0  0  0  0  0  0  0  0  0  # atno 10765 bound_to 10752
  140.8074  134.2784  157.4954 H   0  0  0  0  0  0  0  0  0  0  0  0  # atno 11005 bound_to 11000
  144.8584  140.7104  143.6123 LP  0  0  0  0  0  0  0  0  0  0  0  0  # atno 17320 bound_to 7965
  145.3638  139.1675  143.4369 LP  0  0  0  0  0  0  0  0  0  0  0  0  # atno 17321 bound_to 7965
  139.8072  144.7350  150.9746 LP  0  0  0  0  0  0  0  0  0  0  0  0  # atno 17342 bound_to 10162
  140.7820  143.4287  151.0729 LP  0  0  0  0  0  0  0  0  0  0  0  0  # atno 17343 bound_to 10162
  157.4159  131.0830  151.1177 LP  0  0  0  0  0  0  0  0  0  0  0  0  # atno 17370 bound_to 10713
  157.1793  130.6302  149.5666 LP  0  0  0  0  0  0  0  0  0  0  0  0  # atno 17371 bound_to 10713
  139.8716  134.9464  156.3937 LP  0  0  0  0  0  0  0  0  0  0  0  0  # atno 17394 bound_to 11000
  140.9232  133.7630  155.9932 LP  0  0  0  0  0  0  0  0  0  0  0  0  # atno 17395 bound_to 11000

$$$$
