AV-unprocessed.smi:2197|AV-procd|sdf|8909|dock10
  -GOLD-   2272012123D 1   1.00000     0.00000
 Structure written by MMmdl.
 28 28  0  0  0  0  0  0  0  0  1 V2000
  151.7866  145.4121  160.1913 C   0  0  0  0  0  0  0  0  0  0  0  0
  150.8929  144.8257  159.0934 C   0  0  0  0  0  0  0  0  0  0  0  0
  151.7029  144.1829  157.9559 C   0  0  0  0  0  0  0  0  0  0  0  0
  150.8620  143.3427  157.1113 N   0  0  0  0  0  0  0  0  0  0  0  0
  150.9865  142.0134  156.9776 C   0  0  0  0  0  0  0  0  0  0  0  0
  151.8249  141.3501  157.5896 O   0  0  0  0  0  0  0  0  0  0  0  0
  149.9982  141.3360  156.0170 C   0  0  0  0  0  0  0  0  0  0  0  0
  150.2933  139.9124  155.7972 N   0  0  0  0  0  0  0  0  0  0  0  0
  150.4221  139.4137  154.5086 C   0  0  0  0  0  0  0  0  0  0  0  0
  150.6839  138.1136  154.2351 C   0  0  0  0  0  0  0  0  0  0  0  0
  150.8467  137.1490  155.3175 C   0  0  0  0  0  0  0  0  0  0  0  0
  151.0870  135.9526  155.1715 O   0  0  0  0  0  0  0  0  0  0  0  0
  150.7072  137.6886  156.5989 N   0  0  0  0  0  0  0  0  0  0  0  0
  150.4368  139.0271  156.8879 C   0  0  0  0  0  0  0  0  0  0  0  0
  150.3306  139.3981  158.0563 O   0  0  0  0  0  0  0  0  0  0  0  0
  150.8083  137.0578  157.3808 H   0  0  0  0  0  0  0  0  0  0  0  0
  151.1856  145.8529  160.9869 H   0  0  0  0  0  0  0  0  0  0  0  0
  152.4365  146.1921  159.7943 H   0  0  0  0  0  0  0  0  0  0  0  0
  152.4175  144.6432  160.6378 H   0  0  0  0  0  0  0  0  0  0  0  0
  150.2255  144.0832  159.5322 H   0  0  0  0  0  0  0  0  0  0  0  0
  150.2552  145.6158  158.6942 H   0  0  0  0  0  0  0  0  0  0  0  0
  152.1954  144.9492  157.3544 H   0  0  0  0  0  0  0  0  0  0  0  0
  152.4944  143.5586  158.3712 H   0  0  0  0  0  0  0  0  0  0  0  0
  150.1421  143.8079  156.5775 H   0  0  0  0  0  0  0  0  0  0  0  0
  148.9936  141.4576  156.4246 H   0  0  0  0  0  0  0  0  0  0  0  0
  149.9879  141.8653  155.0616 H   0  0  0  0  0  0  0  0  0  0  0  0
  150.3051  140.0909  153.6744 H   0  0  0  0  0  0  0  0  0  0  0  0
  150.7722  137.7854  153.2094 H   0  0  0  0  0  0  0  0  0  0  0  0
  1  2  1  0  0  0  0
  1 17  1  0  0  0  0
  1 18  1  0  0  0  0
  1 19  1  0  0  0  0
  2  3  1  0  0  0  0
  2 20  1  0  0  0  0
  2 21  1  0  0  0  0
  3  4  1  0  0  0  0
  3 22  1  0  0  0  0
  3 23  1  0  0  0  0
  4  5  1  0  0  0  0
  4 24  1  0  0  0  0
  5  6  2  0  0  0  0
  5  7  1  0  0  0  0
  7  8  1  0  0  0  0
  7 25  1  0  0  0  0
  7 26  1  0  0  0  0
  8 14  1  0  0  0  0
  8  9  1  0  0  0  0
  9 10  2  0  0  0  0
  9 27  1  0  0  0  0
 10 11  1  0  0  0  0
 10 28  1  0  0  0  0
 11 12  2  0  0  0  0
 11 13  1  0  0  0  0
 13 16  1  0  0  0  0
 13 14  1  0  0  0  0
 14 15  2  0  0  0  0
M  END
> <s_m_source_file>
AV-unprocessed.smi

> <i_m_source_file_index>
2197

> <i_lp_mmshare_version>
43012

> <i_f3d_flags>
0

> <s_epik_input>
W0NIM11bQ0gyXVtDSDJdW05IXUMoPU8pW0NIMl1uMVtjSF1bY0hdYyg9TylbbkhdYzE9Tw==

> <s_epik_cmdline>
J2VwaWtfcHl0aG9uJywgJy1waCcsICc3LjAnLCAnLXRuJywgJzgnLCAnLW1hJywgJzIwMCcsICctbWV0YWxfYmluZGluZycsICctaW1hZScsICc8aW5maWxlLm1hZT4nLCAnLW9tYWUnLCAnPG91dGZpbGUubWFlPic=

> <r_lp_tautomer_probability>
0.999537

> <r_epik_Ionization_Penalty>
0.00328917

> <r_epik_Ionization_Penalty_Charging>
0.00328916

> <r_epik_Ionization_Penalty_Neutral>
1.81689e-08

> <r_epik_State_Penalty>
0.00232387

> <r_epik_Charging_Adjusted_Penalty>
0.00561303

> <i_epik_Tot_Q>
0

> <i_epik_Tot_abs_Q>
0

> <r_epik_Metal_State_Penalty>
0.365275

> <b_epik_Metal_Only>
0

> <s_lp_Force_Field>
OPLS_2005

> <r_lp_Energy>
1.80706

> <b_lp_Chiralities_Consistent>
1

> <s_lp_Variant>
AV-unprocessed.smi:2197-1

> <Gold.Version>
5.8.1

> <Gold.Id.Protein>
6NUR|6NUR_protein|mol2

> <Gold.PLP.Fitness>
38.6335

> <Gold.PLP.PLP>
-29.9672

> <Gold.PLP.part.hbond>
-2.0000

> <Gold.PLP.part.metal>
0.0000

> <Gold.PLP.part.buried>
-2.2633

> <Gold.PLP.part.nonpolar>
-25.5669

> <Gold.PLP.part.repulsive>
0.1739

> <Gold.PLP.ligand.clash>
0.0000

> <Gold.PLP.ligand.torsion>
0.1638

> <Gold.PLP.Chemscore.Hbond>
2.0000

> <Gold.PLP.Chemscore.CHOScore>
0.9950

> <Gold.PLP.Chemscore.Metal>
0.0000

> <Gold.Chemscore.Hbonds>
donor molecule, donor type, donor heavy atom, donor atom, acceptor molecule, acceptor atom, score
      L1  H     4    24       P1  8028  1.00
      P1  H 10752 10763       L1    12  1.00
      L1  C     9    27       P1  7957  0.82

> <Gold.PLP.Chemscore.Internal.Correction>
0.0090

> <Gold.Rescore>
     Score         DG    S(hbond)    S(metal)    S(lipo)     H(rot)  DE(clash)    DE(int)     intcor
     11.71     -13.41       1.95        0.00      56.80       2.05       0.14       1.57       ----

> <Gold.Chemscore.Fitness>
11.7074

> <Gold.Chemscore.DG>
-13.4143

> <Gold.Chemscore.ZeroCoef>
-5.4800

> <Gold.Chemscore.Hbond>
1.9549

> <Gold.Chemscore.Metal>
0.0000

> <Gold.Chemscore.Lipo>
56.7985

> <Gold.Chemscore.Internal_Hbond>
0.0000

> <Gold.Chemscore.DEClash>
0.1382

> <Gold.Chemscore.DEInternal>
1.5687

> <Gold.Chemscore.Rot>
2.0471

> <Gold.Chemscore.Internal.Correction>
   9.000000E+99

> <Gold.Chemscore.Hbonds>
donor molecule, donor type, donor heavy atom, donor atom, acceptor molecule, acceptor atom, score
      L1  H     4    24       P1  8028  1.00
      P1  H 10752 10763       L1    12  0.89

> <Gold.Chemscore.Hbond.Weighted>
-6.5295

> <Gold.Chemscore.Metal.Weighted>
-0.0000

> <Gold.Chemscore.Lipo.Weighted>
-6.6454

> <Gold.Chemscore.Internal_Hbond.Weighted>
0.0000

> <Gold.Chemscore.DEClash.Weighted>
0.1382

> <Gold.Chemscore.DEInternal.Weighted>
1.5687

> <Gold.Chemscore.Rot.Weighted>
5.2406

> <Gold.Chemscore.Internal.Correction.Weighted>
   9.000000E+99

> <Gold.Protein.RotatedTorsions>
[ 6907 6896 6895 6894 ] final   27.66 input  -60.11 | X-H torsion
[ 7974 7965 7964 7962 ] final   34.18 input  175.53 | X-H torsion
[ 8008 7997 7996 7995 ] final -109.50 input   59.86 | X-H torsion
[ 10167 10162 10161 10158 ] final   74.31 input  -65.29 | X-H torsion
[ 10718 10713 10712 10709 ] final   49.19 input   66.30 | X-H torsion
[ 10763 10752 10751 10750 ] final   67.77 input  -60.55 | X-H torsion
[ 11005 11000 10999 10996 ] final  141.50 input  -57.11 | X-H torsion

> <Gold.Protein.ActiveResidues>
 VAL166  LYS551  ARG553  GLY616  TRP617  ASP618  TYR619  PRO620  LYS621  CYS622 
 ASP623  PHE694  ASN695  SER759  ASP760  ASP761  ALA762  ILE779  LEU786  VAL792 
 PHE793  MET794  SER795  GLU796  ALA797  LYS798  CYS799  TRP800  GLU811  SER814 

> <Gold.Protein.RotatedAtoms>
  152.0055  134.9905  160.0566 H   0  0  0  0  0  0  0  0  0  0  0  0  # atno 6907 bound_to 6896
  152.1479  133.4499  159.4807 H   0  0  0  0  0  0  0  0  0  0  0  0  # atno 6908 bound_to 6896
  150.6872  134.2143  159.4415 H   0  0  0  0  0  0  0  0  0  0  0  0  # atno 6909 bound_to 6896
  146.1370  139.6301  142.9188 H   0  0  0  0  0  0  0  0  0  0  0  0  # atno 7974 bound_to 7965
  154.9603  140.0399  157.2186 H   0  0  0  0  0  0  0  0  0  0  0  0  # atno 8008 bound_to 7997
  154.7896  140.2833  155.5980 H   0  0  0  0  0  0  0  0  0  0  0  0  # atno 8009 bound_to 7997
  156.2948  140.2576  156.2740 H   0  0  0  0  0  0  0  0  0  0  0  0  # atno 8010 bound_to 7997
  140.0151  144.5584  150.7627 H   0  0  0  0  0  0  0  0  0  0  0  0  # atno 10167 bound_to 10162
  157.4762  130.8286  149.8042 H   0  0  0  0  0  0  0  0  0  0  0  0  # atno 10718 bound_to 10713
  153.0202  135.5272  154.7031 H   0  0  0  0  0  0  0  0  0  0  0  0  # atno 10763 bound_to 10752
  154.6134  135.2881  155.0409 H   0  0  0  0  0  0  0  0  0  0  0  0  # atno 10764 bound_to 10752
  154.1422  135.6576  153.4997 H   0  0  0  0  0  0  0  0  0  0  0  0  # atno 10765 bound_to 10752
  140.0406  134.9307  157.0836 H   0  0  0  0  0  0  0  0  0  0  0  0  # atno 11005 bound_to 11000
  145.5133  141.0434  143.2476 LP  0  0  0  0  0  0  0  0  0  0  0  0  # atno 17320 bound_to 7965
  144.7751  139.6649  143.7178 LP  0  0  0  0  0  0  0  0  0  0  0  0  # atno 17321 bound_to 7965
  140.7366  143.2754  151.3757 LP  0  0  0  0  0  0  0  0  0  0  0  0  # atno 17342 bound_to 10162
  139.6178  144.0967  152.2362 LP  0  0  0  0  0  0  0  0  0  0  0  0  # atno 17343 bound_to 10162
  156.0098  130.3838  150.2304 LP  0  0  0  0  0  0  0  0  0  0  0  0  # atno 17370 bound_to 10713
  157.0488  131.0056  151.3260 LP  0  0  0  0  0  0  0  0  0  0  0  0  # atno 17371 bound_to 10713
  140.4075  134.2016  155.7163 LP  0  0  0  0  0  0  0  0  0  0  0  0  # atno 17394 bound_to 11000
  141.1881  133.8268  157.1008 LP  0  0  0  0  0  0  0  0  0  0  0  0  # atno 17395 bound_to 11000

$$$$
