AV-unprocessed.smi:76|AV-procd|sdf|768|dock4
  -GOLD-   2262017113D 1   1.00000     0.00000
 Structure written by MMmdl.
 55 58  0  0  0  0  0  0  0  0  1 V2000
  153.8558  140.1559  159.2112 C   0  0  0  0  0  0  0  0  0  0  0  0
  152.4985  140.8695  159.0405 C   0  0  1  0  0  0  0  0  0  0  0  0
  152.6259  142.3460  159.4710 C   0  0  0  0  0  0  0  0  0  0  0  0
  151.3019  143.1154  159.2954 C   0  0  1  0  0  0  0  0  0  0  0  0
  151.4206  144.5909  159.7270 C   0  0  0  0  0  0  0  0  0  0  0  0
  151.9074  144.6870  160.9646 F   0  0  0  0  0  0  0  0  0  0  0  0
  152.2298  145.2445  158.8934 F   0  0  0  0  0  0  0  0  0  0  0  0
  150.2232  145.1751  159.6879 F   0  0  0  0  0  0  0  0  0  0  0  0
  150.8309  142.9709  157.8365 C   0  0  0  0  0  0  0  0  0  0  0  0
  150.7195  141.4920  157.4403 C   0  0  0  0  0  0  0  0  0  0  0  0
  151.9800  140.7884  157.6675 N   0  0  0  0  0  0  0  0  0  0  0  0
  151.9468  139.5511  157.1244 C   0  0  0  0  0  0  0  0  0  0  0  0
  152.7837  139.3090  156.0862 N   0  0  0  0  0  0  0  0  0  0  0  0
  152.8066  138.1005  155.5164 C   0  0  0  0  0  0  0  0  0  0  0  0
  152.0850  137.0198  155.8220 N   0  0  0  0  0  0  0  0  0  0  0  0
  151.2313  137.2659  156.8571 C   0  0  0  0  0  0  0  0  0  0  0  0
  151.1010  138.4939  157.5641 C   0  0  0  0  0  0  0  0  0  0  0  0
  150.1421  138.3682  158.5612 N   0  0  0  0  0  0  0  0  0  0  0  0
  149.7320  137.1343  158.4525 C   0  0  0  0  0  0  0  0  0  0  0  0
  150.3191  136.4041  157.4426 N   0  0  0  0  0  0  0  0  0  0  0  0
  150.0531  135.0122  157.1053 C   0  0  0  0  0  0  0  0  0  0  0  0
  148.5685  134.6900  156.7409 C   0  0  0  0  0  0  0  0  0  0  0  0
  148.1467  135.4213  155.4388 C   0  0  0  0  0  0  0  0  0  0  0  0
  148.9905  135.1076  154.3489 O   0  0  0  0  0  0  0  0  0  0  0  0
  148.3840  133.1629  156.5549 C   0  0  0  0  0  0  0  0  0  0  0  0
  148.4571  132.3839  157.8819 C   0  0  0  0  0  0  0  0  0  0  0  0
  147.5024  132.8939  158.8042 O   0  0  0  0  0  0  0  0  0  0  0  0
  147.7201  134.2611  159.1284 C   0  0  0  0  0  0  0  0  0  0  0  0
  147.5872  135.1217  157.8598 C   0  0  0  0  0  0  0  0  0  0  0  0
  154.2354  140.2784  160.2257 H   0  0  0  0  0  0  0  0  0  0  0  0
  154.6032  140.5587  158.5267 H   0  0  0  0  0  0  0  0  0  0  0  0
  153.7800  139.0835  159.0298 H   0  0  0  0  0  0  0  0  0  0  0  0
  151.7771  140.3919  159.7043 H   0  0  0  0  0  0  0  0  0  0  0  0
  152.9462  142.3959  160.5122 H   0  0  0  0  0  0  0  0  0  0  0  0
  153.4089  142.8306  158.8857 H   0  0  0  0  0  0  0  0  0  0  0  0
  150.5548  142.6441  159.9361 H   0  0  0  0  0  0  0  0  0  0  0  0
  149.8652  143.4578  157.6999 H   0  0  0  0  0  0  0  0  0  0  0  0
  151.5303  143.4749  157.1680 H   0  0  0  0  0  0  0  0  0  0  0  0
  149.9261  141.0164  158.0189 H   0  0  0  0  0  0  0  0  0  0  0  0
  150.4354  141.4164  156.3893 H   0  0  0  0  0  0  0  0  0  0  0  0
  153.5030  137.9824  154.6991 H   0  0  0  0  0  0  0  0  0  0  0  0
  148.9786  136.7223  159.1079 H   0  0  0  0  0  0  0  0  0  0  0  0
  150.7093  134.7353  156.2795 H   0  0  0  0  0  0  0  0  0  0  0  0
  150.3896  134.4086  157.9470 H   0  0  0  0  0  0  0  0  0  0  0  0
  147.1296  135.1453  155.1578 H   0  0  0  0  0  0  0  0  0  0  0  0
  148.1410  136.5024  155.5780 H   0  0  0  0  0  0  0  0  0  0  0  0
  148.8619  135.7582  153.6747 H   0  0  0  0  0  0  0  0  0  0  0  0
  147.4113  132.9668  156.1013 H   0  0  0  0  0  0  0  0  0  0  0  0
  149.1246  132.7689  155.8583 H   0  0  0  0  0  0  0  0  0  0  0  0
  148.2365  131.3313  157.7034 H   0  0  0  0  0  0  0  0  0  0  0  0
  149.4565  132.4207  158.3160 H   0  0  0  0  0  0  0  0  0  0  0  0
  146.9741  134.5668  159.8619 H   0  0  0  0  0  0  0  0  0  0  0  0
  148.6935  134.3877  159.6026 H   0  0  0  0  0  0  0  0  0  0  0  0
  147.7039  136.1767  158.1042 H   0  0  0  0  0  0  0  0  0  0  0  0
  146.5621  135.0216  157.4997 H   0  0  0  0  0  0  0  0  0  0  0  0
  1  2  1  0  0  0  0
  1 30  1  0  0  0  0
  1 31  1  0  0  0  0
  1 32  1  0  0  0  0
  2 11  1  0  0  0  0
  2  3  1  0  0  0  0
  2 33  1  0  0  0  0
  3  4  1  0  0  0  0
  3 34  1  0  0  0  0
  3 35  1  0  0  0  0
  4  5  1  0  0  0  0
  4  9  1  0  0  0  0
  4 36  1  0  0  0  0
  5  6  1  0  0  0  0
  5  7  1  0  0  0  0
  5  8  1  0  0  0  0
  9 10  1  0  0  0  0
  9 37  1  0  0  0  0
  9 38  1  0  0  0  0
 10 11  1  0  0  0  0
 10 39  1  0  0  0  0
 10 40  1  0  0  0  0
 11 12  1  0  0  0  0
 12 17  1  0  0  0  0
 12 13  2  0  0  0  0
 13 14  1  0  0  0  0
 14 15  2  0  0  0  0
 14 41  1  0  0  0  0
 15 16  1  0  0  0  0
 16 20  1  0  0  0  0
 16 17  2  0  0  0  0
 17 18  1  0  0  0  0
 18 19  2  0  0  0  0
 19 20  1  0  0  0  0
 19 42  1  0  0  0  0
 20 21  1  0  0  0  0
 21 22  1  0  0  0  0
 21 43  1  0  0  0  0
 21 44  1  0  0  0  0
 22 29  1  0  0  0  0
 22 23  1  0  0  0  0
 22 25  1  0  0  0  0
 23 24  1  0  0  0  0
 23 45  1  0  0  0  0
 23 46  1  0  0  0  0
 24 47  1  0  0  0  0
 25 26  1  0  0  0  0
 25 48  1  0  0  0  0
 25 49  1  0  0  0  0
 26 27  1  0  0  0  0
 26 50  1  0  0  0  0
 26 51  1  0  0  0  0
 27 28  1  0  0  0  0
 28 29  1  0  0  0  0
 28 52  1  0  0  0  0
 28 53  1  0  0  0  0
 29 54  1  0  0  0  0
 29 55  1  0  0  0  0
M  END
> <s_m_source_file>
AV-unprocessed.smi

> <i_m_source_file_index>
76

> <i_lp_mmshare_version>
43012

> <i_f3d_flags>
0

> <s_epik_input>
W0NIM11bQ0BASF0xW0NIMl1bQ0BASF0oQyhGKShGKUYpW0NIMl1bQ0gyXU4xYyhuW2NIXW4yKWMoYzIzKW5bY0hdbjNbQ0gyXUM0KFtDSDJdW09IXSlbQ0gyXVtDSDJdT1tDSDJdW0NIMl00

> <s_epik_cmdline>
J2VwaWtfcHl0aG9uJywgJy1waCcsICc3LjAnLCAnLXRuJywgJzgnLCAnLW1hJywgJzIwMCcsICctbWV0YWxfYmluZGluZycsICctaW1hZScsICc8aW5maWxlLm1hZT4nLCAnLW9tYWUnLCAnPG91dGZpbGUubWFlPic=

> <r_lp_tautomer_probability>
1

> <r_epik_Ionization_Penalty>
0.00244097

> <r_epik_Ionization_Penalty_Charging>
0

> <r_epik_Ionization_Penalty_Neutral>
0.00244097

> <r_epik_State_Penalty>
0.00151846

> <r_epik_Charging_Adjusted_Penalty>
0.00151846

> <i_epik_Tot_Q>
0

> <i_epik_Tot_abs_Q>
0

> <r_epik_Metal_State_Penalty>
-0

> <b_epik_Metal_Only>
0

> <s_lp_Force_Field>
OPLS_2005

> <r_lp_Energy>
36.6064

> <b_lp_Chiralities_Consistent>
1

> <s_lp_Variant>
AV-unprocessed.smi:76-2

> <Gold.Version>
5.8.1

> <Gold.Id.Protein>
6NUR|6NUR_protein|mol2

> <Gold.PLP.Fitness>
48.4526

> <Gold.PLP.PLP>
-39.7806

> <Gold.PLP.part.hbond>
-3.0000

> <Gold.PLP.part.metal>
0.0000

> <Gold.PLP.part.buried>
-5.5046

> <Gold.PLP.part.nonpolar>
-32.7044

> <Gold.PLP.part.repulsive>
0.0214

> <Gold.PLP.ligand.clash>
0.0000

> <Gold.PLP.ligand.torsion>
0.1753

> <Gold.PLP.Chemscore.Hbond>
2.9360

> <Gold.PLP.Chemscore.CHOScore>
0.0000

> <Gold.PLP.Chemscore.Metal>
0.0000

> <Gold.Chemscore.Hbonds>
donor molecule, donor type, donor heavy atom, donor atom, acceptor molecule, acceptor atom, score
      L1  H    24    47       P1  7948  0.96
      P1  H  7997  8010       L1    13  1.00
      P1  H 10752 10764       L1    15  0.98

> <Gold.PLP.Chemscore.Internal.Correction>
0.2146

> <Gold.Rescore>
     Score         DG    S(hbond)    S(metal)    S(lipo)     H(rot)  DE(clash)    DE(int)     intcor
     15.10     -16.51       2.28        0.00      83.06       2.47       0.20       1.22       ----

> <Gold.Chemscore.Fitness>
15.0963

> <Gold.Chemscore.DG>
-16.5141

> <Gold.Chemscore.ZeroCoef>
-5.4800

> <Gold.Chemscore.Hbond>
2.2845

> <Gold.Chemscore.Metal>
0.0000

> <Gold.Chemscore.Lipo>
83.0588

> <Gold.Chemscore.Internal_Hbond>
0.0000

> <Gold.Chemscore.DEClash>
0.1965

> <Gold.Chemscore.DEInternal>
1.2214

> <Gold.Chemscore.Rot>
2.4665

> <Gold.Chemscore.Internal.Correction>
   9.000000E+99

> <Gold.Chemscore.Hbonds>
donor molecule, donor type, donor heavy atom, donor atom, acceptor molecule, acceptor atom, score
      L1  H    24    47       P1  7948  0.88
      P1  H  7997  8010       L1    13  0.84
      P1  H 10752 10764       L1    15  0.35

> <Gold.Chemscore.Hbond.Weighted>
-7.6304

> <Gold.Chemscore.Metal.Weighted>
-0.0000

> <Gold.Chemscore.Lipo.Weighted>
-9.7179

> <Gold.Chemscore.Internal_Hbond.Weighted>
0.0000

> <Gold.Chemscore.DEClash.Weighted>
0.1965

> <Gold.Chemscore.DEInternal.Weighted>
1.2214

> <Gold.Chemscore.Rot.Weighted>
6.3142

> <Gold.Chemscore.Internal.Correction.Weighted>
   9.000000E+99

> <Gold.Protein.RotatedTorsions>
[ 6907 6896 6895 6894 ] final -121.63 input  -60.11 | X-H torsion
[ 7974 7965 7964 7962 ] final  -77.21 input  175.53 | X-H torsion
[ 8008 7997 7996 7995 ] final   88.41 input   59.86 | X-H torsion
[ 10167 10162 10161 10158 ] final -167.61 input  -65.29 | X-H torsion
[ 10718 10713 10712 10709 ] final -178.47 input   66.30 | X-H torsion
[ 10763 10752 10751 10750 ] final  -47.27 input  -60.55 | X-H torsion
[ 11005 11000 10999 10996 ] final  131.69 input  -57.11 | X-H torsion

> <Gold.Protein.ActiveResidues>
 VAL166  LYS551  ARG553  GLY616  TRP617  ASP618  TYR619  PRO620  LYS621  CYS622 
 ASP623  PHE694  ASN695  SER759  ASP760  ASP761  ALA762  ILE779  LEU786  VAL792 
 PHE793  MET794  SER795  GLU796  ALA797  LYS798  CYS799  TRP800  GLU811  SER814 

> <Gold.Protein.RotatedAtoms>
  150.8501  133.7800  159.3028 H   0  0  0  0  0  0  0  0  0  0  0  0  # atno 6907 bound_to 6896
  151.5475  135.1066  159.9951 H   0  0  0  0  0  0  0  0  0  0  0  0  # atno 6908 bound_to 6896
  152.4546  133.7653  159.6825 H   0  0  0  0  0  0  0  0  0  0  0  0  # atno 6909 bound_to 6896
  145.6027  140.9405  143.1232 H   0  0  0  0  0  0  0  0  0  0  0  0  # atno 7974 bound_to 7965
  155.9874  140.3372  155.6720 H   0  0  0  0  0  0  0  0  0  0  0  0  # atno 8008 bound_to 7997
  155.6467  140.0701  157.2618 H   0  0  0  0  0  0  0  0  0  0  0  0  # atno 8009 bound_to 7997
  154.4209  140.1733  156.1618 H   0  0  0  0  0  0  0  0  0  0  0  0  # atno 8010 bound_to 7997
  139.6038  144.0955  152.1771 H   0  0  0  0  0  0  0  0  0  0  0  0  # atno 10167 bound_to 10162
  156.8447  130.9698  151.3097 H   0  0  0  0  0  0  0  0  0  0  0  0  # atno 10718 bound_to 10713
  154.0587  135.6621  153.4809 H   0  0  0  0  0  0  0  0  0  0  0  0  # atno 10763 bound_to 10752
  153.0435  135.5129  154.7681 H   0  0  0  0  0  0  0  0  0  0  0  0  # atno 10764 bound_to 10752
  154.6710  135.3029  154.9709 H   0  0  0  0  0  0  0  0  0  0  0  0  # atno 10765 bound_to 10752
  139.9745  134.9567  156.9474 H   0  0  0  0  0  0  0  0  0  0  0  0  # atno 11005 bound_to 11000
  144.7303  139.7747  143.7350 LP  0  0  0  0  0  0  0  0  0  0  0  0  # atno 17320 bound_to 7965
  146.1564  139.4663  143.0016 LP  0  0  0  0  0  0  0  0  0  0  0  0  # atno 17321 bound_to 7965
  140.0558  144.5896  150.7301 LP  0  0  0  0  0  0  0  0  0  0  0  0  # atno 17342 bound_to 10162
  140.7269  143.2646  151.4087 LP  0  0  0  0  0  0  0  0  0  0  0  0  # atno 17343 bound_to 10162
  157.6336  130.8749  149.9319 LP  0  0  0  0  0  0  0  0  0  0  0  0  # atno 17370 bound_to 10713
  156.0861  130.3668  150.0485 LP  0  0  0  0  0  0  0  0  0  0  0  0  # atno 17371 bound_to 10713
  140.5223  134.0895  155.7295 LP  0  0  0  0  0  0  0  0  0  0  0  0  # atno 17394 bound_to 11000
  141.1423  133.9116  157.2297 LP  0  0  0  0  0  0  0  0  0  0  0  0  # atno 17395 bound_to 11000

$$$$
