AV-unprocessed.smi:2751|AV-procd|sdf|10597|dock8
  -GOLD-   2272015 53D 1   1.00000     0.00000
 Structure written by MMmdl.
 35 36  0  0  0  0  0  0  0  0  2 V2000
  150.0959  141.0885  154.9006 O   0  0  0  0  0  0  0  0  0  0  0  0
  150.0866  139.9102  155.2580 C   0  0  0  0  0  0  0  0  0  0  0  0
  150.9162  139.4071  156.1842 N   0  0  0  0  0  0  0  0  0  0  0  0
  151.9290  140.1730  156.9017 C   0  0  0  0  0  0  0  0  0  0  0  0
  151.2963  141.1477  157.9098 C   0  0  0  0  0  0  0  0  0  0  0  0
  152.3333  141.8029  158.8359 C   0  0  2  0  0  0  0  0  0  0  0  0
  153.2087  140.7566  159.5527 C   0  0  0  0  0  0  0  0  0  0  0  0
  154.1789  141.4405  160.5224 C   0  0  0  0  0  0  0  0  0  0  0  0
  153.4007  142.3603  161.4691 C   0  0  0  0  0  0  0  0  0  0  0  0
  152.5087  143.3203  160.6663 C   0  0  0  0  0  0  0  0  0  0  0  0
  151.6418  142.5784  159.8136 O   0  0  0  0  0  0  0  0  0  0  0  0
  149.2539  138.9742  154.7773 N   0  0  0  0  0  0  0  0  0  0  0  0
  148.2461  139.1870  153.8088 C   0  0  0  0  0  0  0  0  0  0  0  0
  147.9022  138.2939  152.8824 N   0  3  0  0  0  0  0  0  0  0  0  0
  146.8911  138.8199  152.1170 C   0  0  0  0  0  0  0  0  0  0  0  0
  146.6476  140.0717  152.6291 C   0  0  0  0  0  0  0  0  0  0  0  0
  147.4918  140.3170  153.6936 O   0  0  0  0  0  0  0  0  0  0  0  0
  150.8401  138.4278  156.4182 H   0  0  0  0  0  0  0  0  0  0  0  0
  152.6239  139.4982  157.4048 H   0  0  0  0  0  0  0  0  0  0  0  0
  152.5139  140.7254  156.1657 H   0  0  0  0  0  0  0  0  0  0  0  0
  150.7414  141.9214  157.3773 H   0  0  0  0  0  0  0  0  0  0  0  0
  150.5673  140.6110  158.5185 H   0  0  0  0  0  0  0  0  0  0  0  0
  152.9705  142.4593  158.2402 H   0  0  0  0  0  0  0  0  0  0  0  0
  152.5746  140.0600  160.1027 H   0  0  0  0  0  0  0  0  0  0  0  0
  153.7656  140.1649  158.8255 H   0  0  0  0  0  0  0  0  0  0  0  0
  154.7395  140.6968  161.0892 H   0  0  0  0  0  0  0  0  0  0  0  0
  154.9094  142.0242  159.9607 H   0  0  0  0  0  0  0  0  0  0  0  0
  152.7813  141.7601  162.1368 H   0  0  0  0  0  0  0  0  0  0  0  0
  154.0896  142.9223  162.1003 H   0  0  0  0  0  0  0  0  0  0  0  0
  151.9042  143.9237  161.3437 H   0  0  0  0  0  0  0  0  0  0  0  0
  153.1124  144.0120  160.0766 H   0  0  0  0  0  0  0  0  0  0  0  0
  148.2932  137.3719  152.7340 H   0  0  0  0  0  0  0  0  0  0  0  0
  146.4532  138.2624  151.3013 H   0  0  0  0  0  0  0  0  0  0  0  0
  145.9563  140.8615  152.3735 H   0  0  0  0  0  0  0  0  0  0  0  0
  149.3398  138.0370  155.1423 H   0  0  0  0  0  0  0  0  0  0  0  0
  1  2  2  0  0  0  0
  2 12  1  0  0  0  0
  2  3  1  0  0  0  0
  3  4  1  0  0  0  0
  3 18  1  0  0  0  0
  4  5  1  0  0  0  0
  4 19  1  0  0  0  0
  4 20  1  0  0  0  0
  5  6  1  0  0  0  0
  5 21  1  0  0  0  0
  5 22  1  0  0  0  0
  6 11  1  0  0  0  0
  6  7  1  0  0  0  0
  6 23  1  0  0  0  0
  7  8  1  0  0  0  0
  7 24  1  0  0  0  0
  7 25  1  0  0  0  0
  8  9  1  0  0  0  0
  8 26  1  0  0  0  0
  8 27  1  0  0  0  0
  9 10  1  0  0  0  0
  9 28  1  0  0  0  0
  9 29  1  0  0  0  0
 10 11  1  0  0  0  0
 10 30  1  0  0  0  0
 10 31  1  0  0  0  0
 12 13  1  0  0  0  0
 12 35  1  0  0  0  0
 13 17  1  0  0  0  0
 13 14  2  0  0  0  0
 14 32  1  0  0  0  0
 14 15  1  0  0  0  0
 15 33  1  0  0  0  0
 15 16  2  0  0  0  0
 16 34  1  0  0  0  0
 16 17  1  0  0  0  0
M  CHG  1  14   1
M  END
> <s_m_source_file>
AV-unprocessed.smi

> <i_m_source_file_index>
2751

> <i_lp_mmshare_version>
43012

> <i_f3d_flags>
0

> <s_epik_input>
bzFbY0hdW2NIXW5jMVtOSF1DKD1PKVtOSF1bQ0gyXVtDSDJdW0NAQEhdMltDSDJdW0NIMl1bQ0gyXVtDSDJdTzI=

> <s_epik_cmdline>
J2VwaWtfcHl0aG9uJywgJy1waCcsICc3LjAnLCAnLXRuJywgJzgnLCAnLW1hJywgJzIwMCcsICctbWV0YWxfYmluZGluZycsICctaW1hZScsICc8aW5maWxlLm1hZT4nLCAnLW9tYWUnLCAnPG91dGZpbGUubWFlPic=

> <r_epik_Ionization_Penalty>
6.63408

> <r_epik_Ionization_Penalty_Charging>
6.57733

> <r_epik_Ionization_Penalty_Neutral>
0.0567487

> <r_epik_State_Penalty>
1.8175

> <r_epik_Charging_Adjusted_Penalty>
8.39483

> <i_epik_Tot_Q>
1

> <i_epik_Tot_abs_Q>
1

> <r_epik_Metal_State_Penalty>
1.83396

> <b_epik_Metal_Only>
0

> <s_lp_Force_Field>
OPLS_2005

> <r_lp_Energy>
16.4857

> <b_lp_Chiralities_Consistent>
1

> <s_lp_Variant>
AV-unprocessed.smi:2751-3

> <Gold.Version>
5.8.1

> <Gold.Id.Protein>
6NUR|6NUR_protein|mol2

> <Gold.PLP.Fitness>
40.4103

> <Gold.PLP.PLP>
-31.6238

> <Gold.PLP.part.hbond>
-3.0926

> <Gold.PLP.part.metal>
0.0000

> <Gold.PLP.part.buried>
-0.1242

> <Gold.PLP.part.nonpolar>
-28.4009

> <Gold.PLP.part.repulsive>
0.4416

> <Gold.PLP.ligand.clash>
0.0000

> <Gold.PLP.ligand.torsion>
0.3429

> <Gold.PLP.Chemscore.Hbond>
2.4893

> <Gold.PLP.Chemscore.CHOScore>
0.6667

> <Gold.PLP.Chemscore.Metal>
0.0000

> <Gold.Chemscore.Hbonds>
donor molecule, donor type, donor heavy atom, donor atom, acceptor molecule, acceptor atom, score
      L1  H    14    32       P1  7948  2.00
      P1  H  7989  7998       L1     1  0.48
      L1  C    16    34       P1 10175  0.65

> <Gold.PLP.Chemscore.Internal.Correction>
0.0042

> <Gold.Rescore>
     Score         DG    S(hbond)    S(metal)    S(lipo)     H(rot)  DE(clash)    DE(int)     intcor
     12.48     -14.16       1.03        0.00      81.06       1.66       0.23       1.45       ----

> <Gold.Chemscore.Fitness>
12.4776

> <Gold.Chemscore.DG>
-14.1598

> <Gold.Chemscore.ZeroCoef>
-5.4800

> <Gold.Chemscore.Hbond>
1.0296

> <Gold.Chemscore.Metal>
0.0000

> <Gold.Chemscore.Lipo>
81.0597

> <Gold.Chemscore.Internal_Hbond>
0.0000

> <Gold.Chemscore.DEClash>
0.2295

> <Gold.Chemscore.DEInternal>
1.4528

> <Gold.Chemscore.Rot>
1.6575

> <Gold.Chemscore.Internal.Correction>
   9.000000E+99

> <Gold.Chemscore.Hbonds>
donor molecule, donor type, donor heavy atom, donor atom, acceptor molecule, acceptor atom, score
      L1  H    14    32       P1  7948  0.94
      P1  H  7989  7998       L1     1  0.08

> <Gold.Chemscore.Hbond.Weighted>
-3.4389

> <Gold.Chemscore.Metal.Weighted>
-0.0000

> <Gold.Chemscore.Lipo.Weighted>
-9.4840

> <Gold.Chemscore.Internal_Hbond.Weighted>
0.0000

> <Gold.Chemscore.DEClash.Weighted>
0.2295

> <Gold.Chemscore.DEInternal.Weighted>
1.4528

> <Gold.Chemscore.Rot.Weighted>
4.2431

> <Gold.Chemscore.Internal.Correction.Weighted>
   9.000000E+99

> <Gold.Protein.RotatedTorsions>
[ 6907 6896 6895 6894 ] final  168.57 input  -60.11 | X-H torsion
[ 7974 7965 7964 7962 ] final  -90.33 input  175.53 | X-H torsion
[ 8008 7997 7996 7995 ] final  -49.24 input   59.86 | X-H torsion
[ 10167 10162 10161 10158 ] final    1.99 input  -65.29 | X-H torsion
[ 10718 10713 10712 10709 ] final  -60.47 input   66.30 | X-H torsion
[ 10763 10752 10751 10750 ] final  -65.47 input  -60.55 | X-H torsion
[ 11005 11000 10999 10996 ] final   77.68 input  -57.11 | X-H torsion

> <Gold.Protein.ActiveResidues>
 VAL166  LYS551  ARG553  GLY616  TRP617  ASP618  TYR619  PRO620  LYS621  CYS622 
 ASP623  PHE694  ASN695  SER759  ASP760  ASP761  ALA762  ILE779  LEU786  VAL792 
 PHE793  MET794  SER795  GLU796  ALA797  LYS798  CYS799  TRP800  GLU811  SER814 

> <Gold.Protein.RotatedAtoms>
  151.8456  133.3431  159.3656 H   0  0  0  0  0  0  0  0  0  0  0  0  # atno 6907 bound_to 6896
  150.7222  134.5349  159.5728 H   0  0  0  0  0  0  0  0  0  0  0  0  # atno 6908 bound_to 6896
  152.2832  134.7806  160.0443 H   0  0  0  0  0  0  0  0  0  0  0  0  # atno 6909 bound_to 6896
  145.4279  140.9554  143.2144 H   0  0  0  0  0  0  0  0  0  0  0  0  # atno 7974 bound_to 7965
  154.4041  140.1301  156.4471 H   0  0  0  0  0  0  0  0  0  0  0  0  # atno 8008 bound_to 7997
  155.7402  140.3490  155.5081 H   0  0  0  0  0  0  0  0  0  0  0  0  # atno 8009 bound_to 7997
  155.9046  140.1025  157.1315 H   0  0  0  0  0  0  0  0  0  0  0  0  # atno 8010 bound_to 7997
  140.6657  143.7187  150.7822 H   0  0  0  0  0  0  0  0  0  0  0  0  # atno 10167 bound_to 10162
  156.0988  130.4189  150.0859 H   0  0  0  0  0  0  0  0  0  0  0  0  # atno 10718 bound_to 10713
  154.3454  135.6148  153.5617 H   0  0  0  0  0  0  0  0  0  0  0  0  # atno 10763 bound_to 10752
  152.9801  135.5779  154.4804 H   0  0  0  0  0  0  0  0  0  0  0  0  # atno 10764 bound_to 10752
  154.4516  135.2853  155.1754 H   0  0  0  0  0  0  0  0  0  0  0  0  # atno 10765 bound_to 10752
  139.9244  134.7702  156.1552 H   0  0  0  0  0  0  0  0  0  0  0  0  # atno 11005 bound_to 11000
  144.8202  139.5805  143.6990 LP  0  0  0  0  0  0  0  0  0  0  0  0  # atno 17320 bound_to 7965
  146.2623  139.6438  142.9354 LP  0  0  0  0  0  0  0  0  0  0  0  0  # atno 17321 bound_to 7965
  140.0863  143.4920  152.2503 LP  0  0  0  0  0  0  0  0  0  0  0  0  # atno 17342 bound_to 10162
  139.5905  144.7548  151.3414 LP  0  0  0  0  0  0  0  0  0  0  0  0  # atno 17343 bound_to 10162
  156.8851  130.9569  151.3595 LP  0  0  0  0  0  0  0  0  0  0  0  0  # atno 17370 bound_to 10713
  157.6155  130.8615  149.9021 LP  0  0  0  0  0  0  0  0  0  0  0  0  # atno 17371 bound_to 10713
  141.0791  133.6762  156.2298 LP  0  0  0  0  0  0  0  0  0  0  0  0  # atno 17394 bound_to 11000
  140.6378  134.5197  157.5566 LP  0  0  0  0  0  0  0  0  0  0  0  0  # atno 17395 bound_to 11000

$$$$
