#       Name:                AV-unprocessed.smi:3293
#       Creating user name   scv26
#       Creation time:       Fri Mar 27 18:56:40 2020


#       File generated by GOLD software.
#

@<TRIPOS>MOLECULE
AV-unprocessed.smi:3293
    45    46     1
SMALL
NO_CHARGES


@<TRIPOS>ATOM
      1 ****        -0.6351   2.0052  -2.3213 C.3            1 S1                 0.0000
      2 ****        -1.6917   2.3078  -1.2715 C.2            1 S1                 0.0000
      3 ****        -2.8358   2.9198  -1.6328 C.2            1 S1                 0.0000
      4 ****        -3.9214   3.3367  -0.6677 C.3            1 S1                 0.0000
      5 ****        -3.3759   3.4476   0.7577 C.3            1 S1                 0.0000
      6 ****        -2.5822   2.1920   1.1544 C.3            1 S1                 0.0000
      7 ****        -2.1371   2.3125   2.6249 C.3            1 S1                 0.0000
      8 ****        -1.3880   1.9147   0.1892 C.3            1 S1                 0.0000
      9 ****        -0.9204   0.4417   0.3307 C.3            1 S1                 0.0000
     10 ****         0.4650   0.2291  -0.1369 N.4            1 S1                 1.0000
     11 ****         0.9257  -1.1691  -0.0399 C.3            1 S1                 0.0000
     12 ****         2.3671  -1.3110  -0.5457 C.3            1 S1                 0.0000
     13 ****         2.8472  -2.7315  -0.4454 C.2            1 S1                 0.0000
     14 ****         2.7280  -3.7652  -1.4179 C.2            1 S1                 0.0000
     15 ****         3.2524  -4.9114  -1.0170 N.2            1 S1                 0.0000
     16 ****         3.7260  -4.6511   0.2187 N.pl3          1 S1                 0.0000
     17 ****         4.3797  -5.7025   0.9682 C.3            1 S1                 0.0000
     18 ****         3.4962  -3.3438   0.5901 C.2            1 S1                 0.0000
     19 ****         0.3381   2.3808  -2.0042 H              1 S1                 0.0000
     20 ****        -0.8760   2.4793  -3.2735 H              1 S1                 0.0000
     21 ****        -0.5619   0.9331  -2.5031 H              1 S1                 0.0000
     22 ****        -3.0160   3.1566  -2.6715 H              1 S1                 0.0000
     23 ****        -4.3297   4.2978  -0.9817 H              1 S1                 0.0000
     24 ****        -4.7333   2.6105  -0.7186 H              1 S1                 0.0000
     25 ****        -2.7323   4.3253   0.8340 H              1 S1                 0.0000
     26 ****        -4.2036   3.6116   1.4489 H              1 S1                 0.0000
     27 ****        -3.2731   1.3500   1.0868 H              1 S1                 0.0000
     28 ****        -1.4320   3.1335   2.7583 H              1 S1                 0.0000
     29 ****        -1.6613   1.4052   2.9934 H              1 S1                 0.0000
     30 ****        -2.9909   2.5061   3.2750 H              1 S1                 0.0000
     31 ****        -0.5677   2.5645   0.4985 H              1 S1                 0.0000
     32 ****        -0.9561   0.1178   1.3696 H              1 S1                 0.0000
     33 ****        -1.5979  -0.2152  -0.2171 H              1 S1                 0.0000
     34 ****         0.5225   0.5192  -1.1029 H              1 S1                 0.0000
     35 ****         0.8604  -1.4970   0.9985 H              1 S1                 0.0000
     36 ****         0.2602  -1.8067  -0.6236 H              1 S1                 0.0000
     37 ****         2.4233  -0.9630  -1.5779 H              1 S1                 0.0000
     38 ****         3.0175  -0.6484   0.0266 H              1 S1                 0.0000
     39 ****         2.2759  -3.7171  -2.3978 H              1 S1                 0.0000
     40 ****         4.6703  -5.3356   1.9529 H              1 S1                 0.0000
     41 ****         5.2718  -6.0347   0.4363 H              1 S1                 0.0000
     42 ****         3.7006  -6.5465   1.0912 H              1 S1                 0.0000
     43 ****         3.8095  -2.9613   1.5506 H              1 S1                 0.0000
     44 ****         1.0821   0.8106   0.4121 H              1 S1                 0.0000
     45 ****         3.2894  -5.7763  -1.5175 LP             1 S1                 0.0000
@<TRIPOS>BOND
    1    1    2 1     
    2    1   19 1     
    3    1   20 1     
    4    1   21 1     
    5    2    8 1     
    6    2    3 2     
    7    3    4 1     
    8    3   22 1     
    9    4    5 1     
   10    4   23 1     
   11    4   24 1     
   12    5    6 1     
   13    5   25 1     
   14    5   26 1     
   15    6    7 1     
   16    6    8 1     
   17    6   27 1     
   18    7   28 1     
   19    7   29 1     
   20    7   30 1     
   21    8    9 1     
   22    8   31 1     
   23    9   10 1     
   24    9   32 1     
   25    9   33 1     
   26   10   11 1     
   27   10   34 1     
   28   10   44 1     
   29   11   12 1     
   30   11   35 1     
   31   11   36 1     
   32   12   13 1     
   33   12   37 1     
   34   12   38 1     
   35   13   18 2     
   36   13   14 1     
   37   14   15 2     
   38   14   39 1     
   39   15   16 1     
   40   16   17 1     
   41   16   18 1     
   42   17   40 1     
   43   17   41 1     
   44   17   42 1     
   45   18   43 1     
   46   15   45 1     
@<TRIPOS>SUBSTRUCTURE
      1 S1             1
@<TRIPOS>SET
LONE_PAIRS      STATIC     ATOMS    <user>   **** ""
1 45
DONOR_HYDROGENS      STATIC     ATOMS    <user>   **** ""
2 34 44
ATOM$BLUE        STATIC     ATOMS    COLORGROUP SYSTEM
1 45
ATOM$RED        STATIC     ATOMS    COLORGROUP SYSTEM
2 34 44
