AV-unprocessed.smi:1434|AV-procd|sdf|5850|dock4
  -GOLD-   22720 5513D 1   1.00000     0.00000
 Structure written by MMmdl.
 44 45  0  0  0  0  0  0  0  0  1 V2000
  142.4435  137.7590  154.3252 C   0  0  0  0  0  0  0  0  0  0  0  0
  143.8363  138.4687  155.2905 S   0  0  0  0  0  0  0  0  0  0  0  0
  143.3785  139.6906  155.9685 O   0  0  0  0  0  0  0  0  0  0  0  0
  144.4710  137.3903  156.0637 O   0  0  0  0  0  0  0  0  0  0  0  0
  144.9431  138.9456  154.0577 N   0  0  0  0  0  0  0  0  0  0  0  0
  146.2434  139.4684  154.4743 C   0  0  1  0  0  0  0  0  0  0  0  0
  147.0751  139.9007  153.2483 C   0  0  0  0  0  0  0  0  0  0  0  0
  148.3840  140.6018  153.6668 C   0  0  0  0  0  0  0  0  0  0  0  0
  148.1198  141.6920  154.7235 C   0  0  0  0  0  0  0  0  0  0  0  0
  147.4015  141.0848  155.8559 N   0  0  0  0  0  0  0  0  0  0  0  0
  147.9374  140.7229  157.0478 C   0  0  0  0  0  0  0  0  0  0  0  0
  147.2624  140.2964  157.9857 O   0  0  0  0  0  0  0  0  0  0  0  0
  149.2806  140.7753  157.0963 N   0  0  0  0  0  0  0  0  0  0  0  0
  150.1111  140.2152  158.1610 C   0  0  0  0  0  0  0  0  0  0  0  0
  151.5966  140.6072  158.0095 C   0  0  0  0  0  0  0  0  0  0  0  0
  151.8791  142.0795  158.2674 C   0  0  0  0  0  0  0  0  0  0  0  0
  152.6237  142.4839  159.3969 C   0  0  0  0  0  0  0  0  0  0  0  0
  152.8188  143.8612  159.6153 C   0  0  0  0  0  0  0  0  0  0  0  0
  152.2646  144.7773  158.7015 C   0  0  0  0  0  0  0  0  0  0  0  0
  151.5461  144.2727  157.5995 C   0  0  0  0  0  0  0  0  0  0  0  0
  151.3578  142.9537  157.3774 N   0  0  0  0  0  0  0  0  0  0  0  0
  146.0619  140.6410  155.4562 C   0  0  0  0  0  0  0  0  0  0  0  0
  141.6702  137.4113  155.0097 H   0  0  0  0  0  0  0  0  0  0  0  0
  142.8028  136.9209  153.7285 H   0  0  0  0  0  0  0  0  0  0  0  0
  142.0282  138.5227  153.6681 H   0  0  0  0  0  0  0  0  0  0  0  0
  144.4973  139.5653  153.3817 H   0  0  0  0  0  0  0  0  0  0  0  0
  146.7797  138.6754  154.9966 H   0  0  0  0  0  0  0  0  0  0  0  0
  147.2978  139.0396  152.6168 H   0  0  0  0  0  0  0  0  0  0  0  0
  146.4877  140.5879  152.6378 H   0  0  0  0  0  0  0  0  0  0  0  0
  149.0767  139.8645  154.0732 H   0  0  0  0  0  0  0  0  0  0  0  0
  148.8721  141.0340  152.7930 H   0  0  0  0  0  0  0  0  0  0  0  0
  149.0512  142.1788  155.0140 H   0  0  0  0  0  0  0  0  0  0  0  0
  147.5050  142.4836  154.2925 H   0  0  0  0  0  0  0  0  0  0  0  0
  149.7641  141.1353  156.2865 H   0  0  0  0  0  0  0  0  0  0  0  0
  149.7332  140.5730  159.1186 H   0  0  0  0  0  0  0  0  0  0  0  0
  150.0181  139.1284  158.1884 H   0  0  0  0  0  0  0  0  0  0  0  0
  152.1976  140.0100  158.6963 H   0  0  0  0  0  0  0  0  0  0  0  0
  151.9438  140.3513  157.0077 H   0  0  0  0  0  0  0  0  0  0  0  0
  153.0251  141.7580  160.0884 H   0  0  0  0  0  0  0  0  0  0  0  0
  153.3736  144.2089  160.4744 H   0  0  0  0  0  0  0  0  0  0  0  0
  152.3860  145.8411  158.8429 H   0  0  0  0  0  0  0  0  0  0  0  0
  151.1095  144.9465  156.8774 H   0  0  0  0  0  0  0  0  0  0  0  0
  145.5245  141.4633  154.9812 H   0  0  0  0  0  0  0  0  0  0  0  0
  145.4483  140.3344  156.3049 H   0  0  0  0  0  0  0  0  0  0  0  0
  1  2  1  0  0  0  0
  1 23  1  0  0  0  0
  1 24  1  0  0  0  0
  1 25  1  0  0  0  0
  2  3  2  0  0  0  0
  2  4  2  0  0  0  0
  2  5  1  0  0  0  0
  5  6  1  0  0  0  0
  5 26  1  0  0  0  0
  6 22  1  0  0  0  0
  6  7  1  0  0  0  0
  6 27  1  0  0  0  0
  7  8  1  0  0  0  0
  7 28  1  0  0  0  0
  7 29  1  0  0  0  0
  8  9  1  0  0  0  0
  8 30  1  0  0  0  0
  8 31  1  0  0  0  0
  9 10  1  0  0  0  0
  9 32  1  0  0  0  0
  9 33  1  0  0  0  0
 10 11  1  0  0  0  0
 10 22  1  0  0  0  0
 11 12  2  0  0  0  0
 11 13  1  0  0  0  0
 13 14  1  0  0  0  0
 13 34  1  0  0  0  0
 14 15  1  0  0  0  0
 14 35  1  0  0  0  0
 14 36  1  0  0  0  0
 15 16  1  0  0  0  0
 15 37  1  0  0  0  0
 15 38  1  0  0  0  0
 16 21  1  0  0  0  0
 16 17  2  0  0  0  0
 17 18  1  0  0  0  0
 17 39  1  0  0  0  0
 18 19  2  0  0  0  0
 18 40  1  0  0  0  0
 19 20  1  0  0  0  0
 19 41  1  0  0  0  0
 20 21  2  0  0  0  0
 20 42  1  0  0  0  0
 22 43  1  0  0  0  0
 22 44  1  0  0  0  0
M  END
> <s_m_source_file>
AV-unprocessed.smi

> <i_m_source_file_index>
1434

> <i_lp_mmshare_version>
43012

> <i_f3d_flags>
0

> <s_epik_input>
W0NIM11TKD1PKSg9TylbTkhdW0NAQEhdMVtDSDJdW0NIMl1bQ0gyXU4oW0NIMl0xKUMoPU8pW05IXVtDSDJdW0NIMl1jMltjSF1bY0hdW2NIXVtjSF1uMg==

> <s_epik_cmdline>
J2VwaWtfcHl0aG9uJywgJy1waCcsICc3LjAnLCAnLXRuJywgJzgnLCAnLW1hJywgJzIwMCcsICctbWV0YWxfYmluZGluZycsICctaW1hZScsICc8aW5maWxlLm1hZT4nLCAnLW9tYWUnLCAnPG91dGZpbGUubWFlPic=

> <r_epik_Ionization_Penalty>
0.0449488

> <r_epik_Ionization_Penalty_Charging>
0

> <r_epik_Ionization_Penalty_Neutral>
0.0449488

> <r_epik_State_Penalty>
0.0380669

> <r_epik_Charging_Adjusted_Penalty>
0.0380669

> <i_epik_Tot_Q>
0

> <i_epik_Tot_abs_Q>
0

> <r_epik_Metal_State_Penalty>
0.0441384

> <b_epik_Metal_Only>
0

> <s_lp_Force_Field>
OPLS_2005

> <r_lp_Energy>
20.2695

> <b_lp_Chiralities_Consistent>
1

> <s_lp_Variant>
AV-unprocessed.smi:1434-2

> <Gold.Version>
5.8.1

> <Gold.Id.Protein>
6NUR|6NUR_protein|mol2

> <Gold.PLP.Fitness>
39.6265

> <Gold.PLP.PLP>
-34.0098

> <Gold.PLP.part.hbond>
-2.0000

> <Gold.PLP.part.metal>
0.0000

> <Gold.PLP.part.buried>
-1.7152

> <Gold.PLP.part.nonpolar>
-31.1215

> <Gold.PLP.part.repulsive>
0.2336

> <Gold.PLP.ligand.clash>
0.0000

> <Gold.PLP.ligand.torsion>
0.2763

> <Gold.PLP.Chemscore.Hbond>
1.0000

> <Gold.PLP.Chemscore.CHOScore>
1.0000

> <Gold.PLP.Chemscore.Metal>
0.0000

> <Gold.Chemscore.Hbonds>
donor molecule, donor type, donor heavy atom, donor atom, acceptor molecule, acceptor atom, score
      L1  H     5    26       P1 10175  0.98
      L1  C    20    42       P1  8028  0.99

> <Gold.PLP.Chemscore.Internal.Correction>
0.1693

> <Gold.Rescore>
     Score         DG    S(hbond)    S(metal)    S(lipo)     H(rot)  DE(clash)    DE(int)     intcor
     13.47     -14.96       0.98        0.00      97.53       2.03       0.03       1.47       ----

> <Gold.Chemscore.Fitness>
13.4651

> <Gold.Chemscore.DG>
-14.9595

> <Gold.Chemscore.ZeroCoef>
-5.4800

> <Gold.Chemscore.Hbond>
0.9807

> <Gold.Chemscore.Metal>
0.0000

> <Gold.Chemscore.Lipo>
97.5313

> <Gold.Chemscore.Internal_Hbond>
0.0000

> <Gold.Chemscore.DEClash>
0.0274

> <Gold.Chemscore.DEInternal>
1.4670

> <Gold.Chemscore.Rot>
2.0340

> <Gold.Chemscore.Internal.Correction>
   9.000000E+99

> <Gold.Chemscore.Hbonds>
donor molecule, donor type, donor heavy atom, donor atom, acceptor molecule, acceptor atom, score
      L1  H     5    26       P1 10175  0.91

> <Gold.Chemscore.Hbond.Weighted>
-3.2754

> <Gold.Chemscore.Metal.Weighted>
-0.0000

> <Gold.Chemscore.Lipo.Weighted>
-11.4112

> <Gold.Chemscore.Internal_Hbond.Weighted>
0.0000

> <Gold.Chemscore.DEClash.Weighted>
0.0274

> <Gold.Chemscore.DEInternal.Weighted>
1.4670

> <Gold.Chemscore.Rot.Weighted>
5.2071

> <Gold.Chemscore.Internal.Correction.Weighted>
   9.000000E+99

> <Gold.Protein.RotatedTorsions>
[ 6907 6896 6895 6894 ] final  109.79 input  -60.11 | X-H torsion
[ 7974 7965 7964 7962 ] final  -58.44 input  175.53 | X-H torsion
[ 8008 7997 7996 7995 ] final   18.17 input   59.86 | X-H torsion
[ 10167 10162 10161 10158 ] final  -39.62 input  -65.29 | X-H torsion
[ 10718 10713 10712 10709 ] final  148.16 input   66.30 | X-H torsion
[ 10763 10752 10751 10750 ] final  161.56 input  -60.55 | X-H torsion
[ 11005 11000 10999 10996 ] final   70.47 input  -57.11 | X-H torsion

> <Gold.Protein.ActiveResidues>
 VAL166  LYS551  ARG553  GLY616  TRP617  ASP618  TYR619  PRO620  LYS621  CYS622 
 ASP623  PHE694  ASN695  SER759  ASP760  ASP761  ALA762  ILE779  LEU786  VAL792 
 PHE793  MET794  SER795  GLU796  ALA797  LYS798  CYS799  TRP800  GLU811  SER814 

> <Gold.Protein.RotatedAtoms>
  152.5051  133.8894  159.7385 H   0  0  0  0  0  0  0  0  0  0  0  0  # atno 6907 bound_to 6896
  150.9336  133.6729  159.2812 H   0  0  0  0  0  0  0  0  0  0  0  0  # atno 6908 bound_to 6896
  151.4065  135.0983  159.9624 H   0  0  0  0  0  0  0  0  0  0  0  0  # atno 6909 bound_to 6896
  145.8392  140.8428  143.0043 H   0  0  0  0  0  0  0  0  0  0  0  0  # atno 7974 bound_to 7965
  154.9020  140.3002  155.5312 H   0  0  0  0  0  0  0  0  0  0  0  0  # atno 8008 bound_to 7997
  156.3018  140.2405  156.3984 H   0  0  0  0  0  0  0  0  0  0  0  0  # atno 8009 bound_to 7997
  154.8511  140.0409  157.1593 H   0  0  0  0  0  0  0  0  0  0  0  0  # atno 8010 bound_to 7997
  140.7059  143.3203  151.2808 H   0  0  0  0  0  0  0  0  0  0  0  0  # atno 10167 bound_to 10162
  157.3121  131.0889  151.1308 H   0  0  0  0  0  0  0  0  0  0  0  0  # atno 10718 bound_to 10713
  154.2648  135.2767  155.2763 H   0  0  0  0  0  0  0  0  0  0  0  0  # atno 10763 bound_to 10752
  154.5352  135.5718  153.6796 H   0  0  0  0  0  0  0  0  0  0  0  0  # atno 10764 bound_to 10752
  152.9955  135.6237  154.2800 H   0  0  0  0  0  0  0  0  0  0  0  0  # atno 10765 bound_to 10752
  139.9596  134.7084  156.0676 H   0  0  0  0  0  0  0  0  0  0  0  0  # atno 11005 bound_to 11000
  144.6734  140.0787  143.7470 LP  0  0  0  0  0  0  0  0  0  0  0  0  # atno 17320 bound_to 7965
  145.9484  139.2716  143.1227 LP  0  0  0  0  0  0  0  0  0  0  0  0  # atno 17321 bound_to 7965
  139.6655  144.0113  152.2720 LP  0  0  0  0  0  0  0  0  0  0  0  0  # atno 17342 bound_to 10162
  139.9694  144.6504  150.8003 LP  0  0  0  0  0  0  0  0  0  0  0  0  # atno 17343 bound_to 10162
  157.2626  130.6666  149.5981 LP  0  0  0  0  0  0  0  0  0  0  0  0  # atno 17370 bound_to 10713
  155.9678  130.4504  150.5695 LP  0  0  0  0  0  0  0  0  0  0  0  0  # atno 17371 bound_to 10713
  141.1271  133.6596  156.3367 LP  0  0  0  0  0  0  0  0  0  0  0  0  # atno 17394 bound_to 11000
  140.5531  134.6008  157.5413 LP  0  0  0  0  0  0  0  0  0  0  0  0  # atno 17395 bound_to 11000

$$$$
