#       Name:                AV-unprocessed.smi:1986
#       Creating user name   scv26
#       Creation time:       Fri Mar 27 10:25:18 2020


#       File generated by GOLD software.
#

@<TRIPOS>MOLECULE
AV-unprocessed.smi:1986
    57    58     1
SMALL
NO_CHARGES


@<TRIPOS>ATOM
      1 ****        -2.4912  -2.4284  -0.8008 C.3            1 S1                 0.0000
      2 ****        -0.9993  -2.0563  -0.7223 C.3            1 S1                 0.0000
      3 ****        -0.5760  -1.2238   0.5296 C.3            1 S1                 0.0000
      4 ****        -1.2622   0.1621   0.3851 C.3            1 S1                 0.0000
      5 ****         0.9748  -1.0253   0.4815 C.3            1 S1                 0.0000
      6 ****         1.4504  -0.3702  -0.7373 N.am           1 S1                 0.0000
      7 ****         1.7962   0.9216  -0.8487 C.2            1 S1                 0.0000
      8 ****         1.7842   1.7069   0.1003 O.2            1 S1                 0.0000
      9 ****         2.2186   1.3855  -2.2500 C.3            1 S1                 0.0000
     10 ****         1.9422   2.8094  -2.4879 N.am           1 S1                 0.0000
     11 ****         0.6741   3.0563  -2.9923 N.2            1 S1                 0.0000
     12 ****         0.2944   4.2680  -3.2196 C.2            1 S1                 0.0000
     13 ****        -0.9712   4.4664  -3.7148 O.3            1 S1                 0.0000
     14 ****         1.1728   5.3881  -2.9625 C.2            1 S1                 0.0000
     15 ****         2.4072   5.1376  -2.4740 C.2            1 S1                 0.0000
     16 ****         2.8681   3.7752  -2.1997 C.2            1 S1                 0.0000
     17 ****         3.9835   3.5210  -1.7460 O.2            1 S1                 0.0000
     18 ****        -1.0152  -1.8895   1.7891 N.3            1 S1                 0.0000
     19 ****        -0.7984  -1.1129   3.0158 C.3            1 S1                 0.0000
     20 ****        -1.4084  -1.8015   4.2486 C.3            1 S1                 0.0000
     21 ****        -0.8679  -3.1103   4.3836 O.3            1 S1                 0.0000
     22 ****        -1.1056  -3.9166   3.2361 C.3            1 S1                 0.0000
     23 ****        -0.4916  -3.2451   1.9960 C.3            1 S1                 0.0000
     24 ****        -1.0618   5.4021  -3.8083 H              1 S1                 0.0000
     25 ****        -2.6896  -3.0175  -1.6962 H              1 S1                 0.0000
     26 ****        -3.1270  -1.5446  -0.8484 H              1 S1                 0.0000
     27 ****        -2.8074  -3.0240   0.0556 H              1 S1                 0.0000
     28 ****        -0.4067  -2.9687  -0.7875 H              1 S1                 0.0000
     29 ****        -0.7545  -1.5093  -1.6334 H              1 S1                 0.0000
     30 ****        -1.1641   0.5669  -0.6227 H              1 S1                 0.0000
     31 ****        -0.8289   0.9032   1.0571 H              1 S1                 0.0000
     32 ****        -2.3288   0.1094   0.6049 H              1 S1                 0.0000
     33 ****         1.3276  -0.4737   1.3530 H              1 S1                 0.0000
     34 ****         1.4816  -1.9889   0.5203 H              1 S1                 0.0000
     35 ****         1.4959  -0.9424  -1.5680 H              1 S1                 0.0000
     36 ****         3.2771   1.1604  -2.3891 H              1 S1                 0.0000
     37 ****         1.6953   0.7865  -2.9981 H              1 S1                 0.0000
     38 ****         0.8420   6.3971  -3.1599 H              1 S1                 0.0000
     39 ****         3.0740   5.9643  -2.2775 H              1 S1                 0.0000
     40 ****         0.2676  -0.9675   3.1896 H              1 S1                 0.0000
     41 ****        -1.2442  -0.1231   2.9361 H              1 S1                 0.0000
     42 ****        -1.1873  -1.2296   5.1497 H              1 S1                 0.0000
     43 ****        -2.4948  -1.8553   4.1627 H              1 S1                 0.0000
     44 ****        -0.6611  -4.8992   3.3932 H              1 S1                 0.0000
     45 ****        -2.1781  -4.0672   3.1030 H              1 S1                 0.0000
     46 ****        -0.6980  -3.8803   1.1367 H              1 S1                 0.0000
     47 ****         0.5913  -3.2177   2.1167 H              1 S1                 0.0000
     48 ****         1.5072   1.3906   1.0076 LP             1 S1                 0.0000
     49 ****         2.0515   2.6608  -0.0366 LP             1 S1                 0.0000
     50 ****         0.0538   2.2947  -3.1799 LP             1 S1                 0.0000
     51 ****        -1.6554   4.1109  -3.0780 LP             1 S1                 0.0000
     52 ****        -1.0744   4.0150  -4.6011 LP             1 S1                 0.0000
     53 ****         4.2481   2.5726  -1.5716 LP             1 S1                 0.0000
     54 ****         4.6252   4.2629  -1.5517 LP             1 S1                 0.0000
     55 ****        -1.9998  -1.9536   1.6268 LP             1 S1                 0.0000
     56 ****        -1.2870  -3.5504   5.1777 LP             1 S1                 0.0000
     57 ****         0.1193  -3.0369   4.5256 LP             1 S1                 0.0000
@<TRIPOS>BOND
    1    1    2 1     
    2    1   25 1     
    3    1   26 1     
    4    1   27 1     
    5    2    3 1     
    6    2   28 1     
    7    2   29 1     
    8    3    4 1     
    9    3    5 1     
   10    3   18 1     
   11    4   30 1     
   12    4   31 1     
   13    4   32 1     
   14    5    6 1     
   15    5   33 1     
   16    5   34 1     
   17    6    7 am    
   18    6   35 1     
   19    7    8 2     
   20    7    9 1     
   21    9   36 1     
   22    9   37 1     
   23    9   10 1     
   24   10   11 1     
   25   10   16 am    
   26   11   12 2     
   27   12   13 1     
   28   12   14 1     
   29   13   24 1     
   30   14   38 1     
   31   14   15 2     
   32   15   39 1     
   33   15   16 1     
   34   16   17 2     
   35   18   23 1     
   36   18   19 1     
   37   19   20 1     
   38   19   40 1     
   39   19   41 1     
   40   20   21 1     
   41   20   42 1     
   42   20   43 1     
   43   21   22 1     
   44   22   23 1     
   45   22   44 1     
   46   22   45 1     
   47   23   46 1     
   48   23   47 1     
   49    8   48 1     
   50    8   49 1     
   51   11   50 1     
   52   13   51 1     
   53   13   52 1     
   54   17   53 1     
   55   17   54 1     
   56   18   55 1     
   57   21   56 1     
   58   21   57 1     
@<TRIPOS>SUBSTRUCTURE
      1 S1             1
@<TRIPOS>SET
LONE_PAIRS      STATIC     ATOMS    <user>   **** ""
10 48 49 50 51 52 53 54 55 56 57
DONOR_HYDROGENS      STATIC     ATOMS    <user>   **** ""
2 35 24
ATOM$BLUE        STATIC     ATOMS    COLORGROUP SYSTEM
10 48 49 50 51 52 53 54 55 56 57
ATOM$RED        STATIC     ATOMS    COLORGROUP SYSTEM
2 35 24
