AV-unprocessed.smi:243|AV-procd|sdf|1848|dock7
  -GOLD-   2262020473D 1   1.00000     0.00000
 Structure written by MMmdl.
 58 61  0  0  0  0  0  0  0  0  2 V2000
  151.4266  145.5436  160.0597 C   0  0  0  0  0  0  0  0  0  0  0  0
  151.3884  144.9114  158.6606 C   0  0  0  0  0  0  0  0  0  0  0  0
  151.4160  143.4277  158.7065 N   0  3  2  0  0  0  0  0  0  0  0  0
  152.5842  142.9101  159.4633 C   0  0  0  0  0  0  0  0  0  0  0  0
  152.5085  141.3842  159.6285 C   0  0  0  0  0  0  0  0  0  0  0  0
  152.3872  140.6888  158.2552 C   0  0  1  0  0  0  0  0  0  0  0  0
  152.4682  139.2165  158.2575 N   0  0  0  0  0  0  0  0  0  0  0  0
  153.2315  138.5924  159.3329 C   0  0  0  0  0  0  0  0  0  0  0  0
  152.3294  138.4842  157.1186 C   0  0  0  0  0  0  0  0  0  0  0  0
  152.8337  138.9921  155.9650 N   0  0  0  0  0  0  0  0  0  0  0  0
  152.7023  138.3295  154.8129 C   0  0  0  0  0  0  0  0  0  0  0  0
  152.1009  137.1610  154.5882 N   0  0  0  0  0  0  0  0  0  0  0  0
  151.5757  136.6478  155.7366 C   0  0  0  0  0  0  0  0  0  0  0  0
  151.6365  137.2385  157.0316 C   0  0  0  0  0  0  0  0  0  0  0  0
  150.9868  136.4170  157.9474 N   0  0  0  0  0  0  0  0  0  0  0  0
  150.5658  135.4072  157.2367 C   0  0  0  0  0  0  0  0  0  0  0  0
  150.8861  135.4593  155.8998 N   0  0  0  0  0  0  0  0  0  0  0  0
  150.5483  134.4767  154.8819 C   0  0  0  0  0  0  0  0  0  0  0  0
  149.0262  134.3351  154.6287 C   0  0  1  0  0  0  0  0  0  0  0  0
  148.4786  135.6030  154.3205 O   0  0  0  0  0  0  0  0  0  0  0  0
  148.7196  133.3616  153.5023 C   0  0  0  0  0  0  0  0  0  0  0  0
  148.7037  132.0101  154.2143 C   0  0  0  0  0  0  0  0  0  0  0  0
  148.3441  132.2790  155.5665 O   0  0  0  0  0  0  0  0  0  0  0  0
  148.2472  133.6833  155.7789 C   0  0  0  0  0  0  0  0  0  0  0  0
  151.1793  141.2606  157.4655 C   0  0  1  0  0  0  0  0  0  0  0  0
  149.7935  140.8719  158.0187 C   0  0  0  0  0  0  0  0  0  0  0  0
  151.3133  142.7948  157.3636 C   0  0  0  0  0  0  0  0  0  0  0  0
  151.4971  146.6291  159.9865 H   0  0  0  0  0  0  0  0  0  0  0  0
  152.2907  145.1955  160.6264 H   0  0  0  0  0  0  0  0  0  0  0  0
  150.5311  145.3185  160.6380 H   0  0  0  0  0  0  0  0  0  0  0  0
  150.5143  145.2539  158.1046 H   0  0  0  0  0  0  0  0  0  0  0  0
  152.2615  145.2699  158.1137 H   0  0  0  0  0  0  0  0  0  0  0  0
  153.5049  143.1891  158.9484 H   0  0  0  0  0  0  0  0  0  0  0  0
  152.6207  143.3722  160.4506 H   0  0  0  0  0  0  0  0  0  0  0  0
  153.4035  141.0367  160.1462 H   0  0  0  0  0  0  0  0  0  0  0  0
  151.6600  141.1414  160.2680 H   0  0  0  0  0  0  0  0  0  0  0  0
  153.2777  140.9957  157.7042 H   0  0  0  0  0  0  0  0  0  0  0  0
  153.0363  137.5203  159.3838 H   0  0  0  0  0  0  0  0  0  0  0  0
  152.9533  139.0222  160.2954 H   0  0  0  0  0  0  0  0  0  0  0  0
  154.3019  138.7437  159.1937 H   0  0  0  0  0  0  0  0  0  0  0  0
  153.1394  138.8046  153.9470 H   0  0  0  0  0  0  0  0  0  0  0  0
  150.0107  134.5887  157.6720 H   0  0  0  0  0  0  0  0  0  0  0  0
  151.0575  134.7566  153.9586 H   0  0  0  0  0  0  0  0  0  0  0  0
  150.9749  133.5189  155.1819 H   0  0  0  0  0  0  0  0  0  0  0  0
  148.5253  135.7296  153.3853 H   0  0  0  0  0  0  0  0  0  0  0  0
  147.7280  133.5567  153.0898 H   0  0  0  0  0  0  0  0  0  0  0  0
  149.4348  133.4029  152.6800 H   0  0  0  0  0  0  0  0  0  0  0  0
  148.0081  131.3097  153.7514 H   0  0  0  0  0  0  0  0  0  0  0  0
  149.6952  131.5566  154.2020 H   0  0  0  0  0  0  0  0  0  0  0  0
  148.5917  133.9684  156.7719 H   0  0  0  0  0  0  0  0  0  0  0  0
  147.1899  133.9464  155.7184 H   0  0  0  0  0  0  0  0  0  0  0  0
  151.2289  140.8755  156.4466 H   0  0  0  0  0  0  0  0  0  0  0  0
  149.6696  141.1612  159.0618 H   0  0  0  0  0  0  0  0  0  0  0  0
  149.6179  139.8017  157.9466 H   0  0  0  0  0  0  0  0  0  0  0  0
  148.9992  141.3554  157.4496 H   0  0  0  0  0  0  0  0  0  0  0  0
  150.4605  143.1935  156.8152 H   0  0  0  0  0  0  0  0  0  0  0  0
  152.1988  143.0521  156.7799 H   0  0  0  0  0  0  0  0  0  0  0  0
  150.5979  143.1450  159.2272 H   0  0  0  0  0  0  0  0  0  0  0  0
  1  2  1  0  0  0  0
  1 28  1  0  0  0  0
  1 29  1  0  0  0  0
  1 30  1  0  0  0  0
  2  3  1  0  0  0  0
  2 31  1  0  0  0  0
  2 32  1  0  0  0  0
  3 27  1  0  0  0  0
  3  4  1  0  0  0  0
  3 58  1  0  0  0  0
  4  5  1  0  0  0  0
  4 33  1  0  0  0  0
  4 34  1  0  0  0  0
  5  6  1  0  0  0  0
  5 35  1  0  0  0  0
  5 36  1  0  0  0  0
  6  7  1  0  0  0  0
  6 25  1  0  0  0  0
  6 37  1  0  0  0  0
  7  8  1  0  0  0  0
  7  9  1  0  0  0  0
  8 38  1  0  0  0  0
  8 39  1  0  0  0  0
  8 40  1  0  0  0  0
  9 14  1  0  0  0  0
  9 10  2  0  0  0  0
 10 11  1  0  0  0  0
 11 12  2  0  0  0  0
 11 41  1  0  0  0  0
 12 13  1  0  0  0  0
 13 17  1  0  0  0  0
 13 14  2  0  0  0  0
 14 15  1  0  0  0  0
 15 16  2  0  0  0  0
 16 17  1  0  0  0  0
 16 42  1  0  0  0  0
 17 18  1  0  0  0  0
 18 19  1  0  0  0  0
 18 43  1  0  0  0  0
 18 44  1  0  0  0  0
 19 24  1  0  0  0  0
 19 20  1  0  0  0  0
 19 21  1  0  0  0  0
 20 45  1  0  0  0  0
 21 22  1  0  0  0  0
 21 46  1  0  0  0  0
 21 47  1  0  0  0  0
 22 23  1  0  0  0  0
 22 48  1  0  0  0  0
 22 49  1  0  0  0  0
 23 24  1  0  0  0  0
 24 50  1  0  0  0  0
 24 51  1  0  0  0  0
 25 26  1  0  0  0  0
 25 27  1  0  0  0  0
 25 52  1  0  0  0  0
 26 53  1  0  0  0  0
 26 54  1  0  0  0  0
 26 55  1  0  0  0  0
 27 56  1  0  0  0  0
 27 57  1  0  0  0  0
M  CHG  1   3   1
M  END
> <s_m_source_file>
AV-unprocessed.smi

> <i_m_source_file_index>
243

> <i_lp_mmshare_version>
43012

> <i_f3d_flags>
0

> <s_epik_input>
W0NIM11bQ0gyXU4xW0NIMl1bQ0gyXVtDQEhdKFtDQEBIXShbQ0gzXSlbQ0gyXTEpTihbQ0gzXSljKG5bY0hdbjIpYyhjMjMpbltjSF1uM1tDSDJdW0NAQF00KFtPSF0pW0NIMl1bQ0gyXU9bQ0gyXTQ=

> <s_epik_cmdline>
J2VwaWtfcHl0aG9uJywgJy1waCcsICc3LjAnLCAnLXRuJywgJzgnLCAnLW1hJywgJzIwMCcsICctbWV0YWxfYmluZGluZycsICctaW1hZScsICc8aW5maWxlLm1hZT4nLCAnLW9tYWUnLCAnPG91dGZpbGUubWFlPic=

> <r_lp_tautomer_probability>
1

> <r_epik_Ionization_Penalty>
0.00253099

> <r_epik_Ionization_Penalty_Charging>
0.00137877

> <r_epik_Ionization_Penalty_Neutral>
0.00115221

> <r_epik_State_Penalty>
-0

> <r_epik_Charging_Adjusted_Penalty>
0.00137877

> <i_epik_Tot_Q>
1

> <i_epik_Tot_abs_Q>
1

> <r_epik_Metal_State_Penalty>
-0

> <b_epik_Metal_Only>
0

> <s_lp_Force_Field>
OPLS_2005

> <r_lp_Energy>
50.8982

> <b_lp_Chiralities_Consistent>
1

> <s_lp_Variant>
AV-unprocessed.smi:243-1

> <Gold.Version>
5.8.1

> <Gold.Id.Protein>
6NUR|6NUR_protein|mol2

> <Gold.PLP.Fitness>
51.7869

> <Gold.PLP.PLP>
-45.4128

> <Gold.PLP.part.hbond>
-3.5768

> <Gold.PLP.part.metal>
0.0000

> <Gold.PLP.part.buried>
-5.1776

> <Gold.PLP.part.nonpolar>
-36.9220

> <Gold.PLP.part.repulsive>
0.1637

> <Gold.PLP.ligand.clash>
0.0000

> <Gold.PLP.ligand.torsion>
1.3489

> <Gold.PLP.Chemscore.Hbond>
2.7642

> <Gold.PLP.Chemscore.CHOScore>
0.0000

> <Gold.PLP.Chemscore.Metal>
0.0000

> <Gold.Chemscore.Hbonds>
donor molecule, donor type, donor heavy atom, donor atom, acceptor molecule, acceptor atom, score
      L1  H    20    45       P1  7948  1.00
      P1  H  6896  6908       L1    15  0.09
      P1  H  7997  8008       L1    10  1.00
      P1  H 10752 10765       L1    12  0.67

> <Gold.PLP.Chemscore.Internal.Correction>
0.7791

> <Gold.Rescore>
     Score         DG    S(hbond)    S(metal)    S(lipo)     H(rot)  DE(clash)    DE(int)     intcor
     17.94     -19.41       2.22        0.00     104.59       2.24       0.12       1.36       ----

> <Gold.Chemscore.Fitness>
17.9381

> <Gold.Chemscore.DG>
-19.4149

> <Gold.Chemscore.ZeroCoef>
-5.4800

> <Gold.Chemscore.Hbond>
2.2235

> <Gold.Chemscore.Metal>
0.0000

> <Gold.Chemscore.Lipo>
104.5944

> <Gold.Chemscore.Internal_Hbond>
0.0000

> <Gold.Chemscore.DEClash>
0.1162

> <Gold.Chemscore.DEInternal>
1.3605

> <Gold.Chemscore.Rot>
2.2379

> <Gold.Chemscore.Internal.Correction>
   9.000000E+99

> <Gold.Chemscore.Hbonds>
donor molecule, donor type, donor heavy atom, donor atom, acceptor molecule, acceptor atom, score
      L1  H    20    45       P1  7948  0.99
      P1  H  7997  8008       L1    10  0.42
      P1  H 10752 10765       L1    12  0.17

> <Gold.Chemscore.Hbond.Weighted>
-7.4264

> <Gold.Chemscore.Metal.Weighted>
-0.0000

> <Gold.Chemscore.Lipo.Weighted>
-12.2375

> <Gold.Chemscore.Internal_Hbond.Weighted>
0.0000

> <Gold.Chemscore.DEClash.Weighted>
0.1162

> <Gold.Chemscore.DEInternal.Weighted>
1.3605

> <Gold.Chemscore.Rot.Weighted>
5.7291

> <Gold.Chemscore.Internal.Correction.Weighted>
   9.000000E+99

> <Gold.Protein.RotatedTorsions>
[ 6907 6896 6895 6894 ] final -149.88 input  -60.11 | X-H torsion
[ 7974 7965 7964 7962 ] final -130.80 input  175.53 | X-H torsion
[ 8008 7997 7996 7995 ] final  -56.81 input   59.86 | X-H torsion
[ 10167 10162 10161 10158 ] final -179.38 input  -65.29 | X-H torsion
[ 10718 10713 10712 10709 ] final -128.26 input   66.30 | X-H torsion
[ 10763 10752 10751 10750 ] final  141.62 input  -60.55 | X-H torsion
[ 11005 11000 10999 10996 ] final  115.96 input  -57.11 | X-H torsion

> <Gold.Protein.ActiveResidues>
 VAL166  LYS551  ARG553  GLY616  TRP617  ASP618  TYR619  PRO620  LYS621  CYS622 
 ASP623  PHE694  ASN695  SER759  ASP760  ASP761  ALA762  ILE779  LEU786  VAL792 
 PHE793  MET794  SER795  GLU796  ALA797  LYS798  CYS799  TRP800  GLU811  SER814 

> <Gold.Protein.RotatedAtoms>
  151.1905  133.4670  159.2594 H   0  0  0  0  0  0  0  0  0  0  0  0  # atno 6907 bound_to 6896
  151.1169  135.0057  159.8530 H   0  0  0  0  0  0  0  0  0  0  0  0  # atno 6908 bound_to 6896
  152.5454  134.1819  159.8692 H   0  0  0  0  0  0  0  0  0  0  0  0  # atno 6909 bound_to 6896
  144.9440  140.7270  143.4829 H   0  0  0  0  0  0  0  0  0  0  0  0  # atno 7974 bound_to 7965
  154.4244  140.1121  156.5696 H   0  0  0  0  0  0  0  0  0  0  0  0  # atno 8008 bound_to 7997
  155.6226  140.3495  155.4638 H   0  0  0  0  0  0  0  0  0  0  0  0  # atno 8009 bound_to 7997
  156.0012  140.1199  157.0535 H   0  0  0  0  0  0  0  0  0  0  0  0  # atno 8010 bound_to 7997
  139.5389  144.2420  152.0853 H   0  0  0  0  0  0  0  0  0  0  0  0  # atno 10167 bound_to 10162
  156.1934  130.6810  151.0452 H   0  0  0  0  0  0  0  0  0  0  0  0  # atno 10718 bound_to 10713
  153.9423  135.2978  155.3442 H   0  0  0  0  0  0  0  0  0  0  0  0  # atno 10763 bound_to 10752
  154.7470  135.4998  153.9225 H   0  0  0  0  0  0  0  0  0  0  0  0  # atno 10764 bound_to 10752
  153.1036  135.6741  153.9734 H   0  0  0  0  0  0  0  0  0  0  0  0  # atno 10765 bound_to 10752
  139.9026  134.9591  156.7124 H   0  0  0  0  0  0  0  0  0  0  0  0  # atno 11005 bound_to 11000
  145.2947  139.1871  143.4721 LP  0  0  0  0  0  0  0  0  0  0  0  0  # atno 17320 bound_to 7965
  146.3296  140.2929  142.8616 LP  0  0  0  0  0  0  0  0  0  0  0  0  # atno 17321 bound_to 7965
  140.1895  144.4766  150.6486 LP  0  0  0  0  0  0  0  0  0  0  0  0  # atno 17342 bound_to 10162
  140.6609  143.2252  151.5858 LP  0  0  0  0  0  0  0  0  0  0  0  0  # atno 17343 bound_to 10162
  157.6943  131.0799  150.7016 LP  0  0  0  0  0  0  0  0  0  0  0  0  # atno 17370 bound_to 10713
  156.7072  130.4641  149.5557 LP  0  0  0  0  0  0  0  0  0  0  0  0  # atno 17371 bound_to 10713
  140.7065  133.9261  155.8057 LP  0  0  0  0  0  0  0  0  0  0  0  0  # atno 17394 bound_to 11000
  141.0333  134.0726  157.3989 LP  0  0  0  0  0  0  0  0  0  0  0  0  # atno 17395 bound_to 11000

$$$$
