AV-unprocessed.smi:1447|AV-procd|sdf|5893|dock2
  -GOLD-   22720 5573D 1   1.00000     0.00000
 Structure written by MMmdl.
 47 49  0  0  0  0  0  0  0  0  1 V2000
  150.9199  144.3329  158.0091 C   0  0  0  0  0  0  0  0  0  0  0  0
  150.5631  143.3560  158.9706 O   0  0  0  0  0  0  0  0  0  0  0  0
  150.9974  142.0534  158.6119 C   0  0  0  0  0  0  0  0  0  0  0  0
  152.4960  142.0873  158.2420 C   0  0  0  0  0  0  0  0  0  0  0  0
  153.4273  141.6020  159.2795 N   0  0  0  0  0  0  0  0  0  0  0  0
  153.9861  142.5676  160.1038 N   0  0  0  0  0  0  0  0  0  0  0  0
  154.8246  142.2362  161.0304 C   0  0  0  0  0  0  0  0  0  0  0  0
  155.4554  143.2561  161.9125 C   0  0  0  0  0  0  0  0  0  0  0  0
  155.1069  144.4379  161.8959 O   0  0  0  0  0  0  0  0  0  0  0  0
  156.4229  142.7898  162.7229 N   0  0  0  0  0  0  0  0  0  0  0  0
  157.1746  143.5800  163.6916 C   0  0  0  0  0  0  0  0  0  0  0  0
  157.5996  144.9321  163.0919 C   0  0  0  0  0  0  0  0  0  0  0  0
  158.5211  145.6974  164.0577 C   0  0  0  0  0  0  0  0  0  0  0  0
  159.7066  144.8983  164.3690 N   0  0  0  0  0  0  0  0  0  0  0  0
  160.5721  145.6678  165.2479 C   0  0  0  0  0  0  0  0  0  0  0  0
  161.3551  146.8070  164.6360 C   0  0  0  0  0  0  0  0  0  0  0  0
  162.0650  145.5401  165.0475 C   0  0  0  0  0  0  0  0  0  0  0  0
  159.3102  143.6673  165.0535 C   0  0  0  0  0  0  0  0  0  0  0  0
  158.4279  142.8072  164.1319 C   0  0  0  0  0  0  0  0  0  0  0  0
  155.1863  140.8456  161.2412 C   0  0  0  0  0  0  0  0  0  0  0  0
  154.6233  139.9107  160.4446 C   0  0  0  0  0  0  0  0  0  0  0  0
  153.6735  140.2613  159.3865 C   0  0  0  0  0  0  0  0  0  0  0  0
  153.1409  139.4241  158.6584 O   0  0  0  0  0  0  0  0  0  0  0  0
  150.5787  145.3137  158.3401 H   0  0  0  0  0  0  0  0  0  0  0  0
  150.4538  144.1236  157.0451 H   0  0  0  0  0  0  0  0  0  0  0  0
  152.0014  144.3791  157.8748 H   0  0  0  0  0  0  0  0  0  0  0  0
  150.8095  141.3389  159.4155 H   0  0  0  0  0  0  0  0  0  0  0  0
  150.4216  141.7121  157.7504 H   0  0  0  0  0  0  0  0  0  0  0  0
  152.6466  141.4824  157.3464 H   0  0  0  0  0  0  0  0  0  0  0  0
  152.7572  143.1113  157.9692 H   0  0  0  0  0  0  0  0  0  0  0  0
  156.6460  141.8062  162.6683 H   0  0  0  0  0  0  0  0  0  0  0  0
  156.5527  143.7578  164.5711 H   0  0  0  0  0  0  0  0  0  0  0  0
  158.1172  144.7759  162.1441 H   0  0  0  0  0  0  0  0  0  0  0  0
  156.7209  145.5382  162.8683 H   0  0  0  0  0  0  0  0  0  0  0  0
  158.8267  146.6384  163.5985 H   0  0  0  0  0  0  0  0  0  0  0  0
  157.9839  145.9482  164.9740 H   0  0  0  0  0  0  0  0  0  0  0  0
  160.2562  145.8252  166.2781 H   0  0  0  0  0  0  0  0  0  0  0  0
  161.2393  146.9918  163.5696 H   0  0  0  0  0  0  0  0  0  0  0  0
  161.5125  147.6929  165.2478 H   0  0  0  0  0  0  0  0  0  0  0  0
  162.6944  145.5807  165.9341 H   0  0  0  0  0  0  0  0  0  0  0  0
  162.4200  144.8851  164.2540 H   0  0  0  0  0  0  0  0  0  0  0  0
  160.2008  143.1030  165.3327 H   0  0  0  0  0  0  0  0  0  0  0  0
  158.7779  143.9026  165.9767 H   0  0  0  0  0  0  0  0  0  0  0  0
  158.1403  141.8904  164.6476 H   0  0  0  0  0  0  0  0  0  0  0  0
  159.0073  142.5022  163.2587 H   0  0  0  0  0  0  0  0  0  0  0  0
  155.8851  140.5588  162.0136 H   0  0  0  0  0  0  0  0  0  0  0  0
  154.8814  138.8721  160.5903 H   0  0  0  0  0  0  0  0  0  0  0  0
  1  2  1  0  0  0  0
  1 24  1  0  0  0  0
  1 25  1  0  0  0  0
  1 26  1  0  0  0  0
  2  3  1  0  0  0  0
  3  4  1  0  0  0  0
  3 27  1  0  0  0  0
  3 28  1  0  0  0  0
  4  5  1  0  0  0  0
  4 29  1  0  0  0  0
  4 30  1  0  0  0  0
  5 22  1  0  0  0  0
  5  6  1  0  0  0  0
  6  7  2  0  0  0  0
  7  8  1  0  0  0  0
  7 20  1  0  0  0  0
  8  9  2  0  0  0  0
  8 10  1  0  0  0  0
 10 11  1  0  0  0  0
 10 31  1  0  0  0  0
 11 19  1  0  0  0  0
 11 12  1  0  0  0  0
 11 32  1  0  0  0  0
 12 13  1  0  0  0  0
 12 33  1  0  0  0  0
 12 34  1  0  0  0  0
 13 14  1  0  0  0  0
 13 35  1  0  0  0  0
 13 36  1  0  0  0  0
 14 15  1  0  0  0  0
 14 18  1  0  0  0  0
 15 17  1  0  0  0  0
 15 16  1  0  0  0  0
 15 37  1  0  0  0  0
 16 17  1  0  0  0  0
 16 38  1  0  0  0  0
 16 39  1  0  0  0  0
 17 40  1  0  0  0  0
 17 41  1  0  0  0  0
 18 19  1  0  0  0  0
 18 42  1  0  0  0  0
 18 43  1  0  0  0  0
 19 44  1  0  0  0  0
 19 45  1  0  0  0  0
 20 21  2  0  0  0  0
 20 46  1  0  0  0  0
 21 22  1  0  0  0  0
 21 47  1  0  0  0  0
 22 23  2  0  0  0  0
M  END
> <s_m_source_file>
AV-unprocessed.smi

> <i_m_source_file_index>
1447

> <i_lp_mmshare_version>
43012

> <i_f3d_flags>
0

> <s_epik_input>
W0NIM11PW0NIMl1bQ0gyXW4xbmMoW2NIXVtjSF1jMT1PKUMoPU8pW05IXVtDSF0yW0NIMl1bQ0gyXU4oW0NIMl1bQ0gyXTIpW0NIXTNbQ0gyXVtDSDJdMw==

> <s_epik_cmdline>
J2VwaWtfcHl0aG9uJywgJy1waCcsICc3LjAnLCAnLXRuJywgJzgnLCAnLW1hJywgJzIwMCcsICctbWV0YWxfYmluZGluZycsICctaW1hZScsICc8aW5maWxlLm1hZT4nLCAnLW9tYWUnLCAnPG91dGZpbGUubWFlPic=

> <r_lp_tautomer_probability>
1

> <r_epik_Ionization_Penalty>
0.826878

> <r_epik_Ionization_Penalty_Charging>
6.86753e-09

> <r_epik_Ionization_Penalty_Neutral>
0.826878

> <r_epik_State_Penalty>
0.8604

> <r_epik_Charging_Adjusted_Penalty>
0.8604

> <i_epik_Tot_Q>
0

> <i_epik_Tot_abs_Q>
0

> <r_epik_Metal_State_Penalty>
0.8604

> <b_epik_Metal_Only>
0

> <s_lp_Force_Field>
OPLS_2005

> <r_lp_Energy>
44.3131

> <b_lp_Chiralities_Consistent>
1

> <s_lp_Variant>
AV-unprocessed.smi:1447-3

> <Gold.Version>
5.8.1

> <Gold.Id.Protein>
6NUR|6NUR_protein|mol2

> <Gold.PLP.Fitness>
46.3120

> <Gold.PLP.PLP>
-45.4273

> <Gold.PLP.part.hbond>
-2.0343

> <Gold.PLP.part.metal>
0.0000

> <Gold.PLP.part.buried>
-2.5648

> <Gold.PLP.part.nonpolar>
-39.3258

> <Gold.PLP.part.repulsive>
0.3091

> <Gold.PLP.ligand.clash>
0.3833

> <Gold.PLP.ligand.torsion>
1.5093

> <Gold.PLP.Chemscore.Hbond>
1.0000

> <Gold.PLP.Chemscore.CHOScore>
0.0000

> <Gold.PLP.Chemscore.Metal>
0.0000

> <Gold.Chemscore.Hbonds>
donor molecule, donor type, donor heavy atom, donor atom, acceptor molecule, acceptor atom, score
      P1  H  7997  8010       L1    23  0.07

> <Gold.PLP.Chemscore.Internal.Correction>
1.2867

> <Gold.Rescore>
     Score         DG    S(hbond)    S(metal)    S(lipo)     H(rot)  DE(clash)    DE(int)     intcor
     12.83     -16.15       0.75        0.00     107.28       1.71       0.25       3.07       ----

> <Gold.Chemscore.Fitness>
12.8278

> <Gold.Chemscore.DG>
-16.1473

> <Gold.Chemscore.ZeroCoef>
-5.4800

> <Gold.Chemscore.Hbond>
0.7497

> <Gold.Chemscore.Metal>
0.0000

> <Gold.Chemscore.Lipo>
107.2813

> <Gold.Chemscore.Internal_Hbond>
0.0000

> <Gold.Chemscore.DEClash>
0.2484

> <Gold.Chemscore.DEInternal>
3.0711

> <Gold.Chemscore.Rot>
1.7143

> <Gold.Chemscore.Internal.Correction>
   9.000000E+99

> <Gold.Chemscore.Hbond.Weighted>
-2.5041

> <Gold.Chemscore.Metal.Weighted>
-0.0000

> <Gold.Chemscore.Lipo.Weighted>
-12.5519

> <Gold.Chemscore.Internal_Hbond.Weighted>
0.0000

> <Gold.Chemscore.DEClash.Weighted>
0.2484

> <Gold.Chemscore.DEInternal.Weighted>
3.0711

> <Gold.Chemscore.Rot.Weighted>
4.3887

> <Gold.Chemscore.Internal.Correction.Weighted>
   9.000000E+99

> <Gold.Protein.RotatedTorsions>
[ 6907 6896 6895 6894 ] final -130.57 input  -60.11 | X-H torsion
[ 7974 7965 7964 7962 ] final  146.25 input  175.53 | X-H torsion
[ 8008 7997 7996 7995 ] final   19.33 input   59.86 | X-H torsion
[ 10167 10162 10161 10158 ] final  -20.95 input  -65.29 | X-H torsion
[ 10718 10713 10712 10709 ] final   88.64 input   66.30 | X-H torsion
[ 10763 10752 10751 10750 ] final -136.10 input  -60.55 | X-H torsion
[ 11005 11000 10999 10996 ] final   38.32 input  -57.11 | X-H torsion

> <Gold.Protein.ActiveResidues>
 VAL166  LYS551  ARG553  GLY616  TRP617  ASP618  TYR619  PRO620  LYS621  CYS622 
 ASP623  PHE694  ASN695  SER759  ASP760  ASP761  ALA762  ILE779  LEU786  VAL792 
 PHE793  MET794  SER795  GLU796  ALA797  LYS798  CYS799  TRP800  GLU811  SER814 

> <Gold.Protein.RotatedAtoms>
  150.9412  133.6654  159.2790 H   0  0  0  0  0  0  0  0  0  0  0  0  # atno 6907 bound_to 6896
  151.4042  135.0974  159.9575 H   0  0  0  0  0  0  0  0  0  0  0  0  # atno 6908 bound_to 6896
  152.5070  133.8899  159.7443 H   0  0  0  0  0  0  0  0  0  0  0  0  # atno 6909 bound_to 6896
  144.8686  139.5882  143.5897 H   0  0  0  0  0  0  0  0  0  0  0  0  # atno 7974 bound_to 7965
  154.9191  140.3025  155.5225 H   0  0  0  0  0  0  0  0  0  0  0  0  # atno 8008 bound_to 7997
  156.3011  140.2375  156.4175 H   0  0  0  0  0  0  0  0  0  0  0  0  # atno 8009 bound_to 7997
  154.8348  140.0416  157.1490 H   0  0  0  0  0  0  0  0  0  0  0  0  # atno 8010 bound_to 7997
  140.7279  143.4674  151.0294 H   0  0  0  0  0  0  0  0  0  0  0  0  # atno 10167 bound_to 10162
  157.6950  131.0303  150.3306 H   0  0  0  0  0  0  0  0  0  0  0  0  # atno 10718 bound_to 10713
  154.8690  135.3683  154.5005 H   0  0  0  0  0  0  0  0  0  0  0  0  # atno 10763 bound_to 10752
  153.5646  135.7022  153.5536 H   0  0  0  0  0  0  0  0  0  0  0  0  # atno 10764 bound_to 10752
  153.3597  135.4050  155.1672 H   0  0  0  0  0  0  0  0  0  0  0  0  # atno 10765 bound_to 10752
  140.2137  134.3724  155.8037 H   0  0  0  0  0  0  0  0  0  0  0  0  # atno 11005 bound_to 11000
  146.2914  139.7150  142.9158 LP  0  0  0  0  0  0  0  0  0  0  0  0  # atno 17320 bound_to 7965
  145.4173  141.0403  143.2983 LP  0  0  0  0  0  0  0  0  0  0  0  0  # atno 17321 bound_to 7965
  139.8363  143.7623  152.3180 LP  0  0  0  0  0  0  0  0  0  0  0  0  # atno 17342 bound_to 10162
  139.7756  144.7462  151.0161 LP  0  0  0  0  0  0  0  0  0  0  0  0  # atno 17343 bound_to 10162
  156.3780  130.3875  149.7123 LP  0  0  0  0  0  0  0  0  0  0  0  0  # atno 17370 bound_to 10713
  156.4515  130.7909  151.2930 LP  0  0  0  0  0  0  0  0  0  0  0  0  # atno 17371 bound_to 10713
  141.2225  133.7157  156.8461 LP  0  0  0  0  0  0  0  0  0  0  0  0  # atno 17394 bound_to 11000
  140.1923  134.8957  157.3074 LP  0  0  0  0  0  0  0  0  0  0  0  0  # atno 17395 bound_to 11000

$$$$
