AV-unprocessed.smi:3152|AV-procd|sdf|12018|dock4
  -GOLD-   2272017433D 1   1.00000     0.00000
 Structure written by MMmdl.
 40 41  0  0  0  0  0  0  0  0  1 V2000
  150.4725  125.6024  149.8901 C   0  0  0  0  0  0  0  0  0  0  0  0
  149.3500  126.1950  150.6927 C   0  0  0  0  0  0  0  0  0  0  0  0
  148.7922  125.7069  151.9087 C   0  0  0  0  0  0  0  0  0  0  0  0
  147.8103  126.4666  152.3662 N   0  0  0  0  0  0  0  0  0  0  0  0
  147.7059  127.4629  151.4614 N   0  0  0  0  0  0  0  0  0  0  0  0
  146.7140  128.5039  151.6476 C   0  0  0  0  0  0  0  0  0  0  0  0
  147.0670  129.4131  152.8322 C   0  0  0  0  0  0  0  0  0  0  0  0
  147.1082  130.8119  152.4217 N   0  0  0  0  0  0  0  0  0  0  0  0
  145.7919  131.3636  152.1058 C   0  0  0  0  0  0  0  0  0  0  0  0
  145.8008  132.2262  150.8189 C   0  0  0  0  0  0  0  0  0  0  0  0
  146.4354  131.4572  149.8140 O   0  0  0  0  0  0  0  0  0  0  0  0
  144.3616  132.4906  150.3162 C   0  0  0  0  0  0  0  0  0  0  0  0
  143.5985  133.4957  151.1992 C   0  0  0  0  0  0  0  0  0  0  0  0
  144.3760  134.8122  151.3522 C   0  0  0  0  0  0  0  0  0  0  0  0
  145.8020  134.5634  151.8679 C   0  0  0  0  0  0  0  0  0  0  0  0
  146.5532  133.5724  150.9625 C   0  0  0  0  0  0  0  0  0  0  0  0
  148.6236  127.3249  150.4420 C   0  0  0  0  0  0  0  0  0  0  0  0
  150.5588  124.5271  150.0474 H   0  0  0  0  0  0  0  0  0  0  0  0
  151.4326  126.0445  150.1570 H   0  0  0  0  0  0  0  0  0  0  0  0
  150.3315  125.7588  148.8206 H   0  0  0  0  0  0  0  0  0  0  0  0
  149.0719  124.8278  152.4701 H   0  0  0  0  0  0  0  0  0  0  0  0
  146.6465  129.0863  150.7278 H   0  0  0  0  0  0  0  0  0  0  0  0
  145.7400  128.0359  151.7985 H   0  0  0  0  0  0  0  0  0  0  0  0
  146.3286  129.2812  153.6242 H   0  0  0  0  0  0  0  0  0  0  0  0
  148.0308  129.1178  153.2484 H   0  0  0  0  0  0  0  0  0  0  0  0
  147.7170  130.9149  151.6158 H   0  0  0  0  0  0  0  0  0  0  0  0
  145.0694  130.5544  151.9919 H   0  0  0  0  0  0  0  0  0  0  0  0
  145.4465  131.9582  152.9511 H   0  0  0  0  0  0  0  0  0  0  0  0
  147.2879  131.1979  150.1285 H   0  0  0  0  0  0  0  0  0  0  0  0
  144.3976  132.8872  149.3000 H   0  0  0  0  0  0  0  0  0  0  0  0
  143.8032  131.5555  150.2544 H   0  0  0  0  0  0  0  0  0  0  0  0
  142.6188  133.6958  150.7646 H   0  0  0  0  0  0  0  0  0  0  0  0
  143.4101  133.0643  152.1823 H   0  0  0  0  0  0  0  0  0  0  0  0
  144.4217  135.3212  150.3885 H   0  0  0  0  0  0  0  0  0  0  0  0
  143.8457  135.4817  152.0299 H   0  0  0  0  0  0  0  0  0  0  0  0
  146.3468  135.5067  151.9138 H   0  0  0  0  0  0  0  0  0  0  0  0
  145.7656  134.1806  152.8883 H   0  0  0  0  0  0  0  0  0  0  0  0
  147.5660  133.4210  151.3366 H   0  0  0  0  0  0  0  0  0  0  0  0
  146.6697  134.0275  149.9776 H   0  0  0  0  0  0  0  0  0  0  0  0
  148.6841  128.0363  149.6314 H   0  0  0  0  0  0  0  0  0  0  0  0
  1  2  1  0  0  0  0
  1 18  1  0  0  0  0
  1 19  1  0  0  0  0
  1 20  1  0  0  0  0
  2 17  2  0  0  0  0
  2  3  1  0  0  0  0
  3  4  2  0  0  0  0
  3 21  1  0  0  0  0
  4  5  1  0  0  0  0
  5  6  1  0  0  0  0
  5 17  1  0  0  0  0
  6  7  1  0  0  0  0
  6 22  1  0  0  0  0
  6 23  1  0  0  0  0
  7  8  1  0  0  0  0
  7 24  1  0  0  0  0
  7 25  1  0  0  0  0
  8  9  1  0  0  0  0
  8 26  1  0  0  0  0
  9 10  1  0  0  0  0
  9 27  1  0  0  0  0
  9 28  1  0  0  0  0
 10 16  1  0  0  0  0
 10 11  1  0  0  0  0
 10 12  1  0  0  0  0
 11 29  1  0  0  0  0
 12 13  1  0  0  0  0
 12 30  1  0  0  0  0
 12 31  1  0  0  0  0
 13 14  1  0  0  0  0
 13 32  1  0  0  0  0
 13 33  1  0  0  0  0
 14 15  1  0  0  0  0
 14 34  1  0  0  0  0
 14 35  1  0  0  0  0
 15 16  1  0  0  0  0
 15 36  1  0  0  0  0
 15 37  1  0  0  0  0
 16 38  1  0  0  0  0
 16 39  1  0  0  0  0
 17 40  1  0  0  0  0
M  END
> <s_m_source_file>
AV-unprocessed.smi

> <i_m_source_file_index>
3152

> <i_lp_mmshare_version>
43012

> <i_f3d_flags>
0

> <s_epik_input>
W0NIM11jMVtjSF1ubihbY0hdMSlbQ0gyXVtDSDJdW05IXVtDSDJdQzIoW09IXSlbQ0gyXVtDSDJdW0NIMl1bQ0gyXVtDSDJdMg==

> <s_epik_cmdline>
J2VwaWtfcHl0aG9uJywgJy1waCcsICc3LjAnLCAnLXRuJywgJzgnLCAnLW1hJywgJzIwMCcsICctbWV0YWxfYmluZGluZycsICctaW1hZScsICc8aW5maWxlLm1hZT4nLCAnLW9tYWUnLCAnPG91dGZpbGUubWFlPic=

> <r_lp_tautomer_probability>
1

> <r_epik_Ionization_Penalty>
1.91403

> <r_epik_Ionization_Penalty_Charging>
0

> <r_epik_Ionization_Penalty_Neutral>
1.91403

> <r_epik_State_Penalty>
2.0334

> <r_epik_Charging_Adjusted_Penalty>
2.0334

> <i_epik_Tot_Q>
0

> <i_epik_Tot_abs_Q>
0

> <r_epik_Metal_State_Penalty>
2.03082

> <b_epik_Metal_Only>
0

> <s_lp_Force_Field>
OPLS_2005

> <r_lp_Energy>
20.9393

> <b_lp_Chiralities_Consistent>
1

> <s_lp_Variant>
AV-unprocessed.smi:3152-2

> <Gold.Version>
5.8.1

> <Gold.Id.Protein>
6NUR|6NUR_protein|mol2

> <Gold.PLP.Fitness>
45.9943

> <Gold.PLP.PLP>
-41.7640

> <Gold.PLP.part.hbond>
-2.3989

> <Gold.PLP.part.metal>
0.0000

> <Gold.PLP.part.buried>
-7.1759

> <Gold.PLP.part.nonpolar>
-32.6217

> <Gold.PLP.part.repulsive>
0.0214

> <Gold.PLP.ligand.clash>
0.0000

> <Gold.PLP.ligand.torsion>
0.8969

> <Gold.PLP.Chemscore.Hbond>
2.0000

> <Gold.PLP.Chemscore.CHOScore>
0.0000

> <Gold.PLP.Chemscore.Metal>
0.0000

> <Gold.Chemscore.Hbonds>
donor molecule, donor type, donor heavy atom, donor atom, acceptor molecule, acceptor atom, score
      L1  H     8    26       P1 10747  1.00
      L1  H    11    29       P1 10747  1.00

> <Gold.PLP.Chemscore.Internal.Correction>
0.0241

> <Gold.Rescore>
     Score         DG    S(hbond)    S(metal)    S(lipo)     H(rot)  DE(clash)    DE(int)     intcor
     17.37     -18.33       2.00        0.00      98.44       2.09       0.07       0.89       ----

> <Gold.Chemscore.Fitness>
17.3674

> <Gold.Chemscore.DG>
-18.3296

> <Gold.Chemscore.ZeroCoef>
-5.4800

> <Gold.Chemscore.Hbond>
1.9996

> <Gold.Chemscore.Metal>
0.0000

> <Gold.Chemscore.Lipo>
98.4355

> <Gold.Chemscore.Internal_Hbond>
0.0000

> <Gold.Chemscore.DEClash>
0.0703

> <Gold.Chemscore.DEInternal>
0.8919

> <Gold.Chemscore.Rot>
2.0883

> <Gold.Chemscore.Internal.Correction>
   9.000000E+99

> <Gold.Chemscore.Hbonds>
donor molecule, donor type, donor heavy atom, donor atom, acceptor molecule, acceptor atom, score
      L1  H     8    26       P1 10747  1.00
      L1  H    11    29       P1 10747  1.00

> <Gold.Chemscore.Hbond.Weighted>
-6.6788

> <Gold.Chemscore.Metal.Weighted>
-0.0000

> <Gold.Chemscore.Lipo.Weighted>
-11.5170

> <Gold.Chemscore.Internal_Hbond.Weighted>
0.0000

> <Gold.Chemscore.DEClash.Weighted>
0.0703

> <Gold.Chemscore.DEInternal.Weighted>
0.8919

> <Gold.Chemscore.Rot.Weighted>
5.3461

> <Gold.Chemscore.Internal.Correction.Weighted>
   9.000000E+99

> <Gold.Protein.RotatedTorsions>
[ 6907 6896 6895 6894 ] final  -91.36 input  -60.11 | X-H torsion
[ 7974 7965 7964 7962 ] final   19.09 input  175.53 | X-H torsion
[ 8008 7997 7996 7995 ] final  -65.74 input   59.86 | X-H torsion
[ 10167 10162 10161 10158 ] final -162.10 input  -65.29 | X-H torsion
[ 10718 10713 10712 10709 ] final -157.46 input   66.30 | X-H torsion
[ 10763 10752 10751 10750 ] final   -0.16 input  -60.55 | X-H torsion
[ 11005 11000 10999 10996 ] final  142.95 input  -57.11 | X-H torsion

> <Gold.Protein.ActiveResidues>
 VAL166  LYS551  ARG553  GLY616  TRP617  ASP618  TYR619  PRO620  LYS621  CYS622 
 ASP623  PHE694  ASN695  SER759  ASP760  ASP761  ALA762  ILE779  LEU786  VAL792 
 PHE793  MET794  SER795  GLU796  ALA797  LYS798  CYS799  TRP800  GLU811  SER814 

> <Gold.Protein.RotatedAtoms>
  150.6892  134.2289  159.4426 H   0  0  0  0  0  0  0  0  0  0  0  0  # atno 6907 bound_to 6896
  152.0241  134.9803  160.0580 H   0  0  0  0  0  0  0  0  0  0  0  0  # atno 6908 bound_to 6896
  152.1369  133.4405  159.4784 H   0  0  0  0  0  0  0  0  0  0  0  0  # atno 6909 bound_to 6896
  146.2162  139.8362  142.8650 H   0  0  0  0  0  0  0  0  0  0  0  0  # atno 7974 bound_to 7965
  154.4690  140.0927  156.7097 H   0  0  0  0  0  0  0  0  0  0  0  0  # atno 8008 bound_to 7997
  155.4776  140.3466  155.4316 H   0  0  0  0  0  0  0  0  0  0  0  0  # atno 8009 bound_to 7997
  156.1007  140.1421  156.9459 H   0  0  0  0  0  0  0  0  0  0  0  0  # atno 8010 bound_to 7997
  139.6416  144.0248  152.2096 H   0  0  0  0  0  0  0  0  0  0  0  0  # atno 10167 bound_to 10162
  156.5406  130.8561  151.2747 H   0  0  0  0  0  0  0  0  0  0  0  0  # atno 10718 bound_to 10713
  153.3283  135.6973  153.6970 H   0  0  0  0  0  0  0  0  0  0  0  0  # atno 10763 bound_to 10752
  153.5783  135.3503  155.2865 H   0  0  0  0  0  0  0  0  0  0  0  0  # atno 10764 bound_to 10752
  154.8612  135.4289  154.2465 H   0  0  0  0  0  0  0  0  0  0  0  0  # atno 10765 bound_to 10752
  140.0516  134.9252  157.1027 H   0  0  0  0  0  0  0  0  0  0  0  0  # atno 11005 bound_to 11000
  145.2946  141.0177  143.3644 LP  0  0  0  0  0  0  0  0  0  0  0  0  # atno 17320 bound_to 7965
  144.9052  139.4598  143.6613 LP  0  0  0  0  0  0  0  0  0  0  0  0  # atno 17321 bound_to 7965
  139.9939  144.6341  150.7789 LP  0  0  0  0  0  0  0  0  0  0  0  0  # atno 17342 bound_to 10162
  140.7494  143.2938  151.3260 LP  0  0  0  0  0  0  0  0  0  0  0  0  # atno 17343 bound_to 10162
  157.7406  130.9853  150.2388 LP  0  0  0  0  0  0  0  0  0  0  0  0  # atno 17370 bound_to 10713
  156.2975  130.3754  149.7782 LP  0  0  0  0  0  0  0  0  0  0  0  0  # atno 17371 bound_to 10713
  140.3908  134.2186  155.7166 LP  0  0  0  0  0  0  0  0  0  0  0  0  # atno 17394 bound_to 11000
  141.1933  133.8154  157.0805 LP  0  0  0  0  0  0  0  0  0  0  0  0  # atno 17395 bound_to 11000

$$$$
