AV-unprocessed.smi:1766|AV-procd|sdf|7135|dock7
  -GOLD-   22720 8373D 1   1.00000     0.00000
 Structure written by MMmdl.
 39 41  0  0  0  0  0  0  0  0  1 V2000
  152.3714  137.5521  159.2983 N   0  0  0  0  0  0  0  0  0  0  0  0
  152.4882  138.5160  158.3806 C   0  0  0  0  0  0  0  0  0  0  0  0
  153.5608  138.7826  157.8427 O   0  0  0  0  0  0  0  0  0  0  0  0
  151.2173  139.2826  158.0016 C   0  0  0  0  0  0  0  0  0  0  0  0
  151.4096  140.7353  158.3385 C   0  0  0  0  0  0  0  0  0  0  0  0
  151.5717  141.1453  159.5986 N   0  0  0  0  0  0  0  0  0  0  0  0
  151.7017  142.5131  159.4619 C   0  0  0  0  0  0  0  0  0  0  0  0
  151.9013  143.5189  160.4346 C   0  0  0  0  0  0  0  0  0  0  0  0
  152.0042  144.8722  160.0511 C   0  0  0  0  0  0  0  0  0  0  0  0
  151.9095  145.2383  158.6927 C   0  0  0  0  0  0  0  0  0  0  0  0
  151.7109  144.2516  157.7078 C   0  0  0  0  0  0  0  0  0  0  0  0
  151.6091  142.9024  158.0962 C   0  0  0  0  0  0  0  0  0  0  0  0
  151.4151  141.7154  157.3972 N   0  0  0  0  0  0  0  0  0  0  0  0
  151.2555  141.5973  155.9534 C   0  0  0  0  0  0  0  0  0  0  0  0
  150.1138  140.6393  155.5592 C   0  0  2  0  0  0  0  0  0  0  0  0
  150.4520  139.9404  154.3766 O   0  0  0  0  0  0  0  0  0  0  0  0
  148.7925  141.3799  155.4270 C   0  0  0  0  0  0  0  0  0  0  0  0
  148.0824  141.7708  156.5825 C   0  0  0  0  0  0  0  0  0  0  0  0
  146.8603  142.4614  156.4653 C   0  0  0  0  0  0  0  0  0  0  0  0
  146.3427  142.7678  155.1921 C   0  0  0  0  0  0  0  0  0  0  0  0
  145.1677  143.4313  155.0801 F   0  0  0  0  0  0  0  0  0  0  0  0
  147.0491  142.3850  154.0358 C   0  0  0  0  0  0  0  0  0  0  0  0
  148.2709  141.6939  154.1524 C   0  0  0  0  0  0  0  0  0  0  0  0
  153.1868  137.0295  159.5838 H   0  0  0  0  0  0  0  0  0  0  0  0
  151.4706  137.3560  159.7107 H   0  0  0  0  0  0  0  0  0  0  0  0
  150.9898  139.1552  156.9433 H   0  0  0  0  0  0  0  0  0  0  0  0
  150.3647  138.8881  158.5563 H   0  0  0  0  0  0  0  0  0  0  0  0
  151.9748  143.2487  161.4775 H   0  0  0  0  0  0  0  0  0  0  0  0
  152.1562  145.6327  160.8028 H   0  0  0  0  0  0  0  0  0  0  0  0
  151.9891  146.2771  158.4074 H   0  0  0  0  0  0  0  0  0  0  0  0
  151.6369  144.5282  156.6665 H   0  0  0  0  0  0  0  0  0  0  0  0
  151.0544  142.5933  155.5570 H   0  0  0  0  0  0  0  0  0  0  0  0
  152.1954  141.2830  155.5021 H   0  0  0  0  0  0  0  0  0  0  0  0
  150.0057  139.8865  156.3413 H   0  0  0  0  0  0  0  0  0  0  0  0
  150.4954  139.0177  154.5760 H   0  0  0  0  0  0  0  0  0  0  0  0
  148.4719  141.5436  157.5641 H   0  0  0  0  0  0  0  0  0  0  0  0
  146.3200  142.7572  157.3525 H   0  0  0  0  0  0  0  0  0  0  0  0
  146.6548  142.6225  153.0588 H   0  0  0  0  0  0  0  0  0  0  0  0
  148.8082  141.4069  153.2601 H   0  0  0  0  0  0  0  0  0  0  0  0
  1  2  1  0  0  0  0
  1 24  1  0  0  0  0
  1 25  1  0  0  0  0
  2  3  2  0  0  0  0
  2  4  1  0  0  0  0
  4  5  1  0  0  0  0
  4 26  1  0  0  0  0
  4 27  1  0  0  0  0
  5 13  1  0  0  0  0
  5  6  2  0  0  0  0
  6  7  1  0  0  0  0
  7 12  2  0  0  0  0
  7  8  1  0  0  0  0
  8  9  2  0  0  0  0
  8 28  1  0  0  0  0
  9 10  1  0  0  0  0
  9 29  1  0  0  0  0
 10 11  2  0  0  0  0
 10 30  1  0  0  0  0
 11 12  1  0  0  0  0
 11 31  1  0  0  0  0
 12 13  1  0  0  0  0
 13 14  1  0  0  0  0
 14 15  1  0  0  0  0
 14 32  1  0  0  0  0
 14 33  1  0  0  0  0
 15 16  1  0  0  0  0
 15 17  1  0  0  0  0
 15 34  1  0  0  0  0
 16 35  1  0  0  0  0
 17 23  1  0  0  0  0
 17 18  2  0  0  0  0
 18 19  1  0  0  0  0
 18 36  1  0  0  0  0
 19 20  2  0  0  0  0
 19 37  1  0  0  0  0
 20 21  1  0  0  0  0
 20 22  1  0  0  0  0
 22 23  2  0  0  0  0
 22 38  1  0  0  0  0
 23 39  1  0  0  0  0
M  END
> <s_m_source_file>
AV-unprocessed.smi

> <i_m_source_file_index>
1766

> <i_lp_mmshare_version>
43012

> <i_f3d_flags>
0

> <s_epik_input>
W2NIXTFbY0hdW2NIXVtjSF1jKGMxMiluKGMobjIpW0NIMl1DKD1PKVtOSDJdKVtDSDJdW0NASF0oW09IXSljM1tjSF1bY0hdYyhGKVtjSF1bY0hdMw==

> <s_epik_cmdline>
J2VwaWtfcHl0aG9uJywgJy1waCcsICc3LjAnLCAnLXRuJywgJzgnLCAnLW1hJywgJzIwMCcsICctbWV0YWxfYmluZGluZycsICctaW1hZScsICc8aW5maWxlLm1hZT4nLCAnLW9tYWUnLCAnPG91dGZpbGUubWFlPic=

> <r_epik_Ionization_Penalty>
0.0366901

> <r_epik_Ionization_Penalty_Charging>
0

> <r_epik_Ionization_Penalty_Neutral>
0.0366901

> <r_epik_State_Penalty>
0.0306642

> <r_epik_Charging_Adjusted_Penalty>
0.0306642

> <i_epik_Tot_Q>
0

> <i_epik_Tot_abs_Q>
0

> <r_epik_Metal_State_Penalty>
0.028853

> <b_epik_Metal_Only>
0

> <s_lp_Force_Field>
OPLS_2005

> <r_lp_Energy>
12.4574

> <b_lp_Chiralities_Consistent>
1

> <s_lp_Variant>
AV-unprocessed.smi:1766-1

> <Gold.Version>
5.8.1

> <Gold.Id.Protein>
6NUR|6NUR_protein|mol2

> <Gold.PLP.Fitness>
52.2396

> <Gold.PLP.PLP>
-48.5004

> <Gold.PLP.part.hbond>
-2.2692

> <Gold.PLP.part.metal>
0.0000

> <Gold.PLP.part.buried>
-6.9318

> <Gold.PLP.part.nonpolar>
-38.4444

> <Gold.PLP.part.repulsive>
0.1061

> <Gold.PLP.ligand.clash>
0.0000

> <Gold.PLP.ligand.torsion>
1.1544

> <Gold.PLP.Chemscore.Hbond>
2.0000

> <Gold.PLP.Chemscore.CHOScore>
0.0000

> <Gold.PLP.Chemscore.Metal>
0.0000

> <Gold.Chemscore.Hbonds>
donor molecule, donor type, donor heavy atom, donor atom, acceptor molecule, acceptor atom, score
      P1  H  7989  7998       L1    16  1.00
      P1  H  7997  8009       L1     3  1.00

> <Gold.PLP.Chemscore.Internal.Correction>
0.0480

> <Gold.Rescore>
     Score         DG    S(hbond)    S(metal)    S(lipo)     H(rot)  DE(clash)    DE(int)     intcor
     15.48     -17.60       1.88        0.00     115.36       2.99       0.30       1.82       ----

> <Gold.Chemscore.Fitness>
15.4753

> <Gold.Chemscore.DG>
-17.5954

> <Gold.Chemscore.ZeroCoef>
-5.4800

> <Gold.Chemscore.Hbond>
1.8753

> <Gold.Chemscore.Metal>
0.0000

> <Gold.Chemscore.Lipo>
115.3602

> <Gold.Chemscore.Internal_Hbond>
0.0000

> <Gold.Chemscore.DEClash>
0.2972

> <Gold.Chemscore.DEInternal>
1.8230

> <Gold.Chemscore.Rot>
2.9864

> <Gold.Chemscore.Internal.Correction>
   9.000000E+99

> <Gold.Chemscore.Hbonds>
donor molecule, donor type, donor heavy atom, donor atom, acceptor molecule, acceptor atom, score
      P1  H  7989  7998       L1    16  0.70
      P1  H  7997  8009       L1     3  0.98

> <Gold.Chemscore.Hbond.Weighted>
-6.2634

> <Gold.Chemscore.Metal.Weighted>
-0.0000

> <Gold.Chemscore.Lipo.Weighted>
-13.4971

> <Gold.Chemscore.Internal_Hbond.Weighted>
0.0000

> <Gold.Chemscore.DEClash.Weighted>
0.2972

> <Gold.Chemscore.DEInternal.Weighted>
1.8230

> <Gold.Chemscore.Rot.Weighted>
7.6451

> <Gold.Chemscore.Internal.Correction.Weighted>
   9.000000E+99

> <Gold.Protein.RotatedTorsions>
[ 6907 6896 6895 6894 ] final   95.35 input  -60.11 | X-H torsion
[ 7974 7965 7964 7962 ] final   28.03 input  175.53 | X-H torsion
[ 8008 7997 7996 7995 ] final  168.72 input   59.86 | X-H torsion
[ 10167 10162 10161 10158 ] final -114.50 input  -65.29 | X-H torsion
[ 10718 10713 10712 10709 ] final   -7.29 input   66.30 | X-H torsion
[ 10763 10752 10751 10750 ] final -130.88 input  -60.55 | X-H torsion
[ 11005 11000 10999 10996 ] final   19.54 input  -57.11 | X-H torsion

> <Gold.Protein.ActiveResidues>
 VAL166  LYS551  ARG553  GLY616  TRP617  ASP618  TYR619  PRO620  LYS621  CYS622 
 ASP623  PHE694  ASN695  SER759  ASP760  ASP761  ALA762  ILE779  LEU786  VAL792 
 PHE793  MET794  SER795  GLU796  ALA797  LYS798  CYS799  TRP800  GLU811  SER814 

> <Gold.Protein.RotatedAtoms>
  152.5444  134.1053  159.8334 H   0  0  0  0  0  0  0  0  0  0  0  0  # atno 6907 bound_to 6896
  151.1125  133.5155  159.2612 H   0  0  0  0  0  0  0  0  0  0  0  0  # atno 6908 bound_to 6896
  151.1868  135.0394  159.8870 H   0  0  0  0  0  0  0  0  0  0  0  0  # atno 6909 bound_to 6896
  146.1752  139.7111  142.8940 H   0  0  0  0  0  0  0  0  0  0  0  0  # atno 7974 bound_to 7965
  156.1521  140.1583  156.8752 H   0  0  0  0  0  0  0  0  0  0  0  0  # atno 8008 bound_to 7997
  154.5081  140.0808  156.7972 H   0  0  0  0  0  0  0  0  0  0  0  0  # atno 8009 bound_to 7997
  155.3875  140.3408  155.4252 H   0  0  0  0  0  0  0  0  0  0  0  0  # atno 8010 bound_to 7997
  140.1003  143.4619  152.1816 H   0  0  0  0  0  0  0  0  0  0  0  0  # atno 10167 bound_to 10162
  156.7193  130.5146  149.5872 H   0  0  0  0  0  0  0  0  0  0  0  0  # atno 10718 bound_to 10713
  154.8753  135.3848  154.4155 H   0  0  0  0  0  0  0  0  0  0  0  0  # atno 10763 bound_to 10752
  153.4864  135.7030  153.5914 H   0  0  0  0  0  0  0  0  0  0  0  0  # atno 10764 bound_to 10752
  153.4306  135.3879  155.2135 H   0  0  0  0  0  0  0  0  0  0  0  0  # atno 10765 bound_to 10752
  140.4125  134.1603  155.7668 H   0  0  0  0  0  0  0  0  0  0  0  0  # atno 11005 bound_to 11000
  145.4232  141.0408  143.2952 LP  0  0  0  0  0  0  0  0  0  0  0  0  # atno 17320 bound_to 7965
  144.8224  139.5768  143.6981 LP  0  0  0  0  0  0  0  0  0  0  0  0  # atno 17321 bound_to 7965
  139.5675  144.7444  151.3982 LP  0  0  0  0  0  0  0  0  0  0  0  0  # atno 17342 bound_to 10162
  140.6981  143.7698  150.7359 LP  0  0  0  0  0  0  0  0  0  0  0  0  # atno 17343 bound_to 10162
  156.1606  130.6371  151.0713 LP  0  0  0  0  0  0  0  0  0  0  0  0  # atno 17370 bound_to 10713
  157.6904  131.0811  150.7123 LP  0  0  0  0  0  0  0  0  0  0  0  0  # atno 17371 bound_to 10713
  141.1815  133.8403  157.1239 LP  0  0  0  0  0  0  0  0  0  0  0  0  # atno 17394 bound_to 11000
  140.0257  134.9925  157.0681 LP  0  0  0  0  0  0  0  0  0  0  0  0  # atno 17395 bound_to 11000

$$$$
