AV-unprocessed.smi:679|AV-procd|sdf|3321|dock3
  -GOLD-   22720 0283D 1   1.00000     0.00000
 Structure written by MMmdl.
 41 43  0  0  0  0  0  0  0  0  1 V2000
  145.6025  137.0756  152.2414 C   0  0  0  0  0  0  0  0  0  0  0  0
  146.4982  138.3003  152.0433 C   0  0  0  0  0  0  0  0  0  0  0  0
  146.8461  138.8212  153.3143 O   0  0  0  0  0  0  0  0  0  0  0  0
  148.1091  139.4676  153.3210 C   0  0  2  0  0  0  0  0  0  0  0  0
  149.2325  138.6682  153.9884 C   0  0  0  0  0  0  0  0  0  0  0  0
  149.7207  140.0134  154.5294 C   0  0  2  0  0  0  0  0  0  0  0  0
  150.2485  139.9128  155.8836 N   0  0  0  0  0  0  0  0  0  0  0  0
  151.5538  139.8989  156.1902 C   0  0  0  0  0  0  0  0  0  0  0  0
  152.4505  139.8663  155.3481 O   0  0  0  0  0  0  0  0  0  0  0  0
  151.9003  139.9689  157.6763 C   0  0  0  0  0  0  0  0  0  0  0  0
  151.3099  138.8482  158.3841 N   0  0  0  0  0  0  0  0  0  0  0  0
  151.8632  137.7504  158.9040 C   0  0  0  0  0  0  0  0  0  0  0  0
  150.9626  136.9864  159.5031 N   0  0  0  0  0  0  0  0  0  0  0  0
  149.7827  137.6889  159.3216 N   0  0  0  0  0  0  0  0  0  0  0  0
  149.9824  138.7946  158.6585 N   0  0  0  0  0  0  0  0  0  0  0  0
  148.2572  140.5208  154.4474 C   0  0  0  0  0  0  0  0  0  0  0  0
  148.0172  141.9780  154.0653 C   0  0  0  0  0  0  0  0  0  0  0  0
  146.5611  142.3102  154.4135 C   0  0  0  0  0  0  0  0  0  0  0  0
  146.0972  141.2187  155.3834 C   0  0  0  0  0  0  0  0  0  0  0  0
  147.3397  140.3756  155.6700 C   0  0  0  0  0  0  0  0  0  0  0  0
  145.3103  136.6471  151.2827 H   0  0  0  0  0  0  0  0  0  0  0  0
  144.6930  137.3402  152.7813 H   0  0  0  0  0  0  0  0  0  0  0  0
  146.1181  136.3023  152.8113 H   0  0  0  0  0  0  0  0  0  0  0  0
  147.3948  138.0192  151.4894 H   0  0  0  0  0  0  0  0  0  0  0  0
  145.9714  139.0564  151.4592 H   0  0  0  0  0  0  0  0  0  0  0  0
  148.3961  139.8625  152.3434 H   0  0  0  0  0  0  0  0  0  0  0  0
  148.8732  137.9842  154.7599 H   0  0  0  0  0  0  0  0  0  0  0  0
  149.9166  138.1771  153.2960 H   0  0  0  0  0  0  0  0  0  0  0  0
  150.3835  140.5192  153.8229 H   0  0  0  0  0  0  0  0  0  0  0  0
  149.5797  139.9362  156.6399 H   0  0  0  0  0  0  0  0  0  0  0  0
  152.9826  139.9615  157.8144 H   0  0  0  0  0  0  0  0  0  0  0  0
  151.5225  140.8964  158.1082 H   0  0  0  0  0  0  0  0  0  0  0  0
  152.9171  137.5189  158.8527 H   0  0  0  0  0  0  0  0  0  0  0  0
  148.6818  142.6248  154.6391 H   0  0  0  0  0  0  0  0  0  0  0  0
  148.2260  142.1717  153.0128 H   0  0  0  0  0  0  0  0  0  0  0  0
  146.4826  143.3034  154.8570 H   0  0  0  0  0  0  0  0  0  0  0  0
  145.9395  142.3013  153.5173 H   0  0  0  0  0  0  0  0  0  0  0  0
  145.6652  141.6300  156.2961 H   0  0  0  0  0  0  0  0  0  0  0  0
  145.3335  140.6038  154.9055 H   0  0  0  0  0  0  0  0  0  0  0  0
  147.0795  139.3396  155.8897 H   0  0  0  0  0  0  0  0  0  0  0  0
  147.8232  140.7731  156.5629 H   0  0  0  0  0  0  0  0  0  0  0  0
  1  2  1  0  0  0  0
  1 21  1  0  0  0  0
  1 22  1  0  0  0  0
  1 23  1  0  0  0  0
  2  3  1  0  0  0  0
  2 24  1  0  0  0  0
  2 25  1  0  0  0  0
  3  4  1  0  0  0  0
  4 16  1  0  0  0  0
  4  5  1  0  0  0  0
  4 26  1  0  0  0  0
  5  6  1  0  0  0  0
  5 27  1  0  0  0  0
  5 28  1  0  0  0  0
  6  7  1  0  0  0  0
  6 16  1  0  0  0  0
  6 29  1  0  0  0  0
  7  8  1  0  0  0  0
  7 30  1  0  0  0  0
  8  9  2  0  0  0  0
  8 10  1  0  0  0  0
 10 11  1  0  0  0  0
 10 31  1  0  0  0  0
 10 32  1  0  0  0  0
 11 15  1  0  0  0  0
 11 12  1  0  0  0  0
 12 13  2  0  0  0  0
 12 33  1  0  0  0  0
 13 14  1  0  0  0  0
 14 15  2  0  0  0  0
 16 20  1  0  0  0  0
 16 17  1  0  0  0  0
 17 18  1  0  0  0  0
 17 34  1  0  0  0  0
 17 35  1  0  0  0  0
 18 19  1  0  0  0  0
 18 36  1  0  0  0  0
 18 37  1  0  0  0  0
 19 20  1  0  0  0  0
 19 38  1  0  0  0  0
 19 39  1  0  0  0  0
 20 40  1  0  0  0  0
 20 41  1  0  0  0  0
M  END
> <s_m_source_file>
AV-unprocessed.smi

> <i_m_source_file_index>
679

> <i_lp_mmshare_version>
43012

> <i_f3d_flags>
0

> <s_epik_input>
W0NIMl0xW0NIMl1bQ0gyXVtDSDJdQzEyW0NASF0oT1tDSDJdW0NIM10pW0NIMl1bQ0BIXTJbTkhdQyg9TylbQ0gyXW4zW2NIXW5ubjM=

> <s_epik_cmdline>
J2VwaWtfcHl0aG9uJywgJy1waCcsICc3LjAnLCAnLXRuJywgJzgnLCAnLW1hJywgJzIwMCcsICctbWV0YWxfYmluZGluZycsICctaW1hZScsICc8aW5maWxlLm1hZT4nLCAnLW9tYWUnLCAnPG91dGZpbGUubWFlPic=

> <r_lp_tautomer_probability>
1

> <r_epik_Ionization_Penalty>
7.96741e-07

> <r_epik_Ionization_Penalty_Charging>
0

> <r_epik_Ionization_Penalty_Neutral>
7.96741e-07

> <r_epik_State_Penalty>
-0

> <r_epik_Charging_Adjusted_Penalty>
0

> <i_epik_Tot_Q>
0

> <i_epik_Tot_abs_Q>
0

> <r_epik_Metal_State_Penalty>
-0

> <b_epik_Metal_Only>
0

> <s_lp_Force_Field>
OPLS_2005

> <r_lp_Energy>
37

> <b_lp_Chiralities_Consistent>
1

> <s_lp_Variant>
AV-unprocessed.smi:679-3

> <Gold.Version>
5.8.1

> <Gold.Id.Protein>
6NUR|6NUR_protein|mol2

> <Gold.PLP.Fitness>
35.7236

> <Gold.PLP.PLP>
-30.4745

> <Gold.PLP.part.hbond>
-4.0000

> <Gold.PLP.part.metal>
0.0000

> <Gold.PLP.part.buried>
1.9880

> <Gold.PLP.part.nonpolar>
-27.9808

> <Gold.PLP.part.repulsive>
0.2850

> <Gold.PLP.ligand.clash>
0.0000

> <Gold.PLP.ligand.torsion>
1.0684

> <Gold.PLP.Chemscore.Hbond>
2.3360

> <Gold.PLP.Chemscore.CHOScore>
0.0000

> <Gold.PLP.Chemscore.Metal>
0.0000

> <Gold.Chemscore.Hbonds>
donor molecule, donor type, donor heavy atom, donor atom, acceptor molecule, acceptor atom, score
      P1  H  6896  6907       L1    13  1.00
      P1  H  7989  7998       L1     9  0.32
      P1  H  7997  8009       L1     9  0.88

> <Gold.PLP.Chemscore.Internal.Correction>
0.3778

> <Gold.Rescore>
     Score         DG    S(hbond)    S(metal)    S(lipo)     H(rot)  DE(clash)    DE(int)     intcor
     11.16     -13.37       1.98        0.00      63.73       2.41       1.05       1.16       ----

> <Gold.Chemscore.Fitness>
11.1646

> <Gold.Chemscore.DG>
-13.3682

> <Gold.Chemscore.ZeroCoef>
-5.4800

> <Gold.Chemscore.Hbond>
1.9756

> <Gold.Chemscore.Metal>
0.0000

> <Gold.Chemscore.Lipo>
63.7302

> <Gold.Chemscore.Internal_Hbond>
0.0000

> <Gold.Chemscore.DEClash>
1.0477

> <Gold.Chemscore.DEInternal>
1.1559

> <Gold.Chemscore.Rot>
2.4089

> <Gold.Chemscore.Internal.Correction>
   9.000000E+99

> <Gold.Chemscore.Hbonds>
donor molecule, donor type, donor heavy atom, donor atom, acceptor molecule, acceptor atom, score
      P1  H  6896  6907       L1    13  0.98
      P1  H  7989  7998       L1     9  0.21
      P1  H  7997  8009       L1     9  0.78

> <Gold.Chemscore.Hbond.Weighted>
-6.5986

> <Gold.Chemscore.Metal.Weighted>
-0.0000

> <Gold.Chemscore.Lipo.Weighted>
-7.4564

> <Gold.Chemscore.Internal_Hbond.Weighted>
0.0000

> <Gold.Chemscore.DEClash.Weighted>
1.0477

> <Gold.Chemscore.DEInternal.Weighted>
1.1559

> <Gold.Chemscore.Rot.Weighted>
6.1668

> <Gold.Chemscore.Internal.Correction.Weighted>
   9.000000E+99

> <Gold.Protein.RotatedTorsions>
[ 6907 6896 6895 6894 ] final  -12.51 input  -60.11 | X-H torsion
[ 7974 7965 7964 7962 ] final -121.34 input  175.53 | X-H torsion
[ 8008 7997 7996 7995 ] final -148.90 input   59.86 | X-H torsion
[ 10167 10162 10161 10158 ] final   58.99 input  -65.29 | X-H torsion
[ 10718 10713 10712 10709 ] final  100.35 input   66.30 | X-H torsion
[ 10763 10752 10751 10750 ] final  -98.84 input  -60.55 | X-H torsion
[ 11005 11000 10999 10996 ] final -103.82 input  -57.11 | X-H torsion

> <Gold.Protein.ActiveResidues>
 VAL166  LYS551  ARG553  GLY616  TRP617  ASP618  TYR619  PRO620  LYS621  CYS622 
 ASP623  PHE694  ASN695  SER759  ASP760  ASP761  ALA762  ILE779  LEU786  VAL792 
 PHE793  MET794  SER795  GLU796  ALA797  LYS798  CYS799  TRP800  GLU811  SER814 

> <Gold.Protein.RotatedAtoms>
  151.3695  135.0919  159.9460 H   0  0  0  0  0  0  0  0  0  0  0  0  # atno 6907 bound_to 6896
  152.5139  133.9179  159.7530 H   0  0  0  0  0  0  0  0  0  0  0  0  # atno 6908 bound_to 6896
  150.9590  133.6411  159.2787 H   0  0  0  0  0  0  0  0  0  0  0  0  # atno 6909 bound_to 6896
  145.0414  140.8147  143.4264 H   0  0  0  0  0  0  0  0  0  0  0  0  # atno 7974 bound_to 7965
  155.5991  140.0660  157.2738 H   0  0  0  0  0  0  0  0  0  0  0  0  # atno 8008 bound_to 7997
  154.4284  140.1821  156.1201 H   0  0  0  0  0  0  0  0  0  0  0  0  # atno 8009 bound_to 7997
  156.0173  140.3320  155.7006 H   0  0  0  0  0  0  0  0  0  0  0  0  # atno 8010 bound_to 7997
  140.1812  144.4179  150.6614 H   0  0  0  0  0  0  0  0  0  0  0  0  # atno 10167 bound_to 10162
  157.6856  131.0696  150.5087 H   0  0  0  0  0  0  0  0  0  0  0  0  # atno 10718 bound_to 10713
  154.7448  135.4994  153.9186 H   0  0  0  0  0  0  0  0  0  0  0  0  # atno 10763 bound_to 10752
  153.1081  135.6702  153.9558 H   0  0  0  0  0  0  0  0  0  0  0  0  # atno 10764 bound_to 10752
  153.9325  135.3076  155.3424 H   0  0  0  0  0  0  0  0  0  0  0  0  # atno 10765 bound_to 10752
  141.1129  133.8671  157.1533 H   0  0  0  0  0  0  0  0  0  0  0  0  # atno 11005 bound_to 11000
  145.1643  139.2440  143.5375 LP  0  0  0  0  0  0  0  0  0  0  0  0  # atno 17320 bound_to 7965
  146.3509  140.1378  142.8595 LP  0  0  0  0  0  0  0  0  0  0  0  0  # atno 17321 bound_to 7965
  140.6518  143.2227  151.6060 LP  0  0  0  0  0  0  0  0  0  0  0  0  # atno 17342 bound_to 10162
  139.5295  144.2958  152.1115 LP  0  0  0  0  0  0  0  0  0  0  0  0  # atno 17343 bound_to 10162
  156.5405  130.4207  149.6156 LP  0  0  0  0  0  0  0  0  0  0  0  0  # atno 17370 bound_to 10713
  156.2989  130.7166  151.2033 LP  0  0  0  0  0  0  0  0  0  0  0  0  # atno 17371 bound_to 10713
  140.0033  135.0019  157.0237 LP  0  0  0  0  0  0  0  0  0  0  0  0  # atno 17394 bound_to 11000
  140.4727  134.1370  155.7205 LP  0  0  0  0  0  0  0  0  0  0  0  0  # atno 17395 bound_to 11000

$$$$
