AV-unprocessed.smi:2910|AV-procd|sdf|11175|dock5
  -GOLD-   2272016 63D 1   1.00000     0.00000
 Structure written by MMmdl.
 47 48  0  0  0  0  0  0  0  0  1 V2000
  150.7645  130.7961  155.7475 C   0  0  0  0  0  0  0  0  0  0  0  0
  150.0143  131.8886  155.0448 C   0  0  0  0  0  0  0  0  0  0  0  0
  150.1028  133.2942  155.2632 C   0  0  0  0  0  0  0  0  0  0  0  0
  149.2133  133.7969  154.3534 C   0  0  0  0  0  0  0  0  0  0  0  0
  148.8856  135.0926  154.1040 N   0  0  0  0  0  0  0  0  0  0  0  0
  148.7963  136.1177  154.9691 C   0  0  0  0  0  0  0  0  0  0  0  0
  148.9742  136.0418  156.1849 O   0  0  0  0  0  0  0  0  0  0  0  0
  148.4797  137.2567  154.3342 N   0  0  0  0  0  0  0  0  0  0  0  0
  148.3124  138.5729  154.9569 C   0  0  2  0  0  0  0  0  0  0  0  0
  147.6605  139.5342  153.9342 C   0  0  0  0  0  0  0  0  0  0  0  0
  148.1081  141.0002  154.0721 C   0  0  0  0  0  0  0  0  0  0  0  0
  149.2391  141.2316  153.2603 O   0  0  0  0  0  0  0  0  0  0  0  0
  149.6780  139.0787  155.5071 C   0  0  0  0  0  0  0  0  0  0  0  0
  150.8474  138.7820  154.5324 C   0  0  0  0  0  0  0  0  0  0  0  0
  152.2013  139.2683  155.0723 C   0  0  0  0  0  0  0  0  0  0  0  0
  152.5021  138.6593  156.4467 C   0  0  0  0  0  0  0  0  0  0  0  0
  151.3704  138.9717  157.4332 C   0  0  0  0  0  0  0  0  0  0  0  0
  150.0120  138.4883  156.8998 C   0  0  0  0  0  0  0  0  0  0  0  0
  148.6502  132.7507  153.6570 N   0  0  0  0  0  0  0  0  0  0  0  0
  147.6604  132.7766  152.5978 C   0  0  0  0  0  0  0  0  0  0  0  0
  149.1476  131.5719  154.0893 N   0  0  0  0  0  0  0  0  0  0  0  0
  151.4227  131.2019  156.5159 H   0  0  0  0  0  0  0  0  0  0  0  0
  151.3813  130.2314  155.0480 H   0  0  0  0  0  0  0  0  0  0  0  0
  150.0812  130.0976  156.2311 H   0  0  0  0  0  0  0  0  0  0  0  0
  150.7233  133.8221  155.9715 H   0  0  0  0  0  0  0  0  0  0  0  0
  148.6935  135.3085  153.1370 H   0  0  0  0  0  0  0  0  0  0  0  0
  148.3530  137.2168  153.3335 H   0  0  0  0  0  0  0  0  0  0  0  0
  147.6305  138.4929  155.8055 H   0  0  0  0  0  0  0  0  0  0  0  0
  147.9059  139.2143  152.9224 H   0  0  0  0  0  0  0  0  0  0  0  0
  146.5743  139.4767  154.0183 H   0  0  0  0  0  0  0  0  0  0  0  0
  147.3188  141.6875  153.7677 H   0  0  0  0  0  0  0  0  0  0  0  0
  148.3612  141.2294  155.1076 H   0  0  0  0  0  0  0  0  0  0  0  0
  149.2979  140.5373  152.6217 H   0  0  0  0  0  0  0  0  0  0  0  0
  149.6106  140.1624  155.6161 H   0  0  0  0  0  0  0  0  0  0  0  0
  150.8980  137.7097  154.3384 H   0  0  0  0  0  0  0  0  0  0  0  0
  150.6792  139.2589  153.5670 H   0  0  0  0  0  0  0  0  0  0  0  0
  152.9947  139.0098  154.3705 H   0  0  0  0  0  0  0  0  0  0  0  0
  152.1962  140.3566  155.1464 H   0  0  0  0  0  0  0  0  0  0  0  0
  152.6216  137.5792  156.3530 H   0  0  0  0  0  0  0  0  0  0  0  0
  153.4480  139.0451  156.8279 H   0  0  0  0  0  0  0  0  0  0  0  0
  151.5784  138.5035  158.3956 H   0  0  0  0  0  0  0  0  0  0  0  0
  151.3300  140.0464  157.6149 H   0  0  0  0  0  0  0  0  0  0  0  0
  149.2530  138.7636  157.6304 H   0  0  0  0  0  0  0  0  0  0  0  0
  150.0097  137.3987  156.8470 H   0  0  0  0  0  0  0  0  0  0  0  0
  148.0055  133.4222  151.7900 H   0  0  0  0  0  0  0  0  0  0  0  0
  146.7188  133.1638  152.9874 H   0  0  0  0  0  0  0  0  0  0  0  0
  147.4948  131.7738  152.2012 H   0  0  0  0  0  0  0  0  0  0  0  0
  1  2  1  0  0  0  0
  1 22  1  0  0  0  0
  1 23  1  0  0  0  0
  1 24  1  0  0  0  0
  2 21  2  0  0  0  0
  2  3  1  0  0  0  0
  3  4  2  0  0  0  0
  3 25  1  0  0  0  0
  4  5  1  0  0  0  0
  4 19  1  0  0  0  0
  5  6  1  0  0  0  0
  5 26  1  0  0  0  0
  6  7  2  0  0  0  0
  6  8  1  0  0  0  0
  8  9  1  0  0  0  0
  8 27  1  0  0  0  0
  9 10  1  0  0  0  0
  9 13  1  0  0  0  0
  9 28  1  0  0  0  0
 10 11  1  0  0  0  0
 10 29  1  0  0  0  0
 10 30  1  0  0  0  0
 11 12  1  0  0  0  0
 11 31  1  0  0  0  0
 11 32  1  0  0  0  0
 12 33  1  0  0  0  0
 13 18  1  0  0  0  0
 13 14  1  0  0  0  0
 13 34  1  0  0  0  0
 14 15  1  0  0  0  0
 14 35  1  0  0  0  0
 14 36  1  0  0  0  0
 15 16  1  0  0  0  0
 15 37  1  0  0  0  0
 15 38  1  0  0  0  0
 16 17  1  0  0  0  0
 16 39  1  0  0  0  0
 16 40  1  0  0  0  0
 17 18  1  0  0  0  0
 17 41  1  0  0  0  0
 17 42  1  0  0  0  0
 18 43  1  0  0  0  0
 18 44  1  0  0  0  0
 19 20  1  0  0  0  0
 19 21  1  0  0  0  0
 20 45  1  0  0  0  0
 20 46  1  0  0  0  0
 20 47  1  0  0  0  0
M  END
> <s_m_source_file>
AV-unprocessed.smi

> <i_m_source_file_index>
2910

> <i_lp_mmshare_version>
43012

> <i_f3d_flags>
0

> <s_epik_input>
W0NIM11jMVtjSF1jKG4objEpW0NIM10pW05IXUMoPU8pW05IXVtDQEhdKFtDSDJdW0NIMl1bT0hdKVtDSF0yW0NIMl1bQ0gyXVtDSDJdW0NIMl1bQ0gyXTI=

> <s_epik_cmdline>
J2VwaWtfcHl0aG9uJywgJy1waCcsICc3LjAnLCAnLXRuJywgJzgnLCAnLW1hJywgJzIwMCcsICctbWV0YWxfYmluZGluZycsICctaW1hZScsICc8aW5maWxlLm1hZT4nLCAnLW9tYWUnLCAnPG91dGZpbGUubWFlPic=

> <r_lp_tautomer_probability>
1

> <r_epik_Ionization_Penalty>
0.000101449

> <r_epik_Ionization_Penalty_Charging>
0

> <r_epik_Ionization_Penalty_Neutral>
0.000101449

> <r_epik_State_Penalty>
-0

> <r_epik_Charging_Adjusted_Penalty>
0

> <i_epik_Tot_Q>
0

> <i_epik_Tot_abs_Q>
0

> <r_epik_Metal_State_Penalty>
-0

> <b_epik_Metal_Only>
0

> <s_lp_Force_Field>
OPLS_2005

> <r_lp_Energy>
16.2269

> <b_lp_Chiralities_Consistent>
1

> <s_lp_Variant>
AV-unprocessed.smi:2910-1

> <Gold.Version>
5.8.1

> <Gold.Id.Protein>
6NUR|6NUR_protein|mol2

> <Gold.PLP.Fitness>
41.9737

> <Gold.PLP.PLP>
-33.4465

> <Gold.PLP.part.hbond>
-4.4451

> <Gold.PLP.part.metal>
0.0000

> <Gold.PLP.part.buried>
-1.9529

> <Gold.PLP.part.nonpolar>
-27.2996

> <Gold.PLP.part.repulsive>
0.0896

> <Gold.PLP.ligand.clash>
0.0000

> <Gold.PLP.ligand.torsion>
1.4162

> <Gold.PLP.Chemscore.Hbond>
3.7481

> <Gold.PLP.Chemscore.CHOScore>
0.0000

> <Gold.PLP.Chemscore.Metal>
0.0000

> <Gold.Chemscore.Hbonds>
donor molecule, donor type, donor heavy atom, donor atom, acceptor molecule, acceptor atom, score
      L1  H     5    26       P1  7948  0.99
      L1  H     8    27       P1  7948  0.78
      L1  H    12    33       P1  7957  0.99
      P1  H  8011  8017       L1    12  0.85

> <Gold.PLP.Chemscore.Internal.Correction>
0.1152

> <Gold.Rescore>
     Score         DG    S(hbond)    S(metal)    S(lipo)     H(rot)  DE(clash)    DE(int)     intcor
     15.03     -17.83       3.04        0.00      68.62       2.27       0.05       2.75       ----

> <Gold.Chemscore.Fitness>
15.0314

> <Gold.Chemscore.DG>
-17.8320

> <Gold.Chemscore.ZeroCoef>
-5.4800

> <Gold.Chemscore.Hbond>
3.0378

> <Gold.Chemscore.Metal>
0.0000

> <Gold.Chemscore.Lipo>
68.6157

> <Gold.Chemscore.Internal_Hbond>
0.0000

> <Gold.Chemscore.DEClash>
0.0532

> <Gold.Chemscore.DEInternal>
2.7475

> <Gold.Chemscore.Rot>
2.2743

> <Gold.Chemscore.Internal.Correction>
   9.000000E+99

> <Gold.Chemscore.Hbonds>
donor molecule, donor type, donor heavy atom, donor atom, acceptor molecule, acceptor atom, score
      L1  H     5    26       P1  7948  0.71
      L1  H     8    27       P1  7948  0.78
      L1  H    12    33       P1  7957  0.91
      P1  H  8011  8017       L1    12  0.14

> <Gold.Chemscore.Hbond.Weighted>
-10.1463

> <Gold.Chemscore.Metal.Weighted>
-0.0000

> <Gold.Chemscore.Lipo.Weighted>
-8.0280

> <Gold.Chemscore.Internal_Hbond.Weighted>
0.0000

> <Gold.Chemscore.DEClash.Weighted>
0.0532

> <Gold.Chemscore.DEInternal.Weighted>
2.7475

> <Gold.Chemscore.Rot.Weighted>
5.8223

> <Gold.Chemscore.Internal.Correction.Weighted>
   9.000000E+99

> <Gold.Protein.RotatedTorsions>
[ 6907 6896 6895 6894 ] final  143.23 input  -60.11 | X-H torsion
[ 7974 7965 7964 7962 ] final -139.90 input  175.53 | X-H torsion
[ 8008 7997 7996 7995 ] final  126.66 input   59.86 | X-H torsion
[ 10167 10162 10161 10158 ] final  166.37 input  -65.29 | X-H torsion
[ 10718 10713 10712 10709 ] final   12.10 input   66.30 | X-H torsion
[ 10763 10752 10751 10750 ] final    2.84 input  -60.55 | X-H torsion
[ 11005 11000 10999 10996 ] final   13.16 input  -57.11 | X-H torsion

> <Gold.Protein.ActiveResidues>
 VAL166  LYS551  ARG553  GLY616  TRP617  ASP618  TYR619  PRO620  LYS621  CYS622 
 ASP623  PHE694  ASN695  SER759  ASP760  ASP761  ALA762  ILE779  LEU786  VAL792 
 PHE793  MET794  SER795  GLU796  ALA797  LYS798  CYS799  TRP800  GLU811  SER814 

> <Gold.Protein.RotatedAtoms>
  152.2089  133.4896  159.5098 H   0  0  0  0  0  0  0  0  0  0  0  0  # atno 6907 bound_to 6896
  150.6986  134.1493  159.4143 H   0  0  0  0  0  0  0  0  0  0  0  0  # atno 6908 bound_to 6896
  151.9412  135.0212  160.0586 H   0  0  0  0  0  0  0  0  0  0  0  0  # atno 6909 bound_to 6896
  144.8640  140.6264  143.5310 H   0  0  0  0  0  0  0  0  0  0  0  0  # atno 7974 bound_to 7965
  156.2870  140.2687  156.2147 H   0  0  0  0  0  0  0  0  0  0  0  0  # atno 8008 bound_to 7997
  155.0228  140.0386  157.2462 H   0  0  0  0  0  0  0  0  0  0  0  0  # atno 8009 bound_to 7997
  154.7421  140.2727  155.6369 H   0  0  0  0  0  0  0  0  0  0  0  0  # atno 8010 bound_to 7997
  139.4923  144.4034  151.9383 H   0  0  0  0  0  0  0  0  0  0  0  0  # atno 10167 bound_to 10162
  157.0052  130.6095  149.5701 H   0  0  0  0  0  0  0  0  0  0  0  0  # atno 10718 bound_to 10713
  153.2906  135.6948  153.7296 H   0  0  0  0  0  0  0  0  0  0  0  0  # atno 10763 bound_to 10752
  153.6249  135.3420  155.3023 H   0  0  0  0  0  0  0  0  0  0  0  0  # atno 10764 bound_to 10752
  154.8523  135.4395  154.1988 H   0  0  0  0  0  0  0  0  0  0  0  0  # atno 10765 bound_to 10752
  140.4838  134.0908  155.7756 H   0  0  0  0  0  0  0  0  0  0  0  0  # atno 11005 bound_to 11000
  145.4258  139.1557  143.4049 LP  0  0  0  0  0  0  0  0  0  0  0  0  # atno 17320 bound_to 7965
  146.2882  140.4371  142.8750 LP  0  0  0  0  0  0  0  0  0  0  0  0  # atno 17321 bound_to 7965
  140.3474  144.3130  150.5955 LP  0  0  0  0  0  0  0  0  0  0  0  0  # atno 17342 bound_to 10162
  140.5514  143.2206  151.7920 LP  0  0  0  0  0  0  0  0  0  0  0  0  # atno 17343 bound_to 10162
  156.0156  130.5250  150.8124 LP  0  0  0  0  0  0  0  0  0  0  0  0  # atno 17370 bound_to 10713
  157.5361  131.0939  150.9891 LP  0  0  0  0  0  0  0  0  0  0  0  0  # atno 17371 bound_to 10713
  141.1518  133.8955  157.2079 LP  0  0  0  0  0  0  0  0  0  0  0  0  # atno 17394 bound_to 11000
  139.9810  135.0098  156.9749 LP  0  0  0  0  0  0  0  0  0  0  0  0  # atno 17395 bound_to 11000

$$$$
