#       Name:                AV-unprocessed.smi:246
#       Creating user name   scv26
#       Creation time:       Thu Mar 26 20:53:35 2020


#       File generated by GOLD software.
#

@<TRIPOS>MOLECULE
AV-unprocessed.smi:246
    68    71     1
SMALL
NO_CHARGES


@<TRIPOS>ATOM
      1 ****        -5.2186   4.0114  -0.6442 C.3            1 S1                 0.0000
      2 ****        -5.5787   3.9434   0.8464 C.3            1 S1                 0.0000
      3 ****        -4.4809   3.5062   1.6349 O.3            1 S1                 0.0000
      4 ****        -3.5085   4.5094   1.8897 C.3            1 S1                 0.0000
      5 ****        -2.3911   3.9098   2.7479 C.3            1 S1                 0.0000
      6 ****        -1.6114   3.0425   1.9391 O.3            1 S1                 0.0000
      7 ****        -0.5186   2.4464   2.6221 C.3            1 S1                 0.0000
      8 ****        -0.9407   1.3657   3.6214 C.3            1 S1                 0.0000
      9 ****         0.2780   0.4421   3.6970 C.3            1 S1                 0.0000
     10 ****         0.9883   0.6265   2.4359 N.pl3          1 S1                 0.0000
     11 ****         1.7495  -0.3570   1.8868 C.ar           1 S1                 0.0000
     12 ****         2.1145  -1.4027   2.6756 N.ar           1 S1                 0.0000
     13 ****         2.8572  -2.3995   2.1870 C.ar           1 S1                 0.0000
     14 ****         3.3417  -2.5505   0.9543 N.ar           1 S1                 0.0000
     15 ****         2.9910  -1.5027   0.1563 C.ar           1 S1                 0.0000
     16 ****         2.2093  -0.3723   0.5350 C.ar           1 S1                 0.0000
     17 ****         2.0756   0.4825  -0.5552 N.2            1 S1                 0.0000
     18 ****         2.7273  -0.1098  -1.5174 C.2            1 S1                 0.0000
     19 ****         3.3004  -1.3130  -1.1782 N.pl3          1 S1                 0.0000
     20 ****         4.0624  -2.1904  -2.0476 C.3            1 S1                 0.0000
     21 ****         3.2929  -3.4703  -2.4386 C.3            1 S1                 0.0000
     22 ****         4.1296  -4.2162  -3.2999 O.3            1 S1                 0.0000
     23 ****         1.9421  -3.2134  -3.1442 C.3            1 S1                 0.0000
     24 ****         1.2303  -4.4774  -3.6342 C.3            1 S1                 0.0000
     25 ****        -0.2384  -4.0826  -3.6699 C.3            1 S1                 0.0000
     26 ****        -0.2913  -2.7793  -2.8707 C.3            1 S1                 0.0000
     27 ****         0.9780  -2.6900  -2.2424 O.3            1 S1                 0.0000
     28 ****         0.3602   1.6702   1.6411 C.3            1 S1                 0.0000
     29 ****         0.0894   3.2025   3.1227 H              1 S1                 0.0000
     30 ****        -6.0966   4.2582  -1.2413 H              1 S1                 0.0000
     31 ****        -4.8356   3.0539  -0.9975 H              1 S1                 0.0000
     32 ****        -4.4642   4.7707  -0.8464 H              1 S1                 0.0000
     33 ****        -5.9602   4.9009   1.2035 H              1 S1                 0.0000
     34 ****        -6.3845   3.2212   0.9791 H              1 S1                 0.0000
     35 ****        -3.0936   4.9152   0.9672 H              1 S1                 0.0000
     36 ****        -3.9773   5.3337   2.4289 H              1 S1                 0.0000
     37 ****        -1.7571   4.7111   3.1304 H              1 S1                 0.0000
     38 ****        -2.8124   3.3856   3.6065 H              1 S1                 0.0000
     39 ****        -1.2270   1.7668   4.5939 H              1 S1                 0.0000
     40 ****        -1.7911   0.8104   3.2229 H              1 S1                 0.0000
     41 ****         0.9357   0.7364   4.5155 H              1 S1                 0.0000
     42 ****        -0.0311  -0.5910   3.8614 H              1 S1                 0.0000
     43 ****         3.0969  -3.1893   2.8835 H              1 S1                 0.0000
     44 ****         2.7971   0.3118  -2.5094 H              1 S1                 0.0000
     45 ****         4.3426  -1.6304  -2.9410 H              1 S1                 0.0000
     46 ****         4.9914  -2.4483  -1.5375 H              1 S1                 0.0000
     47 ****         3.1203  -4.0754  -1.5477 H              1 S1                 0.0000
     48 ****         4.2858  -3.7079  -4.0810 H              1 S1                 0.0000
     49 ****         2.0714  -2.5155  -3.9740 H              1 S1                 0.0000
     50 ****         1.5990  -4.8182  -4.6021 H              1 S1                 0.0000
     51 ****         1.3699  -5.2888  -2.9183 H              1 S1                 0.0000
     52 ****        -0.5886  -3.9241  -4.6904 H              1 S1                 0.0000
     53 ****        -0.8582  -4.8575  -3.2176 H              1 S1                 0.0000
     54 ****        -0.4228  -1.9248  -3.5360 H              1 S1                 0.0000
     55 ****        -1.0968  -2.7671  -2.1361 H              1 S1                 0.0000
     56 ****        -0.2490   1.2083   0.8627 H              1 S1                 0.0000
     57 ****         1.0952   2.3220   1.1681 H              1 S1                 0.0000
     58 ****        -4.0333   2.7503   1.1571 LP             1 S1                 0.0000
     59 ****        -4.8347   3.1828   2.5126 LP             1 S1                 0.0000
     60 ****        -1.2518   3.5690   1.1687 LP             1 S1                 0.0000
     61 ****        -2.2042   2.3135   1.5969 LP             1 S1                 0.0000
     62 ****         1.8237  -1.4257   3.6321 LP             1 S1                 0.0000
     63 ****         3.8907  -3.3306   0.6543 LP             1 S1                 0.0000
     64 ****         1.5889   1.3553  -0.5924 LP             1 S1                 0.0000
     65 ****         3.6826  -5.0774  -3.5417 LP             1 S1                 0.0000
     66 ****         4.9983  -4.4083  -2.8432 LP             1 S1                 0.0000
     67 ****         1.1890  -1.7349  -2.0344 LP             1 S1                 0.0000
     68 ****         0.9778  -3.2231  -1.3963 LP             1 S1                 0.0000
@<TRIPOS>BOND
    1    1    2 1     
    2    1   30 1     
    3    1   31 1     
    4    1   32 1     
    5    2    3 1     
    6    2   33 1     
    7    2   34 1     
    8    3    4 1     
    9    4    5 1     
   10    4   35 1     
   11    4   36 1     
   12    5    6 1     
   13    5   37 1     
   14    5   38 1     
   15    6    7 1     
   16    7   29 1     
   17    7   28 1     
   18    7    8 1     
   19    8    9 1     
   20    8   39 1     
   21    8   40 1     
   22    9   10 1     
   23    9   41 1     
   24    9   42 1     
   25   10   11 1     
   26   10   28 1     
   27   11   16 ar    
   28   11   12 ar    
   29   12   13 ar    
   30   13   14 ar    
   31   13   43 1     
   32   14   15 ar    
   33   15   19 1     
   34   15   16 ar    
   35   16   17 1     
   36   17   18 2     
   37   18   19 1     
   38   18   44 1     
   39   19   20 1     
   40   20   21 1     
   41   20   45 1     
   42   20   46 1     
   43   21   22 1     
   44   21   23 1     
   45   21   47 1     
   46   22   48 1     
   47   23   27 1     
   48   23   24 1     
   49   23   49 1     
   50   24   25 1     
   51   24   50 1     
   52   24   51 1     
   53   25   26 1     
   54   25   52 1     
   55   25   53 1     
   56   26   27 1     
   57   26   54 1     
   58   26   55 1     
   59   28   56 1     
   60   28   57 1     
   61    3   58 1     
   62    3   59 1     
   63    6   60 1     
   64    6   61 1     
   65   12   62 1     
   66   14   63 1     
   67   17   64 1     
   68   22   65 1     
   69   22   66 1     
   70   27   67 1     
   71   27   68 1     
@<TRIPOS>SUBSTRUCTURE
      1 S1             1
@<TRIPOS>SET
LONE_PAIRS      STATIC     ATOMS    <user>   **** ""
11 58 59 60 61 62 63 64 65 66 67 68
DONOR_HYDROGENS      STATIC     ATOMS    <user>   **** ""
1 48
ATOM$BLUE        STATIC     ATOMS    COLORGROUP SYSTEM
11 58 59 60 61 62 63 64 65 66 67 68
ATOM$RED        STATIC     ATOMS    COLORGROUP SYSTEM
1 48
