AV-unprocessed.smi:2445|AV-procd|sdf|9635|dock9
  -GOLD-   2272013273D 1   1.00000     0.00000
 Structure written by MMmdl.
 40 41  0  0  0  0  0  0  0  0  1 V2000
  143.9054  132.2472  150.2806 C   0  0  0  0  0  0  0  0  0  0  0  0
  145.1407  132.5983  151.0380 C   0  0  0  0  0  0  0  0  0  0  0  0
  145.6831  133.8447  151.2305 C   0  0  0  0  0  0  0  0  0  0  0  0
  146.8531  133.8394  151.9930 N   0  0  0  0  0  0  0  0  0  0  0  0
  147.2035  132.6104  152.3825 C   0  0  0  0  0  0  0  0  0  0  0  0
  148.4251  132.3100  153.1973 C   0  0  2  0  0  0  0  0  0  0  0  0
  148.6185  130.8030  153.4168 C   0  0  0  0  0  0  0  0  0  0  0  0
  148.4982  133.1232  154.5093 C   0  0  0  0  0  0  0  0  0  0  0  0
  148.9198  134.5058  154.3015 N   0  0  0  0  0  0  0  0  0  0  0  0
  149.3692  135.3269  155.2597 C   0  0  0  0  0  0  0  0  0  0  0  0
  149.4505  135.0188  156.4486 O   0  0  0  0  0  0  0  0  0  0  0  0
  149.7293  136.5164  154.7593 N   0  0  0  0  0  0  0  0  0  0  0  0
  150.2821  137.6343  155.5247 C   0  0  1  0  0  0  0  0  0  0  0  0
  151.8079  137.6450  155.4312 C   0  0  0  0  0  0  0  0  0  0  0  0
  152.1459  139.0482  154.9339 C   0  0  0  0  0  0  0  0  0  0  0  0
  150.9933  139.4300  154.2032 O   0  0  0  0  0  0  0  0  0  0  0  0
  149.8682  139.0096  154.9595 C   0  0  1  0  0  0  0  0  0  0  0  0
  148.5924  139.0637  154.1035 C   0  0  0  0  0  0  0  0  0  0  0  0
  146.0955  131.3647  151.8173 S   0  0  0  0  0  0  0  0  0  0  0  0
  143.4570  133.1320  149.8281 H   0  0  0  0  0  0  0  0  0  0  0  0
  143.1648  131.7939  150.9395 H   0  0  0  0  0  0  0  0  0  0  0  0
  144.1287  131.5378  149.4837 H   0  0  0  0  0  0  0  0  0  0  0  0
  145.3044  134.7866  150.8621 H   0  0  0  0  0  0  0  0  0  0  0  0
  149.2728  132.6298  152.5896 H   0  0  0  0  0  0  0  0  0  0  0  0
  148.6655  130.2709  152.4661 H   0  0  0  0  0  0  0  0  0  0  0  0
  147.7981  130.3788  153.9967 H   0  0  0  0  0  0  0  0  0  0  0  0
  149.5449  130.6003  153.9546 H   0  0  0  0  0  0  0  0  0  0  0  0
  147.5108  133.1565  154.9709 H   0  0  0  0  0  0  0  0  0  0  0  0
  149.1572  132.6342  155.2284 H   0  0  0  0  0  0  0  0  0  0  0  0
  148.8908  134.8513  153.3533 H   0  0  0  0  0  0  0  0  0  0  0  0
  149.6196  136.6638  153.7666 H   0  0  0  0  0  0  0  0  0  0  0  0
  149.9749  137.5775  156.5704 H   0  0  0  0  0  0  0  0  0  0  0  0
  152.2864  137.4252  156.3859 H   0  0  0  0  0  0  0  0  0  0  0  0
  152.1636  136.9079  154.7094 H   0  0  0  0  0  0  0  0  0  0  0  0
  152.2890  139.7332  155.7711 H   0  0  0  0  0  0  0  0  0  0  0  0
  153.0425  139.0718  154.3143 H   0  0  0  0  0  0  0  0  0  0  0  0
  149.7569  139.7063  155.7926 H   0  0  0  0  0  0  0  0  0  0  0  0
  147.7291  138.7058  154.6651 H   0  0  0  0  0  0  0  0  0  0  0  0
  148.6852  138.4590  153.2009 H   0  0  0  0  0  0  0  0  0  0  0  0
  148.3827  140.0865  153.7903 H   0  0  0  0  0  0  0  0  0  0  0  0
  1  2  1  0  0  0  0
  1 20  1  0  0  0  0
  1 21  1  0  0  0  0
  1 22  1  0  0  0  0
  2 19  1  0  0  0  0
  2  3  2  0  0  0  0
  3  4  1  0  0  0  0
  3 23  1  0  0  0  0
  4  5  2  0  0  0  0
  5  6  1  0  0  0  0
  5 19  1  0  0  0  0
  6  7  1  0  0  0  0
  6  8  1  0  0  0  0
  6 24  1  0  0  0  0
  7 25  1  0  0  0  0
  7 26  1  0  0  0  0
  7 27  1  0  0  0  0
  8  9  1  0  0  0  0
  8 28  1  0  0  0  0
  8 29  1  0  0  0  0
  9 10  1  0  0  0  0
  9 30  1  0  0  0  0
 10 11  2  0  0  0  0
 10 12  1  0  0  0  0
 12 13  1  0  0  0  0
 12 31  1  0  0  0  0
 13 17  1  0  0  0  0
 13 14  1  0  0  0  0
 13 32  1  0  0  0  0
 14 15  1  0  0  0  0
 14 33  1  0  0  0  0
 14 34  1  0  0  0  0
 15 16  1  0  0  0  0
 15 35  1  0  0  0  0
 15 36  1  0  0  0  0
 16 17  1  0  0  0  0
 17 18  1  0  0  0  0
 17 37  1  0  0  0  0
 18 38  1  0  0  0  0
 18 39  1  0  0  0  0
 18 40  1  0  0  0  0
M  END
> <s_m_source_file>
AV-unprocessed.smi

> <i_m_source_file_index>
2445

> <i_lp_mmshare_version>
43012

> <i_f3d_flags>
0

> <s_epik_input>
W0NIM11jMVtjSF1uYyhzMSlbQ0BIXShbQ0gzXSlbQ0gyXVtOSF1DKD1PKVtOSF1bQ0BASF0yW0NIMl1bQ0gyXU9bQ0BIXTJbQ0gzXQ==

> <s_epik_cmdline>
J2VwaWtfcHl0aG9uJywgJy1waCcsICc3LjAnLCAnLXRuJywgJzgnLCAnLW1hJywgJzIwMCcsICctbWV0YWxfYmluZGluZycsICctaW1hZScsICc8aW5maWxlLm1hZT4nLCAnLW9tYWUnLCAnPG91dGZpbGUubWFlPic=

> <r_epik_Ionization_Penalty>
0.000649483

> <r_epik_Ionization_Penalty_Charging>
0

> <r_epik_Ionization_Penalty_Neutral>
0.000649483

> <r_epik_State_Penalty>
0.000379895

> <r_epik_Charging_Adjusted_Penalty>
0.000379895

> <i_epik_Tot_Q>
0

> <i_epik_Tot_abs_Q>
0

> <r_epik_Metal_State_Penalty>
-0

> <b_epik_Metal_Only>
0

> <s_lp_Force_Field>
OPLS_2005

> <r_lp_Energy>
6.16207

> <b_lp_Chiralities_Consistent>
1

> <s_lp_Variant>
AV-unprocessed.smi:2445-3

> <Gold.Version>
5.8.1

> <Gold.Id.Protein>
6NUR|6NUR_protein|mol2

> <Gold.PLP.Fitness>
39.5123

> <Gold.PLP.PLP>
-31.8444

> <Gold.PLP.part.hbond>
-3.0000

> <Gold.PLP.part.metal>
0.0000

> <Gold.PLP.part.buried>
-3.0234

> <Gold.PLP.part.nonpolar>
-26.9882

> <Gold.PLP.part.repulsive>
0.3890

> <Gold.PLP.ligand.clash>
0.0000

> <Gold.PLP.ligand.torsion>
0.7275

> <Gold.PLP.Chemscore.Hbond>
3.0000

> <Gold.PLP.Chemscore.CHOScore>
0.0000

> <Gold.PLP.Chemscore.Metal>
0.0000

> <Gold.Chemscore.Hbonds>
donor molecule, donor type, donor heavy atom, donor atom, acceptor molecule, acceptor atom, score
      L1  H     9    30       P1  7948  1.00
      L1  H    12    31       P1  7948  0.99
      P1  H  7989  7998       L1    16  0.90

> <Gold.PLP.Chemscore.Internal.Correction>
0.1228

> <Gold.Rescore>
     Score         DG    S(hbond)    S(metal)    S(lipo)     H(rot)  DE(clash)    DE(int)     intcor
     17.41     -18.35       2.08        0.00      84.32       1.53       0.15       0.79       ----

> <Gold.Chemscore.Fitness>
17.4131

> <Gold.Chemscore.DG>
-18.3542

> <Gold.Chemscore.ZeroCoef>
-5.4800

> <Gold.Chemscore.Hbond>
2.0755

> <Gold.Chemscore.Metal>
0.0000

> <Gold.Chemscore.Lipo>
84.3184

> <Gold.Chemscore.Internal_Hbond>
0.0000

> <Gold.Chemscore.DEClash>
0.1518

> <Gold.Chemscore.DEInternal>
0.7893

> <Gold.Chemscore.Rot>
1.5325

> <Gold.Chemscore.Internal.Correction>
   9.000000E+99

> <Gold.Chemscore.Hbonds>
donor molecule, donor type, donor heavy atom, donor atom, acceptor molecule, acceptor atom, score
      L1  H     9    30       P1  7948  0.29
      L1  H    12    31       P1  7948  0.64
      P1  H  7989  7998       L1    16  0.18

> <Gold.Chemscore.Hbond.Weighted>
-6.9323

> <Gold.Chemscore.Metal.Weighted>
-0.0000

> <Gold.Chemscore.Lipo.Weighted>
-9.8653

> <Gold.Chemscore.Internal_Hbond.Weighted>
0.0000

> <Gold.Chemscore.DEClash.Weighted>
0.1518

> <Gold.Chemscore.DEInternal.Weighted>
0.7893

> <Gold.Chemscore.Rot.Weighted>
3.9233

> <Gold.Chemscore.Internal.Correction.Weighted>
   9.000000E+99

> <Gold.Protein.RotatedTorsions>
[ 6907 6896 6895 6894 ] final  149.93 input  -60.11 | X-H torsion
[ 7974 7965 7964 7962 ] final   -8.21 input  175.53 | X-H torsion
[ 8008 7997 7996 7995 ] final -103.13 input   59.86 | X-H torsion
[ 10167 10162 10161 10158 ] final -117.30 input  -65.29 | X-H torsion
[ 10718 10713 10712 10709 ] final  -15.91 input   66.30 | X-H torsion
[ 10763 10752 10751 10750 ] final  -10.49 input  -60.55 | X-H torsion
[ 11005 11000 10999 10996 ] final  179.17 input  -57.11 | X-H torsion

> <Gold.Protein.ActiveResidues>
 VAL166  LYS551  ARG553  GLY616  TRP617  ASP618  TYR619  PRO620  LYS621  CYS622 
 ASP623  PHE694  ASN695  SER759  ASP760  ASP761  ALA762  ILE779  LEU786  VAL792 
 PHE793  MET794  SER795  GLU796  ALA797  LYS798  CYS799  TRP800  GLU811  SER814 

> <Gold.Protein.RotatedAtoms>
  152.1214  133.4355  159.4676 H   0  0  0  0  0  0  0  0  0  0  0  0  # atno 6907 bound_to 6896
  150.6872  134.2531  159.4528 H   0  0  0  0  0  0  0  0  0  0  0  0  # atno 6908 bound_to 6896
  152.0407  134.9712  160.0624 H   0  0  0  0  0  0  0  0  0  0  0  0  # atno 6909 bound_to 6896
  146.2286  140.2434  142.8344 H   0  0  0  0  0  0  0  0  0  0  0  0  # atno 7974 bound_to 7965
  154.8665  140.0424  157.1698 H   0  0  0  0  0  0  0  0  0  0  0  0  # atno 8008 bound_to 7997
  154.8784  140.2969  155.5419 H   0  0  0  0  0  0  0  0  0  0  0  0  # atno 8009 bound_to 7997
  156.2999  140.2416  156.3783 H   0  0  0  0  0  0  0  0  0  0  0  0  # atno 8010 bound_to 7997
  140.0699  143.4887  152.1986 H   0  0  0  0  0  0  0  0  0  0  0  0  # atno 10167 bound_to 10162
  156.5951  130.4809  149.6263 H   0  0  0  0  0  0  0  0  0  0  0  0  # atno 10718 bound_to 10713
  153.4699  135.7016  153.5999 H   0  0  0  0  0  0  0  0  0  0  0  0  # atno 10763 bound_to 10752
  153.4258  135.3814  155.2140 H   0  0  0  0  0  0  0  0  0  0  0  0  # atno 10764 bound_to 10752
  154.8725  135.3938  154.4136 H   0  0  0  0  0  0  0  0  0  0  0  0  # atno 10765 bound_to 10752
  140.4031  134.6759  157.4573 H   0  0  0  0  0  0  0  0  0  0  0  0  # atno 11005 bound_to 11000
  144.9467  140.8135  143.5597 LP  0  0  0  0  0  0  0  0  0  0  0  0  # atno 17320 bound_to 7965
  145.2391  139.2080  143.5002 LP  0  0  0  0  0  0  0  0  0  0  0  0  # atno 17321 bound_to 7965
  139.5842  144.7524  151.3561 LP  0  0  0  0  0  0  0  0  0  0  0  0  # atno 17342 bound_to 10162
  140.7131  143.7339  150.7603 LP  0  0  0  0  0  0  0  0  0  0  0  0  # atno 17343 bound_to 10162
  156.2517  130.6911  151.1651 LP  0  0  0  0  0  0  0  0  0  0  0  0  # atno 17370 bound_to 10713
  157.7294  131.0624  150.5776 LP  0  0  0  0  0  0  0  0  0  0  0  0  # atno 17371 bound_to 10713
  140.0321  134.6390  155.9092 LP  0  0  0  0  0  0  0  0  0  0  0  0  # atno 17394 bound_to 11000
  141.1849  133.6554  156.5176 LP  0  0  0  0  0  0  0  0  0  0  0  0  # atno 17395 bound_to 11000

$$$$
