#       Name:                AV-unprocessed.smi:237
#       Creating user name   scv26
#       Creation time:       Thu Mar 26 20:41:11 2020


#       File generated by GOLD software.
#

@<TRIPOS>MOLECULE
AV-unprocessed.smi:237
    63    66     1
SMALL
NO_CHARGES


@<TRIPOS>ATOM
      1 ****         0.5322  -3.3372  -2.5234 C.3            1 S1                 0.0000
      2 ****        -0.9363  -3.0774  -2.1814 C.3            1 S1                 0.0000
      3 ****        -1.0069  -2.6092  -0.8441 O.3            1 S1                 0.0000
      4 ****        -2.3240  -2.3874  -0.3534 C.3            1 S1                 0.0000
      5 ****        -3.0276  -1.1314  -0.9361 C.3            1 S1                 0.0000
      6 ****        -4.5322  -1.2070  -0.5887 C.3            1 S1                 0.0000
      7 ****        -5.3004   0.0329  -1.0647 C.3            1 S1                 0.0000
      8 ****        -4.6511   1.2962  -0.4905 C.3            1 S1                 0.0000
      9 ****        -3.1665   1.3462  -0.8724 C.3            1 S1                 0.0000
     10 ****        -2.4630   0.1364  -0.4404 N.3            1 S1                 0.0000
     11 ****        -1.1268   0.2629  -0.6118 C.ar           1 S1                 0.0000
     12 ****        -0.6160   0.4539  -1.8575 N.ar           1 S1                 0.0000
     13 ****         0.7059   0.5487  -2.0280 C.ar           1 S1                 0.0000
     14 ****         1.6734   0.4800  -1.1108 N.ar           1 S1                 0.0000
     15 ****         1.1603   0.2930   0.1396 C.ar           1 S1                 0.0000
     16 ****        -0.2169   0.1720   0.4735 C.ar           1 S1                 0.0000
     17 ****        -0.3629  -0.0294   1.8391 N.2            1 S1                 0.0000
     18 ****         0.8622  -0.0263   2.2891 C.2            1 S1                 0.0000
     19 ****         1.8402   0.1791   1.3402 N.pl3          1 S1                 0.0000
     20 ****         3.2793   0.2267   1.5592 C.3            1 S1                 0.0000
     21 ****         3.8375   1.6229   1.9287 C.3            1 S1                 0.0000
     22 ****         5.3662   1.5163   2.0151 C.3            1 S1                 0.0000
     23 ****         5.9390   1.2889   0.7433 O.3            1 S1                 0.0000
     24 ****         3.2847   2.8409   1.1676 C.3            1 S1                 0.0000
     25 ****         2.4050   3.1906   2.2569 O.3            1 S1                 0.0000
     26 ****         3.1656   2.3225   3.1227 C.3            1 S1                 0.0000
     27 ****         0.6377  -3.6915  -3.5489 H              1 S1                 0.0000
     28 ****         0.9597  -4.0914  -1.8623 H              1 S1                 0.0000
     29 ****         1.1244  -2.4276  -2.4208 H              1 S1                 0.0000
     30 ****        -1.3458  -2.3430  -2.8742 H              1 S1                 0.0000
     31 ****        -1.5122  -3.9971  -2.2923 H              1 S1                 0.0000
     32 ****        -2.9186  -3.2817  -0.5460 H              1 S1                 0.0000
     33 ****        -2.2669  -2.2971   0.7319 H              1 S1                 0.0000
     34 ****        -2.9474  -1.1344  -2.0229 H              1 S1                 0.0000
     35 ****        -4.9743  -2.0994  -1.0331 H              1 S1                 0.0000
     36 ****        -4.6538  -1.3088   0.4909 H              1 S1                 0.0000
     37 ****        -5.2958   0.0762  -2.1545 H              1 S1                 0.0000
     38 ****        -6.3444  -0.0283  -0.7565 H              1 S1                 0.0000
     39 ****        -5.1633   2.1848  -0.8601 H              1 S1                 0.0000
     40 ****        -4.7524   1.3047   0.5956 H              1 S1                 0.0000
     41 ****        -3.0756   1.4594  -1.9540 H              1 S1                 0.0000
     42 ****        -2.7025   2.2241  -0.4199 H              1 S1                 0.0000
     43 ****         1.0359   0.6959  -3.0456 H              1 S1                 0.0000
     44 ****         1.0855  -0.1750   3.3353 H              1 S1                 0.0000
     45 ****         3.5167  -0.4923   2.3442 H              1 S1                 0.0000
     46 ****         3.7568  -0.1562   0.6568 H              1 S1                 0.0000
     47 ****         5.7994   2.4337   2.4153 H              1 S1                 0.0000
     48 ****         5.6666   0.7128   2.6882 H              1 S1                 0.0000
     49 ****         6.8773   1.2332   0.8408 H              1 S1                 0.0000
     50 ****         4.0275   3.6195   0.9864 H              1 S1                 0.0000
     51 ****         2.7504   2.6066   0.2486 H              1 S1                 0.0000
     52 ****         2.5386   1.6773   3.7363 H              1 S1                 0.0000
     53 ****         3.8549   2.8890   3.7511 H              1 S1                 0.0000
     54 ****        -0.5065  -1.7450  -0.7912 LP             1 S1                 0.0000
     55 ****        -0.5662  -3.2862  -0.2547 LP             1 S1                 0.0000
     56 ****        -2.6241   0.0596   0.5435 LP             1 S1                 0.0000
     57 ****        -1.2287   0.5233  -2.6448 LP             1 S1                 0.0000
     58 ****         2.6496   0.5559  -1.3142 LP             1 S1                 0.0000
     59 ****        -1.2096  -0.1490   2.3574 LP             1 S1                 0.0000
     60 ****         5.7083   2.0443   0.1299 LP             1 S1                 0.0000
     61 ****         5.5883   0.4327   0.3641 LP             1 S1                 0.0000
     62 ****         1.4546   2.9092   2.1244 LP             1 S1                 0.0000
     63 ****         2.4338   4.1564   2.5148 LP             1 S1                 0.0000
@<TRIPOS>BOND
    1    1    2 1     
    2    1   27 1     
    3    1   28 1     
    4    1   29 1     
    5    2    3 1     
    6    2   30 1     
    7    2   31 1     
    8    3    4 1     
    9    4    5 1     
   10    4   32 1     
   11    4   33 1     
   12    5   10 1     
   13    5    6 1     
   14    5   34 1     
   15    6    7 1     
   16    6   35 1     
   17    6   36 1     
   18    7    8 1     
   19    7   37 1     
   20    7   38 1     
   21    8    9 1     
   22    8   39 1     
   23    8   40 1     
   24    9   10 1     
   25    9   41 1     
   26    9   42 1     
   27   10   11 1     
   28   11   16 ar    
   29   11   12 ar    
   30   12   13 ar    
   31   13   14 ar    
   32   13   43 1     
   33   14   15 ar    
   34   15   19 1     
   35   15   16 ar    
   36   16   17 1     
   37   17   18 2     
   38   18   19 1     
   39   18   44 1     
   40   19   20 1     
   41   20   21 1     
   42   20   45 1     
   43   20   46 1     
   44   21   26 1     
   45   21   22 1     
   46   21   24 1     
   47   22   23 1     
   48   22   47 1     
   49   22   48 1     
   50   23   49 1     
   51   24   25 1     
   52   24   50 1     
   53   24   51 1     
   54   25   26 1     
   55   26   52 1     
   56   26   53 1     
   57    3   54 1     
   58    3   55 1     
   59   10   56 1     
   60   12   57 1     
   61   14   58 1     
   62   17   59 1     
   63   23   60 1     
   64   23   61 1     
   65   25   62 1     
   66   25   63 1     
@<TRIPOS>SUBSTRUCTURE
      1 S1             1
@<TRIPOS>SET
LONE_PAIRS      STATIC     ATOMS    <user>   **** ""
10 54 55 56 57 58 59 60 61 62 63
DONOR_HYDROGENS      STATIC     ATOMS    <user>   **** ""
1 49
ATOM$BLUE        STATIC     ATOMS    COLORGROUP SYSTEM
10 54 55 56 57 58 59 60 61 62 63
ATOM$RED        STATIC     ATOMS    COLORGROUP SYSTEM
1 49
