AV-unprocessed.smi:912|AV-procd|sdf|4140|dock5
  -GOLD-   22720 2 43D 1   1.00000     0.00000
 Structure written by MMmdl.
 26 26  0  0  0  0  0  0  0  0  1 V2000
  147.3446  133.7995  153.6431 C   0  0  0  0  0  0  0  0  0  0  0  0
  146.7195  134.9370  152.9713 N   0  0  0  0  0  0  0  0  0  0  0  0
  145.2843  134.8447  152.6423 C   0  0  1  0  0  0  0  0  0  0  0  0
  144.5864  134.4449  153.9688 C   0  0  0  0  0  0  0  0  0  0  0  0
  144.7208  136.1854  152.0949 C   0  0  0  0  0  0  0  0  0  0  0  0
  145.2668  136.6713  150.9743 N   0  0  0  0  0  0  0  0  0  0  0  0
  143.8119  136.7801  152.6730 O   0  0  0  0  0  0  0  0  0  0  0  0
  145.0171  133.7599  151.5779 C   0  0  0  0  0  0  0  0  0  0  0  0
  143.7127  133.4610  151.1095 C   0  0  0  0  0  0  0  0  0  0  0  0
  143.5467  132.4525  150.1397 C   0  0  0  0  0  0  0  0  0  0  0  0
  144.5696  131.7401  149.6246 N   0  0  0  0  0  0  0  0  0  0  0  0
  145.8117  132.0164  150.0711 C   0  0  0  0  0  0  0  0  0  0  0  0
  146.0859  133.0044  151.0367 C   0  0  0  0  0  0  0  0  0  0  0  0
  148.4201  133.9669  153.6950 H   0  0  0  0  0  0  0  0  0  0  0  0
  147.1838  132.8664  153.1037 H   0  0  0  0  0  0  0  0  0  0  0  0
  146.9918  133.6792  154.6674 H   0  0  0  0  0  0  0  0  0  0  0  0
  147.2123  135.0535  152.0976 H   0  0  0  0  0  0  0  0  0  0  0  0
  143.5052  134.3580  153.8591 H   0  0  0  0  0  0  0  0  0  0  0  0
  144.7574  135.1697  154.7649 H   0  0  0  0  0  0  0  0  0  0  0  0
  144.9486  133.4803  154.3264 H   0  0  0  0  0  0  0  0  0  0  0  0
  144.9256  137.5391  150.5871 H   0  0  0  0  0  0  0  0  0  0  0  0
  146.0149  136.1679  150.5203 H   0  0  0  0  0  0  0  0  0  0  0  0
  142.8394  133.9798  151.4750 H   0  0  0  0  0  0  0  0  0  0  0  0
  142.5617  132.2100  149.7691 H   0  0  0  0  0  0  0  0  0  0  0  0
  146.6137  131.4297  149.6481 H   0  0  0  0  0  0  0  0  0  0  0  0
  147.1042  133.1671  151.3573 H   0  0  0  0  0  0  0  0  0  0  0  0
  1  2  1  0  0  0  0
  1 14  1  0  0  0  0
  1 15  1  0  0  0  0
  1 16  1  0  0  0  0
  2  3  1  0  0  0  0
  2 17  1  0  0  0  0
  3  4  1  0  0  0  0
  3  5  1  0  0  0  0
  3  8  1  0  0  0  0
  4 18  1  0  0  0  0
  4 19  1  0  0  0  0
  4 20  1  0  0  0  0
  5  6  1  0  0  0  0
  5  7  2  0  0  0  0
  6 21  1  0  0  0  0
  6 22  1  0  0  0  0
  8 13  1  0  0  0  0
  8  9  2  0  0  0  0
  9 10  1  0  0  0  0
  9 23  1  0  0  0  0
 10 11  2  0  0  0  0
 10 24  1  0  0  0  0
 11 12  1  0  0  0  0
 12 13  2  0  0  0  0
 12 25  1  0  0  0  0
 13 26  1  0  0  0  0
M  END
> <s_m_source_file>
AV-unprocessed.smi

> <i_m_source_file_index>
912

> <i_lp_mmshare_version>
43012

> <i_f3d_flags>
0

> <s_epik_input>
W0NIM11bTkhdW0NAQF0oW0NIM10pKEMoPU8pW05IMl0pYzFbY0hdW2NIXW5bY0hdW2NIXTE=

> <s_epik_cmdline>
J2VwaWtfcHl0aG9uJywgJy1waCcsICc3LjAnLCAnLXRuJywgJzgnLCAnLW1hJywgJzIwMCcsICctbWV0YWxfYmluZGluZycsICctaW1hZScsICc8aW5maWxlLm1hZT4nLCAnLW9tYWUnLCAnPG91dGZpbGUubWFlPic=

> <r_epik_Ionization_Penalty>
0.458428

> <r_epik_Ionization_Penalty_Charging>
0

> <r_epik_Ionization_Penalty_Neutral>
0.458428

> <r_epik_State_Penalty>
0.443707

> <r_epik_Charging_Adjusted_Penalty>
0.443707

> <i_epik_Tot_Q>
0

> <i_epik_Tot_abs_Q>
0

> <r_epik_Metal_State_Penalty>
0.312856

> <b_epik_Metal_Only>
0

> <s_lp_Force_Field>
OPLS_2005

> <r_lp_Energy>
10.7043

> <b_lp_Chiralities_Consistent>
1

> <s_lp_Variant>
AV-unprocessed.smi:912-1

> <Gold.Version>
5.8.1

> <Gold.Id.Protein>
6NUR|6NUR_protein|mol2

> <Gold.PLP.Fitness>
33.3683

> <Gold.PLP.PLP>
-21.8475

> <Gold.PLP.part.hbond>
-3.0000

> <Gold.PLP.part.metal>
0.0000

> <Gold.PLP.part.buried>
-4.2188

> <Gold.PLP.part.nonpolar>
-16.0656

> <Gold.PLP.part.repulsive>
0.3896

> <Gold.PLP.ligand.clash>
0.0000

> <Gold.PLP.ligand.torsion>
0.0678

> <Gold.PLP.Chemscore.Hbond>
1.5790

> <Gold.PLP.Chemscore.CHOScore>
2.2953

> <Gold.PLP.Chemscore.Metal>
0.0000

> <Gold.Chemscore.Hbonds>
donor molecule, donor type, donor heavy atom, donor atom, acceptor molecule, acceptor atom, score
      L1  H     2    17       P1  7948  0.45
      L1  H     6    21       P1 10171  1.00
      P1  H 10785 10796       L1    11  0.14
      L1  C    10    24       P1 10186  0.37
      L1  C    10    24       P1 10952  0.95
      L1  C    12    25       P1 10747  1.00

> <Gold.PLP.Chemscore.Internal.Correction>
0.0336

> <Gold.Rescore>
     Score         DG    S(hbond)    S(metal)    S(lipo)     H(rot)  DE(clash)    DE(int)     intcor
     12.16     -12.35       1.74        0.00      47.87       1.77       0.01       0.17       ----

> <Gold.Chemscore.Fitness>
12.1640

> <Gold.Chemscore.DG>
-12.3468

> <Gold.Chemscore.ZeroCoef>
-5.4800

> <Gold.Chemscore.Hbond>
1.7365

> <Gold.Chemscore.Metal>
0.0000

> <Gold.Chemscore.Lipo>
47.8750

> <Gold.Chemscore.Internal_Hbond>
0.0000

> <Gold.Chemscore.DEClash>
0.0149

> <Gold.Chemscore.DEInternal>
0.1679

> <Gold.Chemscore.Rot>
1.7712

> <Gold.Chemscore.Internal.Correction>
   9.000000E+99

> <Gold.Chemscore.Hbonds>
donor molecule, donor type, donor heavy atom, donor atom, acceptor molecule, acceptor atom, score
      L1  H     2    17       P1  7948  0.44
      L1  H     6    21       P1 10171  0.99
      P1  H 10785 10796       L1    11  0.02

> <Gold.Chemscore.Hbond.Weighted>
-5.7998

> <Gold.Chemscore.Metal.Weighted>
-0.0000

> <Gold.Chemscore.Lipo.Weighted>
-5.6014

> <Gold.Chemscore.Internal_Hbond.Weighted>
0.0000

> <Gold.Chemscore.DEClash.Weighted>
0.0149

> <Gold.Chemscore.DEInternal.Weighted>
0.1679

> <Gold.Chemscore.Rot.Weighted>
4.5343

> <Gold.Chemscore.Internal.Correction.Weighted>
   9.000000E+99

> <Gold.Protein.RotatedTorsions>
[ 6907 6896 6895 6894 ] final  157.74 input  -60.11 | X-H torsion
[ 7974 7965 7964 7962 ] final  -37.42 input  175.53 | X-H torsion
[ 8008 7997 7996 7995 ] final -161.03 input   59.86 | X-H torsion
[ 10167 10162 10161 10158 ] final  101.23 input  -65.29 | X-H torsion
[ 10718 10713 10712 10709 ] final  138.65 input   66.30 | X-H torsion
[ 10763 10752 10751 10750 ] final   45.42 input  -60.55 | X-H torsion
[ 11005 11000 10999 10996 ] final   43.79 input  -57.11 | X-H torsion

> <Gold.Protein.ActiveResidues>
 VAL166  LYS551  ARG553  GLY616  TRP617  ASP618  TYR619  PRO620  LYS621  CYS622 
 ASP623  PHE694  ASN695  SER759  ASP760  ASP761  ALA762  ILE779  LEU786  VAL792 
 PHE793  MET794  SER795  GLU796  ALA797  LYS798  CYS799  TRP800  GLU811  SER814 

> <Gold.Protein.RotatedAtoms>
  152.0107  133.3860  159.4218 H   0  0  0  0  0  0  0  0  0  0  0  0  # atno 6907 bound_to 6896
  150.6900  134.3733  159.5011 H   0  0  0  0  0  0  0  0  0  0  0  0  # atno 6908 bound_to 6896
  152.1494  134.9000  160.0599 H   0  0  0  0  0  0  0  0  0  0  0  0  # atno 6909 bound_to 6896
  146.0576  140.6394  142.9012 H   0  0  0  0  0  0  0  0  0  0  0  0  # atno 7974 bound_to 7965
  155.7861  140.0872  157.2033 H   0  0  0  0  0  0  0  0  0  0  0  0  # atno 8008 bound_to 7997
  154.3987  140.1498  156.3166 H   0  0  0  0  0  0  0  0  0  0  0  0  # atno 8009 bound_to 7997
  155.8605  140.3430  155.5756 H   0  0  0  0  0  0  0  0  0  0  0  0  # atno 8010 bound_to 7997
  139.7456  144.6999  151.0509 H   0  0  0  0  0  0  0  0  0  0  0  0  # atno 10167 bound_to 10162
  157.4230  131.1040  151.0333 H   0  0  0  0  0  0  0  0  0  0  0  0  # atno 10718 bound_to 10713
  152.9825  135.6040  154.3433 H   0  0  0  0  0  0  0  0  0  0  0  0  # atno 10763 bound_to 10752
  154.3128  135.2771  155.2559 H   0  0  0  0  0  0  0  0  0  0  0  0  # atno 10764 bound_to 10752
  154.4761  135.5929  153.6412 H   0  0  0  0  0  0  0  0  0  0  0  0  # atno 10765 bound_to 10752
  140.1612  134.4339  155.8316 H   0  0  0  0  0  0  0  0  0  0  0  0  # atno 11005 bound_to 11000
  144.7156  140.4199  143.7046 LP  0  0  0  0  0  0  0  0  0  0  0  0  # atno 17320 bound_to 7965
  145.6617  139.1582  143.2805 LP  0  0  0  0  0  0  0  0  0  0  0  0  # atno 17321 bound_to 7965
  140.7791  143.4871  150.9942 LP  0  0  0  0  0  0  0  0  0  0  0  0  # atno 17342 bound_to 10162
  139.8559  143.7378  152.3176 LP  0  0  0  0  0  0  0  0  0  0  0  0  # atno 17343 bound_to 10162
  157.1257  130.6080  149.5516 LP  0  0  0  0  0  0  0  0  0  0  0  0  # atno 17370 bound_to 10713
  155.9887  130.4931  150.7181 LP  0  0  0  0  0  0  0  0  0  0  0  0  # atno 17371 bound_to 10713
  141.2209  133.6914  156.7597 LP  0  0  0  0  0  0  0  0  0  0  0  0  # atno 17394 bound_to 11000
  140.2488  134.8557  157.3646 LP  0  0  0  0  0  0  0  0  0  0  0  0  # atno 17395 bound_to 11000

$$$$
