AV-unprocessed.smi:187|AV-procd|sdf|1468|dock7
  -GOLD-   2262019283D 1   1.00000     0.00000
 Structure written by MMmdl.
 53 56  0  0  0  0  0  0  0  0  1 V2000
  149.9070  138.1124  154.5947 C   0  0  0  0  0  0  0  0  0  0  0  0
  148.9214  139.2485  154.2532 C   0  0  2  0  0  0  0  0  0  0  0  0
  149.5129  140.6041  154.6904 C   0  0  0  0  0  0  0  0  0  0  0  0
  148.5469  141.7605  154.3977 C   0  0  0  0  0  0  0  0  0  0  0  0
  147.1860  141.4982  155.0695 C   0  0  1  0  0  0  0  0  0  0  0  0
  146.1891  142.6202  154.7528 C   0  0  0  0  0  0  0  0  0  0  0  0
  145.8441  142.7849  153.4734 N   0  0  0  0  0  0  0  0  0  0  0  0
  145.7352  143.3305  155.6482 O   0  0  0  0  0  0  0  0  0  0  0  0
  146.6370  140.1335  154.6102 C   0  0  0  0  0  0  0  0  0  0  0  0
  147.5973  139.0599  154.8636 N   0  0  0  0  0  0  0  0  0  0  0  0
  147.0233  137.8504  154.6779 C   0  0  0  0  0  0  0  0  0  0  0  0
  146.9698  137.0216  155.7491 N   0  0  0  0  0  0  0  0  0  0  0  0
  146.4190  135.8100  155.6281 C   0  0  0  0  0  0  0  0  0  0  0  0
  145.8683  135.2470  154.5502 N   0  0  0  0  0  0  0  0  0  0  0  0
  145.9096  136.0855  153.4747 C   0  0  0  0  0  0  0  0  0  0  0  0
  146.4684  137.3939  153.4491 C   0  0  0  0  0  0  0  0  0  0  0  0
  146.3397  137.9404  152.1782 N   0  0  0  0  0  0  0  0  0  0  0  0
  145.7466  137.0043  151.4889 C   0  0  0  0  0  0  0  0  0  0  0  0
  145.4255  135.8677  152.1966 N   0  0  0  0  0  0  0  0  0  0  0  0
  144.8083  134.6808  151.6821 C   0  0  0  0  0  0  0  0  0  0  0  0
  145.4523  133.3051  151.8716 C   0  0  0  0  0  0  0  0  0  0  0  0
  144.8789  132.8572  150.5076 C   0  0  0  0  0  0  0  0  0  0  0  0
  145.8314  132.0326  149.6262 C   0  0  0  0  0  0  0  0  0  0  0  0
  147.1580  132.5107  149.7191 O   0  0  0  0  0  0  0  0  0  0  0  0
  143.5069  132.1556  150.5669 C   0  0  0  0  0  0  0  0  0  0  0  0
  142.9248  132.0498  149.2836 O   0  0  0  0  0  0  0  0  0  0  0  0
  144.8293  134.3665  150.1846 C   0  0  0  0  0  0  0  0  0  0  0  0
  150.8923  138.3127  154.1732 H   0  0  0  0  0  0  0  0  0  0  0  0
  149.5798  137.1532  154.1932 H   0  0  0  0  0  0  0  0  0  0  0  0
  150.0244  138.0013  155.6732 H   0  0  0  0  0  0  0  0  0  0  0  0
  148.7949  139.2767  153.1704 H   0  0  0  0  0  0  0  0  0  0  0  0
  149.7356  140.5813  155.7584 H   0  0  0  0  0  0  0  0  0  0  0  0
  150.4605  140.7819  154.1811 H   0  0  0  0  0  0  0  0  0  0  0  0
  148.9741  142.6977  154.7566 H   0  0  0  0  0  0  0  0  0  0  0  0
  148.4256  141.8645  153.3182 H   0  0  0  0  0  0  0  0  0  0  0  0
  147.3365  141.4604  156.1502 H   0  0  0  0  0  0  0  0  0  0  0  0
  145.1909  143.5106  153.2164 H   0  0  0  0  0  0  0  0  0  0  0  0
  146.2390  142.1812  152.7667 H   0  0  0  0  0  0  0  0  0  0  0  0
  145.7023  139.9203  155.1320 H   0  0  0  0  0  0  0  0  0  0  0  0
  146.4052  140.1603  153.5439 H   0  0  0  0  0  0  0  0  0  0  0  0
  146.4186  135.2058  156.5232 H   0  0  0  0  0  0  0  0  0  0  0  0
  145.5195  137.1238  150.4396 H   0  0  0  0  0  0  0  0  0  0  0  0
  143.7852  134.6844  152.0622 H   0  0  0  0  0  0  0  0  0  0  0  0
  146.5429  133.3534  151.8787 H   0  0  0  0  0  0  0  0  0  0  0  0
  145.0832  132.7521  152.7357 H   0  0  0  0  0  0  0  0  0  0  0  0
  145.8346  130.9866  149.9342 H   0  0  0  0  0  0  0  0  0  0  0  0
  145.5229  132.0418  148.5805 H   0  0  0  0  0  0  0  0  0  0  0  0
  147.7042  131.8169  150.0562 H   0  0  0  0  0  0  0  0  0  0  0  0
  143.5955  131.1487  150.9753 H   0  0  0  0  0  0  0  0  0  0  0  0
  142.8156  132.6859  151.2227 H   0  0  0  0  0  0  0  0  0  0  0  0
  142.2433  132.7000  149.2088 H   0  0  0  0  0  0  0  0  0  0  0  0
  143.9406  134.6908  149.6418 H   0  0  0  0  0  0  0  0  0  0  0  0
  145.7369  134.7276  149.6969 H   0  0  0  0  0  0  0  0  0  0  0  0
  1  2  1  0  0  0  0
  1 28  1  0  0  0  0
  1 29  1  0  0  0  0
  1 30  1  0  0  0  0
  2 10  1  0  0  0  0
  2  3  1  0  0  0  0
  2 31  1  0  0  0  0
  3  4  1  0  0  0  0
  3 32  1  0  0  0  0
  3 33  1  0  0  0  0
  4  5  1  0  0  0  0
  4 34  1  0  0  0  0
  4 35  1  0  0  0  0
  5  6  1  0  0  0  0
  5  9  1  0  0  0  0
  5 36  1  0  0  0  0
  6  7  1  0  0  0  0
  6  8  2  0  0  0  0
  7 37  1  0  0  0  0
  7 38  1  0  0  0  0
  9 10  1  0  0  0  0
  9 39  1  0  0  0  0
  9 40  1  0  0  0  0
 10 11  1  0  0  0  0
 11 16  1  0  0  0  0
 11 12  2  0  0  0  0
 12 13  1  0  0  0  0
 13 14  2  0  0  0  0
 13 41  1  0  0  0  0
 14 15  1  0  0  0  0
 15 19  1  0  0  0  0
 15 16  2  0  0  0  0
 16 17  1  0  0  0  0
 17 18  2  0  0  0  0
 18 19  1  0  0  0  0
 18 42  1  0  0  0  0
 19 20  1  0  0  0  0
 20 27  1  0  0  0  0
 20 21  1  0  0  0  0
 20 43  1  0  0  0  0
 21 22  1  0  0  0  0
 21 44  1  0  0  0  0
 21 45  1  0  0  0  0
 22 23  1  0  0  0  0
 22 25  1  0  0  0  0
 22 27  1  0  0  0  0
 23 24  1  0  0  0  0
 23 46  1  0  0  0  0
 23 47  1  0  0  0  0
 24 48  1  0  0  0  0
 25 26  1  0  0  0  0
 25 49  1  0  0  0  0
 25 50  1  0  0  0  0
 26 51  1  0  0  0  0
 27 52  1  0  0  0  0
 27 53  1  0  0  0  0
M  END
> <s_m_source_file>
AV-unprocessed.smi

> <i_m_source_file_index>
187

> <i_lp_mmshare_version>
43012

> <i_f3d_flags>
0

> <s_epik_input>
W0NIM11bQ0BASF0xW0NIMl1bQ0gyXVtDQEBIXShDKD1PKVtOSDJdKVtDSDJdTjFjKG5bY0hdbjIpYyhjMjMpbltjSF1uM1tDSF0oW0NIMl00KVtDSDJdQzQoW0NIMl1bT0hdKVtDSDJdW09IXQ==

> <s_epik_cmdline>
J2VwaWtfcHl0aG9uJywgJy1waCcsICc3LjAnLCAnLXRuJywgJzgnLCAnLW1hJywgJzIwMCcsICctbWV0YWxfYmluZGluZycsICctaW1hZScsICc8aW5maWxlLm1hZT4nLCAnLW9tYWUnLCAnPG91dGZpbGUubWFlPic=

> <r_lp_tautomer_probability>
1

> <r_epik_Ionization_Penalty>
0.0017711

> <r_epik_Ionization_Penalty_Charging>
0

> <r_epik_Ionization_Penalty_Neutral>
0.0017711

> <r_epik_State_Penalty>
0.00107211

> <r_epik_Charging_Adjusted_Penalty>
0.00107211

> <i_epik_Tot_Q>
0

> <i_epik_Tot_abs_Q>
0

> <r_epik_Metal_State_Penalty>
-0

> <b_epik_Metal_Only>
0

> <s_lp_Force_Field>
OPLS_2005

> <r_lp_Energy>
40.3757

> <b_lp_Chiralities_Consistent>
1

> <s_lp_Variant>
AV-unprocessed.smi:187-1

> <Gold.Version>
5.8.1

> <Gold.Id.Protein>
6NUR|6NUR_protein|mol2

> <Gold.PLP.Fitness>
49.1263

> <Gold.PLP.PLP>
-38.6024

> <Gold.PLP.part.hbond>
-6.0099

> <Gold.PLP.part.metal>
0.0000

> <Gold.PLP.part.buried>
1.1517

> <Gold.PLP.part.nonpolar>
-34.2071

> <Gold.PLP.part.repulsive>
0.7203

> <Gold.PLP.ligand.clash>
0.0000

> <Gold.PLP.ligand.torsion>
0.7306

> <Gold.PLP.Chemscore.Hbond>
2.9013

> <Gold.PLP.Chemscore.CHOScore>
0.8619

> <Gold.PLP.Chemscore.Metal>
0.0000

> <Gold.Chemscore.Hbonds>
donor molecule, donor type, donor heavy atom, donor atom, acceptor molecule, acceptor atom, score
      L1  H    24    48       P1 10747  1.00
      L1  H    26    51       P1 10186  0.75
      P1  H 10785 10796       L1    26  1.00
      L1  C    18    42       P1 10171  0.80

> <Gold.PLP.Chemscore.Internal.Correction>
0.6957

> <Gold.Rescore>
     Score         DG    S(hbond)    S(metal)    S(lipo)     H(rot)  DE(clash)    DE(int)     intcor
     12.37     -13.35       2.54        0.00      82.02       3.99       0.13       0.85       ----

> <Gold.Chemscore.Fitness>
12.3665

> <Gold.Chemscore.DG>
-13.3496

> <Gold.Chemscore.ZeroCoef>
-5.4800

> <Gold.Chemscore.Hbond>
2.5414

> <Gold.Chemscore.Metal>
0.0000

> <Gold.Chemscore.Lipo>
82.0176

> <Gold.Chemscore.Internal_Hbond>
0.0000

> <Gold.Chemscore.DEClash>
0.1323

> <Gold.Chemscore.DEInternal>
0.8508

> <Gold.Chemscore.Rot>
3.9902

> <Gold.Chemscore.Internal.Correction>
   9.000000E+99

> <Gold.Chemscore.Hbonds>
donor molecule, donor type, donor heavy atom, donor atom, acceptor molecule, acceptor atom, score
      L1  H    24    48       P1 10747  0.98
      L1  H    26    51       P1 10186  0.73
      P1  H 10785 10796       L1    26  0.48

> <Gold.Chemscore.Hbond.Weighted>
-8.4883

> <Gold.Chemscore.Metal.Weighted>
-0.0000

> <Gold.Chemscore.Lipo.Weighted>
-9.5961

> <Gold.Chemscore.Internal_Hbond.Weighted>
0.0000

> <Gold.Chemscore.DEClash.Weighted>
0.1323

> <Gold.Chemscore.DEInternal.Weighted>
0.8508

> <Gold.Chemscore.Rot.Weighted>
10.2148

> <Gold.Chemscore.Internal.Correction.Weighted>
   9.000000E+99

> <Gold.Protein.RotatedTorsions>
[ 6907 6896 6895 6894 ] final -138.05 input  -60.11 | X-H torsion
[ 7974 7965 7964 7962 ] final  -89.89 input  175.53 | X-H torsion
[ 8008 7997 7996 7995 ] final   27.91 input   59.86 | X-H torsion
[ 10167 10162 10161 10158 ] final   88.27 input  -65.29 | X-H torsion
[ 10718 10713 10712 10709 ] final  170.69 input   66.30 | X-H torsion
[ 10763 10752 10751 10750 ] final  -67.34 input  -60.55 | X-H torsion
[ 11005 11000 10999 10996 ] final   98.41 input  -57.11 | X-H torsion

> <Gold.Protein.ActiveResidues>
 VAL166  LYS551  ARG553  GLY616  TRP617  ASP618  TYR619  PRO620  LYS621  CYS622 
 ASP623  PHE694  ASN695  SER759  ASP760  ASP761  ALA762  ILE779  LEU786  VAL792 
 PHE793  MET794  SER795  GLU796  ALA797  LYS798  CYS799  TRP800  GLU811  SER814 

> <Gold.Protein.RotatedAtoms>
  151.0301  133.5798  159.2661 H   0  0  0  0  0  0  0  0  0  0  0  0  # atno 6907 bound_to 6896
  151.2883  135.0733  159.9204 H   0  0  0  0  0  0  0  0  0  0  0  0  # atno 6908 bound_to 6896
  152.5343  134.0004  159.7946 H   0  0  0  0  0  0  0  0  0  0  0  0  # atno 6909 bound_to 6896
  145.4337  140.9557  143.2113 H   0  0  0  0  0  0  0  0  0  0  0  0  # atno 7974 bound_to 7965
  155.0504  140.3179  155.4694 H   0  0  0  0  0  0  0  0  0  0  0  0  # atno 8008 bound_to 7997
  156.2835  140.2147  156.5573 H   0  0  0  0  0  0  0  0  0  0  0  0  # atno 8009 bound_to 7997
  154.7215  140.0489  157.0631 H   0  0  0  0  0  0  0  0  0  0  0  0  # atno 8010 bound_to 7997
  139.8690  144.6503  150.8971 H   0  0  0  0  0  0  0  0  0  0  0  0  # atno 10167 bound_to 10162
  157.0045  131.0186  151.2821 H   0  0  0  0  0  0  0  0  0  0  0  0  # atno 10718 bound_to 10713
  154.3731  135.6091  153.5750 H   0  0  0  0  0  0  0  0  0  0  0  0  # atno 10763 bound_to 10752
  152.9789  135.5843  154.4499 H   0  0  0  0  0  0  0  0  0  0  0  0  # atno 10764 bound_to 10752
  154.4256  135.2846  155.1924 H   0  0  0  0  0  0  0  0  0  0  0  0  # atno 10765 bound_to 10752
  139.8772  134.9048  156.4452 H   0  0  0  0  0  0  0  0  0  0  0  0  # atno 11005 bound_to 11000
  144.8166  139.5866  143.7006 LP  0  0  0  0  0  0  0  0  0  0  0  0  # atno 17320 bound_to 7965
  146.2593  139.6374  142.9373 LP  0  0  0  0  0  0  0  0  0  0  0  0  # atno 17321 bound_to 7965
  140.7763  143.3680  151.1703 LP  0  0  0  0  0  0  0  0  0  0  0  0  # atno 17342 bound_to 10162
  139.7302  143.9085  152.3017 LP  0  0  0  0  0  0  0  0  0  0  0  0  # atno 17343 bound_to 10162
  157.5366  130.8092  149.7979 LP  0  0  0  0  0  0  0  0  0  0  0  0  # atno 17370 bound_to 10713
  156.0159  130.3814  150.2114 LP  0  0  0  0  0  0  0  0  0  0  0  0  # atno 17371 bound_to 10713
  140.8971  133.7806  155.9637 LP  0  0  0  0  0  0  0  0  0  0  0  0  # atno 17394 bound_to 11000
  140.8691  134.2748  157.5199 LP  0  0  0  0  0  0  0  0  0  0  0  0  # atno 17395 bound_to 11000

$$$$
