AV-unprocessed.smi:2664|AV-procd|sdf|10326|dock5
  -GOLD-   2272014343D 1   1.00000     0.00000
 Structure written by MMmdl.
 43 44  0  0  0  0  0  0  0  0  1 V2000
  144.4976  136.0675  152.9927 O   0  0  0  0  0  0  0  0  0  0  0  0
  145.6827  136.0420  152.6621 C   0  0  0  0  0  0  0  0  0  0  0  0
  146.2498  135.1150  151.8708 N   0  0  0  0  0  0  0  0  0  0  0  0
  145.6377  134.0219  151.1989 C   0  0  0  0  0  0  0  0  0  0  0  0
  146.4776  132.9989  150.7119 C   0  0  0  0  0  0  0  0  0  0  0  0
  145.8987  131.9129  150.0253 C   0  0  0  0  0  0  0  0  0  0  0  0
  144.5731  131.8009  149.7983 N   0  0  0  0  0  0  0  0  0  0  0  0
  143.7717  132.7873  150.2534 C   0  0  0  0  0  0  0  0  0  0  0  0
  144.2477  133.9154  150.9511 C   0  0  0  0  0  0  0  0  0  0  0  0
  146.5890  136.9429  153.0720 N   0  0  0  0  0  0  0  0  0  0  0  0
  146.3292  138.0945  153.9406 C   0  0  2  0  0  0  0  0  0  0  0  0
  146.7982  139.3833  153.2180 C   0  0  0  0  0  0  0  0  0  0  0  0
  146.5866  139.3932  151.6922 C   0  0  0  0  0  0  0  0  0  0  0  0
  147.2719  138.3164  151.0887 O   0  0  0  0  0  0  0  0  0  0  0  0
  147.0019  137.8775  155.3276 C   0  0  0  0  0  0  0  0  0  0  0  0
  146.6958  139.0332  156.3155 C   0  0  0  0  0  0  0  0  0  0  0  0
  147.3624  138.8281  157.6849 C   0  0  0  0  0  0  0  0  0  0  0  0
  148.8789  138.6512  157.5440 C   0  0  0  0  0  0  0  0  0  0  0  0
  149.2020  137.4944  156.5909 C   0  0  0  0  0  0  0  0  0  0  0  0
  148.5359  137.6938  155.2197 C   0  0  0  0  0  0  0  0  0  0  0  0
  147.2513  135.1796  151.7635 H   0  0  0  0  0  0  0  0  0  0  0  0
  147.5463  133.0387  150.8632 H   0  0  0  0  0  0  0  0  0  0  0  0
  146.5183  131.1138  149.6460 H   0  0  0  0  0  0  0  0  0  0  0  0
  142.7168  132.6783  150.0488 H   0  0  0  0  0  0  0  0  0  0  0  0
  143.5446  134.6711  151.2655 H   0  0  0  0  0  0  0  0  0  0  0  0
  147.5402  136.8298  152.7537 H   0  0  0  0  0  0  0  0  0  0  0  0
  145.2558  138.1883  154.1144 H   0  0  0  0  0  0  0  0  0  0  0  0
  146.2835  140.2536  153.6222 H   0  0  0  0  0  0  0  0  0  0  0  0
  147.8579  139.5393  153.4235 H   0  0  0  0  0  0  0  0  0  0  0  0
  145.5249  139.2914  151.4662 H   0  0  0  0  0  0  0  0  0  0  0  0
  146.9132  140.3315  151.2441 H   0  0  0  0  0  0  0  0  0  0  0  0
  147.5627  137.7256  151.7670 H   0  0  0  0  0  0  0  0  0  0  0  0
  146.5892  136.9630  155.7569 H   0  0  0  0  0  0  0  0  0  0  0  0
  147.0310  139.9787  155.8863 H   0  0  0  0  0  0  0  0  0  0  0  0
  145.6227  139.1341  156.4756 H   0  0  0  0  0  0  0  0  0  0  0  0
  147.1476  139.6781  158.3330 H   0  0  0  0  0  0  0  0  0  0  0  0
  146.9339  137.9518  158.1728 H   0  0  0  0  0  0  0  0  0  0  0  0
  149.3234  139.5731  157.1673 H   0  0  0  0  0  0  0  0  0  0  0  0
  149.3262  138.4664  158.5212 H   0  0  0  0  0  0  0  0  0  0  0  0
  150.2819  137.4067  156.4685 H   0  0  0  0  0  0  0  0  0  0  0  0
  148.8636  136.5539  157.0279 H   0  0  0  0  0  0  0  0  0  0  0  0
  148.7812  136.8301  154.6041 H   0  0  0  0  0  0  0  0  0  0  0  0
  148.9755  138.5614  154.7257 H   0  0  0  0  0  0  0  0  0  0  0  0
  1  2  2  0  0  0  0
  2  3  1  0  0  0  0
  2 10  1  0  0  0  0
  3  4  1  0  0  0  0
  3 21  1  0  0  0  0
  4  9  1  0  0  0  0
  4  5  2  0  0  0  0
  5  6  1  0  0  0  0
  5 22  1  0  0  0  0
  6  7  2  0  0  0  0
  6 23  1  0  0  0  0
  7  8  1  0  0  0  0
  8  9  2  0  0  0  0
  8 24  1  0  0  0  0
  9 25  1  0  0  0  0
 10 11  1  0  0  0  0
 10 26  1  0  0  0  0
 11 12  1  0  0  0  0
 11 15  1  0  0  0  0
 11 27  1  0  0  0  0
 12 13  1  0  0  0  0
 12 28  1  0  0  0  0
 12 29  1  0  0  0  0
 13 14  1  0  0  0  0
 13 30  1  0  0  0  0
 13 31  1  0  0  0  0
 14 32  1  0  0  0  0
 15 20  1  0  0  0  0
 15 16  1  0  0  0  0
 15 33  1  0  0  0  0
 16 17  1  0  0  0  0
 16 34  1  0  0  0  0
 16 35  1  0  0  0  0
 17 18  1  0  0  0  0
 17 36  1  0  0  0  0
 17 37  1  0  0  0  0
 18 19  1  0  0  0  0
 18 38  1  0  0  0  0
 18 39  1  0  0  0  0
 19 20  1  0  0  0  0
 19 40  1  0  0  0  0
 19 41  1  0  0  0  0
 20 42  1  0  0  0  0
 20 43  1  0  0  0  0
M  END
> <s_m_source_file>
AV-unprocessed.smi

> <i_m_source_file_index>
2664

> <i_lp_mmshare_version>
43012

> <i_f3d_flags>
0

> <s_epik_input>
W2NIXTFbY0hdbltjSF1bY0hdYzFbTkhdQyg9TylbTkhdW0NASF0oW0NIMl1bQ0gyXVtPSF0pW0NIXTJbQ0gyXVtDSDJdW0NIMl1bQ0gyXVtDSDJdMg==

> <s_epik_cmdline>
J2VwaWtfcHl0aG9uJywgJy1waCcsICc3LjAnLCAnLXRuJywgJzgnLCAnLW1hJywgJzIwMCcsICctbWV0YWxfYmluZGluZycsICctaW1hZScsICc8aW5maWxlLm1hZT4nLCAnLW9tYWUnLCAnPG91dGZpbGUubWFlPic=

> <r_epik_Ionization_Penalty>
0.119281

> <r_epik_Ionization_Penalty_Charging>
0

> <r_epik_Ionization_Penalty_Neutral>
0.119281

> <r_epik_State_Penalty>
0.108806

> <r_epik_Charging_Adjusted_Penalty>
0.108806

> <i_epik_Tot_Q>
0

> <i_epik_Tot_abs_Q>
0

> <r_epik_Metal_State_Penalty>
0.0904205

> <b_epik_Metal_Only>
0

> <s_lp_Force_Field>
OPLS_2005

> <r_lp_Energy>
21.6864

> <b_lp_Chiralities_Consistent>
1

> <s_lp_Variant>
AV-unprocessed.smi:2664-1

> <Gold.Version>
5.8.1

> <Gold.Id.Protein>
6NUR|6NUR_protein|mol2

> <Gold.PLP.Fitness>
45.3934

> <Gold.PLP.PLP>
-29.2646

> <Gold.PLP.part.hbond>
-5.8049

> <Gold.PLP.part.metal>
0.0000

> <Gold.PLP.part.buried>
-3.0034

> <Gold.PLP.part.nonpolar>
-21.5379

> <Gold.PLP.part.repulsive>
0.2945

> <Gold.PLP.ligand.clash>
0.0000

> <Gold.PLP.ligand.torsion>
0.3546

> <Gold.PLP.Chemscore.Hbond>
3.7142

> <Gold.PLP.Chemscore.CHOScore>
1.8742

> <Gold.PLP.Chemscore.Metal>
0.0000

> <Gold.Chemscore.Hbonds>
donor molecule, donor type, donor heavy atom, donor atom, acceptor molecule, acceptor atom, score
      L1  H     3    21       P1  7948  1.00
      L1  H    10    26       P1  7948  1.00
      L1  H    14    32       P1  7948  0.66
      P1  H  7954  7966       L1    14  1.00
      P1  H 10785 10796       L1     7  0.06
      L1  C     6    23       P1 10747  0.87
      L1  C     8    24       P1 10186  1.00

> <Gold.PLP.Chemscore.Internal.Correction>
0.0727

> <Gold.Rescore>
     Score         DG    S(hbond)    S(metal)    S(lipo)     H(rot)  DE(clash)    DE(int)     intcor
     14.46     -17.79       3.14        0.00      64.17       2.23       0.13       3.20       ----

> <Gold.Chemscore.Fitness>
14.4591

> <Gold.Chemscore.DG>
-17.7903

> <Gold.Chemscore.ZeroCoef>
-5.4800

> <Gold.Chemscore.Hbond>
3.1432

> <Gold.Chemscore.Metal>
0.0000

> <Gold.Chemscore.Lipo>
64.1717

> <Gold.Chemscore.Internal_Hbond>
0.0000

> <Gold.Chemscore.DEClash>
0.1267

> <Gold.Chemscore.DEInternal>
3.2046

> <Gold.Chemscore.Rot>
2.2251

> <Gold.Chemscore.Internal.Correction>
   9.000000E+99

> <Gold.Chemscore.Hbonds>
donor molecule, donor type, donor heavy atom, donor atom, acceptor molecule, acceptor atom, score
      L1  H     3    21       P1  7948  0.91
      L1  H    10    26       P1  7948  1.00
      L1  H    14    32       P1  7948  0.63
      P1  H  7954  7966       L1    14  0.28
      P1  H 10785 10796       L1     7  0.05

> <Gold.Chemscore.Hbond.Weighted>
-10.4984

> <Gold.Chemscore.Metal.Weighted>
-0.0000

> <Gold.Chemscore.Lipo.Weighted>
-7.5081

> <Gold.Chemscore.Internal_Hbond.Weighted>
0.0000

> <Gold.Chemscore.DEClash.Weighted>
0.1267

> <Gold.Chemscore.DEInternal.Weighted>
3.2046

> <Gold.Chemscore.Rot.Weighted>
5.6962

> <Gold.Chemscore.Internal.Correction.Weighted>
   9.000000E+99

> <Gold.Protein.RotatedTorsions>
[ 6907 6896 6895 6894 ] final  144.87 input  -60.11 | X-H torsion
[ 7974 7965 7964 7962 ] final  -30.53 input  175.53 | X-H torsion
[ 8008 7997 7996 7995 ] final  177.06 input   59.86 | X-H torsion
[ 10167 10162 10161 10158 ] final  -38.42 input  -65.29 | X-H torsion
[ 10718 10713 10712 10709 ] final  -88.32 input   66.30 | X-H torsion
[ 10763 10752 10751 10750 ] final   54.60 input  -60.55 | X-H torsion
[ 11005 11000 10999 10996 ] final   74.41 input  -57.11 | X-H torsion

> <Gold.Protein.ActiveResidues>
 VAL166  LYS551  ARG553  GLY616  TRP617  ASP618  TYR619  PRO620  LYS621  CYS622 
 ASP623  PHE694  ASN695  SER759  ASP760  ASP761  ALA762  ILE779  LEU786  VAL792 
 PHE793  MET794  SER795  GLU796  ALA797  LYS798  CYS799  TRP800  GLU811  SER814 

> <Gold.Protein.RotatedAtoms>
  152.1882  133.4754  159.4993 H   0  0  0  0  0  0  0  0  0  0  0  0  # atno 6907 bound_to 6896
  150.6946  134.1747  159.4234 H   0  0  0  0  0  0  0  0  0  0  0  0  # atno 6908 bound_to 6896
  151.9660  135.0100  160.0601 H   0  0  0  0  0  0  0  0  0  0  0  0  # atno 6909 bound_to 6896
  146.1136  140.5552  142.8767 H   0  0  0  0  0  0  0  0  0  0  0  0  # atno 7974 bound_to 7965
  156.0698  140.1368  156.9843 H   0  0  0  0  0  0  0  0  0  0  0  0  # atno 8008 bound_to 7997
  154.4525  140.0974  156.6713 H   0  0  0  0  0  0  0  0  0  0  0  0  # atno 8009 bound_to 7997
  155.5247  140.3457  155.4416 H   0  0  0  0  0  0  0  0  0  0  0  0  # atno 8010 bound_to 7997
  140.7092  143.3278  151.2638 H   0  0  0  0  0  0  0  0  0  0  0  0  # atno 10167 bound_to 10162
  155.9984  130.4831  150.5001 H   0  0  0  0  0  0  0  0  0  0  0  0  # atno 10718 bound_to 10713
  152.9806  135.5739  154.4930 H   0  0  0  0  0  0  0  0  0  0  0  0  # atno 10763 bound_to 10752
  154.4461  135.2777  155.1816 H   0  0  0  0  0  0  0  0  0  0  0  0  # atno 10764 bound_to 10752
  154.3463  135.6218  153.5674 H   0  0  0  0  0  0  0  0  0  0  0  0  # atno 10765 bound_to 10752
  139.9392  134.7430  156.1144 H   0  0  0  0  0  0  0  0  0  0  0  0  # atno 11005 bound_to 11000
  144.7533  140.5245  143.6786 LP  0  0  0  0  0  0  0  0  0  0  0  0  # atno 17320 bound_to 7965
  145.5613  139.1479  143.3340 LP  0  0  0  0  0  0  0  0  0  0  0  0  # atno 17321 bound_to 7965
  139.6752  143.9950  152.2776 LP  0  0  0  0  0  0  0  0  0  0  0  0  # atno 17342 bound_to 10162
  139.9562  144.6588  150.8123 LP  0  0  0  0  0  0  0  0  0  0  0  0  # atno 17343 bound_to 10162
  157.2986  131.0641  151.2084 LP  0  0  0  0  0  0  0  0  0  0  0  0  # atno 17370 bound_to 10713
  157.3071  130.6871  149.6195 LP  0  0  0  0  0  0  0  0  0  0  0  0  # atno 17371 bound_to 10713
  141.1020  133.6674  156.2776 LP  0  0  0  0  0  0  0  0  0  0  0  0  # atno 17394 bound_to 11000
  140.5994  134.5570  157.5515 LP  0  0  0  0  0  0  0  0  0  0  0  0  # atno 17395 bound_to 11000

$$$$
