AV-unprocessed.smi:528|AV-procd|sdf|2831|dock5
  -GOLD-   2262023313D 1   1.00000     0.00000
 Structure written by MMmdl.
 45 47  0  0  0  0  0  0  0  0  1 V2000
  145.8406  135.8650  152.4449 C   0  0  0  0  0  0  0  0  0  0  0  0
  146.0573  134.3531  152.2769 C   0  0  2  0  0  0  0  0  0  0  0  0
  147.4214  134.0232  152.6852 N   0  0  0  0  0  0  0  0  0  0  0  0
  147.7921  132.9528  153.4052 C   0  0  0  0  0  0  0  0  0  0  0  0
  146.9945  132.1318  153.8601 O   0  0  0  0  0  0  0  0  0  0  0  0
  149.2994  132.7979  153.6471 C   0  0  0  0  0  0  0  0  0  0  0  0
  149.6672  131.4390  154.0764 N   0  0  0  0  0  0  0  0  0  0  0  0
  149.0557  130.3739  153.3867 C   0  0  0  0  0  0  0  0  0  0  0  0
  149.2947  129.0802  153.6733 C   0  0  0  0  0  0  0  0  0  0  0  0
  148.5678  127.9562  152.9518 C   0  0  0  0  0  0  0  0  0  0  0  0
  148.8441  127.9629  151.6477 F   0  0  0  0  0  0  0  0  0  0  0  0
  148.9116  126.7665  153.4471 F   0  0  0  0  0  0  0  0  0  0  0  0
  147.2516  128.1010  153.0987 F   0  0  0  0  0  0  0  0  0  0  0  0
  150.2096  128.8212  154.7676 C   0  0  0  0  0  0  0  0  0  0  0  0
  150.7922  129.8285  155.4473 C   0  0  0  0  0  0  0  0  0  0  0  0
  150.5304  131.2311  155.1153 C   0  0  0  0  0  0  0  0  0  0  0  0
  151.0522  132.1584  155.7344 O   0  0  0  0  0  0  0  0  0  0  0  0
  145.8208  133.8870  150.8205 C   0  0  2  0  0  0  0  0  0  0  0  0
  144.3748  134.0630  150.3042 C   0  0  0  0  0  0  0  0  0  0  0  0
  144.0533  132.6852  149.6946 C   0  0  2  0  0  0  0  0  0  0  0  0
  143.8184  131.6745  150.8317 C   0  0  0  0  0  0  0  0  0  0  0  0
  145.2372  131.4563  151.3865 C   0  0  0  0  0  0  0  0  0  0  0  0
  146.0964  132.3929  150.5114 C   0  0  1  0  0  0  0  0  0  0  0  0
  145.4098  132.2429  149.1575 C   0  0  0  0  0  0  0  0  0  0  0  0
  144.8220  136.1522  152.1836 H   0  0  0  0  0  0  0  0  0  0  0  0
  146.5197  136.4373  151.8121 H   0  0  0  0  0  0  0  0  0  0  0  0
  146.0099  136.1720  153.4776 H   0  0  0  0  0  0  0  0  0  0  0  0
  145.3373  133.8515  152.9246 H   0  0  0  0  0  0  0  0  0  0  0  0
  148.1484  134.6465  152.3655 H   0  0  0  0  0  0  0  0  0  0  0  0
  149.8413  133.0466  152.7327 H   0  0  0  0  0  0  0  0  0  0  0  0
  149.6128  133.5477  154.3752 H   0  0  0  0  0  0  0  0  0  0  0  0
  148.3656  130.6801  152.6131 H   0  0  0  0  0  0  0  0  0  0  0  0
  150.4349  127.8024  155.0461 H   0  0  0  0  0  0  0  0  0  0  0  0
  151.4701  129.5985  156.2562 H   0  0  0  0  0  0  0  0  0  0  0  0
  146.4805  134.4729  150.1775 H   0  0  0  0  0  0  0  0  0  0  0  0
  143.6683  134.3282  151.0918 H   0  0  0  0  0  0  0  0  0  0  0  0
  144.3331  134.8466  149.5466 H   0  0  0  0  0  0  0  0  0  0  0  0
  143.2492  132.7089  148.9587 H   0  0  0  0  0  0  0  0  0  0  0  0
  143.1298  132.0531  151.5879 H   0  0  0  0  0  0  0  0  0  0  0  0
  143.4103  130.7397  150.4452 H   0  0  0  0  0  0  0  0  0  0  0  0
  145.3083  131.6694  152.4519 H   0  0  0  0  0  0  0  0  0  0  0  0
  145.5425  130.4187  151.2447 H   0  0  0  0  0  0  0  0  0  0  0  0
  147.1560  132.1350  150.5100 H   0  0  0  0  0  0  0  0  0  0  0  0
  145.4130  131.2186  148.7800 H   0  0  0  0  0  0  0  0  0  0  0  0
  145.8092  132.9078  148.3897 H   0  0  0  0  0  0  0  0  0  0  0  0
  1  2  1  0  0  0  0
  1 25  1  0  0  0  0
  1 26  1  0  0  0  0
  1 27  1  0  0  0  0
  2  3  1  0  0  0  0
  2 18  1  0  0  0  0
  2 28  1  0  0  0  0
  3  4  1  0  0  0  0
  3 29  1  0  0  0  0
  4  5  2  0  0  0  0
  4  6  1  0  0  0  0
  6  7  1  0  0  0  0
  6 30  1  0  0  0  0
  6 31  1  0  0  0  0
  7 16  1  0  0  0  0
  7  8  1  0  0  0  0
  8  9  2  0  0  0  0
  8 32  1  0  0  0  0
  9 10  1  0  0  0  0
  9 14  1  0  0  0  0
 10 11  1  0  0  0  0
 10 12  1  0  0  0  0
 10 13  1  0  0  0  0
 14 15  2  0  0  0  0
 14 33  1  0  0  0  0
 15 16  1  0  0  0  0
 15 34  1  0  0  0  0
 16 17  2  0  0  0  0
 18 23  1  0  0  0  0
 18 19  1  0  0  0  0
 18 35  1  0  0  0  0
 19 20  1  0  0  0  0
 19 36  1  0  0  0  0
 19 37  1  0  0  0  0
 20 24  1  0  0  0  0
 20 21  1  0  0  0  0
 20 38  1  0  0  0  0
 21 22  1  0  0  0  0
 21 39  1  0  0  0  0
 21 40  1  0  0  0  0
 22 23  1  0  0  0  0
 22 41  1  0  0  0  0
 22 42  1  0  0  0  0
 23 24  1  0  0  0  0
 23 43  1  0  0  0  0
 24 44  1  0  0  0  0
 24 45  1  0  0  0  0
M  END
> <s_m_source_file>
AV-unprocessed.smi

> <i_m_source_file_index>
528

> <i_lp_mmshare_version>
43012

> <i_f3d_flags>
0

> <s_epik_input>
W0NIMl0xW0NIMl1bQ0BASF0oW0NIMl0yKVtDQEBIXShbQ0gyXVtDQEhdMTIpW0NASF0oW0NIM10pW05IXUMoPU8pW0NIMl1uM1tjSF1jKEMoRikoRilGKVtjSF1bY0hdYzM9Tw==

> <s_epik_cmdline>
J2VwaWtfcHl0aG9uJywgJy1waCcsICc3LjAnLCAnLXRuJywgJzgnLCAnLW1hJywgJzIwMCcsICctbWV0YWxfYmluZGluZycsICctaW1hZScsICc8aW5maWxlLm1hZT4nLCAnLW9tYWUnLCAnPG91dGZpbGUubWFlPic=

> <r_lp_tautomer_probability>
1

> <r_epik_Ionization_Penalty>
4.09479e-08

> <r_epik_Ionization_Penalty_Charging>
1.9321e-08

> <r_epik_Ionization_Penalty_Neutral>
2.16269e-08

> <r_epik_State_Penalty>
-0

> <r_epik_Charging_Adjusted_Penalty>
1.9321e-08

> <i_epik_Tot_Q>
0

> <i_epik_Tot_abs_Q>
0

> <r_epik_Metal_State_Penalty>
-0

> <b_epik_Metal_Only>
0

> <s_lp_Force_Field>
OPLS_2005

> <r_lp_Energy>
62.8802

> <b_lp_Chiralities_Consistent>
1

> <s_lp_Variant>
AV-unprocessed.smi:528-1

> <Gold.Version>
5.8.1

> <Gold.Id.Protein>
6NUR|6NUR_protein|mol2

> <Gold.PLP.Fitness>
49.3469

> <Gold.PLP.PLP>
-45.3420

> <Gold.PLP.part.hbond>
-1.0000

> <Gold.PLP.part.metal>
0.0000

> <Gold.PLP.part.buried>
-2.1531

> <Gold.PLP.part.nonpolar>
-40.5936

> <Gold.PLP.part.repulsive>
0.0980

> <Gold.PLP.ligand.clash>
0.0000

> <Gold.PLP.ligand.torsion>
0.7528

> <Gold.PLP.Chemscore.Hbond>
1.0000

> <Gold.PLP.Chemscore.CHOScore>
0.8190

> <Gold.PLP.Chemscore.Metal>
0.0000

> <Gold.Chemscore.Hbonds>
donor molecule, donor type, donor heavy atom, donor atom, acceptor molecule, acceptor atom, score
      L1  H     3    29       P1  7948  1.00
      L1  C     8    32       P1 10747  0.84

> <Gold.PLP.Chemscore.Internal.Correction>
0.0534

> <Gold.Rescore>
     Score         DG    S(hbond)    S(metal)    S(lipo)     H(rot)  DE(clash)    DE(int)     intcor
     14.08     -16.20       0.87        0.00     104.14       1.71       0.03       2.09       ----

> <Gold.Chemscore.Fitness>
14.0759

> <Gold.Chemscore.DG>
-16.2017

> <Gold.Chemscore.ZeroCoef>
-5.4800

> <Gold.Chemscore.Hbond>
0.8747

> <Gold.Chemscore.Metal>
0.0000

> <Gold.Chemscore.Lipo>
104.1385

> <Gold.Chemscore.Internal_Hbond>
0.0000

> <Gold.Chemscore.DEClash>
0.0310

> <Gold.Chemscore.DEInternal>
2.0948

> <Gold.Chemscore.Rot>
1.7125

> <Gold.Chemscore.Internal.Correction>
   9.000000E+99

> <Gold.Chemscore.Hbonds>
donor molecule, donor type, donor heavy atom, donor atom, acceptor molecule, acceptor atom, score
      L1  H     3    29       P1  7948  0.35

> <Gold.Chemscore.Hbond.Weighted>
-2.9215

> <Gold.Chemscore.Metal.Weighted>
-0.0000

> <Gold.Chemscore.Lipo.Weighted>
-12.1842

> <Gold.Chemscore.Internal_Hbond.Weighted>
0.0000

> <Gold.Chemscore.DEClash.Weighted>
0.0310

> <Gold.Chemscore.DEInternal.Weighted>
2.0948

> <Gold.Chemscore.Rot.Weighted>
4.3840

> <Gold.Chemscore.Internal.Correction.Weighted>
   9.000000E+99

> <Gold.Protein.RotatedTorsions>
[ 6907 6896 6895 6894 ] final -165.83 input  -60.11 | X-H torsion
[ 7974 7965 7964 7962 ] final  161.66 input  175.53 | X-H torsion
[ 8008 7997 7996 7995 ] final  160.99 input   59.86 | X-H torsion
[ 10167 10162 10161 10158 ] final  -11.52 input  -65.29 | X-H torsion
[ 10718 10713 10712 10709 ] final    6.35 input   66.30 | X-H torsion
[ 10763 10752 10751 10750 ] final  111.38 input  -60.55 | X-H torsion
[ 11005 11000 10999 10996 ] final   35.26 input  -57.11 | X-H torsion

> <Gold.Protein.ActiveResidues>
 VAL166  LYS551  ARG553  GLY616  TRP617  ASP618  TYR619  PRO620  LYS621  CYS622 
 ASP623  PHE694  ASN695  SER759  ASP760  ASP761  ALA762  ILE779  LEU786  VAL792 
 PHE793  MET794  SER795  GLU796  ALA797  LYS798  CYS799  TRP800  GLU811  SER814 

> <Gold.Protein.RotatedAtoms>
  151.4339  133.3662  159.2772 H   0  0  0  0  0  0  0  0  0  0  0  0  # atno 6907 bound_to 6896
  150.9205  134.8624  159.7496 H   0  0  0  0  0  0  0  0  0  0  0  0  # atno 6908 bound_to 6896
  152.4979  134.4277  159.9553 H   0  0  0  0  0  0  0  0  0  0  0  0  # atno 6909 bound_to 6896
  144.7675  139.7929  143.6309 H   0  0  0  0  0  0  0  0  0  0  0  0  # atno 7974 bound_to 7965
  156.2134  140.1789  156.7644 H   0  0  0  0  0  0  0  0  0  0  0  0  # atno 8008 bound_to 7997
  154.5755  140.0675  156.9058 H   0  0  0  0  0  0  0  0  0  0  0  0  # atno 8009 bound_to 7997
  155.2595  140.3335  155.4277 H   0  0  0  0  0  0  0  0  0  0  0  0  # atno 8010 bound_to 7997
  140.7140  143.5631  150.9174 H   0  0  0  0  0  0  0  0  0  0  0  0  # atno 10167 bound_to 10162
  156.9208  130.5790  149.5648 H   0  0  0  0  0  0  0  0  0  0  0  0  # atno 10718 bound_to 10713
  153.4625  135.3719  155.2346 H   0  0  0  0  0  0  0  0  0  0  0  0  # atno 10763 bound_to 10752
  154.8757  135.3912  154.3908 H   0  0  0  0  0  0  0  0  0  0  0  0  # atno 10764 bound_to 10752
  153.4484  135.7085  153.6189 H   0  0  0  0  0  0  0  0  0  0  0  0  # atno 10765 bound_to 10752
  140.2445  134.3376  155.7913 H   0  0  0  0  0  0  0  0  0  0  0  0  # atno 11005 bound_to 11000
  146.1794  139.4980  142.9876 LP  0  0  0  0  0  0  0  0  0  0  0  0  # atno 17320 bound_to 7965
  145.6425  141.0281  143.1804 LP  0  0  0  0  0  0  0  0  0  0  0  0  # atno 17321 bound_to 7965
  139.9356  143.6441  152.3066 LP  0  0  0  0  0  0  0  0  0  0  0  0  # atno 17342 bound_to 10162
  139.6908  144.7647  151.1442 LP  0  0  0  0  0  0  0  0  0  0  0  0  # atno 17343 bound_to 10162
  156.0492  130.5564  150.8950 LP  0  0  0  0  0  0  0  0  0  0  0  0  # atno 17370 bound_to 10713
  157.5909  131.0944  150.9121 LP  0  0  0  0  0  0  0  0  0  0  0  0  # atno 17371 bound_to 10713
  141.2207  133.7317  156.8938 LP  0  0  0  0  0  0  0  0  0  0  0  0  # atno 17394 bound_to 11000
  140.1620  134.9159  157.2727 LP  0  0  0  0  0  0  0  0  0  0  0  0  # atno 17395 bound_to 11000

$$$$
