AV-unprocessed.smi:2679|AV-procd|sdf|10371|dock2
  -GOLD-   2272014403D 1   1.00000     0.00000
 Structure written by MMmdl.
 39 40  0  0  0  0  0  0  0  0  1 V2000
  150.4545  135.1540  156.1827 C   0  0  0  0  0  0  0  0  0  0  0  0
  150.8561  136.3901  156.9207 C   0  0  0  0  0  0  0  0  0  0  0  0
  150.7386  136.5288  158.2425 N   0  0  0  0  0  0  0  0  0  0  0  0
  151.2093  137.7924  158.5196 N   0  0  0  0  0  0  0  0  0  0  0  0
  151.5667  138.3111  157.3416 C   0  0  0  0  0  0  0  0  0  0  0  0
  152.2349  139.9328  157.1311 S   0  0  0  0  0  0  0  0  0  0  0  0
  152.1649  140.5528  158.8453 C   0  0  1  0  0  0  0  0  0  0  0  0
  153.1503  139.7827  159.6223 C   0  0  0  0  0  0  0  0  0  0  0  0
  153.9244  139.1777  160.2339 N   0  0  0  0  0  0  0  0  0  0  0  0
  152.3892  142.0844  158.9411 C   0  0  0  0  0  0  0  0  0  0  0  0
  152.1069  142.6170  160.3660 C   0  0  0  0  0  0  0  0  0  0  0  0
  152.3269  144.1345  160.4749 C   0  0  0  0  0  0  0  0  0  0  0  0
  151.4774  144.8963  159.4493 C   0  0  0  0  0  0  0  0  0  0  0  0
  151.7625  144.3939  158.0285 C   0  0  0  0  0  0  0  0  0  0  0  0
  151.5430  142.8773  157.9183 C   0  0  0  0  0  0  0  0  0  0  0  0
  151.3743  137.4715  156.3023 N   0  0  0  0  0  0  0  0  0  0  0  0
  151.6391  137.6847  154.8849 C   0  0  0  0  0  0  0  0  0  0  0  0
  150.7624  138.8050  154.3201 C   0  0  0  0  0  0  0  0  0  0  0  0
  149.9056  138.4793  153.3494 N   0  0  0  0  0  0  0  0  0  0  0  0
  150.8652  139.9531  154.7461 O   0  0  0  0  0  0  0  0  0  0  0  0
  149.9934  134.4368  156.8623 H   0  0  0  0  0  0  0  0  0  0  0  0
  151.3284  134.6869  155.7285 H   0  0  0  0  0  0  0  0  0  0  0  0
  149.7360  135.3966  155.3996 H   0  0  0  0  0  0  0  0  0  0  0  0
  151.2041  140.2998  159.2911 H   0  0  0  0  0  0  0  0  0  0  0  0
  153.4414  142.2763  158.7254 H   0  0  0  0  0  0  0  0  0  0  0  0
  151.0814  142.3770  160.6492 H   0  0  0  0  0  0  0  0  0  0  0  0
  152.7500  142.1236  161.0946 H   0  0  0  0  0  0  0  0  0  0  0  0
  152.0838  144.4735  161.4822 H   0  0  0  0  0  0  0  0  0  0  0  0
  153.3819  144.3627  160.3182 H   0  0  0  0  0  0  0  0  0  0  0  0
  150.4190  144.7670  159.6791 H   0  0  0  0  0  0  0  0  0  0  0  0
  151.6818  145.9653  159.5154 H   0  0  0  0  0  0  0  0  0  0  0  0
  151.1227  144.9136  157.3149 H   0  0  0  0  0  0  0  0  0  0  0  0
  152.7903  144.6345  157.7540 H   0  0  0  0  0  0  0  0  0  0  0  0
  151.7906  142.5781  156.9030 H   0  0  0  0  0  0  0  0  0  0  0  0
  150.4857  142.6484  158.0589 H   0  0  0  0  0  0  0  0  0  0  0  0
  152.6975  137.9104  154.7478 H   0  0  0  0  0  0  0  0  0  0  0  0
  151.4467  136.7631  154.3352 H   0  0  0  0  0  0  0  0  0  0  0  0
  149.3062  139.1842  152.9453 H   0  0  0  0  0  0  0  0  0  0  0  0
  149.8603  137.5251  153.0218 H   0  0  0  0  0  0  0  0  0  0  0  0
  1  2  1  0  0  0  0
  1 21  1  0  0  0  0
  1 22  1  0  0  0  0
  1 23  1  0  0  0  0
  2 16  1  0  0  0  0
  2  3  2  0  0  0  0
  3  4  1  0  0  0  0
  4  5  2  0  0  0  0
  5  6  1  0  0  0  0
  5 16  1  0  0  0  0
  6  7  1  0  0  0  0
  7  8  1  0  0  0  0
  7 10  1  0  0  0  0
  7 24  1  0  0  0  0
  8  9  3  0  0  0  0
 10 15  1  0  0  0  0
 10 11  1  0  0  0  0
 10 25  1  0  0  0  0
 11 12  1  0  0  0  0
 11 26  1  0  0  0  0
 11 27  1  0  0  0  0
 12 13  1  0  0  0  0
 12 28  1  0  0  0  0
 12 29  1  0  0  0  0
 13 14  1  0  0  0  0
 13 30  1  0  0  0  0
 13 31  1  0  0  0  0
 14 15  1  0  0  0  0
 14 32  1  0  0  0  0
 14 33  1  0  0  0  0
 15 34  1  0  0  0  0
 15 35  1  0  0  0  0
 16 17  1  0  0  0  0
 17 18  1  0  0  0  0
 17 36  1  0  0  0  0
 17 37  1  0  0  0  0
 18 19  1  0  0  0  0
 18 20  2  0  0  0  0
 19 38  1  0  0  0  0
 19 39  1  0  0  0  0
M  END
> <s_m_source_file>
AV-unprocessed.smi

> <i_m_source_file_index>
2679

> <i_lp_mmshare_version>
43012

> <i_f3d_flags>
0

> <s_epik_input>
W0NIM11jMW5uYyhuMVtDSDJdQyg9TylbTkgyXSlTW0NASF0oQyNOKVtDSF0yW0NIMl1bQ0gyXVtDSDJdW0NIMl1bQ0gyXTI=

> <s_epik_cmdline>
J2VwaWtfcHl0aG9uJywgJy1waCcsICc3LjAnLCAnLXRuJywgJzgnLCAnLW1hJywgJzIwMCcsICctbWV0YWxfYmluZGluZycsICctaW1hZScsICc8aW5maWxlLm1hZT4nLCAnLW9tYWUnLCAnPG91dGZpbGUubWFlPic=

> <r_lp_tautomer_probability>
1

> <r_epik_Ionization_Penalty>
1.94949e-07

> <r_epik_Ionization_Penalty_Charging>
0

> <r_epik_Ionization_Penalty_Neutral>
1.94949e-07

> <r_epik_State_Penalty>
-0

> <r_epik_Charging_Adjusted_Penalty>
0

> <i_epik_Tot_Q>
0

> <i_epik_Tot_abs_Q>
0

> <r_epik_Metal_State_Penalty>
-0

> <b_epik_Metal_Only>
0

> <s_lp_Force_Field>
OPLS_2005

> <r_lp_Energy>
6.13609

> <b_lp_Chiralities_Consistent>
1

> <s_lp_Variant>
AV-unprocessed.smi:2679-2

> <Gold.Version>
5.8.1

> <Gold.Id.Protein>
6NUR|6NUR_protein|mol2

> <Gold.PLP.Fitness>
48.8569

> <Gold.PLP.PLP>
-40.0472

> <Gold.PLP.part.hbond>
-4.0000

> <Gold.PLP.part.metal>
0.0000

> <Gold.PLP.part.buried>
-6.5014

> <Gold.PLP.part.nonpolar>
-29.7529

> <Gold.PLP.part.repulsive>
0.1531

> <Gold.PLP.ligand.clash>
0.0000

> <Gold.PLP.ligand.torsion>
0.2001

> <Gold.PLP.Chemscore.Hbond>
3.0540

> <Gold.PLP.Chemscore.CHOScore>
0.0000

> <Gold.PLP.Chemscore.Metal>
0.0000

> <Gold.Chemscore.Hbonds>
donor molecule, donor type, donor heavy atom, donor atom, acceptor molecule, acceptor atom, score
      L1  H    19    38       P1  7957  0.48
      L1  H    19    39       P1  7948  0.94
      P1  H  6896  6908       L1     3  0.52
      P1  H  7989  7998       L1    20  1.00

> <Gold.PLP.Chemscore.Internal.Correction>
0.0482

> <Gold.Rescore>
     Score         DG    S(hbond)    S(metal)    S(lipo)     H(rot)  DE(clash)    DE(int)     intcor
     17.33     -19.17       2.88        0.00      91.17       2.57       0.01       1.83       ----

> <Gold.Chemscore.Fitness>
17.3312

> <Gold.Chemscore.DG>
-19.1725

> <Gold.Chemscore.ZeroCoef>
-5.4800

> <Gold.Chemscore.Hbond>
2.8778

> <Gold.Chemscore.Metal>
0.0000

> <Gold.Chemscore.Lipo>
91.1702

> <Gold.Chemscore.Internal_Hbond>
0.0000

> <Gold.Chemscore.DEClash>
0.0120

> <Gold.Chemscore.DEInternal>
1.8293

> <Gold.Chemscore.Rot>
2.5728

> <Gold.Chemscore.Internal.Correction>
   9.000000E+99

> <Gold.Chemscore.Hbonds>
donor molecule, donor type, donor heavy atom, donor atom, acceptor molecule, acceptor atom, score
      L1  H    19    38       P1  7957  0.46
      L1  H    19    39       P1  7948  0.36
      P1  H  6896  6908       L1     3  0.49
      P1  H  7989  7998       L1    20  0.55

> <Gold.Chemscore.Hbond.Weighted>
-9.6120

> <Gold.Chemscore.Metal.Weighted>
-0.0000

> <Gold.Chemscore.Lipo.Weighted>
-10.6669

> <Gold.Chemscore.Internal_Hbond.Weighted>
0.0000

> <Gold.Chemscore.DEClash.Weighted>
0.0120

> <Gold.Chemscore.DEInternal.Weighted>
1.8293

> <Gold.Chemscore.Rot.Weighted>
6.5865

> <Gold.Chemscore.Internal.Correction.Weighted>
   9.000000E+99

> <Gold.Protein.RotatedTorsions>
[ 6907 6896 6895 6894 ] final -158.27 input  -60.11 | X-H torsion
[ 7974 7965 7964 7962 ] final  170.98 input  175.53 | X-H torsion
[ 8008 7997 7996 7995 ] final  137.83 input   59.86 | X-H torsion
[ 10167 10162 10161 10158 ] final -105.81 input  -65.29 | X-H torsion
[ 10718 10713 10712 10709 ] final   61.11 input   66.30 | X-H torsion
[ 10763 10752 10751 10750 ] final -146.69 input  -60.55 | X-H torsion
[ 11005 11000 10999 10996 ] final   16.75 input  -57.11 | X-H torsion

> <Gold.Protein.ActiveResidues>
 VAL166  LYS551  ARG553  GLY616  TRP617  ASP618  TYR619  PRO620  LYS621  CYS622 
 ASP623  PHE694  ASN695  SER759  ASP760  ASP761  ALA762  ILE779  LEU786  VAL792 
 PHE793  MET794  SER795  GLU796  ALA797  LYS798  CYS799  TRP800  GLU811  SER814 

> <Gold.Protein.RotatedAtoms>
  151.3155  133.4062  159.2650 H   0  0  0  0  0  0  0  0  0  0  0  0  # atno 6907 bound_to 6896
  151.0078  134.9373  159.8000 H   0  0  0  0  0  0  0  0  0  0  0  0  # atno 6908 bound_to 6896
  152.5292  134.3120  159.9169 H   0  0  0  0  0  0  0  0  0  0  0  0  # atno 6909 bound_to 6896
  144.7308  139.9282  143.6423 H   0  0  0  0  0  0  0  0  0  0  0  0  # atno 7974 bound_to 7965
  156.3000  140.2409  156.3974 H   0  0  0  0  0  0  0  0  0  0  0  0  # atno 8008 bound_to 7997
  154.8558  140.0422  157.1653 H   0  0  0  0  0  0  0  0  0  0  0  0  # atno 8009 bound_to 7997
  154.8949  140.2968  155.5353 H   0  0  0  0  0  0  0  0  0  0  0  0  # atno 8010 bound_to 7997
  140.1945  143.3866  152.1180 H   0  0  0  0  0  0  0  0  0  0  0  0  # atno 10167 bound_to 10162
  157.5803  130.8976  149.9419 H   0  0  0  0  0  0  0  0  0  0  0  0  # atno 10718 bound_to 10713
  154.8323  135.3380  154.6702 H   0  0  0  0  0  0  0  0  0  0  0  0  # atno 10763 bound_to 10752
  153.7320  135.6951  153.4991 H   0  0  0  0  0  0  0  0  0  0  0  0  # atno 10764 bound_to 10752
  153.2305  135.4418  155.0542 H   0  0  0  0  0  0  0  0  0  0  0  0  # atno 10765 bound_to 10752
  140.4436  134.1296  155.7693 H   0  0  0  0  0  0  0  0  0  0  0  0  # atno 11005 bound_to 11000
  146.0878  139.3867  143.0425 LP  0  0  0  0  0  0  0  0  0  0  0  0  # atno 17320 bound_to 7965
  145.7753  140.9879  143.1128 LP  0  0  0  0  0  0  0  0  0  0  0  0  # atno 17321 bound_to 7965
  139.5242  144.7081  151.5291 LP  0  0  0  0  0  0  0  0  0  0  0  0  # atno 17342 bound_to 10162
  140.6433  143.8845  150.6713 LP  0  0  0  0  0  0  0  0  0  0  0  0  # atno 17343 bound_to 10162
  156.0849  130.3669  150.0507 LP  0  0  0  0  0  0  0  0  0  0  0  0  # atno 17370 bound_to 10713
  156.8648  130.9504  151.3615 LP  0  0  0  0  0  0  0  0  0  0  0  0  # atno 17371 bound_to 10713
  141.1695  133.8638  157.1615 LP  0  0  0  0  0  0  0  0  0  0  0  0  # atno 17394 bound_to 11000
  140.0053  135.0011  157.0279 LP  0  0  0  0  0  0  0  0  0  0  0  0  # atno 17395 bound_to 11000

$$$$
