AV-unprocessed.smi:2445|AV-procd|sdf|9635|dock10
  -GOLD-   2272013273D 1   1.00000     0.00000
 Structure written by MMmdl.
 40 41  0  0  0  0  0  0  0  0  1 V2000
  152.1148  143.3290  159.0111 C   0  0  0  0  0  0  0  0  0  0  0  0
  151.6778  142.3626  157.9632 C   0  0  0  0  0  0  0  0  0  0  0  0
  151.0648  142.6403  156.7665 C   0  0  0  0  0  0  0  0  0  0  0  0
  150.7825  141.5071  156.0007 N   0  0  0  0  0  0  0  0  0  0  0  0
  151.1738  140.3772  156.5967 C   0  0  0  0  0  0  0  0  0  0  0  0
  150.9799  139.0128  156.0074 C   0  0  2  0  0  0  0  0  0  0  0  0
  152.3086  138.2645  155.8306 C   0  0  0  0  0  0  0  0  0  0  0  0
  150.1179  139.0193  154.7250 C   0  0  0  0  0  0  0  0  0  0  0  0
  149.7305  137.6801  154.2903 N   0  0  0  0  0  0  0  0  0  0  0  0
  149.3431  136.6879  155.1027 C   0  0  0  0  0  0  0  0  0  0  0  0
  149.2982  136.7798  156.3292 O   0  0  0  0  0  0  0  0  0  0  0  0
  149.0002  135.5923  154.4122 N   0  0  0  0  0  0  0  0  0  0  0  0
  148.5111  134.3381  154.9858 C   0  0  1  0  0  0  0  0  0  0  0  0
  148.0431  133.3905  153.8813 C   0  0  0  0  0  0  0  0  0  0  0  0
  148.8253  132.1036  154.1315 C   0  0  0  0  0  0  0  0  0  0  0  0
  150.0065  132.5505  154.7742 O   0  0  0  0  0  0  0  0  0  0  0  0
  149.6153  133.5412  155.7123 C   0  0  1  0  0  0  0  0  0  0  0  0
  150.8398  134.3272  156.2086 C   0  0  0  0  0  0  0  0  0  0  0  0
  151.9211  140.6480  158.1674 S   0  0  0  0  0  0  0  0  0  0  0  0
  151.8510  144.3509  158.7378 H   0  0  0  0  0  0  0  0  0  0  0  0
  153.1951  143.2855  159.1494 H   0  0  0  0  0  0  0  0  0  0  0  0
  151.6418  143.1032  159.9669 H   0  0  0  0  0  0  0  0  0  0  0  0
  150.7929  143.6118  156.3812 H   0  0  0  0  0  0  0  0  0  0  0  0
  150.4196  138.4453  156.7518 H   0  0  0  0  0  0  0  0  0  0  0  0
  152.8448  138.1880  156.7771 H   0  0  0  0  0  0  0  0  0  0  0  0
  152.9587  138.7744  155.1187 H   0  0  0  0  0  0  0  0  0  0  0  0
  152.1427  137.2518  155.4625 H   0  0  0  0  0  0  0  0  0  0  0  0
  149.1972  139.5738  154.9095 H   0  0  0  0  0  0  0  0  0  0  0  0
  150.6341  139.5410  153.9175 H   0  0  0  0  0  0  0  0  0  0  0  0
  149.7336  137.5074  153.2956 H   0  0  0  0  0  0  0  0  0  0  0  0
  149.0762  135.6252  153.4060 H   0  0  0  0  0  0  0  0  0  0  0  0
  147.6945  134.5245  155.6854 H   0  0  0  0  0  0  0  0  0  0  0  0
  146.9659  133.2230  153.9034 H   0  0  0  0  0  0  0  0  0  0  0  0
  148.2933  133.7820  152.8939 H   0  0  0  0  0  0  0  0  0  0  0  0
  148.2764  131.4391  154.8008 H   0  0  0  0  0  0  0  0  0  0  0  0
  149.0468  131.5591  153.2134 H   0  0  0  0  0  0  0  0  0  0  0  0
  149.1662  133.0251  156.5630 H   0  0  0  0  0  0  0  0  0  0  0  0
  150.5440  135.1160  156.9007 H   0  0  0  0  0  0  0  0  0  0  0  0
  151.3870  134.7858  155.3845 H   0  0  0  0  0  0  0  0  0  0  0  0
  151.5323  133.6689  156.7332 H   0  0  0  0  0  0  0  0  0  0  0  0
  1  2  1  0  0  0  0
  1 20  1  0  0  0  0
  1 21  1  0  0  0  0
  1 22  1  0  0  0  0
  2 19  1  0  0  0  0
  2  3  2  0  0  0  0
  3  4  1  0  0  0  0
  3 23  1  0  0  0  0
  4  5  2  0  0  0  0
  5  6  1  0  0  0  0
  5 19  1  0  0  0  0
  6  7  1  0  0  0  0
  6  8  1  0  0  0  0
  6 24  1  0  0  0  0
  7 25  1  0  0  0  0
  7 26  1  0  0  0  0
  7 27  1  0  0  0  0
  8  9  1  0  0  0  0
  8 28  1  0  0  0  0
  8 29  1  0  0  0  0
  9 10  1  0  0  0  0
  9 30  1  0  0  0  0
 10 11  2  0  0  0  0
 10 12  1  0  0  0  0
 12 13  1  0  0  0  0
 12 31  1  0  0  0  0
 13 17  1  0  0  0  0
 13 14  1  0  0  0  0
 13 32  1  0  0  0  0
 14 15  1  0  0  0  0
 14 33  1  0  0  0  0
 14 34  1  0  0  0  0
 15 16  1  0  0  0  0
 15 35  1  0  0  0  0
 15 36  1  0  0  0  0
 16 17  1  0  0  0  0
 17 18  1  0  0  0  0
 17 37  1  0  0  0  0
 18 38  1  0  0  0  0
 18 39  1  0  0  0  0
 18 40  1  0  0  0  0
M  END
> <s_m_source_file>
AV-unprocessed.smi

> <i_m_source_file_index>
2445

> <i_lp_mmshare_version>
43012

> <i_f3d_flags>
0

> <s_epik_input>
W0NIM11jMVtjSF1uYyhzMSlbQ0BIXShbQ0gzXSlbQ0gyXVtOSF1DKD1PKVtOSF1bQ0BASF0yW0NIMl1bQ0gyXU9bQ0BIXTJbQ0gzXQ==

> <s_epik_cmdline>
J2VwaWtfcHl0aG9uJywgJy1waCcsICc3LjAnLCAnLXRuJywgJzgnLCAnLW1hJywgJzIwMCcsICctbWV0YWxfYmluZGluZycsICctaW1hZScsICc8aW5maWxlLm1hZT4nLCAnLW9tYWUnLCAnPG91dGZpbGUubWFlPic=

> <r_epik_Ionization_Penalty>
0.000649483

> <r_epik_Ionization_Penalty_Charging>
0

> <r_epik_Ionization_Penalty_Neutral>
0.000649483

> <r_epik_State_Penalty>
0.000379895

> <r_epik_Charging_Adjusted_Penalty>
0.000379895

> <i_epik_Tot_Q>
0

> <i_epik_Tot_abs_Q>
0

> <r_epik_Metal_State_Penalty>
-0

> <b_epik_Metal_Only>
0

> <s_lp_Force_Field>
OPLS_2005

> <r_lp_Energy>
6.16207

> <b_lp_Chiralities_Consistent>
1

> <s_lp_Variant>
AV-unprocessed.smi:2445-3

> <Gold.Version>
5.8.1

> <Gold.Id.Protein>
6NUR|6NUR_protein|mol2

> <Gold.PLP.Fitness>
37.5719

> <Gold.PLP.PLP>
-29.4500

> <Gold.PLP.part.hbond>
-2.0000

> <Gold.PLP.part.metal>
0.0000

> <Gold.PLP.part.buried>
-3.1000

> <Gold.PLP.part.nonpolar>
-25.0917

> <Gold.PLP.part.repulsive>
0.1437

> <Gold.PLP.ligand.clash>
0.0000

> <Gold.PLP.ligand.torsion>
0.3205

> <Gold.PLP.Chemscore.Hbond>
1.8800

> <Gold.PLP.Chemscore.CHOScore>
1.0000

> <Gold.PLP.Chemscore.Metal>
0.0000

> <Gold.Chemscore.Hbonds>
donor molecule, donor type, donor heavy atom, donor atom, acceptor molecule, acceptor atom, score
      L1  H     9    30       P1  7948  0.86
      L1  H    12    31       P1  7948  1.00
      L1  C     3    23       P1  8028  1.00

> <Gold.PLP.Chemscore.Internal.Correction>
0.1228

> <Gold.Rescore>
     Score         DG    S(hbond)    S(metal)    S(lipo)     H(rot)  DE(clash)    DE(int)     intcor
     15.57     -17.54       1.85        0.00      83.87       1.53       0.08       1.90       ----

> <Gold.Chemscore.Fitness>
15.5676

> <Gold.Chemscore.DG>
-17.5410

> <Gold.Chemscore.ZeroCoef>
-5.4800

> <Gold.Chemscore.Hbond>
1.8477

> <Gold.Chemscore.Metal>
0.0000

> <Gold.Chemscore.Lipo>
83.8731

> <Gold.Chemscore.Internal_Hbond>
0.0000

> <Gold.Chemscore.DEClash>
0.0756

> <Gold.Chemscore.DEInternal>
1.8978

> <Gold.Chemscore.Rot>
1.5325

> <Gold.Chemscore.Internal.Correction>
   9.000000E+99

> <Gold.Chemscore.Hbonds>
donor molecule, donor type, donor heavy atom, donor atom, acceptor molecule, acceptor atom, score
      L1  H     9    30       P1  7948  0.55
      L1  H    12    31       P1  7948  0.69

> <Gold.Chemscore.Hbond.Weighted>
-6.1712

> <Gold.Chemscore.Metal.Weighted>
-0.0000

> <Gold.Chemscore.Lipo.Weighted>
-9.8132

> <Gold.Chemscore.Internal_Hbond.Weighted>
0.0000

> <Gold.Chemscore.DEClash.Weighted>
0.0756

> <Gold.Chemscore.DEInternal.Weighted>
1.8978

> <Gold.Chemscore.Rot.Weighted>
3.9233

> <Gold.Chemscore.Internal.Correction.Weighted>
   9.000000E+99

> <Gold.Protein.RotatedTorsions>
[ 6907 6896 6895 6894 ] final  -55.24 input  -60.11 | X-H torsion
[ 7974 7965 7964 7962 ] final   52.09 input  175.53 | X-H torsion
[ 8008 7997 7996 7995 ] final  104.71 input   59.86 | X-H torsion
[ 10167 10162 10161 10158 ] final -172.23 input  -65.29 | X-H torsion
[ 10718 10713 10712 10709 ] final  -78.18 input   66.30 | X-H torsion
[ 10763 10752 10751 10750 ] final  -54.52 input  -60.55 | X-H torsion
[ 11005 11000 10999 10996 ] final  104.73 input  -57.11 | X-H torsion

> <Gold.Protein.ActiveResidues>
 VAL166  LYS551  ARG553  GLY616  TRP617  ASP618  TYR619  PRO620  LYS621  CYS622 
 ASP623  PHE694  ASN695  SER759  ASP760  ASP761  ALA762  ILE779  LEU786  VAL792 
 PHE793  MET794  SER795  GLU796  ALA797  LYS798  CYS799  TRP800  GLU811  SER814 

> <Gold.Protein.RotatedAtoms>
  150.8269  134.7504  159.6819 H   0  0  0  0  0  0  0  0  0  0  0  0  # atno 6907 bound_to 6896
  152.4378  134.5647  159.9914 H   0  0  0  0  0  0  0  0  0  0  0  0  # atno 6908 bound_to 6896
  151.5818  133.3339  159.3046 H   0  0  0  0  0  0  0  0  0  0  0  0  # atno 6909 bound_to 6896
  145.9848  139.4279  143.0110 H   0  0  0  0  0  0  0  0  0  0  0  0  # atno 7974 bound_to 7965
  156.1596  140.3143  155.8785 H   0  0  0  0  0  0  0  0  0  0  0  0  # atno 8008 bound_to 7997
  155.3808  140.0487  157.3060 H   0  0  0  0  0  0  0  0  0  0  0  0  # atno 8009 bound_to 7997
  154.5134  140.2173  155.9123 H   0  0  0  0  0  0  0  0  0  0  0  0  # atno 8010 bound_to 7997
  139.5756  144.1540  152.1446 H   0  0  0  0  0  0  0  0  0  0  0  0  # atno 10167 bound_to 10162
  156.0124  130.4511  150.3457 H   0  0  0  0  0  0  0  0  0  0  0  0  # atno 10718 bound_to 10713
  154.1762  135.6451  153.5022 H   0  0  0  0  0  0  0  0  0  0  0  0  # atno 10763 bound_to 10752
  153.0071  135.5395  154.6561 H   0  0  0  0  0  0  0  0  0  0  0  0  # atno 10764 bound_to 10752
  154.5914  135.2934  155.0604 H   0  0  0  0  0  0  0  0  0  0  0  0  # atno 10765 bound_to 10752
  139.8794  134.9310  156.5405 H   0  0  0  0  0  0  0  0  0  0  0  0  # atno 11005 bound_to 11000
  145.7716  140.9894  143.1146 LP  0  0  0  0  0  0  0  0  0  0  0  0  # atno 17320 bound_to 7965
  144.6871  139.9454  143.7476 LP  0  0  0  0  0  0  0  0  0  0  0  0  # atno 17321 bound_to 7965
  140.1082  144.5480  150.6943 LP  0  0  0  0  0  0  0  0  0  0  0  0  # atno 17342 bound_to 10162
  140.7039  143.2454  151.4784 LP  0  0  0  0  0  0  0  0  0  0  0  0  # atno 17343 bound_to 10162
  157.1551  131.0331  151.2867 LP  0  0  0  0  0  0  0  0  0  0  0  0  # atno 17370 bound_to 10713
  157.4359  130.7517  149.7029 LP  0  0  0  0  0  0  0  0  0  0  0  0  # atno 17371 bound_to 10713
  140.8314  133.8276  155.8987 LP  0  0  0  0  0  0  0  0  0  0  0  0  # atno 17394 bound_to 11000
  140.9325  134.2003  157.4854 LP  0  0  0  0  0  0  0  0  0  0  0  0  # atno 17395 bound_to 11000

$$$$
