#       Name:                AV-unprocessed.smi:160
#       Creating user name   scv26
#       Creation time:       Thu Mar 26 19:06:22 2020


#       File generated by GOLD software.
#

@<TRIPOS>MOLECULE
AV-unprocessed.smi:160
    41    42     1
SMALL
NO_CHARGES


@<TRIPOS>ATOM
      1 ****        -3.5053   1.9985   0.4591 N.am           1 S1                 0.0000
      2 ****        -3.9374   0.7345   0.4025 C.2            1 S1                 0.0000
      3 ****        -5.1326   0.4451   0.4282 O.2            1 S1                 0.0000
      4 ****        -2.8763  -0.3264   0.3060 C.2            1 S1                 0.0000
      5 ****        -3.2048  -1.6513   0.2517 N.2            1 S1                 0.0000
      6 ****        -1.9839  -2.1659   0.1798 C.2            1 S1                 0.0000
      7 ****        -1.0044  -1.2561   0.1833 N.pl3          1 S1                 0.0000
      8 ****         0.4820  -1.4475   0.1166 C.3            1 S1                 0.0000
      9 ****         1.0791  -0.5754   1.0305 O.3            1 S1                 0.0000
     10 ****         1.6378   0.5371   0.3388 C.3            1 S1                 0.0000
     11 ****         2.7194   1.2023   1.2035 C.3            1 S1                 0.0000
     12 ****         2.1244   2.0962   2.1200 O.3            1 S1                 0.0000
     13 ****         2.1832  -0.1378  -0.9205 C.3            1 S1                 0.0000
     14 ****         2.4726   0.7802  -1.9583 O.3            1 S1                 0.0000
     15 ****         1.0836  -1.1378  -1.2760 C.3            1 S1                 0.0000
     16 ****         0.1521  -0.6176  -2.2133 O.3            1 S1                 0.0000
     17 ****        -1.5767  -0.0285   0.2687 N.2            1 S1                 0.0000
     18 ****         0.6364  -2.4794   0.4341 H              1 S1                 0.0000
     19 ****         0.8558   1.2492   0.0683 H              1 S1                 0.0000
     20 ****         3.0935  -0.6855  -0.6712 H              1 S1                 0.0000
     21 ****         1.5107  -2.0502  -1.6934 H              1 S1                 0.0000
     22 ****        -4.1694   2.7556   0.5251 H              1 S1                 0.0000
     23 ****        -2.5133   2.1867   0.4356 H              1 S1                 0.0000
     24 ****        -1.7999  -3.2285   0.1204 H              1 S1                 0.0000
     25 ****         3.3209   0.4607   1.7299 H              1 S1                 0.0000
     26 ****         3.3964   1.7827   0.5760 H              1 S1                 0.0000
     27 ****         2.8085   2.5125   2.6216 H              1 S1                 0.0000
     28 ****         2.6924   0.2923  -2.7370 H              1 S1                 0.0000
     29 ****        -0.5435  -1.2465  -2.3300 H              1 S1                 0.0000
     30 ****        -5.8208   1.1678   0.4935 LP             1 S1                 0.0000
     31 ****        -5.4162  -0.5128   0.3838 LP             1 S1                 0.0000
     32 ****        -4.0987  -2.0995   0.2628 LP             1 S1                 0.0000
     33 ****         1.8028  -1.0567   1.5250 LP             1 S1                 0.0000
     34 ****         0.3905  -0.2515   1.6794 LP             1 S1                 0.0000
     35 ****         1.5148   1.5940   2.7333 LP             1 S1                 0.0000
     36 ****         1.6011   2.7890   1.6238 LP             1 S1                 0.0000
     37 ****         3.2447   1.3574  -1.6926 LP             1 S1                 0.0000
     38 ****         1.6726   1.3539  -2.1341 LP             1 S1                 0.0000
     39 ****         0.6094  -0.4555  -3.0877 LP             1 S1                 0.0000
     40 ****        -0.2258   0.2424  -1.8703 LP             1 S1                 0.0000
     41 ****        -1.1369   0.8692   0.2965 LP             1 S1                 0.0000
@<TRIPOS>BOND
    1    1    2 am    
    2    1   22 1     
    3    1   23 1     
    4    2    3 2     
    5    2    4 1     
    6    4   17 2     
    7    4    5 1     
    8    5    6 2     
    9    6    7 1     
   10    6   24 1     
   11    7    8 1     
   12    7   17 1     
   13    8   18 1     
   14    8   15 1     
   15    8    9 1     
   16    9   10 1     
   17   10   19 1     
   18   10   11 1     
   19   10   13 1     
   20   11   12 1     
   21   11   25 1     
   22   11   26 1     
   23   12   27 1     
   24   13   20 1     
   25   13   14 1     
   26   13   15 1     
   27   14   28 1     
   28   15   21 1     
   29   15   16 1     
   30   16   29 1     
   31    3   30 1     
   32    3   31 1     
   33    5   32 1     
   34    9   33 1     
   35    9   34 1     
   36   12   35 1     
   37   12   36 1     
   38   14   37 1     
   39   14   38 1     
   40   16   39 1     
   41   16   40 1     
   42   17   41 1     
@<TRIPOS>SUBSTRUCTURE
      1 S1             1
@<TRIPOS>SET
LONE_PAIRS      STATIC     ATOMS    <user>   **** ""
12 30 31 32 33 34 35 36 37 38 39 40 41
DONOR_HYDROGENS      STATIC     ATOMS    <user>   **** ""
5 22 23 27 28 29
ATOM$BLUE        STATIC     ATOMS    COLORGROUP SYSTEM
12 30 31 32 33 34 35 36 37 38 39 40 41
ATOM$RED        STATIC     ATOMS    COLORGROUP SYSTEM
5 22 23 27 28 29
