AV-unprocessed.smi:157|AV-procd|sdf|1307|dock7
  -GOLD-   2262018593D 1   1.00000     0.00000
 Structure written by MMmdl.
 36 38  0  0  0  0  0  0  0  0  2 V2000
  147.0764  131.6508  151.7526 O   0  0  0  0  0  0  0  0  0  0  0  0
  145.8222  131.0454  151.9833 C   0  0  0  0  0  0  0  0  0  0  0  0
  144.6931  132.0464  151.6933 C   0  0  1  0  0  0  0  0  0  0  0  0
  145.0875  133.3379  152.1447 O   0  0  0  0  0  0  0  0  0  0  0  0
  144.4312  134.2731  151.3632 C   0  0  1  0  0  0  0  0  0  0  0  0
  145.1471  135.5793  151.4800 N   0  0  0  0  0  0  0  0  0  0  0  0
  145.6631  136.2811  150.4503 C   0  0  0  0  0  0  0  0  0  0  0  0
  146.2408  137.4181  150.7994 N   0  3  0  0  0  0  0  0  0  0  0  0
  146.1123  137.5180  152.1686 C   0  0  0  0  0  0  0  0  0  0  0  0
  145.4368  136.3643  152.5756 C   0  0  0  0  0  0  0  0  0  0  0  0
  145.0498  135.9610  153.8638 N   0  0  0  0  0  0  0  0  0  0  0  0
  145.5403  136.4798  154.9420 C   0  0  0  0  0  0  0  0  0  0  0  0
  146.4192  137.5415  155.0772 N   0  0  0  0  0  0  0  0  0  0  0  0
  146.2554  138.7963  154.3653 C   0  0  0  0  0  0  0  0  0  0  0  0
  146.6465  138.7203  152.8833 C   0  0  1  0  0  0  0  0  0  0  0  0
  148.0510  138.8327  152.7805 O   0  0  0  0  0  0  0  0  0  0  0  0
  144.4865  133.7263  149.9433 C   0  0  0  0  0  0  0  0  0  0  0  0
  144.4043  132.2249  150.1852 C   0  0  2  0  0  0  0  0  0  0  0  0
  143.1108  131.7503  149.8675 O   0  0  0  0  0  0  0  0  0  0  0  0
  143.7787  131.7593  152.2172 H   0  0  0  0  0  0  0  0  0  0  0  0
  143.4165  134.4434  151.7279 H   0  0  0  0  0  0  0  0  0  0  0  0
  146.2400  139.6042  152.3907 H   0  0  0  0  0  0  0  0  0  0  0  0
  145.1336  131.7049  149.5622 H   0  0  0  0  0  0  0  0  0  0  0  0
  147.5726  131.1017  151.1650 H   0  0  0  0  0  0  0  0  0  0  0  0
  145.7171  130.1424  151.3809 H   0  0  0  0  0  0  0  0  0  0  0  0
  145.7959  130.7428  153.0306 H   0  0  0  0  0  0  0  0  0  0  0  0
  145.6056  135.9410  149.4318 H   0  0  0  0  0  0  0  0  0  0  0  0
  145.2475  136.0649  155.9075 H   0  0  0  0  0  0  0  0  0  0  0  0
  146.8784  137.6786  155.9665 H   0  0  0  0  0  0  0  0  0  0  0  0
  145.2034  139.0768  154.4382 H   0  0  0  0  0  0  0  0  0  0  0  0
  146.8128  139.5835  154.8743 H   0  0  0  0  0  0  0  0  0  0  0  0
  148.4193  137.9677  152.6864 H   0  0  0  0  0  0  0  0  0  0  0  0
  143.6829  134.1378  149.3309 H   0  0  0  0  0  0  0  0  0  0  0  0
  145.4429  133.9779  149.4841 H   0  0  0  0  0  0  0  0  0  0  0  0
  142.4904  132.1392  150.4649 H   0  0  0  0  0  0  0  0  0  0  0  0
  146.6797  138.0850  150.1774 H   0  0  0  0  0  0  0  0  0  0  0  0
  1  2  1  0  0  0  0
  1 24  1  0  0  0  0
  2  3  1  0  0  0  0
  2 25  1  0  0  0  0
  2 26  1  0  0  0  0
  3 20  1  0  0  0  0
  3 18  1  0  0  0  0
  3  4  1  0  0  0  0
  4  5  1  0  0  0  0
  5 21  1  0  0  0  0
  5  6  1  0  0  0  0
  5 17  1  0  0  0  0
  6 10  1  0  0  0  0
  6  7  1  0  0  0  0
  7  8  2  0  0  0  0
  7 27  1  0  0  0  0
  8  9  1  0  0  0  0
  8 36  1  0  0  0  0
  9 15  1  0  0  0  0
  9 10  2  0  0  0  0
 10 11  1  0  0  0  0
 11 12  2  0  0  0  0
 12 13  1  0  0  0  0
 12 28  1  0  0  0  0
 13 14  1  0  0  0  0
 13 29  1  0  0  0  0
 14 15  1  0  0  0  0
 14 30  1  0  0  0  0
 14 31  1  0  0  0  0
 15 22  1  0  0  0  0
 15 16  1  0  0  0  0
 16 32  1  0  0  0  0
 17 18  1  0  0  0  0
 17 33  1  0  0  0  0
 17 34  1  0  0  0  0
 18 23  1  0  0  0  0
 18 19  1  0  0  0  0
 19 35  1  0  0  0  0
M  CHG  1   8   1
M  END
> <s_m_source_file>
AV-unprocessed.smi

> <i_m_source_file_index>
157

> <i_lp_mmshare_version>
43012

> <i_f3d_flags>
0

> <s_epik_input>
W09IXVtDSDJdW0NASF0xT1tDQEhdKFtDSDJdW0NAQEhdMVtPSF0pbihbY0hdbjIpYyhjMjMpTj1bQ0hdW05IXVtDSDJdW0NASF0zW09IXQ==

> <s_epik_cmdline>
J2VwaWtfcHl0aG9uJywgJy1waCcsICc3LjAnLCAnLXRuJywgJzgnLCAnLW1hJywgJzIwMCcsICctbWV0YWxfYmluZGluZycsICctaW1hZScsICc8aW5maWxlLm1hZT4nLCAnLW9tYWUnLCAnPG91dGZpbGUubWFlPic=

> <r_epik_Ionization_Penalty>
1.68594

> <r_epik_Ionization_Penalty_Charging>
0

> <r_epik_Ionization_Penalty_Neutral>
1.68594

> <r_epik_State_Penalty>
1.79006

> <r_epik_Charging_Adjusted_Penalty>
1.79006

> <i_epik_Tot_Q>
1

> <i_epik_Tot_abs_Q>
1

> <r_epik_Metal_State_Penalty>
5.85324

> <b_epik_Metal_Only>
0

> <s_epik_Chemistry_Notes>
This compound has an imine and may undergo hydrolysis. This compound contains an acetal/aminal-like group ( X-CH(R)-Y where X, Y are N, S, or O) that may be acid/base labile, releasing an aldehyde.

> <s_lp_Force_Field>
OPLS_2005

> <r_lp_Energy>
53.8219

> <b_lp_Chiralities_Consistent>
1

> <s_lp_Variant>
AV-unprocessed.smi:157-17

> <Gold.Version>
5.8.1

> <Gold.Id.Protein>
6NUR|6NUR_protein|mol2

> <Gold.PLP.Fitness>
42.8534

> <Gold.PLP.PLP>
-31.2930

> <Gold.PLP.part.hbond>
-6.6201

> <Gold.PLP.part.metal>
0.0000

> <Gold.PLP.part.buried>
-3.3340

> <Gold.PLP.part.nonpolar>
-22.2012

> <Gold.PLP.part.repulsive>
0.2794

> <Gold.PLP.ligand.clash>
0.0000

> <Gold.PLP.ligand.torsion>
0.2304

> <Gold.PLP.Chemscore.Hbond>
3.0000

> <Gold.PLP.Chemscore.CHOScore>
1.0000

> <Gold.PLP.Chemscore.Metal>
0.0000

> <Gold.Chemscore.Hbonds>
donor molecule, donor type, donor heavy atom, donor atom, acceptor molecule, acceptor atom, score
      L1  H     1    24       P1 10747  0.98
      L1  H    16    32       P1  7948  1.00
      P1  H 10785 10796       L1    19  1.00
      L1  C     7    27       P1  7921  1.00

> <Gold.PLP.Chemscore.Internal.Correction>
0.0212

> <Gold.Rescore>
     Score         DG    S(hbond)    S(metal)    S(lipo)     H(rot)  DE(clash)    DE(int)     intcor
     10.34     -11.52       2.85        0.00      50.62       3.67       0.88       0.30       ----

> <Gold.Chemscore.Fitness>
10.3422

> <Gold.Chemscore.DG>
-11.5211

> <Gold.Chemscore.ZeroCoef>
-5.4800

> <Gold.Chemscore.Hbond>
2.8452

> <Gold.Chemscore.Metal>
0.0000

> <Gold.Chemscore.Lipo>
50.6231

> <Gold.Chemscore.Internal_Hbond>
0.0000

> <Gold.Chemscore.DEClash>
0.8813

> <Gold.Chemscore.DEInternal>
0.2977

> <Gold.Chemscore.Rot>
3.6659

> <Gold.Chemscore.Internal.Correction>
   9.000000E+99

> <Gold.Chemscore.Hbonds>
donor molecule, donor type, donor heavy atom, donor atom, acceptor molecule, acceptor atom, score
      L1  H     1    24       P1 10747  0.93
      L1  H    16    32       P1  7948  0.97
      P1  H 10785 10796       L1    19  0.77

> <Gold.Chemscore.Hbond.Weighted>
-9.5030

> <Gold.Chemscore.Metal.Weighted>
-0.0000

> <Gold.Chemscore.Lipo.Weighted>
-5.9229

> <Gold.Chemscore.Internal_Hbond.Weighted>
0.0000

> <Gold.Chemscore.DEClash.Weighted>
0.8813

> <Gold.Chemscore.DEInternal.Weighted>
0.2977

> <Gold.Chemscore.Rot.Weighted>
9.3848

> <Gold.Chemscore.Internal.Correction.Weighted>
   9.000000E+99

> <Gold.Protein.RotatedTorsions>
[ 6907 6896 6895 6894 ] final   33.91 input  -60.11 | X-H torsion
[ 7974 7965 7964 7962 ] final -115.89 input  175.53 | X-H torsion
[ 8008 7997 7996 7995 ] final   74.28 input   59.86 | X-H torsion
[ 10167 10162 10161 10158 ] final  176.04 input  -65.29 | X-H torsion
[ 10718 10713 10712 10709 ] final   55.75 input   66.30 | X-H torsion
[ 10763 10752 10751 10750 ] final  -54.60 input  -60.55 | X-H torsion
[ 11005 11000 10999 10996 ] final  169.18 input  -57.11 | X-H torsion

> <Gold.Protein.ActiveResidues>
 VAL166  LYS551  ARG553  GLY616  TRP617  ASP618  TYR619  PRO620  LYS621  CYS622 
 ASP623  PHE694  ASN695  SER759  ASP760  ASP761  ALA762  ILE779  LEU786  VAL792 
 PHE793  MET794  SER795  GLU796  ALA797  LYS798  CYS799  TRP800  GLU811  SER814 

> <Gold.Protein.RotatedAtoms>
  152.0951  134.9380  160.0570 H   0  0  0  0  0  0  0  0  0  0  0  0  # atno 6907 bound_to 6896
  152.0617  133.4060  159.4429 H   0  0  0  0  0  0  0  0  0  0  0  0  # atno 6908 bound_to 6896
  150.6838  134.3113  159.4791 H   0  0  0  0  0  0  0  0  0  0  0  0  # atno 6909 bound_to 6896
  145.1031  140.8564  143.3914 H   0  0  0  0  0  0  0  0  0  0  0  0  # atno 7974 bound_to 7965
  155.7960  140.3478  155.5376 H   0  0  0  0  0  0  0  0  0  0  0  0  # atno 8008 bound_to 7997
  155.8586  140.0967  157.1648 H   0  0  0  0  0  0  0  0  0  0  0  0  # atno 8009 bound_to 7997
  154.4011  140.1363  156.3920 H   0  0  0  0  0  0  0  0  0  0  0  0  # atno 8010 bound_to 7997
  139.5199  144.2962  152.0420 H   0  0  0  0  0  0  0  0  0  0  0  0  # atno 10167 bound_to 10162
  157.5372  130.8672  149.8771 H   0  0  0  0  0  0  0  0  0  0  0  0  # atno 10718 bound_to 10713
  154.1775  135.6449  153.5025 H   0  0  0  0  0  0  0  0  0  0  0  0  # atno 10763 bound_to 10752
  153.0068  135.5398  154.6549 H   0  0  0  0  0  0  0  0  0  0  0  0  # atno 10764 bound_to 10752
  154.5904  135.2933  155.0613 H   0  0  0  0  0  0  0  0  0  0  0  0  # atno 10765 bound_to 10752
  140.2951  134.7642  157.3870 H   0  0  0  0  0  0  0  0  0  0  0  0  # atno 11005 bound_to 11000
  145.0933  139.2874  143.5724 LP  0  0  0  0  0  0  0  0  0  0  0  0  # atno 17320 bound_to 7965
  146.3529  140.0477  142.8638 LP  0  0  0  0  0  0  0  0  0  0  0  0  # atno 17321 bound_to 7965
  140.2411  144.4268  150.6260 LP  0  0  0  0  0  0  0  0  0  0  0  0  # atno 17342 bound_to 10162
  140.6290  143.2185  151.6536 LP  0  0  0  0  0  0  0  0  0  0  0  0  # atno 17343 bound_to 10162
  156.0468  130.3726  150.1298 LP  0  0  0  0  0  0  0  0  0  0  0  0  # atno 17370 bound_to 10713
  156.9479  130.9765  151.3504 LP  0  0  0  0  0  0  0  0  0  0  0  0  # atno 17371 bound_to 10713
  140.1160  134.5282  155.8224 LP  0  0  0  0  0  0  0  0  0  0  0  0  # atno 17394 bound_to 11000
  141.2139  133.6740  156.6778 LP  0  0  0  0  0  0  0  0  0  0  0  0  # atno 17395 bound_to 11000

$$$$
