AV-unprocessed.smi:1382|AV-procd|sdf|5620|dock8
  -GOLD-   22720 5233D 1   1.00000     0.00000
 Structure written by MMmdl.
 44 45  0  0  0  0  0  0  0  0  1 V2000
  152.3098  144.8300  158.4140 C   0  0  0  0  0  0  0  0  0  0  0  0
  151.4731  143.8891  157.5371 C   0  0  0  0  0  0  0  0  0  0  0  0
  151.2855  142.4880  158.1393 C   0  0  0  0  0  0  0  0  0  0  0  0
  150.4124  141.5587  157.2756 C   0  0  0  0  0  0  0  0  0  0  0  0
  150.4836  140.1763  157.7058 N   0  0  0  0  0  0  0  0  0  0  0  0
  149.3653  139.4235  158.0766 C   0  0  0  0  0  0  0  0  0  0  0  0
  148.1202  140.0327  158.0142 N   0  0  0  0  0  0  0  0  0  0  0  0
  149.4774  138.1240  158.4845 C   0  0  0  0  0  0  0  0  0  0  0  0
  148.3555  137.3833  158.8990 N   0  0  0  0  0  0  0  0  0  0  0  0
  147.3074  137.1468  157.9020 C   0  0  0  0  0  0  0  0  0  0  0  0
  148.2319  136.8590  160.1456 C   0  0  0  0  0  0  0  0  0  0  0  0
  149.1401  136.9438  160.9747 O   0  0  0  0  0  0  0  0  0  0  0  0
  146.9209  136.1552  160.5603 C   0  0  2  0  0  0  0  0  0  0  0  0
  146.3786  136.5913  161.9355 C   0  0  0  0  0  0  0  0  0  0  0  0
  146.6879  135.4109  162.8328 C   0  0  0  0  0  0  0  0  0  0  0  0
  146.5798  134.2508  161.8547 C   0  0  0  0  0  0  0  0  0  0  0  0
  147.1890  134.7583  160.6778 O   0  0  0  0  0  0  0  0  0  0  0  0
  150.7969  137.4862  158.5922 C   0  0  0  0  0  0  0  0  0  0  0  0
  151.0116  136.3387  158.9803 O   0  0  0  0  0  0  0  0  0  0  0  0
  151.8699  138.2955  158.2279 N   0  0  0  0  0  0  0  0  0  0  0  0
  151.7798  139.6136  157.7951 C   0  0  0  0  0  0  0  0  0  0  0  0
  152.8100  140.2300  157.5212 O   0  0  0  0  0  0  0  0  0  0  0  0
  152.7939  137.8937  158.2945 H   0  0  0  0  0  0  0  0  0  0  0  0
  152.4639  145.7867  157.9143 H   0  0  0  0  0  0  0  0  0  0  0  0
  153.2914  144.4041  158.6235 H   0  0  0  0  0  0  0  0  0  0  0  0
  151.8203  145.0335  159.3663 H   0  0  0  0  0  0  0  0  0  0  0  0
  150.5003  144.3390  157.3356 H   0  0  0  0  0  0  0  0  0  0  0  0
  151.9662  143.7901  156.5694 H   0  0  0  0  0  0  0  0  0  0  0  0
  152.2686  142.0335  158.2676 H   0  0  0  0  0  0  0  0  0  0  0  0
  150.8610  142.5743  159.1402 H   0  0  0  0  0  0  0  0  0  0  0  0
  149.3613  141.8422  157.3054 H   0  0  0  0  0  0  0  0  0  0  0  0
  150.6847  141.6033  156.2197 H   0  0  0  0  0  0  0  0  0  0  0  0
  148.0111  140.9903  157.7117 H   0  0  0  0  0  0  0  0  0  0  0  0
  147.2715  139.5367  158.2457 H   0  0  0  0  0  0  0  0  0  0  0  0
  147.1908  136.0798  157.7083 H   0  0  0  0  0  0  0  0  0  0  0  0
  147.5353  137.6332  156.9526 H   0  0  0  0  0  0  0  0  0  0  0  0
  146.3505  137.5409  158.2469 H   0  0  0  0  0  0  0  0  0  0  0  0
  146.1318  136.3108  159.8246 H   0  0  0  0  0  0  0  0  0  0  0  0
  146.8020  137.5221  162.3152 H   0  0  0  0  0  0  0  0  0  0  0  0
  145.2988  136.7331  161.8731 H   0  0  0  0  0  0  0  0  0  0  0  0
  147.7064  135.4852  163.2162 H   0  0  0  0  0  0  0  0  0  0  0  0
  146.0061  135.3239  163.6788 H   0  0  0  0  0  0  0  0  0  0  0  0
  147.0799  133.3496  162.2097 H   0  0  0  0  0  0  0  0  0  0  0  0
  145.5356  134.0102  161.6497 H   0  0  0  0  0  0  0  0  0  0  0  0
  1  2  1  0  0  0  0
  1 24  1  0  0  0  0
  1 25  1  0  0  0  0
  1 26  1  0  0  0  0
  2  3  1  0  0  0  0
  2 27  1  0  0  0  0
  2 28  1  0  0  0  0
  3  4  1  0  0  0  0
  3 29  1  0  0  0  0
  3 30  1  0  0  0  0
  4  5  1  0  0  0  0
  4 31  1  0  0  0  0
  4 32  1  0  0  0  0
  5 21  1  0  0  0  0
  5  6  1  0  0  0  0
  6  7  1  0  0  0  0
  6  8  2  0  0  0  0
  7 33  1  0  0  0  0
  7 34  1  0  0  0  0
  8  9  1  0  0  0  0
  8 18  1  0  0  0  0
  9 10  1  0  0  0  0
  9 11  1  0  0  0  0
 10 35  1  0  0  0  0
 10 36  1  0  0  0  0
 10 37  1  0  0  0  0
 11 12  2  0  0  0  0
 11 13  1  0  0  0  0
 13 17  1  0  0  0  0
 13 14  1  0  0  0  0
 13 38  1  0  0  0  0
 14 15  1  0  0  0  0
 14 39  1  0  0  0  0
 14 40  1  0  0  0  0
 15 16  1  0  0  0  0
 15 41  1  0  0  0  0
 15 42  1  0  0  0  0
 16 17  1  0  0  0  0
 16 43  1  0  0  0  0
 16 44  1  0  0  0  0
 18 19  2  0  0  0  0
 18 20  1  0  0  0  0
 20 23  1  0  0  0  0
 20 21  1  0  0  0  0
 21 22  2  0  0  0  0
M  END
> <s_m_source_file>
AV-unprocessed.smi

> <i_m_source_file_index>
1382

> <i_lp_mmshare_version>
43012

> <i_f3d_flags>
0

> <s_epik_input>
W0NIM11bQ0gyXVtDSDJdW0NIMl1uMWMoW05IMl0pYyhjKD1PKVtuSF1jMT1PKU4oW0NIM10pQyg9TylbQ0BASF0yW0NIMl1bQ0gyXVtDSDJdTzI=

> <s_epik_cmdline>
J2VwaWtfcHl0aG9uJywgJy1waCcsICc3LjAnLCAnLXRuJywgJzgnLCAnLW1hJywgJzIwMCcsICctbWV0YWxfYmluZGluZycsICctaW1hZScsICc8aW5maWxlLm1hZT4nLCAnLW9tYWUnLCAnPG91dGZpbGUubWFlPic=

> <r_lp_tautomer_probability>
1

> <r_epik_Ionization_Penalty>
1.19634e-05

> <r_epik_Ionization_Penalty_Charging>
6.01811e-06

> <r_epik_Ionization_Penalty_Neutral>
5.94533e-06

> <r_epik_State_Penalty>
-0

> <r_epik_Charging_Adjusted_Penalty>
6.01811e-06

> <i_epik_Tot_Q>
0

> <i_epik_Tot_abs_Q>
0

> <r_epik_Metal_State_Penalty>
-0

> <b_epik_Metal_Only>
0

> <s_epik_Chemistry_Notes>
This compound has an imine and may undergo hydrolysis.

> <s_lp_Force_Field>
OPLS_2005

> <r_lp_Energy>
42.2822

> <b_lp_Chiralities_Consistent>
1

> <s_lp_Variant>
AV-unprocessed.smi:1382-1

> <Gold.Version>
5.8.1

> <Gold.Id.Protein>
6NUR|6NUR_protein|mol2

> <Gold.PLP.Fitness>
40.2304

> <Gold.PLP.PLP>
-32.8953

> <Gold.PLP.part.hbond>
-2.8693

> <Gold.PLP.part.metal>
0.0000

> <Gold.PLP.part.buried>
-2.0111

> <Gold.PLP.part.nonpolar>
-28.6661

> <Gold.PLP.part.repulsive>
0.6656

> <Gold.PLP.ligand.clash>
0.0000

> <Gold.PLP.ligand.torsion>
1.4451

> <Gold.PLP.Chemscore.Hbond>
2.6480

> <Gold.PLP.Chemscore.CHOScore>
0.0000

> <Gold.PLP.Chemscore.Metal>
0.0000

> <Gold.Chemscore.Hbonds>
donor molecule, donor type, donor heavy atom, donor atom, acceptor molecule, acceptor atom, score
      P1  H  6896  6908       L1    19  0.91
      P1  H  6931  6943       L1    12  0.85
      P1  H  7997  8010       L1    22  0.94

> <Gold.PLP.Chemscore.Internal.Correction>
2.2813

> <Gold.Rescore>
     Score         DG    S(hbond)    S(metal)    S(lipo)     H(rot)  DE(clash)    DE(int)     intcor
     14.77     -17.66       2.60        0.00      66.80       1.69       0.14       2.75       ----

> <Gold.Chemscore.Fitness>
14.7697

> <Gold.Chemscore.DG>
-17.6595

> <Gold.Chemscore.ZeroCoef>
-5.4800

> <Gold.Chemscore.Hbond>
2.6049

> <Gold.Chemscore.Metal>
0.0000

> <Gold.Chemscore.Lipo>
66.8048

> <Gold.Chemscore.Internal_Hbond>
0.0000

> <Gold.Chemscore.DEClash>
0.1373

> <Gold.Chemscore.DEInternal>
2.7525

> <Gold.Chemscore.Rot>
1.6942

> <Gold.Chemscore.Internal.Correction>
   9.000000E+99

> <Gold.Chemscore.Hbonds>
donor molecule, donor type, donor heavy atom, donor atom, acceptor molecule, acceptor atom, score
      P1  H  6896  6908       L1    19  0.84
      P1  H  6931  6943       L1    12  0.72
      P1  H  7997  8010       L1    22  0.92

> <Gold.Chemscore.Hbond.Weighted>
-8.7005

> <Gold.Chemscore.Metal.Weighted>
-0.0000

> <Gold.Chemscore.Lipo.Weighted>
-7.8162

> <Gold.Chemscore.Internal_Hbond.Weighted>
0.0000

> <Gold.Chemscore.DEClash.Weighted>
0.1373

> <Gold.Chemscore.DEInternal.Weighted>
2.7525

> <Gold.Chemscore.Rot.Weighted>
4.3372

> <Gold.Chemscore.Internal.Correction.Weighted>
   9.000000E+99

> <Gold.Protein.RotatedTorsions>
[ 6907 6896 6895 6894 ] final -153.59 input  -60.11 | X-H torsion
[ 7974 7965 7964 7962 ] final  -79.08 input  175.53 | X-H torsion
[ 8008 7997 7996 7995 ] final   59.60 input   59.86 | X-H torsion
[ 10167 10162 10161 10158 ] final   -7.67 input  -65.29 | X-H torsion
[ 10718 10713 10712 10709 ] final  178.86 input   66.30 | X-H torsion
[ 10763 10752 10751 10750 ] final  -75.07 input  -60.55 | X-H torsion
[ 11005 11000 10999 10996 ] final   68.86 input  -57.11 | X-H torsion

> <Gold.Protein.ActiveResidues>
 VAL166  LYS551  ARG553  GLY616  TRP617  ASP618  TYR619  PRO620  LYS621  CYS622 
 ASP623  PHE694  ASN695  SER759  ASP760  ASP761  ALA762  ILE779  LEU786  VAL792 
 PHE793  MET794  SER795  GLU796  ALA797  LYS798  CYS799  TRP800  GLU811  SER814 

> <Gold.Protein.RotatedAtoms>
  151.2449  133.4380  159.2608 H   0  0  0  0  0  0  0  0  0  0  0  0  # atno 6907 bound_to 6896
  151.0671  134.9774  159.8300 H   0  0  0  0  0  0  0  0  0  0  0  0  # atno 6908 bound_to 6896
  152.5407  134.2396  159.8909 H   0  0  0  0  0  0  0  0  0  0  0  0  # atno 6909 bound_to 6896
  145.5779  140.9454  143.1360 H   0  0  0  0  0  0  0  0  0  0  0  0  # atno 7974 bound_to 7965
  155.5688  140.3489  155.4510 H   0  0  0  0  0  0  0  0  0  0  0  0  # atno 8008 bound_to 7997
  156.0459  140.1306  157.0129 H   0  0  0  0  0  0  0  0  0  0  0  0  # atno 8009 bound_to 7997
  154.4412  140.1014  156.6291 H   0  0  0  0  0  0  0  0  0  0  0  0  # atno 8010 bound_to 7997
  140.7036  143.6055  150.8755 H   0  0  0  0  0  0  0  0  0  0  0  0  # atno 10167 bound_to 10162
  156.8843  130.9826  151.3058 H   0  0  0  0  0  0  0  0  0  0  0  0  # atno 10718 bound_to 10713
  154.4816  135.5843  153.6394 H   0  0  0  0  0  0  0  0  0  0  0  0  # atno 10763 bound_to 10752
  152.9848  135.6091  154.3239 H   0  0  0  0  0  0  0  0  0  0  0  0  # atno 10764 bound_to 10752
  154.3130  135.2845  155.2536 H   0  0  0  0  0  0  0  0  0  0  0  0  # atno 10765 bound_to 10752
  139.9687  134.6937  156.0491 H   0  0  0  0  0  0  0  0  0  0  0  0  # atno 11005 bound_to 11000
  144.7407  139.7457  143.7312 LP  0  0  0  0  0  0  0  0  0  0  0  0  # atno 17320 bound_to 7965
  146.1737  139.4898  142.9911 LP  0  0  0  0  0  0  0  0  0  0  0  0  # atno 17321 bound_to 7965
  139.9779  143.5984  152.2952 LP  0  0  0  0  0  0  0  0  0  0  0  0  # atno 17342 bound_to 10162
  139.6594  144.7662  151.1992 LP  0  0  0  0  0  0  0  0  0  0  0  0  # atno 17343 bound_to 10162
  157.6121  130.8591  149.8969 LP  0  0  0  0  0  0  0  0  0  0  0  0  # atno 17370 bound_to 10713
  156.0661  130.3692  150.0876 LP  0  0  0  0  0  0  0  0  0  0  0  0  # atno 17371 bound_to 10713
  141.1367  133.6573  156.3613 LP  0  0  0  0  0  0  0  0  0  0  0  0  # atno 17394 bound_to 11000
  140.5340  134.6185  157.5359 LP  0  0  0  0  0  0  0  0  0  0  0  0  # atno 17395 bound_to 11000

$$$$
