AV-unprocessed.smi:1958|AV-procd|sdf|7910|dock5
  -GOLD-   2272010 73D 1   1.00000     0.00000
 Structure written by MMmdl.
 47 48  0  0  0  0  0  0  0  0  3 V2000
  151.6590  144.9607  158.5329 C   0  0  0  0  0  0  0  0  0  0  0  0
  150.9948  144.1159  157.6098 O   0  0  0  0  0  0  0  0  0  0  0  0
  151.4388  142.7717  157.6863 C   0  0  0  0  0  0  0  0  0  0  0  0
  150.4753  141.8867  156.8817 C   0  0  0  0  0  0  0  0  0  0  0  0
  151.0702  140.5845  156.5649 N   0  0  0  0  0  0  0  0  0  0  0  0
  151.7646  140.0111  157.6162 N   0  0  0  0  0  0  0  0  0  0  0  0
  152.3591  138.8715  157.4638 C   0  0  0  0  0  0  0  0  0  0  0  0
  153.1450  138.2513  158.5757 C   0  0  0  0  0  0  0  0  0  0  0  0
  152.6638  137.2292  159.0807 O   0  0  0  0  0  0  0  0  0  0  0  0
  154.3273  138.8404  158.9286 N   0  5  0  0  0  0  0  0  0  0  0  0
  154.9125  138.8413  160.2725 C   0  0  0  0  0  0  0  0  0  0  0  0
  155.6799  140.1644  160.5387 C   0  0  2  0  0  0  0  0  0  0  0  0
  156.8895  140.0162  161.4947 C   0  0  0  0  0  0  0  0  0  0  0  0
  154.7372  141.2702  160.9057 N   0  3  0  0  0  0  0  0  0  0  0  0
  153.7036  141.6331  159.8972 C   0  0  0  0  0  0  0  0  0  0  0  0
  152.9618  142.9015  160.3424 C   0  0  0  0  0  0  0  0  0  0  0  0
  152.3650  142.6747  161.6138 O   0  0  0  0  0  0  0  0  0  0  0  0
  153.3341  142.3875  162.6150 C   0  0  0  0  0  0  0  0  0  0  0  0
  154.1143  141.1145  162.2426 C   0  0  0  0  0  0  0  0  0  0  0  0
  152.2949  138.1689  156.1900 C   0  0  0  0  0  0  0  0  0  0  0  0
  151.6046  138.7361  155.1768 C   0  0  0  0  0  0  0  0  0  0  0  0
  150.9311  140.0266  155.3250 C   0  0  0  0  0  0  0  0  0  0  0  0
  150.2978  140.5634  154.4163 O   0  0  0  0  0  0  0  0  0  0  0  0
  151.2867  145.9799  158.4307 H   0  0  0  0  0  0  0  0  0  0  0  0
  152.7344  144.9748  158.3519 H   0  0  0  0  0  0  0  0  0  0  0  0
  151.4809  144.6393  159.5599 H   0  0  0  0  0  0  0  0  0  0  0  0
  152.4498  142.6890  157.2841 H   0  0  0  0  0  0  0  0  0  0  0  0
  151.4710  142.4509  158.7288 H   0  0  0  0  0  0  0  0  0  0  0  0
  149.5431  141.7522  157.4329 H   0  0  0  0  0  0  0  0  0  0  0  0
  150.1955  142.4021  155.9608 H   0  0  0  0  0  0  0  0  0  0  0  0
  154.1457  138.7150  161.0369 H   0  0  0  0  0  0  0  0  0  0  0  0
  155.6042  138.0114  160.4250 H   0  0  0  0  0  0  0  0  0  0  0  0
  156.1159  140.4226  159.5727 H   0  0  0  0  0  0  0  0  0  0  0  0
  157.6135  139.2912  161.1186 H   0  0  0  0  0  0  0  0  0  0  0  0
  156.6016  139.6946  162.4971 H   0  0  0  0  0  0  0  0  0  0  0  0
  157.4223  140.9625  161.5925 H   0  0  0  0  0  0  0  0  0  0  0  0
  154.1588  141.8082  158.9225 H   0  0  0  0  0  0  0  0  0  0  0  0
  152.9881  140.8188  159.7777 H   0  0  0  0  0  0  0  0  0  0  0  0
  153.6403  143.7550  160.3871 H   0  0  0  0  0  0  0  0  0  0  0  0
  152.1810  143.1516  159.6242 H   0  0  0  0  0  0  0  0  0  0  0  0
  154.0106  143.2353  162.7335 H   0  0  0  0  0  0  0  0  0  0  0  0
  152.8257  142.2506  163.5695 H   0  0  0  0  0  0  0  0  0  0  0  0
  153.4507  140.2483  162.2385 H   0  0  0  0  0  0  0  0  0  0  0  0
  154.8821  140.9314  162.9952 H   0  0  0  0  0  0  0  0  0  0  0  0
  152.7766  137.2127  156.0472 H   0  0  0  0  0  0  0  0  0  0  0  0
  151.5464  138.2226  154.2282 H   0  0  0  0  0  0  0  0  0  0  0  0
  155.3356  142.0810  160.9823 H   0  0  0  0  0  0  0  0  0  0  0  0
  1  2  1  0  0  0  0
  1 24  1  0  0  0  0
  1 25  1  0  0  0  0
  1 26  1  0  0  0  0
  2  3  1  0  0  0  0
  3  4  1  0  0  0  0
  3 27  1  0  0  0  0
  3 28  1  0  0  0  0
  4  5  1  0  0  0  0
  4 29  1  0  0  0  0
  4 30  1  0  0  0  0
  5 22  1  0  0  0  0
  5  6  1  0  0  0  0
  6  7  2  0  0  0  0
  7  8  1  0  0  0  0
  7 20  1  0  0  0  0
  8  9  2  0  0  0  0
  8 10  1  0  0  0  0
 10 11  1  0  0  0  0
 11 12  1  0  0  0  0
 11 31  1  0  0  0  0
 11 32  1  0  0  0  0
 12 13  1  0  0  0  0
 12 14  1  0  0  0  0
 12 33  1  0  0  0  0
 13 34  1  0  0  0  0
 13 35  1  0  0  0  0
 13 36  1  0  0  0  0
 14 19  1  0  0  0  0
 14 15  1  0  0  0  0
 14 47  1  0  0  0  0
 15 16  1  0  0  0  0
 15 37  1  0  0  0  0
 15 38  1  0  0  0  0
 16 17  1  0  0  0  0
 16 39  1  0  0  0  0
 16 40  1  0  0  0  0
 17 18  1  0  0  0  0
 18 19  1  0  0  0  0
 18 41  1  0  0  0  0
 18 42  1  0  0  0  0
 19 43  1  0  0  0  0
 19 44  1  0  0  0  0
 20 21  2  0  0  0  0
 20 45  1  0  0  0  0
 21 22  1  0  0  0  0
 21 46  1  0  0  0  0
 22 23  2  0  0  0  0
M  CHG  1  10  -1
M  CHG  1  14   1
M  END
> <s_m_source_file>
AV-unprocessed.smi

> <i_m_source_file_index>
1958

> <i_lp_mmshare_version>
43012

> <i_f3d_flags>
0

> <s_epik_input>
W0NIM11PW0NIMl1bQ0gyXW4xbmMoW2NIXVtjSF1jMT1PKUMoPU8pW05IXVtDSDJdW0NASF0oW0NIM10pTjJbQ0gyXVtDSDJdT1tDSDJdW0NIMl0y

> <s_epik_cmdline>
J2VwaWtfcHl0aG9uJywgJy1waCcsICc3LjAnLCAnLXRuJywgJzgnLCAnLW1hJywgJzIwMCcsICctbWV0YWxfYmluZGluZycsICctaW1hZScsICc8aW5maWxlLm1hZT4nLCAnLW9tYWUnLCAnPG91dGZpbGUubWFlPic=

> <r_lp_tautomer_probability>
1

> <r_epik_Ionization_Penalty>
6.89388

> <r_epik_Ionization_Penalty_Charging>
6.89388

> <r_epik_Ionization_Penalty_Neutral>
1.08445e-11

> <r_epik_State_Penalty>
7.53214

> <r_epik_Charging_Adjusted_Penalty>
14.426

> <i_epik_Tot_Q>
0

> <i_epik_Tot_abs_Q>
2

> <r_epik_Metal_State_Penalty>
3.44743

> <b_epik_Metal_Only>
1

> <s_lp_Force_Field>
OPLS_2005

> <r_lp_Energy>
42.3217

> <b_lp_Chiralities_Consistent>
1

> <s_lp_Variant>
AV-unprocessed.smi:1958-5

> <Gold.Version>
5.8.1

> <Gold.Id.Protein>
6NUR|6NUR_protein|mol2

> <Gold.PLP.Fitness>
45.5957

> <Gold.PLP.PLP>
-41.4836

> <Gold.PLP.part.hbond>
-3.0000

> <Gold.PLP.part.metal>
0.0000

> <Gold.PLP.part.buried>
-3.6777

> <Gold.PLP.part.nonpolar>
-33.7063

> <Gold.PLP.part.repulsive>
0.6354

> <Gold.PLP.ligand.clash>
0.0000

> <Gold.PLP.ligand.torsion>
2.3927

> <Gold.PLP.Chemscore.Hbond>
2.8500

> <Gold.PLP.Chemscore.CHOScore>
0.0000

> <Gold.PLP.Chemscore.Metal>
0.0000

> <Gold.Chemscore.Hbonds>
donor molecule, donor type, donor heavy atom, donor atom, acceptor molecule, acceptor atom, score
      P1  H  7989  7998       L1    23  0.67
      P1  H  7997  8008       L1    10  1.59

> <Gold.PLP.Chemscore.Internal.Correction>
0.3475

> <Gold.Rescore>
     Score         DG    S(hbond)    S(metal)    S(lipo)     H(rot)  DE(clash)    DE(int)     intcor
     12.52     -15.59       1.08        0.00     100.93       2.07       0.52       2.54       ----

> <Gold.Chemscore.Fitness>
12.5213

> <Gold.Chemscore.DG>
-15.5912

> <Gold.Chemscore.ZeroCoef>
-5.4800

> <Gold.Chemscore.Hbond>
1.0761

> <Gold.Chemscore.Metal>
0.0000

> <Gold.Chemscore.Lipo>
100.9348

> <Gold.Chemscore.Internal_Hbond>
0.0000

> <Gold.Chemscore.DEClash>
0.5250

> <Gold.Chemscore.DEInternal>
2.5449

> <Gold.Chemscore.Rot>
2.0673

> <Gold.Chemscore.Internal.Correction>
   9.000000E+99

> <Gold.Chemscore.Hbonds>
donor molecule, donor type, donor heavy atom, donor atom, acceptor molecule, acceptor atom, score
      P1  H  6896  6908       L1     9  0.01
      P1  H  7989  7998       L1    23  0.08
      P1  H  7997  8008       L1    10  0.55

> <Gold.Chemscore.Hbond.Weighted>
-3.5941

> <Gold.Chemscore.Metal.Weighted>
-0.0000

> <Gold.Chemscore.Lipo.Weighted>
-11.8094

> <Gold.Chemscore.Internal_Hbond.Weighted>
0.0000

> <Gold.Chemscore.DEClash.Weighted>
0.5250

> <Gold.Chemscore.DEInternal.Weighted>
2.5449

> <Gold.Chemscore.Rot.Weighted>
5.2923

> <Gold.Chemscore.Internal.Correction.Weighted>
   9.000000E+99

> <Gold.Protein.RotatedTorsions>
[ 6907 6896 6895 6894 ] final  -83.38 input  -60.11 | X-H torsion
[ 7974 7965 7964 7962 ] final   -1.00 input  175.53 | X-H torsion
[ 8008 7997 7996 7995 ] final -114.64 input   59.86 | X-H torsion
[ 10167 10162 10161 10158 ] final  -79.96 input  -65.29 | X-H torsion
[ 10718 10713 10712 10709 ] final  168.73 input   66.30 | X-H torsion
[ 10763 10752 10751 10750 ] final   45.30 input  -60.55 | X-H torsion
[ 11005 11000 10999 10996 ] final -121.02 input  -57.11 | X-H torsion

> <Gold.Protein.ActiveResidues>
 VAL166  LYS551  ARG553  GLY616  TRP617  ASP618  TYR619  PRO620  LYS621  CYS622 
 ASP623  PHE694  ASN695  SER759  ASP760  ASP761  ALA762  ILE779  LEU786  VAL792 
 PHE793  MET794  SER795  GLU796  ALA797  LYS798  CYS799  TRP800  GLU811  SER814 

> <Gold.Protein.RotatedAtoms>
  150.6886  134.3521  159.4913 H   0  0  0  0  0  0  0  0  0  0  0  0  # atno 6907 bound_to 6896
  152.1360  134.9096  160.0565 H   0  0  0  0  0  0  0  0  0  0  0  0  # atno 6908 bound_to 6896
  152.0247  133.3878  159.4309 H   0  0  0  0  0  0  0  0  0  0  0  0  # atno 6909 bound_to 6896
  146.2422  140.1354  142.8337 H   0  0  0  0  0  0  0  0  0  0  0  0  # atno 7974 bound_to 7965
  155.0395  140.0392  157.2504 H   0  0  0  0  0  0  0  0  0  0  0  0  # atno 8008 bound_to 7997
  154.7228  140.2715  155.6502 H   0  0  0  0  0  0  0  0  0  0  0  0  # atno 8009 bound_to 7997
  156.2821  140.2699  156.1905 H   0  0  0  0  0  0  0  0  0  0  0  0  # atno 8010 bound_to 7997
  140.4546  143.2472  151.8438 H   0  0  0  0  0  0  0  0  0  0  0  0  # atno 10167 bound_to 10162
  157.0329  131.0264  151.2739 H   0  0  0  0  0  0  0  0  0  0  0  0  # atno 10718 bound_to 10713
  152.9827  135.6044  154.3415 H   0  0  0  0  0  0  0  0  0  0  0  0  # atno 10763 bound_to 10752
  154.3111  135.2771  155.2567 H   0  0  0  0  0  0  0  0  0  0  0  0  # atno 10764 bound_to 10752
  154.4776  135.5925  153.6422 H   0  0  0  0  0  0  0  0  0  0  0  0  # atno 10765 bound_to 10752
  141.0101  134.0277  157.3425 H   0  0  0  0  0  0  0  0  0  0  0  0  # atno 11005 bound_to 11000
  145.0291  140.8856  143.5120 LP  0  0  0  0  0  0  0  0  0  0  0  0  # atno 17320 bound_to 7965
  145.1415  139.2569  143.5488 LP  0  0  0  0  0  0  0  0  0  0  0  0  # atno 17321 bound_to 7965
  139.4800  144.5080  151.8972 LP  0  0  0  0  0  0  0  0  0  0  0  0  # atno 17342 bound_to 10162
  140.4166  144.2298  150.5887 LP  0  0  0  0  0  0  0  0  0  0  0  0  # atno 17343 bound_to 10162
  157.5164  130.7970  149.7760 LP  0  0  0  0  0  0  0  0  0  0  0  0  # atno 17370 bound_to 10713
  156.0063  130.3854  150.2418 LP  0  0  0  0  0  0  0  0  0  0  0  0  # atno 17371 bound_to 10713
  139.9085  135.0185  156.7590 LP  0  0  0  0  0  0  0  0  0  0  0  0  # atno 17394 bound_to 11000
  140.6748  133.9527  155.7877 LP  0  0  0  0  0  0  0  0  0  0  0  0  # atno 17395 bound_to 11000

$$$$
