AV-unprocessed.smi:1762|AV-procd|sdf|7105|dock6
  -GOLD-   22720 8323D 1   1.00000     0.00000
 Structure written by MMmdl.
 53 54  0  0  0  0  0  0  0  0  2 V2000
  150.5545  141.1634  155.6210 C   0  0  0  0  0  0  0  0  0  0  0  0
  149.1029  140.9216  155.1919 C   0  0  2  0  0  0  0  0  0  0  0  0
  148.8106  139.4312  154.9374 C   0  0  0  0  0  0  0  0  0  0  0  0
  147.4485  139.1962  154.4458 N   0  0  0  0  0  0  0  0  0  0  0  0
  147.1342  137.7506  154.2663 C   0  0  2  0  0  0  0  0  0  0  0  0
  145.8814  137.5056  153.3921 C   0  0  0  0  0  0  0  0  0  0  0  0
  144.7617  137.8064  153.8079 O   0  0  0  0  0  0  0  0  0  0  0  0
  146.0894  136.9848  152.1721 N   0  0  0  0  0  0  0  0  0  0  0  0
  145.0433  136.7065  151.1959 C   0  0  0  0  0  0  0  0  0  0  0  0
  144.0955  135.5985  151.6856 C   0  0  0  0  0  0  0  0  0  0  0  0
  144.5389  134.2216  151.2317 C   0  0  0  0  0  0  0  0  0  0  0  0
  145.7567  133.6488  151.6583 C   0  0  0  0  0  0  0  0  0  0  0  0
  146.1137  132.3652  151.1950 C   0  0  0  0  0  0  0  0  0  0  0  0
  145.2470  131.6831  150.3157 C   0  0  0  0  0  0  0  0  0  0  0  0
  144.0442  132.3033  149.9202 C   0  0  0  0  0  0  0  0  0  0  0  0
  143.7375  133.5343  150.3856 N   0  3  0  0  0  0  0  0  0  0  0  0
  147.0544  136.9193  155.5912 C   0  0  0  0  0  0  0  0  0  0  0  0
  146.9707  135.3967  155.3593 C   0  0  0  0  0  0  0  0  0  0  0  0
  145.9365  137.3769  156.5488 C   0  0  0  0  0  0  0  0  0  0  0  0
  147.2409  140.0172  153.2390 C   0  0  0  0  0  0  0  0  0  0  0  0
  147.5630  141.5104  153.4485 C   0  0  1  0  0  0  0  0  0  0  0  0
  146.4980  142.2534  154.2741 C   0  0  0  0  0  0  0  0  0  0  0  0
  148.8681  141.6645  154.0009 O   0  0  0  0  0  0  0  0  0  0  0  0
  150.7840  140.6336  156.5458 H   0  0  0  0  0  0  0  0  0  0  0  0
  150.7378  142.2244  155.7926 H   0  0  0  0  0  0  0  0  0  0  0  0
  151.2545  140.8238  154.8571 H   0  0  0  0  0  0  0  0  0  0  0  0
  148.4501  141.2895  155.9841 H   0  0  0  0  0  0  0  0  0  0  0  0
  149.5358  139.0283  154.2282 H   0  0  0  0  0  0  0  0  0  0  0  0
  148.9761  138.9163  155.8813 H   0  0  0  0  0  0  0  0  0  0  0  0
  147.9674  137.3220  153.7050 H   0  0  0  0  0  0  0  0  0  0  0  0
  147.0389  136.7687  151.9042 H   0  0  0  0  0  0  0  0  0  0  0  0
  144.4855  137.6276  151.0245 H   0  0  0  0  0  0  0  0  0  0  0  0
  145.4922  136.4322  150.2394 H   0  0  0  0  0  0  0  0  0  0  0  0
  144.0352  135.6054  152.7749 H   0  0  0  0  0  0  0  0  0  0  0  0
  143.0835  135.7836  151.3228 H   0  0  0  0  0  0  0  0  0  0  0  0
  146.4104  134.1851  152.3313 H   0  0  0  0  0  0  0  0  0  0  0  0
  147.0409  131.9090  151.5106 H   0  0  0  0  0  0  0  0  0  0  0  0
  145.5017  130.6987  149.9505 H   0  0  0  0  0  0  0  0  0  0  0  0
  143.3235  131.8550  149.2518 H   0  0  0  0  0  0  0  0  0  0  0  0
  147.9968  137.0492  156.1208 H   0  0  0  0  0  0  0  0  0  0  0  0
  146.0130  135.0979  154.9323 H   0  0  0  0  0  0  0  0  0  0  0  0
  147.0864  134.8547  156.2983 H   0  0  0  0  0  0  0  0  0  0  0  0
  147.7592  135.0563  154.6874 H   0  0  0  0  0  0  0  0  0  0  0  0
  144.9450  137.1953  156.1349 H   0  0  0  0  0  0  0  0  0  0  0  0
  146.0129  138.4403  156.7761 H   0  0  0  0  0  0  0  0  0  0  0  0
  145.9947  136.8405  157.4961 H   0  0  0  0  0  0  0  0  0  0  0  0
  147.8660  139.6328  152.4310 H   0  0  0  0  0  0  0  0  0  0  0  0
  146.2133  139.9615  152.8816 H   0  0  0  0  0  0  0  0  0  0  0  0
  147.5918  141.9872  152.4682 H   0  0  0  0  0  0  0  0  0  0  0  0
  145.5350  142.2432  153.7630 H   0  0  0  0  0  0  0  0  0  0  0  0
  146.7805  143.2953  154.4250 H   0  0  0  0  0  0  0  0  0  0  0  0
  146.3488  141.8011  155.2543 H   0  0  0  0  0  0  0  0  0  0  0  0
  142.8617  133.9640  150.0863 H   0  0  0  0  0  0  0  0  0  0  0  0
  1  2  1  0  0  0  0
  1 24  1  0  0  0  0
  1 25  1  0  0  0  0
  1 26  1  0  0  0  0
  2 23  1  0  0  0  0
  2  3  1  0  0  0  0
  2 27  1  0  0  0  0
  3  4  1  0  0  0  0
  3 28  1  0  0  0  0
  3 29  1  0  0  0  0
  4  5  1  0  0  0  0
  4 20  1  0  0  0  0
  5  6  1  0  0  0  0
  5 17  1  0  0  0  0
  5 30  1  0  0  0  0
  6  7  2  0  0  0  0
  6  8  1  0  0  0  0
  8  9  1  0  0  0  0
  8 31  1  0  0  0  0
  9 10  1  0  0  0  0
  9 32  1  0  0  0  0
  9 33  1  0  0  0  0
 10 11  1  0  0  0  0
 10 34  1  0  0  0  0
 10 35  1  0  0  0  0
 11 16  1  0  0  0  0
 11 12  2  0  0  0  0
 12 13  1  0  0  0  0
 12 36  1  0  0  0  0
 13 14  2  0  0  0  0
 13 37  1  0  0  0  0
 14 15  1  0  0  0  0
 14 38  1  0  0  0  0
 15 16  2  0  0  0  0
 15 39  1  0  0  0  0
 16 53  1  0  0  0  0
 17 18  1  0  0  0  0
 17 19  1  0  0  0  0
 17 40  1  0  0  0  0
 18 41  1  0  0  0  0
 18 42  1  0  0  0  0
 18 43  1  0  0  0  0
 19 44  1  0  0  0  0
 19 45  1  0  0  0  0
 19 46  1  0  0  0  0
 20 21  1  0  0  0  0
 20 47  1  0  0  0  0
 20 48  1  0  0  0  0
 21 22  1  0  0  0  0
 21 23  1  0  0  0  0
 21 49  1  0  0  0  0
 22 50  1  0  0  0  0
 22 51  1  0  0  0  0
 22 52  1  0  0  0  0
M  CHG  1  16   1
M  END
> <s_m_source_file>
AV-unprocessed.smi

> <i_m_source_file_index>
1762

> <i_lp_mmshare_version>
43012

> <i_f3d_flags>
0

> <s_epik_input>
W0NIM11bQ0BASF0xW0NIMl1OKFtDSDJdW0NASF0oTzEpW0NIM10pW0NAQEhdKFtDSF0oW0NIM10pW0NIM10pQyg9TylbTkhdW0NIMl1bQ0gyXWMyW2NIXVtjSF1bY0hdW2NIXW4y

> <s_epik_cmdline>
J2VwaWtfcHl0aG9uJywgJy1waCcsICc3LjAnLCAnLXRuJywgJzgnLCAnLW1hJywgJzIwMCcsICctbWV0YWxfYmluZGluZycsICctaW1hZScsICc8aW5maWxlLm1hZT4nLCAnLW9tYWUnLCAnPG91dGZpbGUubWFlPic=

> <r_epik_Ionization_Penalty>
1.86475

> <r_epik_Ionization_Penalty_Charging>
1.85347

> <r_epik_Ionization_Penalty_Neutral>
0.0112771

> <r_epik_State_Penalty>
1.99714

> <r_epik_Charging_Adjusted_Penalty>
3.85061

> <i_epik_Tot_Q>
1

> <i_epik_Tot_abs_Q>
1

> <r_epik_Metal_State_Penalty>
2.02271

> <b_epik_Metal_Only>
0

> <s_lp_Force_Field>
OPLS_2005

> <r_lp_Energy>
35.8241

> <b_lp_Chiralities_Consistent>
1

> <s_lp_Variant>
AV-unprocessed.smi:1762-7

> <Gold.Version>
5.8.1

> <Gold.Id.Protein>
6NUR|6NUR_protein|mol2

> <Gold.PLP.Fitness>
44.3610

> <Gold.PLP.PLP>
-34.6487

> <Gold.PLP.part.hbond>
-3.0000

> <Gold.PLP.part.metal>
0.0000

> <Gold.PLP.part.buried>
-1.1322

> <Gold.PLP.part.nonpolar>
-30.4711

> <Gold.PLP.part.repulsive>
0.5394

> <Gold.PLP.ligand.clash>
0.0000

> <Gold.PLP.ligand.torsion>
0.5865

> <Gold.PLP.Chemscore.Hbond>
3.5301

> <Gold.PLP.Chemscore.CHOScore>
0.0000

> <Gold.PLP.Chemscore.Metal>
0.0000

> <Gold.Chemscore.Hbonds>
donor molecule, donor type, donor heavy atom, donor atom, acceptor molecule, acceptor atom, score
      L1  H     8    31       P1  7948  1.00
      L1  H    16    53       P1 10186  2.00
      P1  H  8011  8017       L1    23  0.51

> <Gold.PLP.Chemscore.Internal.Correction>
0.2952

> <Gold.Rescore>
     Score         DG    S(hbond)    S(metal)    S(lipo)     H(rot)  DE(clash)    DE(int)     intcor
     17.28     -19.55       2.12        0.00      97.20       1.72       1.62       0.64       ----

> <Gold.Chemscore.Fitness>
17.2834

> <Gold.Chemscore.DG>
-19.5481

> <Gold.Chemscore.ZeroCoef>
-5.4800

> <Gold.Chemscore.Hbond>
2.1233

> <Gold.Chemscore.Metal>
0.0000

> <Gold.Chemscore.Lipo>
97.2032

> <Gold.Chemscore.Internal_Hbond>
0.0000

> <Gold.Chemscore.DEClash>
1.6214

> <Gold.Chemscore.DEInternal>
0.6433

> <Gold.Chemscore.Rot>
1.7174

> <Gold.Chemscore.Internal.Correction>
   9.000000E+99

> <Gold.Chemscore.Hbonds>
donor molecule, donor type, donor heavy atom, donor atom, acceptor molecule, acceptor atom, score
      L1  H     8    31       P1  7948  0.98
      L1  H    16    53       P1 10186  0.97
      P1  H  8011  8017       L1    23  0.10

> <Gold.Chemscore.Hbond.Weighted>
-7.0919

> <Gold.Chemscore.Metal.Weighted>
-0.0000

> <Gold.Chemscore.Lipo.Weighted>
-11.3728

> <Gold.Chemscore.Internal_Hbond.Weighted>
0.0000

> <Gold.Chemscore.DEClash.Weighted>
1.6214

> <Gold.Chemscore.DEInternal.Weighted>
0.6433

> <Gold.Chemscore.Rot.Weighted>
4.3966

> <Gold.Chemscore.Internal.Correction.Weighted>
   9.000000E+99

> <Gold.Protein.RotatedTorsions>
[ 6907 6896 6895 6894 ] final -145.69 input  -60.11 | X-H torsion
[ 7974 7965 7964 7962 ] final  133.42 input  175.53 | X-H torsion
[ 8008 7997 7996 7995 ] final   98.38 input   59.86 | X-H torsion
[ 10167 10162 10161 10158 ] final   67.97 input  -65.29 | X-H torsion
[ 10718 10713 10712 10709 ] final   16.04 input   66.30 | X-H torsion
[ 10763 10752 10751 10750 ] final   60.45 input  -60.55 | X-H torsion
[ 11005 11000 10999 10996 ] final   50.44 input  -57.11 | X-H torsion

> <Gold.Protein.ActiveResidues>
 VAL166  LYS551  ARG553  GLY616  TRP617  ASP618  TYR619  PRO620  LYS621  CYS622 
 ASP623  PHE694  ASN695  SER759  ASP760  ASP761  ALA762  ILE779  LEU786  VAL792 
 PHE793  MET794  SER795  GLU796  ALA797  LYS798  CYS799  TRP800  GLU811  SER814 

> <Gold.Protein.RotatedAtoms>
  151.1312  133.5035  159.2598 H   0  0  0  0  0  0  0  0  0  0  0  0  # atno 6907 bound_to 6896
  151.1755  135.0337  159.8780 H   0  0  0  0  0  0  0  0  0  0  0  0  # atno 6908 bound_to 6896
  152.5460  134.1170  159.8436 H   0  0  0  0  0  0  0  0  0  0  0  0  # atno 6909 bound_to 6896
  144.9867  139.4449  143.5360 H   0  0  0  0  0  0  0  0  0  0  0  0  # atno 7974 bound_to 7965
  156.0998  140.3244  155.7927 H   0  0  0  0  0  0  0  0  0  0  0  0  # atno 8008 bound_to 7997
  155.4855  140.0557  157.2978 H   0  0  0  0  0  0  0  0  0  0  0  0  # atno 8009 bound_to 7997
  154.4690  140.2002  156.0059 H   0  0  0  0  0  0  0  0  0  0  0  0  # atno 8010 bound_to 7997
  140.0838  144.5048  150.7144 H   0  0  0  0  0  0  0  0  0  0  0  0  # atno 10167 bound_to 10162
  157.0622  130.6313  149.5788 H   0  0  0  0  0  0  0  0  0  0  0  0  # atno 10718 bound_to 10713
  152.9921  135.5536  154.5875 H   0  0  0  0  0  0  0  0  0  0  0  0  # atno 10763 bound_to 10752
  154.5243  135.2809  155.1237 H   0  0  0  0  0  0  0  0  0  0  0  0  # atno 10764 bound_to 10752
  154.2578  135.6387  153.5316 H   0  0  0  0  0  0  0  0  0  0  0  0  # atno 10765 bound_to 10752
  140.1017  134.5072  155.8756 H   0  0  0  0  0  0  0  0  0  0  0  0  # atno 11005 bound_to 11000
  146.3421  139.9173  142.8771 LP  0  0  0  0  0  0  0  0  0  0  0  0  # atno 17320 bound_to 7965
  145.2344  140.9985  143.3972 LP  0  0  0  0  0  0  0  0  0  0  0  0  # atno 17321 bound_to 7965
  140.7064  143.2471  151.4713 LP  0  0  0  0  0  0  0  0  0  0  0  0  # atno 17342 bound_to 10162
  139.5764  144.1809  152.1909 LP  0  0  0  0  0  0  0  0  0  0  0  0  # atno 17343 bound_to 10162
  155.9975  130.5047  150.7537 LP  0  0  0  0  0  0  0  0  0  0  0  0  # atno 17370 bound_to 10713
  157.4946  131.0913  151.0387 LP  0  0  0  0  0  0  0  0  0  0  0  0  # atno 17371 bound_to 10713
  141.2107  133.6698  156.6531 LP  0  0  0  0  0  0  0  0  0  0  0  0  # atno 17394 bound_to 11000
  140.3211  134.8007  157.4253 LP  0  0  0  0  0  0  0  0  0  0  0  0  # atno 17395 bound_to 11000

$$$$
