AV-unprocessed.smi:1240|AV-procd|sdf|5208|dock7
  -GOLD-   22720 4303D 1   1.00000     0.00000
 Structure written by MMmdl.
 49 51  0  0  0  0  0  0  0  0  3 V2000
  144.7611  137.5022  151.9644 O   0  0  0  0  0  0  0  0  0  0  0  0
  145.9124  137.0864  151.8365 C   0  0  0  0  0  0  0  0  0  0  0  0
  146.9966  137.8573  152.0017 N   0  0  0  0  0  0  0  0  0  0  0  0
  146.9716  139.2739  152.3483 C   0  0  0  0  0  0  0  0  0  0  0  0
  146.7079  139.5538  153.8564 C   0  0  1  0  0  0  0  0  0  0  0  0
  147.9502  139.3401  154.7681 C   0  0  2  0  0  0  0  0  0  0  0  0
  149.1994  140.1236  154.3903 C   0  0  0  0  0  0  0  0  0  0  0  0
  150.3322  139.3288  155.0396 C   0  0  0  0  0  0  0  0  0  0  0  0
  149.8210  138.0212  155.2707 O   0  0  0  0  0  0  0  0  0  0  0  0
  148.5167  137.9180  154.7210 C   0  0  0  0  0  0  0  0  0  0  0  0
  146.1474  140.9219  154.0736 N   0  3  0  0  0  0  0  0  0  0  0  0
  145.6797  141.2259  155.4500 C   0  0  0  0  0  0  0  0  0  0  0  0
  144.9647  142.5869  155.4700 C   0  0  0  0  0  0  0  0  0  0  0  0
  145.8480  143.5940  154.9902 O   0  0  0  0  0  0  0  0  0  0  0  0
  146.2509  143.3581  153.6460 C   0  0  0  0  0  0  0  0  0  0  0  0
  147.0019  142.0185  153.5562 C   0  0  0  0  0  0  0  0  0  0  0  0
  146.2542  135.8287  151.5079 N   0  0  0  0  0  0  0  0  0  0  0  0
  145.4043  134.7133  151.2753 C   0  0  0  0  0  0  0  0  0  0  0  0
  146.0056  133.5124  150.8370 C   0  0  0  0  0  0  0  0  0  0  0  0
  145.2037  132.3752  150.6113 C   0  0  0  0  0  0  0  0  0  0  0  0
  143.8721  132.4385  150.8245 N   0  3  0  0  0  0  0  0  0  0  0  0
  143.2541  133.5589  151.2564 C   0  0  0  0  0  0  0  0  0  0  0  0
  144.0039  134.7278  151.4995 C   0  0  0  0  0  0  0  0  0  0  0  0
  147.9061  137.4377  151.8723 H   0  0  0  0  0  0  0  0  0  0  0  0
  147.9354  139.6872  152.0514 H   0  0  0  0  0  0  0  0  0  0  0  0
  146.2248  139.7642  151.7229 H   0  0  0  0  0  0  0  0  0  0  0  0
  145.9446  138.8562  154.2035 H   0  0  0  0  0  0  0  0  0  0  0  0
  147.6994  139.5784  155.8025 H   0  0  0  0  0  0  0  0  0  0  0  0
  149.3305  140.1297  153.3072 H   0  0  0  0  0  0  0  0  0  0  0  0
  149.1826  141.1572  154.7359 H   0  0  0  0  0  0  0  0  0  0  0  0
  151.2175  139.2954  154.4039 H   0  0  0  0  0  0  0  0  0  0  0  0
  150.6193  139.7661  155.9963 H   0  0  0  0  0  0  0  0  0  0  0  0
  147.9146  137.2025  155.2818 H   0  0  0  0  0  0  0  0  0  0  0  0
  148.5950  137.5642  153.6916 H   0  0  0  0  0  0  0  0  0  0  0  0
  144.9983  140.4524  155.8033 H   0  0  0  0  0  0  0  0  0  0  0  0
  146.5236  141.2544  156.1401 H   0  0  0  0  0  0  0  0  0  0  0  0
  144.0574  142.5604  154.8642 H   0  0  0  0  0  0  0  0  0  0  0  0
  144.6620  142.8375  156.4867 H   0  0  0  0  0  0  0  0  0  0  0  0
  145.3803  143.3612  152.9878 H   0  0  0  0  0  0  0  0  0  0  0  0
  146.8974  144.1738  153.3221 H   0  0  0  0  0  0  0  0  0  0  0  0
  147.9283  142.0779  154.1278 H   0  0  0  0  0  0  0  0  0  0  0  0
  147.2759  141.8237  152.5189 H   0  0  0  0  0  0  0  0  0  0  0  0
  147.2379  135.6628  151.3524 H   0  0  0  0  0  0  0  0  0  0  0  0
  147.0716  133.4603  150.6681 H   0  0  0  0  0  0  0  0  0  0  0  0
  145.5851  131.4233  150.2712 H   0  0  0  0  0  0  0  0  0  0  0  0
  142.1859  133.4860  151.4001 H   0  0  0  0  0  0  0  0  0  0  0  0
  143.4927  135.6057  151.8641 H   0  0  0  0  0  0  0  0  0  0  0  0
  145.3193  140.9514  153.4959 H   0  0  0  0  0  0  0  0  0  0  0  0
  143.3099  131.6037  150.6568 H   0  0  0  0  0  0  0  0  0  0  0  0
  1  2  2  0  0  0  0
  2  3  1  0  0  0  0
  2 17  1  0  0  0  0
  3  4  1  0  0  0  0
  3 24  1  0  0  0  0
  4  5  1  0  0  0  0
  4 25  1  0  0  0  0
  4 26  1  0  0  0  0
  5  6  1  0  0  0  0
  5 11  1  0  0  0  0
  5 27  1  0  0  0  0
  6 10  1  0  0  0  0
  6  7  1  0  0  0  0
  6 28  1  0  0  0  0
  7  8  1  0  0  0  0
  7 29  1  0  0  0  0
  7 30  1  0  0  0  0
  8  9  1  0  0  0  0
  8 31  1  0  0  0  0
  8 32  1  0  0  0  0
  9 10  1  0  0  0  0
 10 33  1  0  0  0  0
 10 34  1  0  0  0  0
 11 16  1  0  0  0  0
 11 12  1  0  0  0  0
 11 48  1  0  0  0  0
 12 13  1  0  0  0  0
 12 35  1  0  0  0  0
 12 36  1  0  0  0  0
 13 14  1  0  0  0  0
 13 37  1  0  0  0  0
 13 38  1  0  0  0  0
 14 15  1  0  0  0  0
 15 16  1  0  0  0  0
 15 39  1  0  0  0  0
 15 40  1  0  0  0  0
 16 41  1  0  0  0  0
 16 42  1  0  0  0  0
 17 18  1  0  0  0  0
 17 43  1  0  0  0  0
 18 23  1  0  0  0  0
 18 19  2  0  0  0  0
 19 20  1  0  0  0  0
 19 44  1  0  0  0  0
 20 21  2  0  0  0  0
 20 45  1  0  0  0  0
 21 22  1  0  0  0  0
 21 49  1  0  0  0  0
 22 23  2  0  0  0  0
 22 46  1  0  0  0  0
 23 47  1  0  0  0  0
M  CHG  1  11   1
M  CHG  1  21   1
M  END
> <s_m_source_file>
AV-unprocessed.smi

> <i_m_source_file_index>
1240

> <i_lp_mmshare_version>
43012

> <i_f3d_flags>
0

> <s_epik_input>
W2NIXTFbY0hdbltjSF1bY0hdYzFbTkhdQyg9TylbTkhdW0NIMl1bQ0BIXShbQ0BASF0yW0NIMl1bQ0gyXU9bQ0gyXTIpTjNbQ0gyXVtDSDJdT1tDSDJdW0NIMl0z

> <s_epik_cmdline>
J2VwaWtfcHl0aG9uJywgJy1waCcsICc3LjAnLCAnLXRuJywgJzgnLCAnLW1hJywgJzIwMCcsICctbWV0YWxfYmluZGluZycsICctaW1hZScsICc8aW5maWxlLm1hZT4nLCAnLW9tYWUnLCAnPG91dGZpbGUubWFlPic=

> <r_epik_Ionization_Penalty>
2.08105

> <r_epik_Ionization_Penalty_Charging>
2.08103

> <r_epik_Ionization_Penalty_Neutral>
2.04144e-05

> <r_epik_State_Penalty>
2.15598

> <r_epik_Charging_Adjusted_Penalty>
4.23701

> <i_epik_Tot_Q>
2

> <i_epik_Tot_abs_Q>
2

> <r_epik_Metal_State_Penalty>
2.25158

> <b_epik_Metal_Only>
0

> <s_lp_Force_Field>
OPLS_2005

> <r_lp_Energy>
49.9195

> <b_lp_Chiralities_Consistent>
1

> <s_lp_Variant>
AV-unprocessed.smi:1240-14

> <Gold.Version>
5.8.1

> <Gold.Id.Protein>
6NUR|6NUR_protein|mol2

> <Gold.PLP.Fitness>
47.7790

> <Gold.PLP.PLP>
-36.6706

> <Gold.PLP.part.hbond>
-3.0000

> <Gold.PLP.part.metal>
0.0000

> <Gold.PLP.part.buried>
-7.3537

> <Gold.PLP.part.nonpolar>
-29.5926

> <Gold.PLP.part.repulsive>
2.3159

> <Gold.PLP.ligand.clash>
0.0000

> <Gold.PLP.ligand.torsion>
0.4241

> <Gold.PLP.Chemscore.Hbond>
3.9040

> <Gold.PLP.Chemscore.CHOScore>
0.0000

> <Gold.PLP.Chemscore.Metal>
0.0000

> <Gold.Chemscore.Hbonds>
donor molecule, donor type, donor heavy atom, donor atom, acceptor molecule, acceptor atom, score
      L1  H     3    24       P1  7948  1.00
      L1  H    11    48       P1 10175  2.00
      L1  H    17    43       P1  7948  0.90

> <Gold.PLP.Chemscore.Internal.Correction>
0.2446

> <Gold.Rescore>
     Score         DG    S(hbond)    S(metal)    S(lipo)     H(rot)  DE(clash)    DE(int)     intcor
     17.09     -19.80       2.79        0.00      80.81       1.74       0.54       2.17       ----

> <Gold.Chemscore.Fitness>
17.0853

> <Gold.Chemscore.DG>
-19.7955

> <Gold.Chemscore.ZeroCoef>
-5.4800

> <Gold.Chemscore.Hbond>
2.7907

> <Gold.Chemscore.Metal>
0.0000

> <Gold.Chemscore.Lipo>
80.8067

> <Gold.Chemscore.Internal_Hbond>
0.0000

> <Gold.Chemscore.DEClash>
0.5389

> <Gold.Chemscore.DEInternal>
2.1713

> <Gold.Chemscore.Rot>
1.7421

> <Gold.Chemscore.Internal.Correction>
   9.000000E+99

> <Gold.Chemscore.Hbonds>
donor molecule, donor type, donor heavy atom, donor atom, acceptor molecule, acceptor atom, score
      L1  H     3    24       P1  7948  0.95
      L1  H    11    48       P1 10175  0.68
      L1  H    17    43       P1  7948  0.85

> <Gold.Chemscore.Hbond.Weighted>
-9.3208

> <Gold.Chemscore.Metal.Weighted>
-0.0000

> <Gold.Chemscore.Lipo.Weighted>
-9.4544

> <Gold.Chemscore.Internal_Hbond.Weighted>
0.0000

> <Gold.Chemscore.DEClash.Weighted>
0.5389

> <Gold.Chemscore.DEInternal.Weighted>
2.1713

> <Gold.Chemscore.Rot.Weighted>
4.4597

> <Gold.Chemscore.Internal.Correction.Weighted>
   9.000000E+99

> <Gold.Protein.RotatedTorsions>
[ 6907 6896 6895 6894 ] final  163.10 input  -60.11 | X-H torsion
[ 7974 7965 7964 7962 ] final -165.99 input  175.53 | X-H torsion
[ 8008 7997 7996 7995 ] final  102.07 input   59.86 | X-H torsion
[ 10167 10162 10161 10158 ] final   58.17 input  -65.29 | X-H torsion
[ 10718 10713 10712 10709 ] final  -24.17 input   66.30 | X-H torsion
[ 10763 10752 10751 10750 ] final  -27.88 input  -60.55 | X-H torsion
[ 11005 11000 10999 10996 ] final  -26.53 input  -57.11 | X-H torsion

> <Gold.Protein.ActiveResidues>
 VAL166  LYS551  ARG553  GLY616  TRP617  ASP618  TYR619  PRO620  LYS621  CYS622 
 ASP623  PHE694  ASN695  SER759  ASP760  ASP761  ALA762  ILE779  LEU786  VAL792 
 PHE793  MET794  SER795  GLU796  ALA797  LYS798  CYS799  TRP800  GLU811  SER814 

> <Gold.Protein.RotatedAtoms>
  151.9303  133.3609  159.3928 H   0  0  0  0  0  0  0  0  0  0  0  0  # atno 6907 bound_to 6896
  150.7018  134.4544  159.5360 H   0  0  0  0  0  0  0  0  0  0  0  0  # atno 6908 bound_to 6896
  152.2183  134.8437  160.0540 H   0  0  0  0  0  0  0  0  0  0  0  0  # atno 6909 bound_to 6896
  144.7256  140.2732  143.6247 H   0  0  0  0  0  0  0  0  0  0  0  0  # atno 7974 bound_to 7965
  156.1359  140.3187  155.8420 H   0  0  0  0  0  0  0  0  0  0  0  0  # atno 8008 bound_to 7997
  155.4246  140.0514  157.3040 H   0  0  0  0  0  0  0  0  0  0  0  0  # atno 8009 bound_to 7997
  154.4936  140.2102  155.9507 H   0  0  0  0  0  0  0  0  0  0  0  0  # atno 8010 bound_to 7997
  140.1901  144.4094  150.6575 H   0  0  0  0  0  0  0  0  0  0  0  0  # atno 10167 bound_to 10162
  156.4812  130.4545  149.6810 H   0  0  0  0  0  0  0  0  0  0  0  0  # atno 10718 bound_to 10713
  153.7393  135.6933  153.4970 H   0  0  0  0  0  0  0  0  0  0  0  0  # atno 10763 bound_to 10752
  153.2080  135.4413  155.0345 H   0  0  0  0  0  0  0  0  0  0  0  0  # atno 10764 bound_to 10752
  154.8226  135.3430  154.6919 H   0  0  0  0  0  0  0  0  0  0  0  0  # atno 10765 bound_to 10752
  140.9037  133.7507  156.0578 H   0  0  0  0  0  0  0  0  0  0  0  0  # atno 11005 bound_to 11000
  145.8022  139.1969  143.2041 LP  0  0  0  0  0  0  0  0  0  0  0  0  # atno 17320 bound_to 7965
  146.0667  140.7913  142.9708 LP  0  0  0  0  0  0  0  0  0  0  0  0  # atno 17321 bound_to 7965
  140.6461  143.2214  151.6182 LP  0  0  0  0  0  0  0  0  0  0  0  0  # atno 17342 bound_to 10162
  139.5259  144.3060  152.1033 LP  0  0  0  0  0  0  0  0  0  0  0  0  # atno 17343 bound_to 10162
  156.3520  130.7437  151.2397 LP  0  0  0  0  0  0  0  0  0  0  0  0  # atno 17370 bound_to 10713
  157.7483  131.0374  150.4456 LP  0  0  0  0  0  0  0  0  0  0  0  0  # atno 17371 bound_to 10713
  140.8198  134.3303  157.5385 LP  0  0  0  0  0  0  0  0  0  0  0  0  # atno 17394 bound_to 11000
  139.8746  134.9302  156.3497 LP  0  0  0  0  0  0  0  0  0  0  0  0  # atno 17395 bound_to 11000

$$$$
