AV-unprocessed.smi:1508|AV-procd|sdf|6089|dock1
  -GOLD-   22720 6213D 1   1.00000     0.00000
 Structure written by MMmdl.
 37 38  0  0  0  0  0  0  0  0  3 V2000
  148.6891  131.5065  154.6349 C   0  0  0  0  0  0  0  0  0  0  0  0
  148.9389  133.0082  154.4227 C   0  0  0  0  0  0  0  0  0  0  0  0
  147.6629  133.8927  154.4646 C   0  0  1  0  0  0  0  0  0  0  0  0
  147.8410  135.1641  155.3359 C   0  0  0  0  0  0  0  0  0  0  0  0
  149.2285  135.6199  155.3667 N   0  0  0  0  0  0  0  0  0  0  0  0
  149.9699  135.8541  156.4589 C   0  0  0  0  0  0  0  0  0  0  0  0
  149.5008  135.6548  157.5813 O   0  0  0  0  0  0  0  0  0  0  0  0
  151.2101  136.3133  156.1802 N   0  5  0  0  0  0  0  0  0  0  0  0
  151.7414  137.3005  156.9202 C   0  0  0  0  0  0  0  0  0  0  0  0
  152.9904  137.7517  156.7223 N   0  0  0  0  0  0  0  0  0  0  0  0
  153.3462  138.7730  157.5927 N   0  0  0  0  0  0  0  0  0  0  0  0
  152.3538  139.0622  158.4339 C   0  0  0  0  0  0  0  0  0  0  0  0
  150.8964  138.1105  158.2423 S   0  0  0  0  0  0  0  0  0  0  0  0
  147.1968  134.2250  153.0858 N   0  3  0  0  0  0  0  0  0  0  0  0
  147.0024  133.0612  152.1836 C   0  0  0  0  0  0  0  0  0  0  0  0
  145.7923  133.3725  151.2914 C   0  0  0  0  0  0  0  0  0  0  0  0
  145.4653  134.8353  151.5691 C   0  0  0  0  0  0  0  0  0  0  0  0
  145.9641  135.0368  152.9950 C   0  0  0  0  0  0  0  0  0  0  0  0
  149.6269  130.9527  154.5863 H   0  0  0  0  0  0  0  0  0  0  0  0
  148.0296  131.0933  153.8732 H   0  0  0  0  0  0  0  0  0  0  0  0
  148.2414  131.3070  155.6083 H   0  0  0  0  0  0  0  0  0  0  0  0
  149.6552  133.3493  155.1700 H   0  0  0  0  0  0  0  0  0  0  0  0
  149.4535  133.1463  153.4716 H   0  0  0  0  0  0  0  0  0  0  0  0
  146.8743  133.2989  154.9300 H   0  0  0  0  0  0  0  0  0  0  0  0
  147.1629  135.9519  155.0051 H   0  0  0  0  0  0  0  0  0  0  0  0
  147.5753  134.9582  156.3724 H   0  0  0  0  0  0  0  0  0  0  0  0
  149.6671  135.7952  154.4743 H   0  0  0  0  0  0  0  0  0  0  0  0
  152.4822  139.8374  159.1742 H   0  0  0  0  0  0  0  0  0  0  0  0
  147.9053  132.9072  151.5919 H   0  0  0  0  0  0  0  0  0  0  0  0
  146.8127  132.1454  152.7455 H   0  0  0  0  0  0  0  0  0  0  0  0
  145.9912  133.1856  150.2356 H   0  0  0  0  0  0  0  0  0  0  0  0
  144.9497  132.7449  151.5849 H   0  0  0  0  0  0  0  0  0  0  0  0
  146.0254  135.4769  150.8871 H   0  0  0  0  0  0  0  0  0  0  0  0
  144.4053  135.0639  151.4531 H   0  0  0  0  0  0  0  0  0  0  0  0
  145.2220  134.6615  153.7021 H   0  0  0  0  0  0  0  0  0  0  0  0
  146.1490  136.0884  153.2158 H   0  0  0  0  0  0  0  0  0  0  0  0
  147.9225  134.7857  152.6624 H   0  0  0  0  0  0  0  0  0  0  0  0
  1  2  1  0  0  0  0
  1 19  1  0  0  0  0
  1 20  1  0  0  0  0
  1 21  1  0  0  0  0
  2  3  1  0  0  0  0
  2 22  1  0  0  0  0
  2 23  1  0  0  0  0
  3  4  1  0  0  0  0
  3 14  1  0  0  0  0
  3 24  1  0  0  0  0
  4  5  1  0  0  0  0
  4 25  1  0  0  0  0
  4 26  1  0  0  0  0
  5  6  1  0  0  0  0
  5 27  1  0  0  0  0
  6  7  2  0  0  0  0
  6  8  1  0  0  0  0
  8  9  1  0  0  0  0
  9 13  1  0  0  0  0
  9 10  2  0  0  0  0
 10 11  1  0  0  0  0
 11 12  2  0  0  0  0
 12 13  1  0  0  0  0
 12 28  1  0  0  0  0
 14 18  1  0  0  0  0
 14 15  1  0  0  0  0
 14 37  1  0  0  0  0
 15 16  1  0  0  0  0
 15 29  1  0  0  0  0
 15 30  1  0  0  0  0
 16 17  1  0  0  0  0
 16 31  1  0  0  0  0
 16 32  1  0  0  0  0
 17 18  1  0  0  0  0
 17 33  1  0  0  0  0
 17 34  1  0  0  0  0
 18 35  1  0  0  0  0
 18 36  1  0  0  0  0
M  CHG  1   8  -1
M  CHG  1  14   1
M  END
> <s_m_source_file>
AV-unprocessed.smi

> <i_m_source_file_index>
1508

> <i_lp_mmshare_version>
43012

> <i_f3d_flags>
0

> <s_epik_input>
W0NIMl0xW0NIMl1bQ0gyXVtDSDJdTjFbQ0BIXShbQ0gyXVtDSDNdKVtDSDJdW05IXUMoPU8pW05IXWMybm5bY0hdczI=

> <s_epik_cmdline>
J2VwaWtfcHl0aG9uJywgJy1waCcsICc3LjAnLCAnLXRuJywgJzgnLCAnLW1hJywgJzIwMCcsICctbWV0YWxfYmluZGluZycsICctaW1hZScsICc8aW5maWxlLm1hZT4nLCAnLW9tYWUnLCAnPG91dGZpbGUubWFlPic=

> <r_lp_tautomer_probability>
1

> <r_epik_Ionization_Penalty>
3.98086

> <r_epik_Ionization_Penalty_Charging>
3.94833

> <r_epik_Ionization_Penalty_Neutral>
0.032525

> <r_epik_State_Penalty>
3.94643

> <r_epik_Charging_Adjusted_Penalty>
7.89477

> <i_epik_Tot_Q>
0

> <i_epik_Tot_abs_Q>
2

> <r_epik_Metal_State_Penalty>
0.605555

> <b_epik_Metal_Only>
1

> <s_lp_Force_Field>
OPLS_2005

> <r_lp_Energy>
25.5937

> <b_lp_Chiralities_Consistent>
1

> <s_lp_Variant>
AV-unprocessed.smi:1508-4

> <Gold.Version>
5.8.1

> <Gold.Id.Protein>
6NUR|6NUR_protein|mol2

> <Gold.PLP.Fitness>
38.3473

> <Gold.PLP.PLP>
-24.1215

> <Gold.PLP.part.hbond>
-4.0463

> <Gold.PLP.part.metal>
0.0000

> <Gold.PLP.part.buried>
-3.7796

> <Gold.PLP.part.nonpolar>
-16.5825

> <Gold.PLP.part.repulsive>
0.0562

> <Gold.PLP.ligand.clash>
0.0000

> <Gold.PLP.ligand.torsion>
1.4278

> <Gold.PLP.Chemscore.Hbond>
5.6423

> <Gold.PLP.Chemscore.CHOScore>
0.0000

> <Gold.PLP.Chemscore.Metal>
0.0000

> <Gold.Chemscore.Hbonds>
donor molecule, donor type, donor heavy atom, donor atom, acceptor molecule, acceptor atom, score
      L1  H    14    37       P1  7948  2.00
      P1  H  7997  8010       L1    11  1.00
      P1  H 10752 10764       L1     8  0.20

> <Gold.PLP.Chemscore.Internal.Correction>
0.1546

> <Gold.Rescore>
     Score         DG    S(hbond)    S(metal)    S(lipo)     H(rot)  DE(clash)    DE(int)     intcor
     14.94     -16.69       3.28        0.00      42.65       1.86       0.03       1.72       ----

> <Gold.Chemscore.Fitness>
14.9388

> <Gold.Chemscore.DG>
-16.6851

> <Gold.Chemscore.ZeroCoef>
-5.4800

> <Gold.Chemscore.Hbond>
3.2845

> <Gold.Chemscore.Metal>
0.0000

> <Gold.Chemscore.Lipo>
42.6489

> <Gold.Chemscore.Internal_Hbond>
0.0000

> <Gold.Chemscore.DEClash>
0.0310

> <Gold.Chemscore.DEInternal>
1.7154

> <Gold.Chemscore.Rot>
1.8575

> <Gold.Chemscore.Internal.Correction>
   9.000000E+99

> <Gold.Chemscore.Hbonds>
donor molecule, donor type, donor heavy atom, donor atom, acceptor molecule, acceptor atom, score
      L1  H    14    37       P1  7948  0.82
      P1  H  7997  8010       L1    11  0.92
      P1  H 10752 10764       L1     8  0.04

> <Gold.Chemscore.Hbond.Weighted>
-10.9703

> <Gold.Chemscore.Metal.Weighted>
-0.0000

> <Gold.Chemscore.Lipo.Weighted>
-4.9899

> <Gold.Chemscore.Internal_Hbond.Weighted>
0.0000

> <Gold.Chemscore.DEClash.Weighted>
0.0310

> <Gold.Chemscore.DEInternal.Weighted>
1.7154

> <Gold.Chemscore.Rot.Weighted>
4.7551

> <Gold.Chemscore.Internal.Correction.Weighted>
   9.000000E+99

> <Gold.Protein.RotatedTorsions>
[ 6907 6896 6895 6894 ] final   33.34 input  -60.11 | X-H torsion
[ 7974 7965 7964 7962 ] final   81.62 input  175.53 | X-H torsion
[ 8008 7997 7996 7995 ] final   23.24 input   59.86 | X-H torsion
[ 10167 10162 10161 10158 ] final  -57.41 input  -65.29 | X-H torsion
[ 10718 10713 10712 10709 ] final  -38.96 input   66.30 | X-H torsion
[ 10763 10752 10751 10750 ] final  -29.04 input  -60.55 | X-H torsion
[ 11005 11000 10999 10996 ] final  140.16 input  -57.11 | X-H torsion

> <Gold.Protein.ActiveResidues>
 VAL166  LYS551  ARG553  GLY616  TRP617  ASP618  TYR619  PRO620  LYS621  CYS622 
 ASP623  PHE694  ASN695  SER759  ASP760  ASP761  ALA762  ILE779  LEU786  VAL792 
 PHE793  MET794  SER795  GLU796  ALA797  LYS798  CYS799  TRP800  GLU811  SER814 

> <Gold.Protein.RotatedAtoms>
  152.0871  134.9432  160.0572 H   0  0  0  0  0  0  0  0  0  0  0  0  # atno 6907 bound_to 6896
  152.0698  133.4096  159.4462 H   0  0  0  0  0  0  0  0  0  0  0  0  # atno 6908 bound_to 6896
  150.6836  134.3024  159.4755 H   0  0  0  0  0  0  0  0  0  0  0  0  # atno 6909 bound_to 6896
  145.6358  139.2414  143.2059 H   0  0  0  0  0  0  0  0  0  0  0  0  # atno 7974 bound_to 7965
  154.9779  140.3098  155.4959 H   0  0  0  0  0  0  0  0  0  0  0  0  # atno 8008 bound_to 7997
  156.2957  140.2272  156.4815 H   0  0  0  0  0  0  0  0  0  0  0  0  # atno 8009 bound_to 7997
  154.7816  140.0445  157.1120 H   0  0  0  0  0  0  0  0  0  0  0  0  # atno 8010 bound_to 7997
  140.6260  143.2438  151.5363 H   0  0  0  0  0  0  0  0  0  0  0  0  # atno 10167 bound_to 10162
  156.2978  130.4236  149.8173 H   0  0  0  0  0  0  0  0  0  0  0  0  # atno 10718 bound_to 10713
  153.7582  135.6921  153.4931 H   0  0  0  0  0  0  0  0  0  0  0  0  # atno 10763 bound_to 10752
  153.1956  135.4455  155.0203 H   0  0  0  0  0  0  0  0  0  0  0  0  # atno 10764 bound_to 10752
  154.8163  135.3400  154.7099 H   0  0  0  0  0  0  0  0  0  0  0  0  # atno 10765 bound_to 10752
  140.0307  134.9353  157.0657 H   0  0  0  0  0  0  0  0  0  0  0  0  # atno 11005 bound_to 11000
  146.1321  140.7172  142.9407 LP  0  0  0  0  0  0  0  0  0  0  0  0  # atno 17320 bound_to 7965
  144.7176  140.4264  143.7032 LP  0  0  0  0  0  0  0  0  0  0  0  0  # atno 17321 bound_to 7965
  139.5480  144.2470  152.1478 LP  0  0  0  0  0  0  0  0  0  0  0  0  # atno 17342 bound_to 10162
  140.1701  144.4943  150.6584 LP  0  0  0  0  0  0  0  0  0  0  0  0  # atno 17343 bound_to 10162
  156.5563  130.8364  151.3315 LP  0  0  0  0  0  0  0  0  0  0  0  0  # atno 17370 bound_to 10713
  157.7360  130.9771  150.2112 LP  0  0  0  0  0  0  0  0  0  0  0  0  # atno 17371 bound_to 10713
  140.4230  134.1860  155.7165 LP  0  0  0  0  0  0  0  0  0  0  0  0  # atno 17394 bound_to 11000
  141.1829  133.8375  157.1192 LP  0  0  0  0  0  0  0  0  0  0  0  0  # atno 17395 bound_to 11000

$$$$
