AV-unprocessed.smi:624|AV-procd|sdf|3099|dock10
  -GOLD-   22720 0 23D 1   1.00000     0.00000
 Structure written by MMmdl.
 30 32  0  0  0  0  0  0  0  0  1 V2000
  152.0190  140.1377  158.5968 O   0  0  0  0  0  0  0  0  0  0  0  0
  151.9583  141.1389  157.8837 C   0  0  0  0  0  0  0  0  0  0  0  0
  151.8409  141.1330  156.5459 N   0  0  0  0  0  0  0  0  0  0  0  0
  151.7312  140.0124  155.6851 C   0  0  0  0  0  0  0  0  0  0  0  0
  152.7492  139.1444  155.6515 N   0  0  0  0  0  0  0  0  0  0  0  0
  152.5132  138.0990  154.7670 N   0  0  0  0  0  0  0  0  0  0  0  0
  151.3255  138.2211  154.1663 C   0  0  0  0  0  0  0  0  0  0  0  0
  150.3754  139.6241  154.6220 S   0  0  0  0  0  0  0  0  0  0  0  0
  152.0010  142.3922  158.3591 N   0  0  0  0  0  0  0  0  0  0  0  0
  152.0998  142.7673  159.7662 C   0  0  0  0  0  0  0  0  0  0  0  0
  151.8652  144.2530  159.9903 C   0  0  0  0  0  0  0  0  0  0  0  0
  150.7484  144.9896  159.2878 C   0  0  0  0  0  0  0  0  0  0  0  0
  152.1869  145.2733  158.9232 C   0  0  0  0  0  0  0  0  0  0  0  0
  153.4347  142.3514  160.3577 C   0  0  0  0  0  0  0  0  0  0  0  0
  153.7213  140.9088  160.6993 C   0  0  0  0  0  0  0  0  0  0  0  0
  153.5632  141.9304  161.8027 C   0  0  0  0  0  0  0  0  0  0  0  0
  151.8136  142.0332  156.0904 H   0  0  0  0  0  0  0  0  0  0  0  0
  151.0071  137.4790  153.4490 H   0  0  0  0  0  0  0  0  0  0  0  0
  151.9495  143.1508  157.6948 H   0  0  0  0  0  0  0  0  0  0  0  0
  151.3272  142.2248  160.3155 H   0  0  0  0  0  0  0  0  0  0  0  0
  152.0558  144.5678  161.0147 H   0  0  0  0  0  0  0  0  0  0  0  0
  150.1507  144.4435  158.5610 H   0  0  0  0  0  0  0  0  0  0  0  0
  150.2140  145.7497  159.8541 H   0  0  0  0  0  0  0  0  0  0  0  0
  152.6129  146.2201  159.2480 H   0  0  0  0  0  0  0  0  0  0  0  0
  152.5361  144.9119  157.9581 H   0  0  0  0  0  0  0  0  0  0  0  0
  154.2766  142.9163  159.9607 H   0  0  0  0  0  0  0  0  0  0  0  0
  152.9181  140.1862  160.5674 H   0  0  0  0  0  0  0  0  0  0  0  0
  154.7231  140.5348  160.4987 H   0  0  0  0  0  0  0  0  0  0  0  0
  154.4595  142.2390  162.3370 H   0  0  0  0  0  0  0  0  0  0  0  0
  152.6581  141.8757  162.4041 H   0  0  0  0  0  0  0  0  0  0  0  0
  1  2  2  0  0  0  0
  2  3  1  0  0  0  0
  2  9  1  0  0  0  0
  3  4  1  0  0  0  0
  3 17  1  0  0  0  0
  4  8  1  0  0  0  0
  4  5  2  0  0  0  0
  5  6  1  0  0  0  0
  6  7  2  0  0  0  0
  7  8  1  0  0  0  0
  7 18  1  0  0  0  0
  9 10  1  0  0  0  0
  9 19  1  0  0  0  0
 10 11  1  0  0  0  0
 10 14  1  0  0  0  0
 10 20  1  0  0  0  0
 11 13  1  0  0  0  0
 11 12  1  0  0  0  0
 11 21  1  0  0  0  0
 12 13  1  0  0  0  0
 12 22  1  0  0  0  0
 12 23  1  0  0  0  0
 13 24  1  0  0  0  0
 13 25  1  0  0  0  0
 14 16  1  0  0  0  0
 14 15  1  0  0  0  0
 14 26  1  0  0  0  0
 15 16  1  0  0  0  0
 15 27  1  0  0  0  0
 15 28  1  0  0  0  0
 16 29  1  0  0  0  0
 16 30  1  0  0  0  0
M  END
> <s_m_source_file>
AV-unprocessed.smi

> <i_m_source_file_index>
624

> <i_lp_mmshare_version>
43012

> <i_f3d_flags>
0

> <s_epik_input>
W0NIMl0xW0NIMl1bQ0hdMVtDSF0oW0NIXTJbQ0gyXVtDSDJdMilbTkhdQyg9TylbTkhdYzNubltjSF1zMw==

> <s_epik_cmdline>
J2VwaWtfcHl0aG9uJywgJy1waCcsICc3LjAnLCAnLXRuJywgJzgnLCAnLW1hJywgJzIwMCcsICctbWV0YWxfYmluZGluZycsICctaW1hZScsICc8aW5maWxlLm1hZT4nLCAnLW9tYWUnLCAnPG91dGZpbGUubWFlPic=

> <r_lp_tautomer_probability>
1

> <r_epik_Ionization_Penalty>
0.000305758

> <r_epik_Ionization_Penalty_Charging>
0

> <r_epik_Ionization_Penalty_Neutral>
0.000305758

> <r_epik_State_Penalty>
-0

> <r_epik_Charging_Adjusted_Penalty>
0

> <i_epik_Tot_Q>
0

> <i_epik_Tot_abs_Q>
0

> <r_epik_Metal_State_Penalty>
0.165203

> <b_epik_Metal_Only>
0

> <s_lp_Force_Field>
OPLS_2005

> <r_lp_Energy>
21.213

> <b_lp_Chiralities_Consistent>
1

> <s_lp_Variant>
AV-unprocessed.smi:624-1

> <Gold.Version>
5.8.1

> <Gold.Id.Protein>
6NUR|6NUR_protein|mol2

> <Gold.PLP.Fitness>
44.1784

> <Gold.PLP.PLP>
-39.3014

> <Gold.PLP.part.hbond>
-1.7119

> <Gold.PLP.part.metal>
0.0000

> <Gold.PLP.part.buried>
-3.7095

> <Gold.PLP.part.nonpolar>
-33.7558

> <Gold.PLP.part.repulsive>
0.2587

> <Gold.PLP.ligand.clash>
0.0000

> <Gold.PLP.ligand.torsion>
1.7483

> <Gold.PLP.Chemscore.Hbond>
1.0000

> <Gold.PLP.Chemscore.CHOScore>
1.0873

> <Gold.PLP.Chemscore.Metal>
0.0000

> <Gold.Chemscore.Hbonds>
donor molecule, donor type, donor heavy atom, donor atom, acceptor molecule, acceptor atom, score
      P1  H  7997  8010       L1     5  1.00
      L1  C     7    18       P1  7948  0.07
      L1  C     7    18       P1  7949  1.00

> <Gold.PLP.Chemscore.Internal.Correction>
2.1117

> <Gold.Rescore>
     Score         DG    S(hbond)    S(metal)    S(lipo)     H(rot)  DE(clash)    DE(int)     intcor
     12.96     -15.02       0.96        0.00      87.40       1.52       0.00       2.06       ----

> <Gold.Chemscore.Fitness>
12.9614

> <Gold.Chemscore.DG>
-15.0238

> <Gold.Chemscore.ZeroCoef>
-5.4800

> <Gold.Chemscore.Hbond>
0.9629

> <Gold.Chemscore.Metal>
0.0000

> <Gold.Chemscore.Lipo>
87.4015

> <Gold.Chemscore.Internal_Hbond>
0.0000

> <Gold.Chemscore.DEClash>
0.0000

> <Gold.Chemscore.DEInternal>
2.0623

> <Gold.Chemscore.Rot>
1.5227

> <Gold.Chemscore.Internal.Correction>
   9.000000E+99

> <Gold.Chemscore.Hbonds>
donor molecule, donor type, donor heavy atom, donor atom, acceptor molecule, acceptor atom, score
      P1  H  7997  8010       L1     5  0.59

> <Gold.Chemscore.Hbond.Weighted>
-3.2160

> <Gold.Chemscore.Metal.Weighted>
-0.0000

> <Gold.Chemscore.Lipo.Weighted>
-10.2260

> <Gold.Chemscore.Internal_Hbond.Weighted>
0.0000

> <Gold.Chemscore.DEClash.Weighted>
0.0000

> <Gold.Chemscore.DEInternal.Weighted>
2.0623

> <Gold.Chemscore.Rot.Weighted>
3.8982

> <Gold.Chemscore.Internal.Correction.Weighted>
   9.000000E+99

> <Gold.Protein.RotatedTorsions>
[ 6907 6896 6895 6894 ] final  -70.37 input  -60.11 | X-H torsion
[ 7974 7965 7964 7962 ] final  -26.02 input  175.53 | X-H torsion
[ 8008 7997 7996 7995 ] final   95.68 input   59.86 | X-H torsion
[ 10167 10162 10161 10158 ] final -145.50 input  -65.29 | X-H torsion
[ 10718 10713 10712 10709 ] final   -7.36 input   66.30 | X-H torsion
[ 10763 10752 10751 10750 ] final -116.82 input  -60.55 | X-H torsion
[ 11005 11000 10999 10996 ] final  -45.37 input  -57.11 | X-H torsion

> <Gold.Protein.ActiveResidues>
 VAL166  LYS551  ARG553  GLY616  TRP617  ASP618  TYR619  PRO620  LYS621  CYS622 
 ASP623  PHE694  ASN695  SER759  ASP760  ASP761  ALA762  ILE779  LEU786  VAL792 
 PHE793  MET794  SER795  GLU796  ALA797  LYS798  CYS799  TRP800  GLU811  SER814 

> <Gold.Protein.RotatedAtoms>
  150.7261  134.5463  159.5772 H   0  0  0  0  0  0  0  0  0  0  0  0  # atno 6907 bound_to 6896
  152.2961  134.7662  160.0376 H   0  0  0  0  0  0  0  0  0  0  0  0  # atno 6908 bound_to 6896
  151.8258  133.3366  159.3635 H   0  0  0  0  0  0  0  0  0  0  0  0  # atno 6909 bound_to 6896
  146.1453  140.4964  142.8634 H   0  0  0  0  0  0  0  0  0  0  0  0  # atno 7974 bound_to 7965
  156.0715  140.3283  155.7582 H   0  0  0  0  0  0  0  0  0  0  0  0  # atno 8008 bound_to 7997
  155.5297  140.0592  157.2908 H   0  0  0  0  0  0  0  0  0  0  0  0  # atno 8009 bound_to 7997
  154.4533  140.1929  156.0472 H   0  0  0  0  0  0  0  0  0  0  0  0  # atno 8010 bound_to 7997
  139.7800  143.8115  152.2637 H   0  0  0  0  0  0  0  0  0  0  0  0  # atno 10167 bound_to 10162
  156.7184  130.5143  149.5874 H   0  0  0  0  0  0  0  0  0  0  0  0  # atno 10718 bound_to 10713
  154.8533  135.4332  154.1881 H   0  0  0  0  0  0  0  0  0  0  0  0  # atno 10763 bound_to 10752
  153.2956  135.6965  153.7258 H   0  0  0  0  0  0  0  0  0  0  0  0  # atno 10764 bound_to 10752
  153.6408  135.3468  155.3045 H   0  0  0  0  0  0  0  0  0  0  0  0  # atno 10765 bound_to 10752
  141.0511  133.6742  156.3003 H   0  0  0  0  0  0  0  0  0  0  0  0  # atno 11005 bound_to 11000
  144.7839  140.5897  143.6587 LP  0  0  0  0  0  0  0  0  0  0  0  0  # atno 17320 bound_to 7965
  145.4951  139.1486  143.3688 LP  0  0  0  0  0  0  0  0  0  0  0  0  # atno 17321 bound_to 7965
  139.8175  144.7310  150.9616 LP  0  0  0  0  0  0  0  0  0  0  0  0  # atno 17342 bound_to 10162
  140.7818  143.4191  151.0870 LP  0  0  0  0  0  0  0  0  0  0  0  0  # atno 17343 bound_to 10162
  156.1612  130.6375  151.0720 LP  0  0  0  0  0  0  0  0  0  0  0  0  # atno 17370 bound_to 10713
  157.6908  131.0810  150.7113 LP  0  0  0  0  0  0  0  0  0  0  0  0  # atno 17371 bound_to 10713
  140.6054  134.5513  157.5524 LP  0  0  0  0  0  0  0  0  0  0  0  0  # atno 17394 bound_to 11000
  139.9351  134.7890  156.0825 LP  0  0  0  0  0  0  0  0  0  0  0  0  # atno 17395 bound_to 11000

$$$$
