AV-unprocessed.smi:2719|AV-procd|sdf|10494|dock3
  -GOLD-   2272014543D 1   1.00000     0.00000
 Structure written by MMmdl.
 21 21  0  0  0  0  0  0  0  0  3 V2000
  152.2766  140.3788  159.1041 C   0  0  0  0  0  0  0  0  0  0  0  0
  152.0619  141.8138  158.6575 C   0  0  0  0  0  0  0  0  0  0  0  0
  152.7479  142.8564  159.3202 C   0  0  0  0  0  0  0  0  0  0  0  0
  152.5494  144.1919  158.9162 C   0  0  0  0  0  0  0  0  0  0  0  0
  151.6644  144.4596  157.8546 C   0  0  0  0  0  0  0  0  0  0  0  0
  151.0271  143.4405  157.2415 N   0  3  0  0  0  0  0  0  0  0  0  0
  151.1836  142.1401  157.5907 C   0  0  0  0  0  0  0  0  0  0  0  0
  150.3848  141.1006  156.8061 C   0  0  2  0  0  0  0  0  0  0  0  0
  149.7031  140.1832  157.6433 O   0  0  0  0  0  0  0  0  0  0  0  0
  151.3734  140.3577  155.8962 C   0  0  0  0  0  0  0  0  0  0  0  0
  151.0177  140.1663  154.7128 O   0  0  0  0  0  0  0  0  0  0  0  0
  152.4725  140.0130  156.3865 O   0  5  0  0  0  0  0  0  0  0  0  0
  152.9087  140.3293  159.9911 H   0  0  0  0  0  0  0  0  0  0  0  0
  152.7599  139.8028  158.3148 H   0  0  0  0  0  0  0  0  0  0  0  0
  151.3252  139.9052  159.3472 H   0  0  0  0  0  0  0  0  0  0  0  0
  153.4219  142.6381  160.1358 H   0  0  0  0  0  0  0  0  0  0  0  0
  153.0657  144.9983  159.4162 H   0  0  0  0  0  0  0  0  0  0  0  0
  151.4457  145.4490  157.4806 H   0  0  0  0  0  0  0  0  0  0  0  0
  149.6268  141.5848  156.1906 H   0  0  0  0  0  0  0  0  0  0  0  0
  148.9364  140.6097  157.9927 H   0  0  0  0  0  0  0  0  0  0  0  0
  150.3829  143.6547  156.4792 H   0  0  0  0  0  0  0  0  0  0  0  0
  1  2  1  0  0  0  0
  1 13  1  0  0  0  0
  1 14  1  0  0  0  0
  1 15  1  0  0  0  0
  2  7  1  0  0  0  0
  2  3  2  0  0  0  0
  3  4  1  0  0  0  0
  3 16  1  0  0  0  0
  4  5  2  0  0  0  0
  4 17  1  0  0  0  0
  5  6  1  0  0  0  0
  5 18  1  0  0  0  0
  6  7  2  0  0  0  0
  6 21  1  0  0  0  0
  7  8  1  0  0  0  0
  8  9  1  0  0  0  0
  8 10  1  0  0  0  0
  8 19  1  0  0  0  0
  9 20  1  0  0  0  0
 10 11  2  0  0  0  0
 10 12  1  0  0  0  0
M  CHG  1   6   1
M  CHG  1  12  -1
M  END
> <s_m_source_file>
AV-unprocessed.smi

> <i_m_source_file_index>
2719

> <i_lp_mmshare_version>
43012

> <i_f3d_flags>
0

> <s_epik_input>
W0NIM11jMVtjSF1bY0hdW2NIXW5jMVtDQEhdKFtPSF0pQyg9TylbT0hd

> <s_epik_cmdline>
J2VwaWtfcHl0aG9uJywgJy1waCcsICc3LjAnLCAnLXRuJywgJzgnLCAnLW1hJywgJzIwMCcsICctbWV0YWxfYmluZGluZycsICctaW1hZScsICc8aW5maWxlLm1hZT4nLCAnLW9tYWUnLCAnPG91dGZpbGUubWFlPic=

> <r_epik_Ionization_Penalty>
0.143401

> <r_epik_Ionization_Penalty_Charging>
0.1434

> <r_epik_Ionization_Penalty_Neutral>
5.11682e-08

> <r_epik_State_Penalty>
0.132703

> <r_epik_Charging_Adjusted_Penalty>
0.276103

> <i_epik_Tot_Q>
0

> <i_epik_Tot_abs_Q>
2

> <r_epik_Metal_State_Penalty>
3.27621

> <b_epik_Metal_Only>
0

> <s_lp_Force_Field>
OPLS_2005

> <r_lp_Energy>
8.63445

> <b_lp_Chiralities_Consistent>
1

> <s_lp_Variant>
AV-unprocessed.smi:2719-1

> <Gold.Version>
5.8.1

> <Gold.Id.Protein>
6NUR|6NUR_protein|mol2

> <Gold.PLP.Fitness>
40.7939

> <Gold.PLP.PLP>
-28.4279

> <Gold.PLP.part.hbond>
-3.0000

> <Gold.PLP.part.metal>
0.0000

> <Gold.PLP.part.buried>
-3.6341

> <Gold.PLP.part.nonpolar>
-22.0662

> <Gold.PLP.part.repulsive>
0.0782

> <Gold.PLP.ligand.clash>
1.1683

> <Gold.PLP.ligand.torsion>
0.7408

> <Gold.PLP.Chemscore.Hbond>
5.0000

> <Gold.PLP.Chemscore.CHOScore>
0.0000

> <Gold.PLP.Chemscore.Metal>
0.0000

> <Gold.Chemscore.Hbonds>
donor molecule, donor type, donor heavy atom, donor atom, acceptor molecule, acceptor atom, score
      L1  H     6    21       P1  8028  2.00
      P1  H  7989  7998       L1    11  1.00
      P1  H  7997  8008       L1    12  2.00

> <Gold.PLP.Chemscore.Internal.Correction>
0.0159

> <Gold.Rescore>
     Score         DG    S(hbond)    S(metal)    S(lipo)     H(rot)  DE(clash)    DE(int)     intcor
     15.12     -18.47       2.97        0.00      72.61       2.11       0.03       3.32       ----

> <Gold.Chemscore.Fitness>
15.1231

> <Gold.Chemscore.DG>
-18.4697

> <Gold.Chemscore.ZeroCoef>
-5.4800

> <Gold.Chemscore.Hbond>
2.9661

> <Gold.Chemscore.Metal>
0.0000

> <Gold.Chemscore.Lipo>
72.6087

> <Gold.Chemscore.Internal_Hbond>
0.0000

> <Gold.Chemscore.DEClash>
0.0310

> <Gold.Chemscore.DEInternal>
3.3156

> <Gold.Chemscore.Rot>
2.1142

> <Gold.Chemscore.Internal.Correction>
   9.000000E+99

> <Gold.Chemscore.Hbonds>
donor molecule, donor type, donor heavy atom, donor atom, acceptor molecule, acceptor atom, score
      L1  H     6    21       P1  8028  0.92
      P1  H  7989  7998       L1    11  0.93
      P1  H  7997  8008       L1    12  0.99

> <Gold.Chemscore.Hbond.Weighted>
-9.9068

> <Gold.Chemscore.Metal.Weighted>
-0.0000

> <Gold.Chemscore.Lipo.Weighted>
-8.4952

> <Gold.Chemscore.Internal_Hbond.Weighted>
0.0000

> <Gold.Chemscore.DEClash.Weighted>
0.0310

> <Gold.Chemscore.DEInternal.Weighted>
3.3156

> <Gold.Chemscore.Rot.Weighted>
5.4123

> <Gold.Chemscore.Internal.Correction.Weighted>
   9.000000E+99

> <Gold.Protein.RotatedTorsions>
[ 6907 6896 6895 6894 ] final   97.41 input  -60.11 | X-H torsion
[ 7974 7965 7964 7962 ] final  151.39 input  175.53 | X-H torsion
[ 8008 7997 7996 7995 ] final  -36.54 input   59.86 | X-H torsion
[ 10167 10162 10161 10158 ] final -160.23 input  -65.29 | X-H torsion
[ 10718 10713 10712 10709 ] final -102.80 input   66.30 | X-H torsion
[ 10763 10752 10751 10750 ] final    4.36 input  -60.55 | X-H torsion
[ 11005 11000 10999 10996 ] final  110.43 input  -57.11 | X-H torsion

> <Gold.Protein.ActiveResidues>
 VAL166  LYS551  ARG553  GLY616  TRP617  ASP618  TYR619  PRO620  LYS621  CYS622 
 ASP623  PHE694  ASN695  SER759  ASP760  ASP761  ALA762  ILE779  LEU786  VAL792 
 PHE793  MET794  SER795  GLU796  ALA797  LYS798  CYS799  TRP800  GLU811  SER814 

> <Gold.Protein.RotatedAtoms>
  152.5424  134.0738  159.8205 H   0  0  0  0  0  0  0  0  0  0  0  0  # atno 6907 bound_to 6896
  151.0849  133.5354  159.2625 H   0  0  0  0  0  0  0  0  0  0  0  0  # atno 6908 bound_to 6896
  151.2167  135.0511  159.8987 H   0  0  0  0  0  0  0  0  0  0  0  0  # atno 6909 bound_to 6896
  144.8296  139.6531  143.6064 H   0  0  0  0  0  0  0  0  0  0  0  0  # atno 7974 bound_to 7965
  154.4071  140.1628  156.2391 H   0  0  0  0  0  0  0  0  0  0  0  0  # atno 8008 bound_to 7997
  155.9217  140.3421  155.6155 H   0  0  0  0  0  0  0  0  0  0  0  0  # atno 8009 bound_to 7997
  155.7214  140.0769  157.2319 H   0  0  0  0  0  0  0  0  0  0  0  0  # atno 8010 bound_to 7997
  139.6555  144.0006  152.2191 H   0  0  0  0  0  0  0  0  0  0  0  0  # atno 10167 bound_to 10162
  156.0242  130.5437  150.7161 H   0  0  0  0  0  0  0  0  0  0  0  0  # atno 10718 bound_to 10713
  153.2722  135.6933  153.7469 H   0  0  0  0  0  0  0  0  0  0  0  0  # atno 10763 bound_to 10752
  153.6488  135.3380  155.3094 H   0  0  0  0  0  0  0  0  0  0  0  0  # atno 10764 bound_to 10752
  154.8467  135.4449  154.1748 H   0  0  0  0  0  0  0  0  0  0  0  0  # atno 10765 bound_to 10752
  139.8882  134.9484  156.6278 H   0  0  0  0  0  0  0  0  0  0  0  0  # atno 11005 bound_to 11000
  146.2600  139.6388  142.9369 LP  0  0  0  0  0  0  0  0  0  0  0  0  # atno 17320 bound_to 7965
  145.4924  141.0438  143.2585 LP  0  0  0  0  0  0  0  0  0  0  0  0  # atno 17321 bound_to 7965
  139.9731  144.6480  150.7970 LP  0  0  0  0  0  0  0  0  0  0  0  0  # atno 17342 bound_to 10162
  140.7557  143.3052  151.2981 LP  0  0  0  0  0  0  0  0  0  0  0  0  # atno 17343 bound_to 10162
  157.4788  131.0900  151.0560 LP  0  0  0  0  0  0  0  0  0  0  0  0  # atno 17370 bound_to 10713
  157.1000  130.5977  149.5458 LP  0  0  0  0  0  0  0  0  0  0  0  0  # atno 17371 bound_to 10713
  140.7690  133.8754  155.8476 LP  0  0  0  0  0  0  0  0  0  0  0  0  # atno 17394 bound_to 11000
  140.9858  134.1344  157.4453 LP  0  0  0  0  0  0  0  0  0  0  0  0  # atno 17395 bound_to 11000

$$$$
