#       Name:                AV-unprocessed.smi:193
#       Creating user name   scv26
#       Creation time:       Thu Mar 26 19:32:49 2020


#       File generated by GOLD software.
#

@<TRIPOS>MOLECULE
AV-unprocessed.smi:193
    69    73     1
SMALL
NO_CHARGES


@<TRIPOS>ATOM
      1 ****        -3.4745  -3.3568   2.8015 C.3            1 S1                 0.0000
      2 ****        -2.9993  -2.0542   2.1377 C.3            1 S1                 0.0000
      3 ****        -1.4595  -2.0631   2.0339 C.3            1 S1                 0.0000
      4 ****        -0.9170  -1.1790   0.9996 N.pl3          1 S1                 0.0000
      5 ****         0.3727  -1.3655   0.6135 C.ar           1 S1                 0.0000
      6 ****         1.2619  -1.8790   1.5048 N.ar           1 S1                 0.0000
      7 ****         2.5404  -2.0566   1.1596 C.ar           1 S1                 0.0000
      8 ****         3.1338  -1.7937  -0.0056 N.ar           1 S1                 0.0000
      9 ****         2.2472  -1.2883  -0.9098 C.ar           1 S1                 0.0000
     10 ****         0.8607  -1.0508  -0.6884 C.ar           1 S1                 0.0000
     11 ****         0.2770  -0.5551  -1.8493 N.2            1 S1                 0.0000
     12 ****         1.2633  -0.4899  -2.7011 C.2            1 S1                 0.0000
     13 ****         2.4856  -0.8959  -2.2155 N.pl3          1 S1                 0.0000
     14 ****         3.7471  -0.9148  -2.9406 C.3            1 S1                 0.0000
     15 ****         4.5750   0.3875  -2.7982 C.3            1 S1                 0.0000
     16 ****         4.9447   0.5201  -1.4369 O.3            1 S1                 0.0000
     17 ****         5.8617   0.3001  -3.6435 C.3            1 S1                 0.0000
     18 ****         6.6302   1.6333  -3.6726 C.3            1 S1                 0.0000
     19 ****         5.7786   2.6751  -4.1338 O.3            1 S1                 0.0000
     20 ****         4.6713   2.9011  -3.2706 C.3            1 S1                 0.0000
     21 ****         3.7810   1.6471  -3.2104 C.3            1 S1                 0.0000
     22 ****        -1.5484   0.0946   0.6546 C.3            1 S1                 0.0000
     23 ****        -2.0792   0.8607   1.8730 C.3            1 S1                 0.0000
     24 ****        -3.4599   0.4400   2.2104 N.4            1 S1                 1.0000
     25 ****        -4.2048   1.5034   2.9252 C.3            1 S1                 0.0000
     26 ****        -4.7074   2.6120   2.0268 C.3            1 S1                 0.0000
     27 ****        -5.6820   1.5988   2.5850 C.3            1 S1                 0.0000
     28 ****        -6.3939   0.6355   1.6526 C.3            1 S1                 0.0000
     29 ****        -3.5171  -0.8455   2.9487 C.3            1 S1                 0.0000
     30 ****        -3.0837  -3.4517   3.8153 H              1 S1                 0.0000
     31 ****        -3.1480  -4.2303   2.2361 H              1 S1                 0.0000
     32 ****        -4.5627  -3.3981   2.8588 H              1 S1                 0.0000
     33 ****        -3.4333  -2.0352   1.1366 H              1 S1                 0.0000
     34 ****        -1.0136  -1.8206   2.9996 H              1 S1                 0.0000
     35 ****        -1.1339  -3.0765   1.7928 H              1 S1                 0.0000
     36 ****         3.1805  -2.4652   1.9277 H              1 S1                 0.0000
     37 ****         1.1278  -0.1328  -3.7118 H              1 S1                 0.0000
     38 ****         4.3271  -1.7738  -2.5999 H              1 S1                 0.0000
     39 ****         3.5233  -1.0996  -3.9922 H              1 S1                 0.0000
     40 ****         5.4727   1.2981  -1.3424 H              1 S1                 0.0000
     41 ****         6.5089  -0.4971  -3.2753 H              1 S1                 0.0000
     42 ****         5.6022   0.0317  -4.6685 H              1 S1                 0.0000
     43 ****         7.0283   1.8814  -2.6875 H              1 S1                 0.0000
     44 ****         7.4838   1.5559  -4.3460 H              1 S1                 0.0000
     45 ****         5.0218   3.1833  -2.2766 H              1 S1                 0.0000
     46 ****         4.0972   3.7458  -3.6519 H              1 S1                 0.0000
     47 ****         3.3404   1.4871  -4.1953 H              1 S1                 0.0000
     48 ****         2.9498   1.8250  -2.5274 H              1 S1                 0.0000
     49 ****        -0.8198   0.7445   0.1697 H              1 S1                 0.0000
     50 ****        -2.3382  -0.0719  -0.0787 H              1 S1                 0.0000
     51 ****        -1.4117   0.7845   2.7329 H              1 S1                 0.0000
     52 ****        -2.0980   1.9168   1.6016 H              1 S1                 0.0000
     53 ****        -3.8502   1.7390   3.9273 H              1 S1                 0.0000
     54 ****        -4.7441   3.6172   2.4418 H              1 S1                 0.0000
     55 ****        -4.4760   2.5589   0.9643 H              1 S1                 0.0000
     56 ****        -6.3181   1.9527   3.3942 H              1 S1                 0.0000
     57 ****        -5.7642   0.3595   0.8065 H              1 S1                 0.0000
     58 ****        -7.3001   1.0999   1.2634 H              1 S1                 0.0000
     59 ****        -6.6756  -0.2698   2.1904 H              1 S1                 0.0000
     60 ****        -4.5595  -1.0259   3.2136 H              1 S1                 0.0000
     61 ****        -2.9791  -0.7565   3.8939 H              1 S1                 0.0000
     62 ****        -3.9445   0.3023   1.3350 H              1 S1                 0.0000
     63 ****         0.9570  -2.1254   2.4248 LP             1 S1                 0.0000
     64 ****         4.1042  -1.9475  -0.1921 LP             1 S1                 0.0000
     65 ****        -0.6800  -0.3056  -1.9974 LP             1 S1                 0.0000
     66 ****         5.4708  -0.2809  -1.1511 LP             1 S1                 0.0000
     67 ****         4.1240   0.5991  -0.8710 LP             1 S1                 0.0000
     68 ****         5.4333   2.4288  -5.0394 LP             1 S1                 0.0000
     69 ****         6.3114   3.5189  -4.1984 LP             1 S1                 0.0000
@<TRIPOS>BOND
    1    1    2 1     
    2    1   30 1     
    3    1   31 1     
    4    1   32 1     
    5    2   29 1     
    6    2    3 1     
    7    2   33 1     
    8    3    4 1     
    9    3   34 1     
   10    3   35 1     
   11    4    5 1     
   12    4   22 1     
   13    5   10 ar    
   14    5    6 ar    
   15    6    7 ar    
   16    7    8 ar    
   17    7   36 1     
   18    8    9 ar    
   19    9   13 1     
   20    9   10 ar    
   21   10   11 1     
   22   11   12 2     
   23   12   13 1     
   24   12   37 1     
   25   13   14 1     
   26   14   15 1     
   27   14   38 1     
   28   14   39 1     
   29   15   21 1     
   30   15   16 1     
   31   15   17 1     
   32   16   40 1     
   33   17   18 1     
   34   17   41 1     
   35   17   42 1     
   36   18   19 1     
   37   18   43 1     
   38   18   44 1     
   39   19   20 1     
   40   20   21 1     
   41   20   45 1     
   42   20   46 1     
   43   21   47 1     
   44   21   48 1     
   45   22   23 1     
   46   22   49 1     
   47   22   50 1     
   48   23   24 1     
   49   23   51 1     
   50   23   52 1     
   51   24   25 1     
   52   24   29 1     
   53   24   62 1     
   54   25   27 1     
   55   25   26 1     
   56   25   53 1     
   57   26   27 1     
   58   26   54 1     
   59   26   55 1     
   60   27   28 1     
   61   27   56 1     
   62   28   57 1     
   63   28   58 1     
   64   28   59 1     
   65   29   60 1     
   66   29   61 1     
   67    6   63 1     
   68    8   64 1     
   69   11   65 1     
   70   16   66 1     
   71   16   67 1     
   72   19   68 1     
   73   19   69 1     
@<TRIPOS>SUBSTRUCTURE
      1 S1             1
@<TRIPOS>SET
LONE_PAIRS      STATIC     ATOMS    <user>   **** ""
7 63 64 65 66 67 68 69
DONOR_HYDROGENS      STATIC     ATOMS    <user>   **** ""
2 40 62
ATOM$BLUE        STATIC     ATOMS    COLORGROUP SYSTEM
7 63 64 65 66 67 68 69
ATOM$RED        STATIC     ATOMS    COLORGROUP SYSTEM
2 40 62
