AV-unprocessed.smi:1578|AV-procd|sdf|6350|dock5
  -GOLD-   22720 6573D 1   1.00000     0.00000
 Structure written by MMmdl.
 44 45  0  0  0  0  0  0  0  0  1 V2000
  151.3565  138.6918  158.9770 C   0  0  0  0  0  0  0  0  0  0  0  0
  150.3428  138.7036  157.8211 C   0  0  2  0  0  0  0  0  0  0  0  0
  149.8843  140.1419  157.4938 C   0  0  0  0  0  0  0  0  0  0  0  0
  149.0888  140.2948  156.2734 N   0  0  0  0  0  0  0  0  0  0  0  0
  148.5946  141.6574  156.0820 C   0  0  0  0  0  0  0  0  0  0  0  0
  147.8037  141.8112  154.7718 C   0  0  0  0  0  0  0  0  0  0  0  0
  148.6101  141.4012  153.6728 O   0  0  0  0  0  0  0  0  0  0  0  0
  149.0584  140.0560  153.7975 C   0  0  0  0  0  0  0  0  0  0  0  0
  149.8629  139.9033  155.0997 C   0  0  0  0  0  0  0  0  0  0  0  0
  149.1845  137.8940  158.1866 N   0  0  0  0  0  0  0  0  0  0  0  0
  149.1981  136.5826  158.4805 C   0  0  0  0  0  0  0  0  0  0  0  0
  150.2338  135.9208  158.5312 O   0  0  0  0  0  0  0  0  0  0  0  0
  147.8508  135.8885  158.7446 C   0  0  0  0  0  0  0  0  0  0  0  0
  147.7552  135.2090  160.0499 N   0  0  0  0  0  0  0  0  0  0  0  0
  147.7904  133.8006  160.0442 C   0  0  0  0  0  0  0  0  0  0  0  0
  147.7456  133.0618  161.1694 C   0  0  0  0  0  0  0  0  0  0  0  0
  147.7384  131.5417  161.1276 C   0  0  0  0  0  0  0  0  0  0  0  0
  146.6037  131.0524  161.6280 F   0  0  0  0  0  0  0  0  0  0  0  0
  147.8731  131.0941  159.8786 F   0  0  0  0  0  0  0  0  0  0  0  0
  148.7510  131.0649  161.8503 F   0  0  0  0  0  0  0  0  0  0  0  0
  147.6209  133.7916  162.4159 C   0  0  0  0  0  0  0  0  0  0  0  0
  147.5778  135.1380  162.4386 C   0  0  0  0  0  0  0  0  0  0  0  0
  147.6539  135.9283  161.2082 C   0  0  0  0  0  0  0  0  0  0  0  0
  147.6366  137.1592  161.2186 O   0  0  0  0  0  0  0  0  0  0  0  0
  152.2426  139.2760  158.7276 H   0  0  0  0  0  0  0  0  0  0  0  0
  151.6899  137.6783  159.2029 H   0  0  0  0  0  0  0  0  0  0  0  0
  150.9262  139.1114  159.8871 H   0  0  0  0  0  0  0  0  0  0  0  0
  150.8296  138.2797  156.9404 H   0  0  0  0  0  0  0  0  0  0  0  0
  149.3567  140.5732  158.3464 H   0  0  0  0  0  0  0  0  0  0  0  0
  150.7827  140.7494  157.3760 H   0  0  0  0  0  0  0  0  0  0  0  0
  147.9415  141.9406  156.9061 H   0  0  0  0  0  0  0  0  0  0  0  0
  149.4304  142.3588  156.0846 H   0  0  0  0  0  0  0  0  0  0  0  0
  146.8885  141.2180  154.8017 H   0  0  0  0  0  0  0  0  0  0  0  0
  147.5074  142.8506  154.6294 H   0  0  0  0  0  0  0  0  0  0  0  0
  148.2046  139.3766  153.7869 H   0  0  0  0  0  0  0  0  0  0  0  0
  149.6785  139.8057  152.9367 H   0  0  0  0  0  0  0  0  0  0  0  0
  150.7675  140.5102  155.0345 H   0  0  0  0  0  0  0  0  0  0  0  0
  150.1894  138.8676  155.1998 H   0  0  0  0  0  0  0  0  0  0  0  0
  148.2894  138.3607  158.1726 H   0  0  0  0  0  0  0  0  0  0  0  0
  147.0536  136.6272  158.6442 H   0  0  0  0  0  0  0  0  0  0  0  0
  147.6759  135.1776  157.9361 H   0  0  0  0  0  0  0  0  0  0  0  0
  147.8634  133.3573  159.0615 H   0  0  0  0  0  0  0  0  0  0  0  0
  147.5653  133.2502  163.3488 H   0  0  0  0  0  0  0  0  0  0  0  0
  147.4872  135.6490  163.3860 H   0  0  0  0  0  0  0  0  0  0  0  0
  1  2  1  0  0  0  0
  1 25  1  0  0  0  0
  1 26  1  0  0  0  0
  1 27  1  0  0  0  0
  2  3  1  0  0  0  0
  2 10  1  0  0  0  0
  2 28  1  0  0  0  0
  3  4  1  0  0  0  0
  3 29  1  0  0  0  0
  3 30  1  0  0  0  0
  4  9  1  0  0  0  0
  4  5  1  0  0  0  0
  5  6  1  0  0  0  0
  5 31  1  0  0  0  0
  5 32  1  0  0  0  0
  6  7  1  0  0  0  0
  6 33  1  0  0  0  0
  6 34  1  0  0  0  0
  7  8  1  0  0  0  0
  8  9  1  0  0  0  0
  8 35  1  0  0  0  0
  8 36  1  0  0  0  0
  9 37  1  0  0  0  0
  9 38  1  0  0  0  0
 10 11  1  0  0  0  0
 10 39  1  0  0  0  0
 11 12  2  0  0  0  0
 11 13  1  0  0  0  0
 13 14  1  0  0  0  0
 13 40  1  0  0  0  0
 13 41  1  0  0  0  0
 14 23  1  0  0  0  0
 14 15  1  0  0  0  0
 15 16  2  0  0  0  0
 15 42  1  0  0  0  0
 16 17  1  0  0  0  0
 16 21  1  0  0  0  0
 17 18  1  0  0  0  0
 17 19  1  0  0  0  0
 17 20  1  0  0  0  0
 21 22  2  0  0  0  0
 21 43  1  0  0  0  0
 22 23  1  0  0  0  0
 22 44  1  0  0  0  0
 23 24  2  0  0  0  0
M  END
> <s_m_source_file>
AV-unprocessed.smi

> <i_m_source_file_index>
1578

> <i_lp_mmshare_version>
43012

> <i_f3d_flags>
0

> <s_epik_input>
W0NIMl0xW0NIMl1PW0NIMl1bQ0gyXU4xW0NIMl1bQ0BASF0oW0NIM10pW05IXUMoPU8pW0NIMl1uMltjSF1jKEMoRikoRilGKVtjSF1bY0hdYzI9Tw==

> <s_epik_cmdline>
J2VwaWtfcHl0aG9uJywgJy1waCcsICc3LjAnLCAnLXRuJywgJzgnLCAnLW1hJywgJzIwMCcsICctbWV0YWxfYmluZGluZycsICctaW1hZScsICc8aW5maWxlLm1hZT4nLCAnLW9tYWUnLCAnPG91dGZpbGUubWFlPic=

> <r_lp_tautomer_probability>
1

> <r_epik_Ionization_Penalty>
0.237382

> <r_epik_Ionization_Penalty_Charging>
1.80451e-08

> <r_epik_Ionization_Penalty_Neutral>
0.237382

> <r_epik_State_Penalty>
0.228245

> <r_epik_Charging_Adjusted_Penalty>
0.228245

> <i_epik_Tot_Q>
0

> <i_epik_Tot_abs_Q>
0

> <r_epik_Metal_State_Penalty>
0.228219

> <b_epik_Metal_Only>
0

> <s_lp_Force_Field>
OPLS_2005

> <r_lp_Energy>
37.3685

> <b_lp_Chiralities_Consistent>
1

> <s_lp_Variant>
AV-unprocessed.smi:1578-1

> <Gold.Version>
5.8.1

> <Gold.Id.Protein>
6NUR|6NUR_protein|mol2

> <Gold.PLP.Fitness>
44.8748

> <Gold.PLP.PLP>
-35.5722

> <Gold.PLP.part.hbond>
-4.0000

> <Gold.PLP.part.metal>
0.0000

> <Gold.PLP.part.buried>
-0.3095

> <Gold.PLP.part.nonpolar>
-32.5624

> <Gold.PLP.part.repulsive>
1.5018

> <Gold.PLP.ligand.clash>
1.3459

> <Gold.PLP.ligand.torsion>
0.2274

> <Gold.PLP.Chemscore.Hbond>
3.6720

> <Gold.PLP.Chemscore.CHOScore>
0.0000

> <Gold.PLP.Chemscore.Metal>
0.0000

> <Gold.Chemscore.Hbonds>
donor molecule, donor type, donor heavy atom, donor atom, acceptor molecule, acceptor atom, score
      P1  H  6896  6907       L1    12  0.98
      P1  H  6931  6943       L1    24  0.94
      P1  H  6934  6947       L1    24  0.88
      P1  H  8011  8017       L1     7  0.72

> <Gold.PLP.Chemscore.Internal.Correction>
0.0872

> <Gold.Rescore>
     Score         DG    S(hbond)    S(metal)    S(lipo)     H(rot)  DE(clash)    DE(int)     intcor
     17.57     -20.21       3.54        0.00      70.65       2.09       1.64       0.99       ----

> <Gold.Chemscore.Fitness>
17.5731

> <Gold.Chemscore.DG>
-20.2094

> <Gold.Chemscore.ZeroCoef>
-5.4800

> <Gold.Chemscore.Hbond>
3.5388

> <Gold.Chemscore.Metal>
0.0000

> <Gold.Chemscore.Lipo>
70.6525

> <Gold.Chemscore.Internal_Hbond>
0.0000

> <Gold.Chemscore.DEClash>
1.6430

> <Gold.Chemscore.DEInternal>
0.9933

> <Gold.Chemscore.Rot>
2.0924

> <Gold.Chemscore.Internal.Correction>
   9.000000E+99

> <Gold.Chemscore.Hbonds>
donor molecule, donor type, donor heavy atom, donor atom, acceptor molecule, acceptor atom, score
      P1  H  6896  6907       L1    12  0.93
      P1  H  6931  6943       L1    24  0.91
      P1  H  6934  6947       L1    24  0.86
      P1  H  8011  8017       L1     7  0.51

> <Gold.Chemscore.Hbond.Weighted>
-11.8197

> <Gold.Chemscore.Metal.Weighted>
-0.0000

> <Gold.Chemscore.Lipo.Weighted>
-8.2663

> <Gold.Chemscore.Internal_Hbond.Weighted>
0.0000

> <Gold.Chemscore.DEClash.Weighted>
1.6430

> <Gold.Chemscore.DEInternal.Weighted>
0.9933

> <Gold.Chemscore.Rot.Weighted>
5.3566

> <Gold.Chemscore.Internal.Correction.Weighted>
   9.000000E+99

> <Gold.Protein.RotatedTorsions>
[ 6907 6896 6895 6894 ] final  -57.20 input  -60.11 | X-H torsion
[ 7974 7965 7964 7962 ] final  -24.33 input  175.53 | X-H torsion
[ 8008 7997 7996 7995 ] final   37.65 input   59.86 | X-H torsion
[ 10167 10162 10161 10158 ] final  154.57 input  -65.29 | X-H torsion
[ 10718 10713 10712 10709 ] final  177.72 input   66.30 | X-H torsion
[ 10763 10752 10751 10750 ] final   39.59 input  -60.55 | X-H torsion
[ 11005 11000 10999 10996 ] final  128.56 input  -57.11 | X-H torsion

> <Gold.Protein.ActiveResidues>
 VAL166  LYS551  ARG553  GLY616  TRP617  ASP618  TYR619  PRO620  LYS621  CYS622 
 ASP623  PHE694  ASN695  SER759  ASP760  ASP761  ALA762  ILE779  LEU786  VAL792 
 PHE793  MET794  SER795  GLU796  ALA797  LYS798  CYS799  TRP800  GLU811  SER814 

> <Gold.Protein.RotatedAtoms>
  150.8105  134.7257  159.6683 H   0  0  0  0  0  0  0  0  0  0  0  0  # atno 6907 bound_to 6896
  152.4225  134.5925  159.9988 H   0  0  0  0  0  0  0  0  0  0  0  0  # atno 6908 bound_to 6896
  151.6137  133.3308  159.3109 H   0  0  0  0  0  0  0  0  0  0  0  0  # atno 6909 bound_to 6896
  146.1561  140.4738  142.8591 H   0  0  0  0  0  0  0  0  0  0  0  0  # atno 7974 bound_to 7965
  155.2072  140.3320  155.4334 H   0  0  0  0  0  0  0  0  0  0  0  0  # atno 8008 bound_to 7997
  156.2384  140.1883  156.7105 H   0  0  0  0  0  0  0  0  0  0  0  0  # atno 8009 bound_to 7997
  154.6102  140.0610  156.9469 H   0  0  0  0  0  0  0  0  0  0  0  0  # atno 8010 bound_to 7997
  139.4823  144.5175  151.7929 H   0  0  0  0  0  0  0  0  0  0  0  0  # atno 10167 bound_to 10162
  156.9012  130.9879  151.3035 H   0  0  0  0  0  0  0  0  0  0  0  0  # atno 10718 bound_to 10713
  152.9962  135.6216  154.2489 H   0  0  0  0  0  0  0  0  0  0  0  0  # atno 10763 bound_to 10752
  154.2228  135.2795  155.2920 H   0  0  0  0  0  0  0  0  0  0  0  0  # atno 10764 bound_to 10752
  154.5514  135.5732  153.6984 H   0  0  0  0  0  0  0  0  0  0  0  0  # atno 10765 bound_to 10752
  139.9567  134.9611  156.9020 H   0  0  0  0  0  0  0  0  0  0  0  0  # atno 11005 bound_to 11000
  144.7965  140.6133  143.6506 LP  0  0  0  0  0  0  0  0  0  0  0  0  # atno 17320 bound_to 7965
  145.4705  139.1504  143.3817 LP  0  0  0  0  0  0  0  0  0  0  0  0  # atno 17321 bound_to 7965
  140.4685  144.1621  150.5915 LP  0  0  0  0  0  0  0  0  0  0  0  0  # atno 17342 bound_to 10162
  140.4408  143.2527  151.9475 LP  0  0  0  0  0  0  0  0  0  0  0  0  # atno 17343 bound_to 10162
  157.6025  130.8523  149.8824 LP  0  0  0  0  0  0  0  0  0  0  0  0  # atno 17370 bound_to 10713
  156.0581  130.3704  150.1044 LP  0  0  0  0  0  0  0  0  0  0  0  0  # atno 17371 bound_to 10713
  140.5593  134.0551  155.7393 LP  0  0  0  0  0  0  0  0  0  0  0  0  # atno 17394 bound_to 11000
  141.1239  133.9415  157.2674 LP  0  0  0  0  0  0  0  0  0  0  0  0  # atno 17395 bound_to 11000

$$$$
