AV-unprocessed.smi:1545|AV-procd|sdf|6217|dock6
  -GOLD-   22720 6393D 1   1.00000     0.00000
 Structure written by MMmdl.
 41 43  0  0  0  0  0  0  0  0  1 V2000
  151.8937  136.8971  159.4047 O   0  0  0  0  0  0  0  0  0  0  0  0
  153.1215  137.4544  159.8213 C   0  0  0  0  0  0  0  0  0  0  0  0
  153.6114  138.4911  158.7996 C   0  0  0  0  0  0  0  0  0  0  0  0
  152.5495  139.3866  158.3786 N   0  0  0  0  0  0  0  0  0  0  0  0
  152.3047  140.7304  158.6374 C   0  0  0  0  0  0  0  0  0  0  0  0
  153.0843  141.4985  159.3960 N   0  0  0  0  0  0  0  0  0  0  0  0
  152.4290  142.7147  159.3530 C   0  0  0  0  0  0  0  0  0  0  0  0
  152.7473  143.9501  159.9614 C   0  0  0  0  0  0  0  0  0  0  0  0
  151.9140  145.0728  159.7766 C   0  0  0  0  0  0  0  0  0  0  0  0
  150.7527  144.9775  158.9826 C   0  0  0  0  0  0  0  0  0  0  0  0
  150.4174  143.7570  158.3654 C   0  0  0  0  0  0  0  0  0  0  0  0
  151.2526  142.6389  158.5517 C   0  0  0  0  0  0  0  0  0  0  0  0
  151.2118  141.3226  158.1010 N   0  0  0  0  0  0  0  0  0  0  0  0
  150.1956  140.7262  157.2438 C   0  0  0  0  0  0  0  0  0  0  0  0
  150.4402  141.0155  155.7494 C   0  0  1  0  0  0  0  0  0  0  0  0
  151.5244  140.2369  155.2808 O   0  0  0  0  0  0  0  0  0  0  0  0
  149.1801  140.7929  154.9284 C   0  0  0  0  0  0  0  0  0  0  0  0
  148.9099  139.5303  154.3556 C   0  0  0  0  0  0  0  0  0  0  0  0
  147.7378  139.3294  153.6009 C   0  0  0  0  0  0  0  0  0  0  0  0
  146.8292  140.3891  153.4154 C   0  0  0  0  0  0  0  0  0  0  0  0
  147.0915  141.6487  153.9874 C   0  0  0  0  0  0  0  0  0  0  0  0
  146.2163  142.6671  153.8125 F   0  0  0  0  0  0  0  0  0  0  0  0
  148.2630  141.8499  154.7429 C   0  0  0  0  0  0  0  0  0  0  0  0
  151.8072  137.0216  158.4721 H   0  0  0  0  0  0  0  0  0  0  0  0
  152.9465  137.9430  160.7799 H   0  0  0  0  0  0  0  0  0  0  0  0
  153.8611  136.6711  159.9914 H   0  0  0  0  0  0  0  0  0  0  0  0
  154.4593  139.0586  159.1851 H   0  0  0  0  0  0  0  0  0  0  0  0
  153.9621  137.9743  157.9062 H   0  0  0  0  0  0  0  0  0  0  0  0
  151.8361  138.9320  157.8281 H   0  0  0  0  0  0  0  0  0  0  0  0
  153.6333  144.0334  160.5730 H   0  0  0  0  0  0  0  0  0  0  0  0
  152.1663  146.0116  160.2478 H   0  0  0  0  0  0  0  0  0  0  0  0
  150.1188  145.8418  158.8486 H   0  0  0  0  0  0  0  0  0  0  0  0
  149.5265  143.6801  157.7598 H   0  0  0  0  0  0  0  0  0  0  0  0
  150.1725  139.6510  157.4259 H   0  0  0  0  0  0  0  0  0  0  0  0
  149.2189  141.1045  157.5481 H   0  0  0  0  0  0  0  0  0  0  0  0
  150.7386  142.0588  155.6386 H   0  0  0  0  0  0  0  0  0  0  0  0
  151.8930  139.7654  156.0120 H   0  0  0  0  0  0  0  0  0  0  0  0
  149.6004  138.7112  154.4956 H   0  0  0  0  0  0  0  0  0  0  0  0
  147.5355  138.3621  153.1648 H   0  0  0  0  0  0  0  0  0  0  0  0
  145.9305  140.2354  152.8363 H   0  0  0  0  0  0  0  0  0  0  0  0
  148.4538  142.8190  155.1799 H   0  0  0  0  0  0  0  0  0  0  0  0
  1  2  1  0  0  0  0
  1 24  1  0  0  0  0
  2  3  1  0  0  0  0
  2 25  1  0  0  0  0
  2 26  1  0  0  0  0
  3  4  1  0  0  0  0
  3 27  1  0  0  0  0
  3 28  1  0  0  0  0
  4  5  1  0  0  0  0
  4 29  1  0  0  0  0
  5 13  1  0  0  0  0
  5  6  2  0  0  0  0
  6  7  1  0  0  0  0
  7 12  2  0  0  0  0
  7  8  1  0  0  0  0
  8  9  2  0  0  0  0
  8 30  1  0  0  0  0
  9 10  1  0  0  0  0
  9 31  1  0  0  0  0
 10 11  2  0  0  0  0
 10 32  1  0  0  0  0
 11 12  1  0  0  0  0
 11 33  1  0  0  0  0
 12 13  1  0  0  0  0
 13 14  1  0  0  0  0
 14 15  1  0  0  0  0
 14 34  1  0  0  0  0
 14 35  1  0  0  0  0
 15 16  1  0  0  0  0
 15 17  1  0  0  0  0
 15 36  1  0  0  0  0
 16 37  1  0  0  0  0
 17 23  1  0  0  0  0
 17 18  2  0  0  0  0
 18 19  1  0  0  0  0
 18 38  1  0  0  0  0
 19 20  2  0  0  0  0
 19 39  1  0  0  0  0
 20 21  1  0  0  0  0
 20 40  1  0  0  0  0
 21 22  1  0  0  0  0
 21 23  2  0  0  0  0
 23 41  1  0  0  0  0
M  END
> <s_m_source_file>
AV-unprocessed.smi

> <i_m_source_file_index>
1545

> <i_lp_mmshare_version>
43012

> <i_f3d_flags>
0

> <s_epik_input>
W09IXVtDSDJdW0NIMl1bTkhdYyhuMSluKGMoYzEyKVtjSF1bY0hdW2NIXVtjSF0yKVtDSDJdW0NASF0oW09IXSljM1tjSF1bY0hdW2NIXWMoRilbY0hdMw==

> <s_epik_cmdline>
J2VwaWtfcHl0aG9uJywgJy1waCcsICc3LjAnLCAnLXRuJywgJzgnLCAnLW1hJywgJzIwMCcsICctbWV0YWxfYmluZGluZycsICctaW1hZScsICc8aW5maWxlLm1hZT4nLCAnLW9tYWUnLCAnPG91dGZpbGUubWFlPic=

> <r_epik_Ionization_Penalty>
1.30972

> <r_epik_Ionization_Penalty_Charging>
0

> <r_epik_Ionization_Penalty_Neutral>
1.30972

> <r_epik_State_Penalty>
1.38438

> <r_epik_Charging_Adjusted_Penalty>
1.38438

> <i_epik_Tot_Q>
0

> <i_epik_Tot_abs_Q>
0

> <r_epik_Metal_State_Penalty>
0.00551145

> <b_epik_Metal_Only>
0

> <s_lp_Force_Field>
OPLS_2005

> <r_lp_Energy>
10.2352

> <b_lp_Chiralities_Consistent>
1

> <s_lp_Variant>
AV-unprocessed.smi:1545-4

> <Gold.Version>
5.8.1

> <Gold.Id.Protein>
6NUR|6NUR_protein|mol2

> <Gold.PLP.Fitness>
51.6468

> <Gold.PLP.PLP>
-48.3046

> <Gold.PLP.part.hbond>
-2.0000

> <Gold.PLP.part.metal>
0.0000

> <Gold.PLP.part.buried>
-6.2514

> <Gold.PLP.part.nonpolar>
-41.5921

> <Gold.PLP.part.repulsive>
0.0906

> <Gold.PLP.ligand.clash>
0.0000

> <Gold.PLP.ligand.torsion>
1.2929

> <Gold.PLP.Chemscore.Hbond>
1.9600

> <Gold.PLP.Chemscore.CHOScore>
0.0000

> <Gold.PLP.Chemscore.Metal>
0.0000

> <Gold.Chemscore.Hbonds>
donor molecule, donor type, donor heavy atom, donor atom, acceptor molecule, acceptor atom, score
      P1  H  6896  6907       L1     1  1.00
      P1  H  7989  7998       L1    16  0.96

> <Gold.PLP.Chemscore.Internal.Correction>
0.0480

> <Gold.Rescore>
     Score         DG    S(hbond)    S(metal)    S(lipo)     H(rot)  DE(clash)    DE(int)     intcor
     16.23     -17.35       1.71        0.00     120.11       3.08       0.05       1.07       ----

> <Gold.Chemscore.Fitness>
16.2309

> <Gold.Chemscore.DG>
-17.3500

> <Gold.Chemscore.ZeroCoef>
-5.4800

> <Gold.Chemscore.Hbond>
1.7080

> <Gold.Chemscore.Metal>
0.0000

> <Gold.Chemscore.Lipo>
120.1122

> <Gold.Chemscore.Internal_Hbond>
0.0000

> <Gold.Chemscore.DEClash>
0.0485

> <Gold.Chemscore.DEInternal>
1.0706

> <Gold.Chemscore.Rot>
3.0812

> <Gold.Chemscore.Internal.Correction>
   9.000000E+99

> <Gold.Chemscore.Hbonds>
donor molecule, donor type, donor heavy atom, donor atom, acceptor molecule, acceptor atom, score
      P1  H  6896  6907       L1     1  0.81
      P1  H  7989  7998       L1    16  0.24

> <Gold.Chemscore.Hbond.Weighted>
-5.7047

> <Gold.Chemscore.Metal.Weighted>
-0.0000

> <Gold.Chemscore.Lipo.Weighted>
-14.0531

> <Gold.Chemscore.Internal_Hbond.Weighted>
0.0000

> <Gold.Chemscore.DEClash.Weighted>
0.0485

> <Gold.Chemscore.DEInternal.Weighted>
1.0706

> <Gold.Chemscore.Rot.Weighted>
7.8878

> <Gold.Chemscore.Internal.Correction.Weighted>
   9.000000E+99

> <Gold.Protein.RotatedTorsions>
[ 6907 6896 6895 6894 ] final   -9.27 input  -60.11 | X-H torsion
[ 7974 7965 7964 7962 ] final  108.20 input  175.53 | X-H torsion
[ 8008 7997 7996 7995 ] final   35.13 input   59.86 | X-H torsion
[ 10167 10162 10161 10158 ] final   75.57 input  -65.29 | X-H torsion
[ 10718 10713 10712 10709 ] final -154.78 input   66.30 | X-H torsion
[ 10763 10752 10751 10750 ] final  157.69 input  -60.55 | X-H torsion
[ 11005 11000 10999 10996 ] final  148.23 input  -57.11 | X-H torsion

> <Gold.Protein.ActiveResidues>
 VAL166  LYS551  ARG553  GLY616  TRP617  ASP618  TYR619  PRO620  LYS621  CYS622 
 ASP623  PHE694  ASN695  SER759  ASP760  ASP761  ALA762  ILE779  LEU786  VAL792 
 PHE793  MET794  SER795  GLU796  ALA797  LYS798  CYS799  TRP800  GLU811  SER814 

> <Gold.Protein.RotatedAtoms>
  151.4204  135.0997  159.9611 H   0  0  0  0  0  0  0  0  0  0  0  0  # atno 6907 bound_to 6896
  152.4990  133.8712  159.7310 H   0  0  0  0  0  0  0  0  0  0  0  0  # atno 6908 bound_to 6896
  150.9227  133.6803  159.2856 H   0  0  0  0  0  0  0  0  0  0  0  0  # atno 6909 bound_to 6896
  145.2838  139.2623  143.3901 H   0  0  0  0  0  0  0  0  0  0  0  0  # atno 7974 bound_to 7965
  155.1661  140.3287  155.4402 H   0  0  0  0  0  0  0  0  0  0  0  0  # atno 8008 bound_to 7997
  156.2526  140.1952  156.6716 H   0  0  0  0  0  0  0  0  0  0  0  0  # atno 8009 bound_to 7997
  154.6371  140.0575  156.9787 H   0  0  0  0  0  0  0  0  0  0  0  0  # atno 8010 bound_to 7997
  140.0015  144.5682  150.7733 H   0  0  0  0  0  0  0  0  0  0  0  0  # atno 10167 bound_to 10162
  156.5040  130.8404  151.2620 H   0  0  0  0  0  0  0  0  0  0  0  0  # atno 10718 bound_to 10713
  154.2043  135.2789  155.2980 H   0  0  0  0  0  0  0  0  0  0  0  0  # atno 10763 bound_to 10752
  154.5829  135.5584  153.7206 H   0  0  0  0  0  0  0  0  0  0  0  0  # atno 10764 bound_to 10752
  153.0080  135.6349  154.2182 H   0  0  0  0  0  0  0  0  0  0  0  0  # atno 10765 bound_to 10752
  140.0942  134.9022  157.1698 H   0  0  0  0  0  0  0  0  0  0  0  0  # atno 11005 bound_to 11000
  146.3207  140.3312  142.8640 LP  0  0  0  0  0  0  0  0  0  0  0  0  # atno 17320 bound_to 7965
  144.9231  140.7890  143.5736 LP  0  0  0  0  0  0  0  0  0  0  0  0  # atno 17321 bound_to 7965
  140.7417  143.2821  151.3567 LP  0  0  0  0  0  0  0  0  0  0  0  0  # atno 17342 bound_to 10162
  139.6268  144.0798  152.2441 LP  0  0  0  0  0  0  0  0  0  0  0  0  # atno 17343 bound_to 10162
  157.7459  130.9972  150.2808 LP  0  0  0  0  0  0  0  0  0  0  0  0  # atno 17370 bound_to 10713
  156.3305  130.3799  149.7495 LP  0  0  0  0  0  0  0  0  0  0  0  0  # atno 17371 bound_to 10713
  140.3309  134.2811  155.7228 LP  0  0  0  0  0  0  0  0  0  0  0  0  # atno 17394 bound_to 11000
  141.2087  133.7770  157.0042 LP  0  0  0  0  0  0  0  0  0  0  0  0  # atno 17395 bound_to 11000

$$$$
