#       Name:                AV-unprocessed.smi:3018
#       Creating user name   scv26
#       Creation time:       Fri Mar 27 16:42:01 2020


#       File generated by GOLD software.
#

@<TRIPOS>MOLECULE
AV-unprocessed.smi:3018
    52    53     1
SMALL
NO_CHARGES


@<TRIPOS>ATOM
      1 ****        -3.0614  -1.7887   2.6182 C.3            1 S1                 0.0000
      2 ****        -1.5510  -1.7611   2.8848 C.3            1 S1                 0.0000
      3 ****        -0.7811  -0.9311   1.8404 C.3            1 S1                 0.0000
      4 ****        -0.8487  -1.6216   0.5945 O.3            1 S1                 0.0000
      5 ****        -0.6434  -0.8327  -0.5745 C.3            1 S1                 0.0000
      6 ****        -1.9682  -0.1640  -0.9927 C.3            1 S1                 0.0000
      7 ****        -1.8188   0.5885  -2.3245 C.3            1 S1                 0.0000
      8 ****        -1.2874  -0.3335  -3.4339 C.3            1 S1                 0.0000
      9 ****         0.0270  -1.0118  -3.0158 C.3            1 S1                 0.0000
     10 ****        -0.1338  -1.7653  -1.6861 C.3            1 S1                 0.0000
     11 ****         0.6922  -0.7391   2.2333 C.2            1 S1                 0.0000
     12 ****         1.3447  -1.6771   2.6924 O.2            1 S1                 0.0000
     13 ****         1.2062   0.4810   2.0250 N.am           1 S1                 0.0000
     14 ****         2.6058   0.8410   2.2177 C.3            1 S1                 0.0000
     15 ****         2.9574   2.1402   1.4719 C.3            1 S1                 0.0000
     16 ****         2.8350   2.0181  -0.0376 C.2            1 S1                 0.0000
     17 ****         3.5822   1.3755  -0.8577 N.2            1 S1                 0.0000
     18 ****         2.9940   1.6056  -2.1439 N.pl3          1 S1                -1.0000
     19 ****         1.9106   2.3969  -1.9502 C.2            1 S1                 0.0000
     20 ****         1.1225   2.8374  -2.7840 O.2            1 S1                 0.0000
     21 ****         1.7969   2.6573  -0.6520 N.am           1 S1                 0.0000
     22 ****         1.0923   3.2208  -0.2002 H              1 S1                 0.0000
     23 ****        -3.5787  -2.3795   3.3743 H              1 S1                 0.0000
     24 ****        -3.2826  -2.2271   1.6448 H              1 S1                 0.0000
     25 ****        -3.4825  -0.7831   2.6353 H              1 S1                 0.0000
     26 ****        -1.3809  -1.3504   3.8811 H              1 S1                 0.0000
     27 ****        -1.1705  -2.7833   2.9047 H              1 S1                 0.0000
     28 ****        -1.2591   0.0467   1.7634 H              1 S1                 0.0000
     29 ****         0.1142  -0.0663  -0.4070 H              1 S1                 0.0000
     30 ****        -2.7457  -0.9229  -1.0886 H              1 S1                 0.0000
     31 ****        -2.3076   0.5284  -0.2228 H              1 S1                 0.0000
     32 ****        -2.7782   1.0128  -2.6219 H              1 S1                 0.0000
     33 ****        -1.1386   1.4297  -2.1905 H              1 S1                 0.0000
     34 ****        -2.0333  -1.0953  -3.6635 H              1 S1                 0.0000
     35 ****        -1.1353   0.2377  -4.3502 H              1 S1                 0.0000
     36 ****         0.3570  -1.6980  -3.7959 H              1 S1                 0.0000
     37 ****         0.8107  -0.2608  -2.9165 H              1 S1                 0.0000
     38 ****         0.8206  -2.2037  -1.3925 H              1 S1                 0.0000
     39 ****        -0.8291  -2.5951  -1.8194 H              1 S1                 0.0000
     40 ****         0.6002   1.1911   1.6404 H              1 S1                 0.0000
     41 ****         2.7882   0.9676   3.2853 H              1 S1                 0.0000
     42 ****         3.2559   0.0316   1.8796 H              1 S1                 0.0000
     43 ****         2.3206   2.9519   1.8267 H              1 S1                 0.0000
     44 ****         3.9807   2.4313   1.7102 H              1 S1                 0.0000
     45 ****        -1.7549  -2.0387   0.5257 LP             1 S1                 0.0000
     46 ****        -0.1517  -2.3386   0.6049 LP             1 S1                 0.0000
     47 ****         0.9165  -2.5728   2.8122 LP             1 S1                 0.0000
     48 ****         2.3029  -1.5431   2.9453 LP             1 S1                 0.0000
     49 ****         4.3956   0.8336  -0.6465 LP             1 S1                 0.0000
     50 ****         3.3211   1.2496  -3.0193 LP             1 S1                 0.0000
     51 ****         1.2440   2.6175  -3.7520 LP             1 S1                 0.0000
     52 ****         0.3598   3.4157  -2.4946 LP             1 S1                 0.0000
@<TRIPOS>BOND
    1    1    2 1     
    2    1   23 1     
    3    1   24 1     
    4    1   25 1     
    5    2    3 1     
    6    2   26 1     
    7    2   27 1     
    8    3    4 1     
    9    3   11 1     
   10    3   28 1     
   11    4    5 1     
   12    5   10 1     
   13    5    6 1     
   14    5   29 1     
   15    6    7 1     
   16    6   30 1     
   17    6   31 1     
   18    7    8 1     
   19    7   32 1     
   20    7   33 1     
   21    8    9 1     
   22    8   34 1     
   23    8   35 1     
   24    9   10 1     
   25    9   36 1     
   26    9   37 1     
   27   10   38 1     
   28   10   39 1     
   29   11   12 2     
   30   11   13 am    
   31   13   14 1     
   32   13   40 1     
   33   14   15 1     
   34   14   41 1     
   35   14   42 1     
   36   15   16 1     
   37   15   43 1     
   38   15   44 1     
   39   16   21 1     
   40   16   17 2     
   41   17   18 1     
   42   18   19 1     
   43   19   20 2     
   44   19   21 am    
   45   21   22 1     
   46    4   45 1     
   47    4   46 1     
   48   12   47 1     
   49   12   48 1     
   50   17   49 1     
   51   18   50 1     
   52   20   51 1     
   53   20   52 1     
@<TRIPOS>SUBSTRUCTURE
      1 S1             1
@<TRIPOS>SET
LONE_PAIRS      STATIC     ATOMS    <user>   **** ""
8 45 46 47 48 49 50 51 52
DONOR_HYDROGENS      STATIC     ATOMS    <user>   **** ""
2 40 22
ATOM$BLUE        STATIC     ATOMS    COLORGROUP SYSTEM
8 45 46 47 48 49 50 51 52
ATOM$RED        STATIC     ATOMS    COLORGROUP SYSTEM
2 40 22
