AV-unprocessed.smi:862|AV-procd|sdf|3980|dock2
  -GOLD-   22720 1453D 1   1.00000     0.00000
 Structure written by MMmdl.
 45 47  0  0  0  0  0  0  0  0  3 V2000
  149.3265  136.8843  154.3906 N   0  0  0  0  0  0  0  0  0  0  0  0
  150.6121  136.8207  154.7509 C   0  0  0  0  0  0  0  0  0  0  0  0
  151.1540  135.7401  154.9760 O   0  0  0  0  0  0  0  0  0  0  0  0
  151.2597  138.0122  154.7988 N   0  0  0  0  0  0  0  0  0  0  0  0
  150.6773  139.3290  154.4913 C   0  0  0  0  0  0  0  0  0  0  0  0
  150.4309  140.0814  155.8122 C   0  0  0  0  0  0  0  0  0  0  0  0
  151.7316  140.2181  156.6320 C   0  0  0  0  0  0  0  0  0  0  0  0
  151.4324  140.8217  157.9504 N   0  3  0  0  0  0  0  0  0  0  0  0
  152.5898  141.3685  158.6972 C   0  0  2  0  0  0  0  0  0  0  0  0
  153.5131  140.2898  159.2717 C   0  0  0  0  0  0  0  0  0  0  0  0
  154.2599  140.9743  160.4224 C   0  0  0  0  0  0  0  0  0  0  0  0
  153.3891  142.1609  160.8634 C   0  0  0  0  0  0  0  0  0  0  0  0
  152.1516  142.1418  159.9499 C   0  0  1  0  0  0  0  0  0  0  0  0
  151.5989  143.4777  159.6709 N   0  0  0  0  0  0  0  0  0  0  0  0
  152.0994  144.6788  160.1068 C   0  0  0  0  0  0  0  0  0  0  0  0
  151.2733  145.6538  159.6101 C   0  0  0  0  0  0  0  0  0  0  0  0
  150.3014  145.0101  158.8935 N   0  3  0  0  0  0  0  0  0  0  0  0
  150.4990  143.6884  158.9322 C   0  0  0  0  0  0  0  0  0  0  0  0
  152.4254  138.8453  156.7851 C   0  0  0  0  0  0  0  0  0  0  0  0
  152.5819  138.1488  155.4214 C   0  0  0  0  0  0  0  0  0  0  0  0
  148.7855  136.0344  154.3218 H   0  0  0  0  0  0  0  0  0  0  0  0
  148.9036  137.7755  154.1771 H   0  0  0  0  0  0  0  0  0  0  0  0
  151.3723  139.8904  153.8653 H   0  0  0  0  0  0  0  0  0  0  0  0
  149.7507  139.2781  153.9198 H   0  0  0  0  0  0  0  0  0  0  0  0
  150.0166  141.0684  155.6027 H   0  0  0  0  0  0  0  0  0  0  0  0
  149.6778  139.5467  156.3936 H   0  0  0  0  0  0  0  0  0  0  0  0
  152.3951  140.8835  156.0772 H   0  0  0  0  0  0  0  0  0  0  0  0
  150.8082  141.5966  157.7780 H   0  0  0  0  0  0  0  0  0  0  0  0
  153.1693  142.0253  158.0462 H   0  0  0  0  0  0  0  0  0  0  0  0
  152.9224  139.4623  159.6684 H   0  0  0  0  0  0  0  0  0  0  0  0
  154.1976  139.8827  158.5268 H   0  0  0  0  0  0  0  0  0  0  0  0
  154.4498  140.2807  161.2423 H   0  0  0  0  0  0  0  0  0  0  0  0
  155.2279  141.3390  160.0760 H   0  0  0  0  0  0  0  0  0  0  0  0
  153.1022  142.0827  161.9127 H   0  0  0  0  0  0  0  0  0  0  0  0
  153.9601  143.0837  160.7575 H   0  0  0  0  0  0  0  0  0  0  0  0
  151.3731  141.5685  160.4572 H   0  0  0  0  0  0  0  0  0  0  0  0
  152.9866  144.7521  160.7197 H   0  0  0  0  0  0  0  0  0  0  0  0
  151.3043  146.7294  159.7087 H   0  0  0  0  0  0  0  0  0  0  0  0
  149.8904  142.9415  158.4536 H   0  0  0  0  0  0  0  0  0  0  0  0
  153.4058  138.9551  157.2464 H   0  0  0  0  0  0  0  0  0  0  0  0
  151.8422  138.2062  157.4501 H   0  0  0  0  0  0  0  0  0  0  0  0
  153.0862  137.1894  155.5465 H   0  0  0  0  0  0  0  0  0  0  0  0
  153.2295  138.7376  154.7702 H   0  0  0  0  0  0  0  0  0  0  0  0
  150.9449  140.1456  158.5213 H   0  0  0  0  0  0  0  0  0  0  0  0
  149.5443  145.4671  158.4002 H   0  0  0  0  0  0  0  0  0  0  0  0
  1  2  1  0  0  0  0
  1 21  1  0  0  0  0
  1 22  1  0  0  0  0
  2  3  2  0  0  0  0
  2  4  1  0  0  0  0
  4 20  1  0  0  0  0
  4  5  1  0  0  0  0
  5  6  1  0  0  0  0
  5 23  1  0  0  0  0
  5 24  1  0  0  0  0
  6  7  1  0  0  0  0
  6 25  1  0  0  0  0
  6 26  1  0  0  0  0
  7  8  1  0  0  0  0
  7 19  1  0  0  0  0
  7 27  1  0  0  0  0
  8  9  1  0  0  0  0
  8 28  1  0  0  0  0
  8 44  1  0  0  0  0
  9 13  1  0  0  0  0
  9 10  1  0  0  0  0
  9 29  1  0  0  0  0
 10 11  1  0  0  0  0
 10 30  1  0  0  0  0
 10 31  1  0  0  0  0
 11 12  1  0  0  0  0
 11 32  1  0  0  0  0
 11 33  1  0  0  0  0
 12 13  1  0  0  0  0
 12 34  1  0  0  0  0
 12 35  1  0  0  0  0
 13 14  1  0  0  0  0
 13 36  1  0  0  0  0
 14 18  1  0  0  0  0
 14 15  1  0  0  0  0
 15 16  2  0  0  0  0
 15 37  1  0  0  0  0
 16 17  1  0  0  0  0
 16 38  1  0  0  0  0
 17 18  2  0  0  0  0
 17 45  1  0  0  0  0
 18 39  1  0  0  0  0
 19 20  1  0  0  0  0
 19 40  1  0  0  0  0
 19 41  1  0  0  0  0
 20 42  1  0  0  0  0
 20 43  1  0  0  0  0
M  CHG  1   8   1
M  CHG  1  17   1
M  END
> <s_m_source_file>
AV-unprocessed.smi

> <i_m_source_file_index>
862

> <i_lp_mmshare_version>
43012

> <i_f3d_flags>
0

> <s_epik_input>
W05IMl1DKD1PKU4xW0NIMl1bQ0gyXVtDSF0oW0NIMl1bQ0gyXTEpW05IXVtDQEBIXTJbQ0gyXVtDSDJdW0NIMl1bQ0BIXTJuM1tjSF1bY0hdbltjSF0z

> <s_epik_cmdline>
J2VwaWtfcHl0aG9uJywgJy1waCcsICc3LjAnLCAnLXRuJywgJzgnLCAnLW1hJywgJzIwMCcsICctbWV0YWxfYmluZGluZycsICctaW1hZScsICc8aW5maWxlLm1hZT4nLCAnLW9tYWUnLCAnPG91dGZpbGUubWFlPic=

> <r_lp_tautomer_probability>
1

> <r_epik_Ionization_Penalty>
1.30217

> <r_epik_Ionization_Penalty_Charging>
0.00439521

> <r_epik_Ionization_Penalty_Neutral>
1.29777

> <r_epik_State_Penalty>
0.977606

> <r_epik_Charging_Adjusted_Penalty>
0.982001

> <i_epik_Tot_Q>
2

> <i_epik_Tot_abs_Q>
2

> <r_epik_Metal_State_Penalty>
1.03289

> <b_epik_Metal_Only>
0

> <s_lp_Force_Field>
OPLS_2005

> <r_lp_Energy>
65.3299

> <b_lp_Chiralities_Consistent>
1

> <s_lp_Variant>
AV-unprocessed.smi:862-5

> <Gold.Version>
5.8.1

> <Gold.Id.Protein>
6NUR|6NUR_protein|mol2

> <Gold.PLP.Fitness>
50.9216

> <Gold.PLP.PLP>
-42.3511

> <Gold.PLP.part.hbond>
-2.9916

> <Gold.PLP.part.metal>
0.0000

> <Gold.PLP.part.buried>
-3.5357

> <Gold.PLP.part.nonpolar>
-38.0637

> <Gold.PLP.part.repulsive>
0.4357

> <Gold.PLP.ligand.clash>
0.0000

> <Gold.PLP.ligand.torsion>
0.2147

> <Gold.PLP.Chemscore.Hbond>
2.9825

> <Gold.PLP.Chemscore.CHOScore>
0.0000

> <Gold.PLP.Chemscore.Metal>
0.0000

> <Gold.Chemscore.Hbonds>
donor molecule, donor type, donor heavy atom, donor atom, acceptor molecule, acceptor atom, score
      L1  H    17    45       P1  8029  1.95
      P1  H 10752 10763       L1     3  1.00

> <Gold.PLP.Chemscore.Internal.Correction>
0.0524

> <Gold.Rescore>
     Score         DG    S(hbond)    S(metal)    S(lipo)     H(rot)  DE(clash)    DE(int)     intcor
     19.01     -19.42       1.92        0.00     101.08       1.68       0.07       0.35       ----

> <Gold.Chemscore.Fitness>
19.0067

> <Gold.Chemscore.DG>
-19.4168

> <Gold.Chemscore.ZeroCoef>
-5.4800

> <Gold.Chemscore.Hbond>
1.9205

> <Gold.Chemscore.Metal>
0.0000

> <Gold.Chemscore.Lipo>
101.0827

> <Gold.Chemscore.Internal_Hbond>
0.0000

> <Gold.Chemscore.DEClash>
0.0650

> <Gold.Chemscore.DEInternal>
0.3450

> <Gold.Chemscore.Rot>
1.6814

> <Gold.Chemscore.Internal.Correction>
   9.000000E+99

> <Gold.Chemscore.Hbonds>
donor molecule, donor type, donor heavy atom, donor atom, acceptor molecule, acceptor atom, score
      L1  H    17    45       P1  8029  0.72
      P1  H 10752 10763       L1     3  0.96

> <Gold.Chemscore.Hbond.Weighted>
-6.4144

> <Gold.Chemscore.Metal.Weighted>
-0.0000

> <Gold.Chemscore.Lipo.Weighted>
-11.8267

> <Gold.Chemscore.Internal_Hbond.Weighted>
0.0000

> <Gold.Chemscore.DEClash.Weighted>
0.0650

> <Gold.Chemscore.DEInternal.Weighted>
0.3450

> <Gold.Chemscore.Rot.Weighted>
4.3043

> <Gold.Chemscore.Internal.Correction.Weighted>
   9.000000E+99

> <Gold.Protein.RotatedTorsions>
[ 6907 6896 6895 6894 ] final   33.86 input  -60.11 | X-H torsion
[ 7974 7965 7964 7962 ] final -152.40 input  175.53 | X-H torsion
[ 8008 7997 7996 7995 ] final  -66.27 input   59.86 | X-H torsion
[ 10167 10162 10161 10158 ] final  -45.35 input  -65.29 | X-H torsion
[ 10718 10713 10712 10709 ] final  -97.17 input   66.30 | X-H torsion
[ 10763 10752 10751 10750 ] final   74.84 input  -60.55 | X-H torsion
[ 11005 11000 10999 10996 ] final -170.93 input  -57.11 | X-H torsion

> <Gold.Protein.ActiveResidues>
 VAL166  LYS551  ARG553  GLY616  TRP617  ASP618  TYR619  PRO620  LYS621  CYS622 
 ASP623  PHE694  ASN695  SER759  ASP760  ASP761  ALA762  ILE779  LEU786  VAL792 
 PHE793  MET794  SER795  GLU796  ALA797  LYS798  CYS799  TRP800  GLU811  SER814 

> <Gold.Protein.RotatedAtoms>
  152.0944  134.9385  160.0570 H   0  0  0  0  0  0  0  0  0  0  0  0  # atno 6907 bound_to 6896
  152.0624  133.4063  159.4431 H   0  0  0  0  0  0  0  0  0  0  0  0  # atno 6908 bound_to 6896
  150.6837  134.3106  159.4788 H   0  0  0  0  0  0  0  0  0  0  0  0  # atno 6909 bound_to 6896
  144.7796  140.4667  143.5848 H   0  0  0  0  0  0  0  0  0  0  0  0  # atno 7974 bound_to 7965
  154.4724  140.0916  156.7177 H   0  0  0  0  0  0  0  0  0  0  0  0  # atno 8008 bound_to 7997
  155.4689  140.3463  155.4304 H   0  0  0  0  0  0  0  0  0  0  0  0  # atno 8009 bound_to 7997
  156.1060  140.1435  156.9391 H   0  0  0  0  0  0  0  0  0  0  0  0  # atno 8010 bound_to 7997
  140.6861  143.2884  151.3626 H   0  0  0  0  0  0  0  0  0  0  0  0  # atno 10167 bound_to 10162
  156.0078  130.5183  150.6335 H   0  0  0  0  0  0  0  0  0  0  0  0  # atno 10718 bound_to 10713
  153.0614  135.5011  154.8101 H   0  0  0  0  0  0  0  0  0  0  0  0  # atno 10763 bound_to 10752
  154.6888  135.2981  154.9512 H   0  0  0  0  0  0  0  0  0  0  0  0  # atno 10764 bound_to 10752
  154.0273  135.6734  153.4830 H   0  0  0  0  0  0  0  0  0  0  0  0  # atno 10765 bound_to 10752
  140.5139  134.5775  157.5027 H   0  0  0  0  0  0  0  0  0  0  0  0  # atno 11005 bound_to 11000
  145.6087  139.1511  143.3088 LP  0  0  0  0  0  0  0  0  0  0  0  0  # atno 17320 bound_to 7965
  146.1997  140.6204  142.9108 LP  0  0  0  0  0  0  0  0  0  0  0  0  # atno 17321 bound_to 7965
  139.6222  144.0885  152.2401 LP  0  0  0  0  0  0  0  0  0  0  0  0  # atno 17342 bound_to 10162
  140.0333  144.6064  150.7470 LP  0  0  0  0  0  0  0  0  0  0  0  0  # atno 17343 bound_to 10162
  157.4128  131.0826  151.1204 LP  0  0  0  0  0  0  0  0  0  0  0  0  # atno 17370 bound_to 10713
  157.1830  130.6318  149.5678 LP  0  0  0  0  0  0  0  0  0  0  0  0  # atno 17371 bound_to 10713
  139.9643  134.7399  156.0170 LP  0  0  0  0  0  0  0  0  0  0  0  0  # atno 17394 bound_to 11000
  141.1371  133.6573  156.3623 LP  0  0  0  0  0  0  0  0  0  0  0  0  # atno 17395 bound_to 11000

$$$$
