AV-unprocessed.smi:3253|AV-procd|sdf|12450|dock5
  -GOLD-   2272018343D 1   1.00000     0.00000
 Structure written by MMmdl.
 36 37  0  0  0  0  0  0  0  0  1 V2000
  148.3451  141.9629  157.4132 C   0  0  0  0  0  0  0  0  0  0  0  0
  149.6280  141.1874  157.0845 C   0  0  1  0  0  0  0  0  0  0  0  0
  149.8333  141.0603  155.5598 C   0  0  0  0  0  0  0  0  0  0  0  0
  150.6768  139.9350  155.1995 N   0  0  0  0  0  0  0  0  0  0  0  0
  150.4812  139.0396  154.1557 C   0  0  0  0  0  0  0  0  0  0  0  0
  151.5353  138.1553  154.1937 C   0  0  0  0  0  0  0  0  0  0  0  0
  152.3820  138.4805  155.2507 N   0  0  0  0  0  0  0  0  0  0  0  0
  151.8082  139.5427  155.8008 C   0  0  0  0  0  0  0  0  0  0  0  0
  150.7655  141.8648  157.7056 N   0  0  0  0  0  0  0  0  0  0  0  0
  151.7129  141.2781  158.4546 C   0  0  0  0  0  0  0  0  0  0  0  0
  151.7055  140.0804  158.7407 O   0  0  0  0  0  0  0  0  0  0  0  0
  152.8578  142.1807  158.9380 C   0  0  2  0  0  0  0  0  0  0  0  0
  153.8820  141.3825  159.7705 C   0  0  0  0  0  0  0  0  0  0  0  0
  153.7328  141.9438  161.1744 C   0  0  0  0  0  0  0  0  0  0  0  0
  154.3275  141.4801  162.1461 O   0  0  0  0  0  0  0  0  0  0  0  0
  152.8820  142.9735  161.1895 N   0  0  0  0  0  0  0  0  0  0  0  0
  152.4924  143.7404  162.3649 C   0  0  0  0  0  0  0  0  0  0  0  0
  152.3692  143.3095  159.8723 C   0  0  0  0  0  0  0  0  0  0  0  0
  147.4697  141.4705  156.9888 H   0  0  0  0  0  0  0  0  0  0  0  0
  148.3804  142.9782  157.0162 H   0  0  0  0  0  0  0  0  0  0  0  0
  148.1928  142.0309  158.4909 H   0  0  0  0  0  0  0  0  0  0  0  0
  149.5147  140.1871  157.5068 H   0  0  0  0  0  0  0  0  0  0  0  0
  148.8720  140.9288  155.0616 H   0  0  0  0  0  0  0  0  0  0  0  0
  150.2723  141.9730  155.1539 H   0  0  0  0  0  0  0  0  0  0  0  0
  149.6368  139.1086  153.4862 H   0  0  0  0  0  0  0  0  0  0  0  0
  151.7479  137.3167  153.5472 H   0  0  0  0  0  0  0  0  0  0  0  0
  152.2244  140.0519  156.6577 H   0  0  0  0  0  0  0  0  0  0  0  0
  150.8550  142.8544  157.5263 H   0  0  0  0  0  0  0  0  0  0  0  0
  153.3528  142.6211  158.0708 H   0  0  0  0  0  0  0  0  0  0  0  0
  153.7051  140.3054  159.7708 H   0  0  0  0  0  0  0  0  0  0  0  0
  154.8983  141.5556  159.4152 H   0  0  0  0  0  0  0  0  0  0  0  0
  153.3717  144.0846  162.9107 H   0  0  0  0  0  0  0  0  0  0  0  0
  151.8892  143.1272  163.0349 H   0  0  0  0  0  0  0  0  0  0  0  0
  151.9058  144.6159  162.0853 H   0  0  0  0  0  0  0  0  0  0  0  0
  152.7762  144.2725  159.5613 H   0  0  0  0  0  0  0  0  0  0  0  0
  151.2820  143.4049  159.8985 H   0  0  0  0  0  0  0  0  0  0  0  0
  1  2  1  0  0  0  0
  1 19  1  0  0  0  0
  1 20  1  0  0  0  0
  1 21  1  0  0  0  0
  2  3  1  0  0  0  0
  2  9  1  0  0  0  0
  2 22  1  0  0  0  0
  3  4  1  0  0  0  0
  3 23  1  0  0  0  0
  3 24  1  0  0  0  0
  4  8  1  0  0  0  0
  4  5  1  0  0  0  0
  5  6  2  0  0  0  0
  5 25  1  0  0  0  0
  6  7  1  0  0  0  0
  6 26  1  0  0  0  0
  7  8  2  0  0  0  0
  8 27  1  0  0  0  0
  9 10  1  0  0  0  0
  9 28  1  0  0  0  0
 10 11  2  0  0  0  0
 10 12  1  0  0  0  0
 12 18  1  0  0  0  0
 12 13  1  0  0  0  0
 12 29  1  0  0  0  0
 13 14  1  0  0  0  0
 13 30  1  0  0  0  0
 13 31  1  0  0  0  0
 14 15  2  0  0  0  0
 14 16  1  0  0  0  0
 16 17  1  0  0  0  0
 16 18  1  0  0  0  0
 17 32  1  0  0  0  0
 17 33  1  0  0  0  0
 17 34  1  0  0  0  0
 18 35  1  0  0  0  0
 18 36  1  0  0  0  0
M  END
> <s_m_source_file>
AV-unprocessed.smi

> <i_m_source_file_index>
3253

> <i_lp_mmshare_version>
43012

> <i_f3d_flags>
0

> <s_epik_input>
W2NIXTFuW2NIXVtjSF1uMVtDSDJdW0NAQEhdKFtDSDNdKVtOSF1DKD1PKVtDQEBIXTJbQ0gyXUMoPU8pTihbQ0gzXSlbQ0gyXTI=

> <s_epik_cmdline>
J2VwaWtfcHl0aG9uJywgJy1waCcsICc3LjAnLCAnLXRuJywgJzgnLCAnLW1hJywgJzIwMCcsICctbWV0YWxfYmluZGluZycsICctaW1hZScsICc8aW5maWxlLm1hZT4nLCAnLW9tYWUnLCAnPG91dGZpbGUubWFlPic=

> <r_lp_tautomer_probability>
1

> <r_epik_Ionization_Penalty>
0.628884

> <r_epik_Ionization_Penalty_Charging>
0.628884

> <r_epik_Ionization_Penalty_Neutral>
2.35084e-08

> <r_epik_State_Penalty>
0.64556

> <r_epik_Charging_Adjusted_Penalty>
1.27444

> <i_epik_Tot_Q>
0

> <i_epik_Tot_abs_Q>
0

> <r_epik_Metal_State_Penalty>
0.308736

> <b_epik_Metal_Only>
0

> <s_lp_Force_Field>
OPLS_2005

> <r_lp_Energy>
12.6473

> <b_lp_Chiralities_Consistent>
1

> <s_lp_Variant>
AV-unprocessed.smi:3253-6

> <Gold.Version>
5.8.1

> <Gold.Id.Protein>
6NUR|6NUR_protein|mol2

> <Gold.PLP.Fitness>
46.3890

> <Gold.PLP.PLP>
-41.7318

> <Gold.PLP.part.hbond>
-1.0000

> <Gold.PLP.part.metal>
0.0000

> <Gold.PLP.part.buried>
-3.7001

> <Gold.PLP.part.nonpolar>
-35.7463

> <Gold.PLP.part.repulsive>
0.0494

> <Gold.PLP.ligand.clash>
0.0000

> <Gold.PLP.ligand.torsion>
0.6084

> <Gold.PLP.Chemscore.Hbond>
0.0000

> <Gold.PLP.Chemscore.CHOScore>
1.9511

> <Gold.PLP.Chemscore.Metal>
0.0000

> <Gold.Chemscore.Hbonds>
donor molecule, donor type, donor heavy atom, donor atom, acceptor molecule, acceptor atom, score
      L1  C     5    25       P1  7957  0.94
      L1  C     6    26       P1  7949  1.00

> <Gold.PLP.Chemscore.Internal.Correction>
0.0207

> <Gold.Rescore>
     Score         DG    S(hbond)    S(metal)    S(lipo)     H(rot)  DE(clash)    DE(int)     intcor
      8.55      -9.09       0.00        0.00      73.90       1.97       0.10       0.44       ----

> <Gold.Chemscore.Fitness>
8.5533

> <Gold.Chemscore.DG>
-9.0916

> <Gold.Chemscore.ZeroCoef>
-5.4800

> <Gold.Chemscore.Hbond>
0.0000

> <Gold.Chemscore.Metal>
0.0000

> <Gold.Chemscore.Lipo>
73.9038

> <Gold.Chemscore.Internal_Hbond>
0.0000

> <Gold.Chemscore.DEClash>
0.0992

> <Gold.Chemscore.DEInternal>
0.4391

> <Gold.Chemscore.Rot>
1.9669

> <Gold.Chemscore.Internal.Correction>
   9.000000E+99

> <Gold.Chemscore.Hbond.Weighted>
-0.0000

> <Gold.Chemscore.Metal.Weighted>
-0.0000

> <Gold.Chemscore.Lipo.Weighted>
-8.6467

> <Gold.Chemscore.Internal_Hbond.Weighted>
0.0000

> <Gold.Chemscore.DEClash.Weighted>
0.0992

> <Gold.Chemscore.DEInternal.Weighted>
0.4391

> <Gold.Chemscore.Rot.Weighted>
5.0352

> <Gold.Chemscore.Internal.Correction.Weighted>
   9.000000E+99

> <Gold.Protein.RotatedTorsions>
[ 6907 6896 6895 6894 ] final  -48.72 input  -60.11 | X-H torsion
[ 7974 7965 7964 7962 ] final -143.49 input  175.53 | X-H torsion
[ 8008 7997 7996 7995 ] final -132.81 input   59.86 | X-H torsion
[ 10167 10162 10161 10158 ] final   32.28 input  -65.29 | X-H torsion
[ 10718 10713 10712 10709 ] final  170.60 input   66.30 | X-H torsion
[ 10763 10752 10751 10750 ] final -171.22 input  -60.55 | X-H torsion
[ 11005 11000 10999 10996 ] final -159.57 input  -57.11 | X-H torsion

> <Gold.Protein.ActiveResidues>
 VAL166  LYS551  ARG553  GLY616  TRP617  ASP618  TYR619  PRO620  LYS621  CYS622 
 ASP623  PHE694  ASN695  SER759  ASP760  ASP761  ALA762  ILE779  LEU786  VAL792 
 PHE793  MET794  SER795  GLU796  ALA797  LYS798  CYS799  TRP800  GLU811  SER814 

> <Gold.Protein.RotatedAtoms>
  150.8876  134.8276  159.7270 H   0  0  0  0  0  0  0  0  0  0  0  0  # atno 6907 bound_to 6896
  152.4817  134.4697  159.9641 H   0  0  0  0  0  0  0  0  0  0  0  0  # atno 6908 bound_to 6896
  151.4764  133.3518  159.2867 H   0  0  0  0  0  0  0  0  0  0  0  0  # atno 6909 bound_to 6896
  144.8366  140.5828  143.5480 H   0  0  0  0  0  0  0  0  0  0  0  0  # atno 7974 bound_to 7965
  155.3351  140.0469  157.3043 H   0  0  0  0  0  0  0  0  0  0  0  0  # atno 8008 bound_to 7997
  154.5307  140.2256  155.8775 H   0  0  0  0  0  0  0  0  0  0  0  0  # atno 8009 bound_to 7997
  156.1785  140.3079  155.9111 H   0  0  0  0  0  0  0  0  0  0  0  0  # atno 8010 bound_to 7997
  140.4513  144.1044  150.6192 H   0  0  0  0  0  0  0  0  0  0  0  0  # atno 10167 bound_to 10162
  157.0058  131.0189  151.2817 H   0  0  0  0  0  0  0  0  0  0  0  0  # atno 10718 bound_to 10713
  154.6329  135.2889  155.0196 H   0  0  0  0  0  0  0  0  0  0  0  0  # atno 10763 bound_to 10752
  154.1350  135.6527  153.4934 H   0  0  0  0  0  0  0  0  0  0  0  0  # atno 10764 bound_to 10752
  153.0288  135.5319  154.7163 H   0  0  0  0  0  0  0  0  0  0  0  0  # atno 10765 bound_to 10752
  140.6411  134.4550  157.5233 H   0  0  0  0  0  0  0  0  0  0  0  0  # atno 11005 bound_to 11000
  145.4782  139.1497  143.3776 LP  0  0  0  0  0  0  0  0  0  0  0  0  # atno 17320 bound_to 7965
  146.2664  140.4918  142.8832 LP  0  0  0  0  0  0  0  0  0  0  0  0  # atno 17321 bound_to 7965
  140.4204  143.2614  151.9722 LP  0  0  0  0  0  0  0  0  0  0  0  0  # atno 17342 bound_to 10162
  139.4797  144.5836  151.7891 LP  0  0  0  0  0  0  0  0  0  0  0  0  # atno 17343 bound_to 10162
  157.5357  130.8087  149.7969 LP  0  0  0  0  0  0  0  0  0  0  0  0  # atno 17370 bound_to 10713
  156.0154  130.3816  150.2127 LP  0  0  0  0  0  0  0  0  0  0  0  0  # atno 17371 bound_to 10713
  139.9080  134.8407  156.1634 LP  0  0  0  0  0  0  0  0  0  0  0  0  # atno 17394 bound_to 11000
  141.0606  133.6843  156.1945 LP  0  0  0  0  0  0  0  0  0  0  0  0  # atno 17395 bound_to 11000

$$$$
