AV-unprocessed.smi:1830|AV-procd|sdf|7442|dock10
  -GOLD-   22720 9133D 1   1.00000     0.00000
 Structure written by MMmdl.
 52 55  0  0  0  0  0  0  0  0  1 V2000
  149.9585  135.1219  156.0488 O   0  0  0  0  0  0  0  0  0  0  0  0
  149.5338  135.4788  154.9505 C   0  0  0  0  0  0  0  0  0  0  0  0
  149.3822  136.7615  154.5931 N   0  0  0  0  0  0  0  0  0  0  0  0
  149.6255  137.9132  155.4554 C   0  0  0  0  0  0  0  0  0  0  0  0
  150.7665  138.7878  154.8977 C   0  0  2  0  0  0  0  0  0  0  0  0
  151.8589  139.0918  155.9505 C   0  0  0  0  0  0  0  0  0  0  0  0
  151.3979  140.0938  156.8935 N   0  0  0  0  0  0  0  0  0  0  0  0
  152.3508  140.5463  157.8801 C   0  0  0  0  0  0  0  0  0  0  0  0
  151.7384  141.8451  158.4326 C   0  0  0  0  0  0  0  0  0  0  0  0
  150.7412  142.2946  157.3421 C   0  0  0  0  0  0  0  0  0  0  0  0
  150.9983  141.2951  156.2128 C   0  0  2  0  0  0  0  0  0  0  0  0
  149.8418  141.0109  155.2464 C   0  0  0  0  0  0  0  0  0  0  0  0
  150.2671  140.0058  154.3210 O   0  0  0  0  0  0  0  0  0  0  0  0
  149.1717  134.6563  153.9518 N   0  0  0  0  0  0  0  0  0  0  0  0
  149.2277  133.2333  153.9003 C   0  0  0  0  0  0  0  0  0  0  0  0
  150.2444  132.4832  154.5415 C   0  0  0  0  0  0  0  0  0  0  0  0
  150.2131  131.0794  154.4686 C   0  0  0  0  0  0  0  0  0  0  0  0
  149.1597  130.4714  153.7646 C   0  0  0  0  0  0  0  0  0  0  0  0
  148.1762  131.1695  153.1626 N   0  0  0  0  0  0  0  0  0  0  0  0
  148.1943  132.5232  153.2299 C   0  0  0  0  0  0  0  0  0  0  0  0
  147.1622  133.2240  152.5701 N   0  0  0  0  0  0  0  0  0  0  0  0
  147.1850  133.0802  151.1171 C   0  0  0  0  0  0  0  0  0  0  0  0
  145.7249  133.0756  150.6611 C   0  0  0  0  0  0  0  0  0  0  0  0
  144.9908  132.5125  151.8714 C   0  0  0  0  0  0  0  0  0  0  0  0
  145.7831  133.0953  153.0403 C   0  0  0  0  0  0  0  0  0  0  0  0
  149.0346  136.9569  153.6659 H   0  0  0  0  0  0  0  0  0  0  0  0
  148.7186  138.5001  155.6075 H   0  0  0  0  0  0  0  0  0  0  0  0
  149.9042  137.5355  156.4393 H   0  0  0  0  0  0  0  0  0  0  0  0
  151.2355  138.2300  154.0861 H   0  0  0  0  0  0  0  0  0  0  0  0
  152.1463  138.1815  156.4778 H   0  0  0  0  0  0  0  0  0  0  0  0
  152.7541  139.4535  155.4426 H   0  0  0  0  0  0  0  0  0  0  0  0
  152.5162  139.7967  158.6546 H   0  0  0  0  0  0  0  0  0  0  0  0
  153.3099  140.7614  157.4059 H   0  0  0  0  0  0  0  0  0  0  0  0
  151.2150  141.6615  159.3715 H   0  0  0  0  0  0  0  0  0  0  0  0
  152.5077  142.5951  158.6181 H   0  0  0  0  0  0  0  0  0  0  0  0
  149.7177  142.2081  157.7096 H   0  0  0  0  0  0  0  0  0  0  0  0
  150.9021  143.3247  157.0230 H   0  0  0  0  0  0  0  0  0  0  0  0
  151.8430  141.6666  155.6284 H   0  0  0  0  0  0  0  0  0  0  0  0
  148.9522  140.6829  155.7844 H   0  0  0  0  0  0  0  0  0  0  0  0
  149.5698  141.9115  154.6959 H   0  0  0  0  0  0  0  0  0  0  0  0
  148.9067  135.1041  153.0867 H   0  0  0  0  0  0  0  0  0  0  0  0
  151.0378  132.9531  155.1010 H   0  0  0  0  0  0  0  0  0  0  0  0
  150.9763  130.4833  154.9466 H   0  0  0  0  0  0  0  0  0  0  0  0
  149.1018  129.3957  153.6871 H   0  0  0  0  0  0  0  0  0  0  0  0
  147.7433  133.8908  150.6480 H   0  0  0  0  0  0  0  0  0  0  0  0
  147.6652  132.1399  150.8412 H   0  0  0  0  0  0  0  0  0  0  0  0
  145.3924  134.0969  150.4707 H   0  0  0  0  0  0  0  0  0  0  0  0
  145.5655  132.4927  149.7538 H   0  0  0  0  0  0  0  0  0  0  0  0
  143.9347  132.7822  151.8965 H   0  0  0  0  0  0  0  0  0  0  0  0
  145.0651  131.4241  151.8780 H   0  0  0  0  0  0  0  0  0  0  0  0
  145.6637  132.5003  153.9457 H   0  0  0  0  0  0  0  0  0  0  0  0
  145.4194  134.0969  153.2715 H   0  0  0  0  0  0  0  0  0  0  0  0
  1  2  2  0  0  0  0
  2  3  1  0  0  0  0
  2 14  1  0  0  0  0
  3  4  1  0  0  0  0
  3 26  1  0  0  0  0
  4  5  1  0  0  0  0
  4 27  1  0  0  0  0
  4 28  1  0  0  0  0
  5 13  1  0  0  0  0
  5  6  1  0  0  0  0
  5 29  1  0  0  0  0
  6  7  1  0  0  0  0
  6 30  1  0  0  0  0
  6 31  1  0  0  0  0
  7 11  1  0  0  0  0
  7  8  1  0  0  0  0
  8  9  1  0  0  0  0
  8 32  1  0  0  0  0
  8 33  1  0  0  0  0
  9 10  1  0  0  0  0
  9 34  1  0  0  0  0
  9 35  1  0  0  0  0
 10 11  1  0  0  0  0
 10 36  1  0  0  0  0
 10 37  1  0  0  0  0
 11 12  1  0  0  0  0
 11 38  1  0  0  0  0
 12 13  1  0  0  0  0
 12 39  1  0  0  0  0
 12 40  1  0  0  0  0
 14 15  1  0  0  0  0
 14 41  1  0  0  0  0
 15 20  1  0  0  0  0
 15 16  2  0  0  0  0
 16 17  1  0  0  0  0
 16 42  1  0  0  0  0
 17 18  2  0  0  0  0
 17 43  1  0  0  0  0
 18 19  1  0  0  0  0
 18 44  1  0  0  0  0
 19 20  2  0  0  0  0
 20 21  1  0  0  0  0
 21 25  1  0  0  0  0
 21 22  1  0  0  0  0
 22 23  1  0  0  0  0
 22 45  1  0  0  0  0
 22 46  1  0  0  0  0
 23 24  1  0  0  0  0
 23 47  1  0  0  0  0
 23 48  1  0  0  0  0
 24 25  1  0  0  0  0
 24 49  1  0  0  0  0
 24 50  1  0  0  0  0
 25 51  1  0  0  0  0
 25 52  1  0  0  0  0
M  END
> <s_m_source_file>
AV-unprocessed.smi

> <i_m_source_file_index>
1830

> <i_lp_mmshare_version>
43012

> <i_f3d_flags>
0

> <s_epik_input>
W0NIMl0xW0NIMl1bQ0gyXVtDQEhdKE4xMilbQ0gyXU9bQ0BASF0oW0NIMl0yKVtDSDJdW05IXUMoPU8pW05IXWMzW2NIXVtjSF1bY0hdbmMzTjRbQ0gyXVtDSDJdW0NIMl1bQ0gyXTQ=

> <s_epik_cmdline>
J2VwaWtfcHl0aG9uJywgJy1waCcsICc3LjAnLCAnLXRuJywgJzgnLCAnLW1hJywgJzIwMCcsICctbWV0YWxfYmluZGluZycsICctaW1hZScsICc8aW5maWxlLm1hZT4nLCAnLW9tYWUnLCAnPG91dGZpbGUubWFlPic=

> <r_lp_tautomer_probability>
1

> <r_epik_Ionization_Penalty>
1.16487

> <r_epik_Ionization_Penalty_Charging>
0

> <r_epik_Ionization_Penalty_Neutral>
1.16487

> <r_epik_State_Penalty>
1.21807

> <r_epik_Charging_Adjusted_Penalty>
1.21807

> <i_epik_Tot_Q>
0

> <i_epik_Tot_abs_Q>
0

> <r_epik_Metal_State_Penalty>
1.19922

> <b_epik_Metal_Only>
0

> <s_lp_Force_Field>
OPLS_2005

> <r_lp_Energy>
77.9026

> <b_lp_Chiralities_Consistent>
1

> <s_lp_Variant>
AV-unprocessed.smi:1830-11

> <Gold.Version>
5.8.1

> <Gold.Id.Protein>
6NUR|6NUR_protein|mol2

> <Gold.PLP.Fitness>
48.0222

> <Gold.PLP.PLP>
-41.3441

> <Gold.PLP.part.hbond>
-3.0000

> <Gold.PLP.part.metal>
0.0000

> <Gold.PLP.part.buried>
-4.8856

> <Gold.PLP.part.nonpolar>
-33.5106

> <Gold.PLP.part.repulsive>
0.3919

> <Gold.PLP.ligand.clash>
0.0000

> <Gold.PLP.ligand.torsion>
1.0060

> <Gold.PLP.Chemscore.Hbond>
2.8480

> <Gold.PLP.Chemscore.CHOScore>
0.0000

> <Gold.PLP.Chemscore.Metal>
0.0000

> <Gold.Chemscore.Hbonds>
donor molecule, donor type, donor heavy atom, donor atom, acceptor molecule, acceptor atom, score
      L1  H     3    26       P1  7948  0.83
      L1  H    14    41       P1  7948  1.00
      P1  H  7989  7998       L1    13  1.00

> <Gold.PLP.Chemscore.Internal.Correction>
0.1460

> <Gold.Rescore>
     Score         DG    S(hbond)    S(metal)    S(lipo)     H(rot)  DE(clash)    DE(int)     intcor
     17.84     -19.59       1.91        0.00      96.20       1.37       0.00       1.75       ----

> <Gold.Chemscore.Fitness>
17.8354

> <Gold.Chemscore.DG>
-19.5901

> <Gold.Chemscore.ZeroCoef>
-5.4800

> <Gold.Chemscore.Hbond>
1.9081

> <Gold.Chemscore.Metal>
0.0000

> <Gold.Chemscore.Lipo>
96.2043

> <Gold.Chemscore.Internal_Hbond>
0.0000

> <Gold.Chemscore.DEClash>
0.0038

> <Gold.Chemscore.DEInternal>
1.7509

> <Gold.Chemscore.Rot>
1.3746

> <Gold.Chemscore.Internal.Correction>
   9.000000E+99

> <Gold.Chemscore.Hbonds>
donor molecule, donor type, donor heavy atom, donor atom, acceptor molecule, acceptor atom, score
      L1  H     3    26       P1  7948  0.83
      L1  H    14    41       P1  7948  0.29
      P1  H  7989  7998       L1    13  0.22

> <Gold.Chemscore.Hbond.Weighted>
-6.3730

> <Gold.Chemscore.Metal.Weighted>
-0.0000

> <Gold.Chemscore.Lipo.Weighted>
-11.2559

> <Gold.Chemscore.Internal_Hbond.Weighted>
0.0000

> <Gold.Chemscore.DEClash.Weighted>
0.0038

> <Gold.Chemscore.DEInternal.Weighted>
1.7509

> <Gold.Chemscore.Rot.Weighted>
3.5189

> <Gold.Chemscore.Internal.Correction.Weighted>
   9.000000E+99

> <Gold.Protein.RotatedTorsions>
[ 6907 6896 6895 6894 ] final  112.51 input  -60.11 | X-H torsion
[ 7974 7965 7964 7962 ] final   -5.30 input  175.53 | X-H torsion
[ 8008 7997 7996 7995 ] final  -79.56 input   59.86 | X-H torsion
[ 10167 10162 10161 10158 ] final   65.94 input  -65.29 | X-H torsion
[ 10718 10713 10712 10709 ] final  -18.49 input   66.30 | X-H torsion
[ 10763 10752 10751 10750 ] final -128.03 input  -60.55 | X-H torsion
[ 11005 11000 10999 10996 ] final  171.31 input  -57.11 | X-H torsion

> <Gold.Protein.ActiveResidues>
 VAL166  LYS551  ARG553  GLY616  TRP617  ASP618  TYR619  PRO620  LYS621  CYS622 
 ASP623  PHE694  ASN695  SER759  ASP760  ASP761  ALA762  ILE779  LEU786  VAL792 
 PHE793  MET794  SER795  GLU796  ALA797  LYS798  CYS799  TRP800  GLU811  SER814 

> <Gold.Protein.RotatedAtoms>
  152.4912  133.8505  159.7198 H   0  0  0  0  0  0  0  0  0  0  0  0  # atno 6907 bound_to 6896
  150.9044  133.7068  159.2877 H   0  0  0  0  0  0  0  0  0  0  0  0  # atno 6908 bound_to 6896
  151.4499  135.1033  159.9747 H   0  0  0  0  0  0  0  0  0  0  0  0  # atno 6909 bound_to 6896
  146.2355  140.2000  142.8333 H   0  0  0  0  0  0  0  0  0  0  0  0  # atno 7974 bound_to 7965
  154.5797  140.0676  156.9086 H   0  0  0  0  0  0  0  0  0  0  0  0  # atno 8008 bound_to 7997
  155.2484  140.3350  155.4266 H   0  0  0  0  0  0  0  0  0  0  0  0  # atno 8009 bound_to 7997
  156.2180  140.1787  156.7528 H   0  0  0  0  0  0  0  0  0  0  0  0  # atno 8010 bound_to 7997
  140.1058  144.4863  150.7008 H   0  0  0  0  0  0  0  0  0  0  0  0  # atno 10167 bound_to 10162
  156.5589  130.4720  149.6416 H   0  0  0  0  0  0  0  0  0  0  0  0  # atno 10718 bound_to 10713
  154.8755  135.3942  154.3691 H   0  0  0  0  0  0  0  0  0  0  0  0  # atno 10763 bound_to 10752
  153.4453  135.7027  153.6148 H   0  0  0  0  0  0  0  0  0  0  0  0  # atno 10764 bound_to 10752
  153.4711  135.3790  155.2360 H   0  0  0  0  0  0  0  0  0  0  0  0  # atno 10765 bound_to 10752
  140.3177  134.7464  157.4040 H   0  0  0  0  0  0  0  0  0  0  0  0  # atno 11005 bound_to 11000
  144.9790  140.8441  143.5409 LP  0  0  0  0  0  0  0  0  0  0  0  0  # atno 17320 bound_to 7965
  145.1991  139.2261  143.5202 LP  0  0  0  0  0  0  0  0  0  0  0  0  # atno 17321 bound_to 7965
  140.6953  143.2400  151.5019 LP  0  0  0  0  0  0  0  0  0  0  0  0  # atno 17342 bound_to 10162
  139.5646  144.2073  152.1745 LP  0  0  0  0  0  0  0  0  0  0  0  0  # atno 17343 bound_to 10162
  156.2817  130.7074  151.1900 LP  0  0  0  0  0  0  0  0  0  0  0  0  # atno 17370 bound_to 10713
  157.7372  131.0554  150.5366 LP  0  0  0  0  0  0  0  0  0  0  0  0  # atno 17371 bound_to 10713
  140.0969  134.5525  155.8390 LP  0  0  0  0  0  0  0  0  0  0  0  0  # atno 17394 bound_to 11000
  141.2094  133.6683  156.6435 LP  0  0  0  0  0  0  0  0  0  0  0  0  # atno 17395 bound_to 11000

$$$$
