AV-unprocessed.smi:54|AV-procd|sdf|548|dock2
  -GOLD-   2262016443D 1   1.00000     0.00000
 Structure written by MMmdl.
 43 45  0  0  0  0  0  0  0  0  2 V2000
  152.2341  142.8095  160.9820 C   0  0  0  0  0  0  0  0  0  0  0  0
  153.0159  142.7843  159.6580 C   0  0  0  0  0  0  0  0  0  0  0  0
  152.4511  143.8057  158.6568 C   0  0  0  0  0  0  0  0  0  0  0  0
  153.0162  141.3725  159.0546 C   0  0  0  0  0  0  0  0  0  0  0  0
  153.8689  140.5614  159.4242 O   0  0  0  0  0  0  0  0  0  0  0  0
  152.0503  141.1347  158.1390 N   0  0  0  0  0  0  0  0  0  0  0  0
  151.7891  139.9672  157.4123 C   0  0  0  0  0  0  0  0  0  0  0  0
  150.5795  139.7204  156.9608 N   0  0  0  0  0  0  0  0  0  0  0  0
  150.5074  138.5237  156.2748 C   0  0  0  0  0  0  0  0  0  0  0  0
  151.5168  137.6328  156.0352 C   0  0  0  0  0  0  0  0  0  0  0  0
  151.0654  136.5363  155.3115 N   0  0  0  0  0  0  0  0  0  0  0  0
  149.7757  136.8254  155.1452 C   0  0  0  0  0  0  0  0  0  0  0  0
  149.3633  137.9865  155.6962 N   0  0  0  0  0  0  0  0  0  0  0  0
  147.9887  138.5875  155.6822 C   0  0  1  0  0  0  0  0  0  0  0  0
  147.9958  139.6840  156.5495 O   0  0  0  0  0  0  0  0  0  0  0  0
  147.7442  140.9020  155.8461 C   0  0  1  0  0  0  0  0  0  0  0  0
  148.5618  142.0637  156.4384 C   0  0  0  0  0  0  0  0  0  0  0  0
  148.2467  142.2318  157.8038 O   0  0  0  0  0  0  0  0  0  0  0  0
  148.0173  140.5822  154.3683 C   0  0  1  0  0  0  0  0  0  0  0  0
  149.3794  140.7824  154.0286 O   0  0  0  0  0  0  0  0  0  0  0  0
  147.6039  139.1202  154.2908 C   0  0  1  0  0  0  0  0  0  0  0  0
  148.1682  138.4336  153.1874 O   0  0  0  0  0  0  0  0  0  0  0  0
  152.8552  137.9803  156.5680 C   0  0  0  0  0  0  0  0  0  0  0  0
  153.7946  137.2110  156.3752 O   0  0  0  0  0  0  0  0  0  0  0  0
  152.9282  139.1634  157.2496 N   0  5  0  0  0  0  0  0  0  0  0  0
  147.3384  137.7912  156.0460 H   0  0  0  0  0  0  0  0  0  0  0  0
  146.6778  141.1156  155.9398 H   0  0  0  0  0  0  0  0  0  0  0  0
  147.4130  141.2043  153.7073 H   0  0  0  0  0  0  0  0  0  0  0  0
  146.5172  139.0659  154.2149 H   0  0  0  0  0  0  0  0  0  0  0  0
  152.6257  142.0753  161.6872 H   0  0  0  0  0  0  0  0  0  0  0  0
  151.1759  142.5935  160.8284 H   0  0  0  0  0  0  0  0  0  0  0  0
  152.3050  143.7881  161.4573 H   0  0  0  0  0  0  0  0  0  0  0  0
  154.0477  143.0665  159.8751 H   0  0  0  0  0  0  0  0  0  0  0  0
  153.0024  143.7850  157.7156 H   0  0  0  0  0  0  0  0  0  0  0  0
  152.5215  144.8186  159.0538 H   0  0  0  0  0  0  0  0  0  0  0  0
  151.4012  143.6114  158.4331 H   0  0  0  0  0  0  0  0  0  0  0  0
  151.4404  141.9164  157.9495 H   0  0  0  0  0  0  0  0  0  0  0  0
  149.1114  136.1668  154.6066 H   0  0  0  0  0  0  0  0  0  0  0  0
  149.6327  141.9017  156.3163 H   0  0  0  0  0  0  0  0  0  0  0  0
  148.3129  142.9962  155.9309 H   0  0  0  0  0  0  0  0  0  0  0  0
  147.3065  142.2649  157.8927 H   0  0  0  0  0  0  0  0  0  0  0  0
  149.4928  140.5627  153.1163 H   0  0  0  0  0  0  0  0  0  0  0  0
  148.5069  139.0726  152.5788 H   0  0  0  0  0  0  0  0  0  0  0  0
  1  2  1  0  0  0  0
  1 30  1  0  0  0  0
  1 31  1  0  0  0  0
  1 32  1  0  0  0  0
  2  3  1  0  0  0  0
  2  4  1  0  0  0  0
  2 33  1  0  0  0  0
  3 34  1  0  0  0  0
  3 35  1  0  0  0  0
  3 36  1  0  0  0  0
  4  5  2  0  0  0  0
  4  6  1  0  0  0  0
  6 37  1  0  0  0  0
  6  7  1  0  0  0  0
  7 25  1  0  0  0  0
  7  8  2  0  0  0  0
  8  9  1  0  0  0  0
  9 13  1  0  0  0  0
  9 10  2  0  0  0  0
 10 11  1  0  0  0  0
 10 23  1  0  0  0  0
 11 12  2  0  0  0  0
 12 13  1  0  0  0  0
 12 38  1  0  0  0  0
 13 14  1  0  0  0  0
 14 26  1  0  0  0  0
 14 21  1  0  0  0  0
 14 15  1  0  0  0  0
 15 16  1  0  0  0  0
 16 27  1  0  0  0  0
 16 17  1  0  0  0  0
 16 19  1  0  0  0  0
 17 18  1  0  0  0  0
 17 39  1  0  0  0  0
 17 40  1  0  0  0  0
 18 41  1  0  0  0  0
 19 28  1  0  0  0  0
 19 20  1  0  0  0  0
 19 21  1  0  0  0  0
 20 42  1  0  0  0  0
 21 29  1  0  0  0  0
 21 22  1  0  0  0  0
 22 43  1  0  0  0  0
 23 24  2  0  0  0  0
 23 25  1  0  0  0  0
M  CHG  1  25  -1
M  END
> <s_m_source_file>
AV-unprocessed.smi

> <i_m_source_file_index>
54

> <i_lp_mmshare_version>
43012

> <i_f3d_flags>
0

> <s_epik_input>
W0NIM11bQ0hdKFtDSDNdKUMoPU8pW05IXWMobjEpW25IXWMoPU8pYyhjMTIpbltjSF1uMltDQEBIXTNPW0NASF0oW0NIMl1bT0hdKVtDQEBIXShbT0hdKVtDQEhdM1tPSF0=

> <s_epik_cmdline>
J2VwaWtfcHl0aG9uJywgJy1waCcsICc3LjAnLCAnLXRuJywgJzgnLCAnLW1hJywgJzIwMCcsICctbWV0YWxfYmluZGluZycsICctaW1hZScsICc8aW5maWxlLm1hZT4nLCAnLW9tYWUnLCAnPG91dGZpbGUubWFlPic=

> <r_lp_tautomer_probability>
0.85571

> <r_epik_Ionization_Penalty>
1.75936

> <r_epik_Ionization_Penalty_Charging>
4.55893e-11

> <r_epik_Ionization_Penalty_Neutral>
1.75936

> <r_epik_State_Penalty>
1.72072

> <r_epik_Charging_Adjusted_Penalty>
1.72072

> <i_epik_Tot_Q>
-1

> <i_epik_Tot_abs_Q>
1

> <r_epik_Metal_State_Penalty>
0.400338

> <b_epik_Metal_Only>
1

> <s_epik_Chemistry_Notes>
This compound contains an acetal/aminal-like group ( X-CH(R)-Y where X, Y are N, S, or O) that may be acid/base labile, releasing an aldehyde.

> <s_lp_Force_Field>
OPLS_2005

> <r_lp_Energy>
61.5499

> <b_lp_Chiralities_Consistent>
1

> <s_lp_Variant>
AV-unprocessed.smi:54-20

> <Gold.Version>
5.8.1

> <Gold.Id.Protein>
6NUR|6NUR_protein|mol2

> <Gold.PLP.Fitness>
49.4493

> <Gold.PLP.PLP>
-32.2202

> <Gold.PLP.part.hbond>
-8.6944

> <Gold.PLP.part.metal>
0.0000

> <Gold.PLP.part.buried>
-1.3309

> <Gold.PLP.part.nonpolar>
-23.3666

> <Gold.PLP.part.repulsive>
0.2093

> <Gold.PLP.ligand.clash>
0.0000

> <Gold.PLP.ligand.torsion>
1.0844

> <Gold.PLP.Chemscore.Hbond>
5.2860

> <Gold.PLP.Chemscore.CHOScore>
0.9989

> <Gold.PLP.Chemscore.Metal>
0.0000

> <Gold.Chemscore.Hbonds>
donor molecule, donor type, donor heavy atom, donor atom, acceptor molecule, acceptor atom, score
      L1  H    20    42       P1  7957  1.00
      L1  H    22    43       P1  7957  1.00
      P1  H  7997  8008       L1    25  2.00
      P1  H 10752 10763       L1    11  0.27
      P1  H 10752 10764       L1    24  0.24
      L1  C    12    38       P1  7948  0.41

> <Gold.PLP.Chemscore.Internal.Correction>
0.5433

> <Gold.Rescore>
     Score         DG    S(hbond)    S(metal)    S(lipo)     H(rot)  DE(clash)    DE(int)     intcor
      8.70     -15.23       3.72        0.00      65.10       4.02       1.43       5.10       ----

> <Gold.Chemscore.Fitness>
8.6997

> <Gold.Chemscore.DG>
-15.2323

> <Gold.Chemscore.ZeroCoef>
-5.4800

> <Gold.Chemscore.Hbond>
3.7199

> <Gold.Chemscore.Metal>
0.0000

> <Gold.Chemscore.Lipo>
65.1040

> <Gold.Chemscore.Internal_Hbond>
0.0000

> <Gold.Chemscore.DEClash>
1.4330

> <Gold.Chemscore.DEInternal>
5.0996

> <Gold.Chemscore.Rot>
4.0192

> <Gold.Chemscore.Internal.Correction>
   9.000000E+99

> <Gold.Chemscore.Hbonds>
donor molecule, donor type, donor heavy atom, donor atom, acceptor molecule, acceptor atom, score
      L1  H    20    42       P1  7957  0.93
      L1  H    22    43       P1  7957  0.93
      P1  H  7997  8008       L1    25  0.62
      P1  H 10752 10763       L1    11  0.15
      P1  H 10752 10764       L1    24  0.23

> <Gold.Chemscore.Hbond.Weighted>
-12.4244

> <Gold.Chemscore.Metal.Weighted>
-0.0000

> <Gold.Chemscore.Lipo.Weighted>
-7.6172

> <Gold.Chemscore.Internal_Hbond.Weighted>
0.0000

> <Gold.Chemscore.DEClash.Weighted>
1.4330

> <Gold.Chemscore.DEInternal.Weighted>
5.0996

> <Gold.Chemscore.Rot.Weighted>
10.2893

> <Gold.Chemscore.Internal.Correction.Weighted>
   9.000000E+99

> <Gold.Protein.RotatedTorsions>
[ 6907 6896 6895 6894 ] final   31.44 input  -60.11 | X-H torsion
[ 7974 7965 7964 7962 ] final -108.65 input  175.53 | X-H torsion
[ 8008 7997 7996 7995 ] final  -63.60 input   59.86 | X-H torsion
[ 10167 10162 10161 10158 ] final  -15.87 input  -65.29 | X-H torsion
[ 10718 10713 10712 10709 ] final -157.64 input   66.30 | X-H torsion
[ 10763 10752 10751 10750 ] final   39.34 input  -60.55 | X-H torsion
[ 11005 11000 10999 10996 ] final  108.76 input  -57.11 | X-H torsion

> <Gold.Protein.ActiveResidues>
 VAL166  LYS551  ARG553  GLY616  TRP617  ASP618  TYR619  PRO620  LYS621  CYS622 
 ASP623  PHE694  ASN695  SER759  ASP760  ASP761  ALA762  ILE779  LEU786  VAL792 
 PHE793  MET794  SER795  GLU796  ALA797  LYS798  CYS799  TRP800  GLU811  SER814 

> <Gold.Protein.RotatedAtoms>
  152.0603  134.9598  160.0574 H   0  0  0  0  0  0  0  0  0  0  0  0  # atno 6907 bound_to 6896
  152.0964  133.4222  159.4575 H   0  0  0  0  0  0  0  0  0  0  0  0  # atno 6908 bound_to 6896
  150.6838  134.2731  159.4639 H   0  0  0  0  0  0  0  0  0  0  0  0  # atno 6909 bound_to 6896
  145.1902  140.9011  143.3429 H   0  0  0  0  0  0  0  0  0  0  0  0  # atno 7974 bound_to 7965
  154.4563  140.0971  156.6767 H   0  0  0  0  0  0  0  0  0  0  0  0  # atno 8008 bound_to 7997
  155.5128  140.3477  155.4373 H   0  0  0  0  0  0  0  0  0  0  0  0  # atno 8009 bound_to 7997
  156.0784  140.1367  156.9731 H   0  0  0  0  0  0  0  0  0  0  0  0  # atno 8010 bound_to 7997
  140.7225  143.5174  150.9675 H   0  0  0  0  0  0  0  0  0  0  0  0  # atno 10167 bound_to 10162
  156.5430  130.8572  151.2755 H   0  0  0  0  0  0  0  0  0  0  0  0  # atno 10718 bound_to 10713
  152.9970  135.6223  154.2449 H   0  0  0  0  0  0  0  0  0  0  0  0  # atno 10763 bound_to 10752
  154.2189  135.2796  155.2933 H   0  0  0  0  0  0  0  0  0  0  0  0  # atno 10764 bound_to 10752
  154.5545  135.5723  153.7010 H   0  0  0  0  0  0  0  0  0  0  0  0  # atno 10765 bound_to 10752
  139.8849  134.9439  156.6021 H   0  0  0  0  0  0  0  0  0  0  0  0  # atno 11005 bound_to 11000
  145.0049  139.3564  143.6149 LP  0  0  0  0  0  0  0  0  0  0  0  0  # atno 17320 bound_to 7965
  146.3437  139.9287  142.8756 LP  0  0  0  0  0  0  0  0  0  0  0  0  # atno 17321 bound_to 7965
  139.8890  143.6977  152.3148 LP  0  0  0  0  0  0  0  0  0  0  0  0  # atno 17342 bound_to 10162
  139.7286  144.7587  151.0838 LP  0  0  0  0  0  0  0  0  0  0  0  0  # atno 17343 bound_to 10162
  157.7402  130.9845  150.2360 LP  0  0  0  0  0  0  0  0  0  0  0  0  # atno 17370 bound_to 10713
  156.2954  130.3751  149.7801 LP  0  0  0  0  0  0  0  0  0  0  0  0  # atno 17371 bound_to 10713
  140.7876  133.8609  155.8619 LP  0  0  0  0  0  0  0  0  0  0  0  0  # atno 17394 bound_to 11000
  140.9706  134.1536  157.4579 LP  0  0  0  0  0  0  0  0  0  0  0  0  # atno 17395 bound_to 11000

$$$$
