AV-unprocessed.smi:21|AV-procd|sdf|147|dock6
  -GOLD-   2262015363D 1   1.00000     0.00000
 Structure written by MMmdl.
 62 65  0  0  0  0  0  0  0  0  2 V2000
  144.2344  132.5494  150.8311 C   0  0  0  0  0  0  0  0  0  0  0  0
  144.3340  133.9626  150.9028 O   0  0  0  0  0  0  0  0  0  0  0  0
  145.6406  134.4543  150.6384 C   0  0  1  0  0  0  0  0  0  0  0  0
  145.5743  135.9743  150.5911 C   0  0  0  0  0  0  0  0  0  0  0  0
  145.7569  136.4082  152.0488 C   0  0  2  0  0  0  0  0  0  0  0  0
  146.2723  137.8577  152.2177 C   0  0  0  0  0  0  0  0  0  0  0  0
  146.3443  138.2916  153.6143 N   0  0  0  0  0  0  0  0  0  0  0  0
  145.2810  137.8813  154.5221 C   0  0  0  0  0  0  0  0  0  0  0  0
  147.0046  139.4512  153.8635 C   0  0  0  0  0  0  0  0  0  0  0  0
  146.3313  140.6138  153.6632 N   0  0  0  0  0  0  0  0  0  0  0  0
  146.8989  141.7851  153.9622 C   0  0  0  0  0  0  0  0  0  0  0  0
  148.1010  142.0171  154.4904 N   0  0  0  0  0  0  0  0  0  0  0  0
  148.7824  140.8549  154.6983 C   0  0  0  0  0  0  0  0  0  0  0  0
  148.3266  139.5409  154.3922 C   0  0  0  0  0  0  0  0  0  0  0  0
  149.3011  138.6146  154.7489 N   0  0  0  0  0  0  0  0  0  0  0  0
  150.2660  139.3352  155.2501 C   0  0  0  0  0  0  0  0  0  0  0  0
  150.0177  140.6876  155.2985 N   0  0  0  0  0  0  0  0  0  0  0  0
  150.8849  141.7094  155.8555 C   0  0  0  0  0  0  0  0  0  0  0  0
  150.9944  141.6824  157.4049 C   0  0  2  0  0  0  0  0  0  0  0  0
  149.5784  141.5531  158.0123 C   0  0  0  0  0  0  0  0  0  0  0  0
  148.6357  142.3411  157.3135 O   0  0  0  0  0  0  0  0  0  0  0  0
  151.8083  142.8590  158.0253 C   0  0  1  0  0  0  0  0  0  0  0  0
  151.2165  144.2387  157.7798 C   0  0  0  0  0  0  0  0  0  0  0  0
  151.9087  145.0834  158.8399 C   0  0  0  0  0  0  0  0  0  0  0  0
  151.9769  144.2362  159.9758 O   0  0  0  0  0  0  0  0  0  0  0  0
  151.9086  142.8751  159.5610 C   0  0  0  0  0  0  0  0  0  0  0  0
  146.7106  135.4197  152.6006 N   0  3  1  0  0  0  0  0  0  0  0  0
  146.6100  135.2210  154.0631 C   0  0  0  0  0  0  0  0  0  0  0  0
  146.5810  134.1650  151.8198 C   0  0  0  0  0  0  0  0  0  0  0  0
  146.0195  134.0585  149.6943 H   0  0  0  0  0  0  0  0  0  0  0  0
  144.8031  136.2855  152.5653 H   0  0  0  0  0  0  0  0  0  0  0  0
  143.2145  132.2439  151.0647 H   0  0  0  0  0  0  0  0  0  0  0  0
  144.9023  132.0608  151.5411 H   0  0  0  0  0  0  0  0  0  0  0  0
  144.4683  132.1903  149.8280 H   0  0  0  0  0  0  0  0  0  0  0  0
  146.3945  136.3539  149.9804 H   0  0  0  0  0  0  0  0  0  0  0  0
  144.6419  136.3293  150.1549 H   0  0  0  0  0  0  0  0  0  0  0  0
  147.2784  137.9363  151.8060 H   0  0  0  0  0  0  0  0  0  0  0  0
  145.6647  138.5448  151.6278 H   0  0  0  0  0  0  0  0  0  0  0  0
  145.5555  138.0750  155.5596 H   0  0  0  0  0  0  0  0  0  0  0  0
  145.0933  136.8121  154.4237 H   0  0  0  0  0  0  0  0  0  0  0  0
  144.3527  138.4083  154.3019 H   0  0  0  0  0  0  0  0  0  0  0  0
  146.2970  142.6605  153.7667 H   0  0  0  0  0  0  0  0  0  0  0  0
  151.1740  138.8930  155.6340 H   0  0  0  0  0  0  0  0  0  0  0  0
  151.8733  141.6006  155.4073 H   0  0  0  0  0  0  0  0  0  0  0  0
  150.5027  142.6759  155.5246 H   0  0  0  0  0  0  0  0  0  0  0  0
  151.5115  140.7616  157.6770 H   0  0  0  0  0  0  0  0  0  0  0  0
  149.2487  140.5139  157.9890 H   0  0  0  0  0  0  0  0  0  0  0  0
  149.5724  141.8469  159.0618 H   0  0  0  0  0  0  0  0  0  0  0  0
  149.0828  143.0853  156.9408 H   0  0  0  0  0  0  0  0  0  0  0  0
  152.8190  142.8513  157.6140 H   0  0  0  0  0  0  0  0  0  0  0  0
  151.3978  144.6116  156.7712 H   0  0  0  0  0  0  0  0  0  0  0  0
  150.1397  144.2311  157.9554 H   0  0  0  0  0  0  0  0  0  0  0  0
  152.9215  145.3389  158.5252 H   0  0  0  0  0  0  0  0  0  0  0  0
  151.3744  146.0079  159.0602 H   0  0  0  0  0  0  0  0  0  0  0  0
  151.0250  142.4330  160.0214 H   0  0  0  0  0  0  0  0  0  0  0  0
  152.7849  142.3375  159.9203 H   0  0  0  0  0  0  0  0  0  0  0  0
  145.6283  134.8352  154.3410 H   0  0  0  0  0  0  0  0  0  0  0  0
  146.7730  136.1575  154.5962 H   0  0  0  0  0  0  0  0  0  0  0  0
  147.3647  134.5101  154.4012 H   0  0  0  0  0  0  0  0  0  0  0  0
  146.2149  133.3388  152.4309 H   0  0  0  0  0  0  0  0  0  0  0  0
  147.5719  133.8855  151.4613 H   0  0  0  0  0  0  0  0  0  0  0  0
  147.6351  135.7764  152.4049 H   0  0  0  0  0  0  0  0  0  0  0  0
  1  2  1  0  0  0  0
  1 32  1  0  0  0  0
  1 33  1  0  0  0  0
  1 34  1  0  0  0  0
  2  3  1  0  0  0  0
  3 30  1  0  0  0  0
  3 29  1  0  0  0  0
  3  4  1  0  0  0  0
  4  5  1  0  0  0  0
  4 35  1  0  0  0  0
  4 36  1  0  0  0  0
  5 31  1  0  0  0  0
  5  6  1  0  0  0  0
  5 27  1  0  0  0  0
  6  7  1  0  0  0  0
  6 37  1  0  0  0  0
  6 38  1  0  0  0  0
  7  8  1  0  0  0  0
  7  9  1  0  0  0  0
  8 39  1  0  0  0  0
  8 40  1  0  0  0  0
  8 41  1  0  0  0  0
  9 14  1  0  0  0  0
  9 10  2  0  0  0  0
 10 11  1  0  0  0  0
 11 12  2  0  0  0  0
 11 42  1  0  0  0  0
 12 13  1  0  0  0  0
 13 17  1  0  0  0  0
 13 14  2  0  0  0  0
 14 15  1  0  0  0  0
 15 16  2  0  0  0  0
 16 17  1  0  0  0  0
 16 43  1  0  0  0  0
 17 18  1  0  0  0  0
 18 19  1  0  0  0  0
 18 44  1  0  0  0  0
 18 45  1  0  0  0  0
 19 20  1  0  0  0  0
 19 22  1  0  0  0  0
 19 46  1  0  0  0  0
 20 21  1  0  0  0  0
 20 47  1  0  0  0  0
 20 48  1  0  0  0  0
 21 49  1  0  0  0  0
 22 26  1  0  0  0  0
 22 23  1  0  0  0  0
 22 50  1  0  0  0  0
 23 24  1  0  0  0  0
 23 51  1  0  0  0  0
 23 52  1  0  0  0  0
 24 25  1  0  0  0  0
 24 53  1  0  0  0  0
 24 54  1  0  0  0  0
 25 26  1  0  0  0  0
 26 55  1  0  0  0  0
 26 56  1  0  0  0  0
 27 28  1  0  0  0  0
 27 29  1  0  0  0  0
 27 62  1  0  0  0  0
 28 57  1  0  0  0  0
 28 58  1  0  0  0  0
 28 59  1  0  0  0  0
 29 60  1  0  0  0  0
 29 61  1  0  0  0  0
M  CHG  1  27   1
M  END
> <s_m_source_file>
AV-unprocessed.smi

> <i_m_source_file_index>
21

> <i_lp_mmshare_version>
43012

> <i_f3d_flags>
0

> <s_epik_input>
W0NIM11PW0NASF0xW0NIMl1bQ0BIXShOKFtDSDNdKVtDSDJdMSlbQ0gyXU4oW0NIM10pYyhuW2NIXW4yKWMoYzIzKW5bY0hdbjNbQ0gyXVtDQEhdKFtDSDJdW09IXSlbQ0BASF00W0NIMl1bQ0gyXU9bQ0gyXTQ=

> <s_epik_cmdline>
J2VwaWtfcHl0aG9uJywgJy1waCcsICc3LjAnLCAnLXRuJywgJzgnLCAnLW1hJywgJzIwMCcsICctbWV0YWxfYmluZGluZycsICctaW1hZScsICc8aW5maWxlLm1hZT4nLCAnLW9tYWUnLCAnPG91dGZpbGUubWFlPic=

> <r_lp_tautomer_probability>
1

> <r_epik_Ionization_Penalty>
0.0157465

> <r_epik_Ionization_Penalty_Charging>
0.015354

> <r_epik_Ionization_Penalty_Neutral>
0.000392529

> <r_epik_State_Penalty>
0.0120612

> <r_epik_Charging_Adjusted_Penalty>
0.0274152

> <i_epik_Tot_Q>
1

> <i_epik_Tot_abs_Q>
1

> <r_epik_Metal_State_Penalty>
0.0121253

> <b_epik_Metal_Only>
0

> <s_lp_Force_Field>
OPLS_2005

> <r_lp_Energy>
57.9391

> <b_lp_Chiralities_Consistent>
1

> <s_lp_Variant>
AV-unprocessed.smi:21-27

> <Gold.Version>
5.8.1

> <Gold.Id.Protein>
6NUR|6NUR_protein|mol2

> <Gold.PLP.Fitness>
54.8355

> <Gold.PLP.PLP>
-50.1648

> <Gold.PLP.part.hbond>
-2.6456

> <Gold.PLP.part.metal>
0.0000

> <Gold.PLP.part.buried>
-8.2166

> <Gold.PLP.part.nonpolar>
-42.3572

> <Gold.PLP.part.repulsive>
2.0135

> <Gold.PLP.ligand.clash>
0.0000

> <Gold.PLP.ligand.torsion>
2.1264

> <Gold.PLP.Chemscore.Hbond>
2.6720

> <Gold.PLP.Chemscore.CHOScore>
0.0000

> <Gold.PLP.Chemscore.Metal>
0.0000

> <Gold.Chemscore.Hbonds>
donor molecule, donor type, donor heavy atom, donor atom, acceptor molecule, acceptor atom, score
      L1  H    21    49       P1  8028  0.77
      L1  H    27    62       P1  7948  1.76

> <Gold.PLP.Chemscore.Internal.Correction>
0.9074

> <Gold.Rescore>
     Score         DG    S(hbond)    S(metal)    S(lipo)     H(rot)  DE(clash)    DE(int)     intcor
     11.74     -15.38       1.47        0.00     109.93       3.08       0.70       2.94       ----

> <Gold.Chemscore.Fitness>
11.7406

> <Gold.Chemscore.DG>
-15.3837

> <Gold.Chemscore.ZeroCoef>
-5.4800

> <Gold.Chemscore.Hbond>
1.4719

> <Gold.Chemscore.Metal>
0.0000

> <Gold.Chemscore.Lipo>
109.9278

> <Gold.Chemscore.Internal_Hbond>
0.0000

> <Gold.Chemscore.DEClash>
0.7028

> <Gold.Chemscore.DEInternal>
2.9403

> <Gold.Chemscore.Rot>
3.0758

> <Gold.Chemscore.Internal.Correction>
   9.000000E+99

> <Gold.Chemscore.Hbonds>
donor molecule, donor type, donor heavy atom, donor atom, acceptor molecule, acceptor atom, score
      L1  H    21    49       P1  8028  0.69
      L1  H    27    62       P1  7948  0.86

> <Gold.Chemscore.Hbond.Weighted>
-4.9163

> <Gold.Chemscore.Metal.Weighted>
-0.0000

> <Gold.Chemscore.Lipo.Weighted>
-12.8616

> <Gold.Chemscore.Internal_Hbond.Weighted>
0.0000

> <Gold.Chemscore.DEClash.Weighted>
0.7028

> <Gold.Chemscore.DEInternal.Weighted>
2.9403

> <Gold.Chemscore.Rot.Weighted>
7.8741

> <Gold.Chemscore.Internal.Correction.Weighted>
   9.000000E+99

> <Gold.Protein.RotatedTorsions>
[ 6907 6896 6895 6894 ] final  -43.16 input  -60.11 | X-H torsion
[ 7974 7965 7964 7962 ] final   12.40 input  175.53 | X-H torsion
[ 8008 7997 7996 7995 ] final -108.87 input   59.86 | X-H torsion
[ 10167 10162 10161 10158 ] final  135.30 input  -65.29 | X-H torsion
[ 10718 10713 10712 10709 ] final -133.45 input   66.30 | X-H torsion
[ 10763 10752 10751 10750 ] final   37.35 input  -60.55 | X-H torsion
[ 11005 11000 10999 10996 ] final   80.46 input  -57.11 | X-H torsion

> <Gold.Protein.ActiveResidues>
 VAL166  LYS551  ARG553  GLY616  TRP617  ASP618  TYR619  PRO620  LYS621  CYS622 
 ASP623  PHE694  ASN695  SER759  ASP760  ASP761  ALA762  ILE779  LEU786  VAL792 
 PHE793  MET794  SER795  GLU796  ALA797  LYS798  CYS799  TRP800  GLU811  SER814 

> <Gold.Protein.RotatedAtoms>
  150.9470  134.8874  159.7648 H   0  0  0  0  0  0  0  0  0  0  0  0  # atno 6907 bound_to 6896
  152.5104  134.3860  159.9377 H   0  0  0  0  0  0  0  0  0  0  0  0  # atno 6908 bound_to 6896
  151.3878  133.3759  159.2752 H   0  0  0  0  0  0  0  0  0  0  0  0  # atno 6909 bound_to 6896
  146.2352  139.9343  142.8492 H   0  0  0  0  0  0  0  0  0  0  0  0  # atno 7974 bound_to 7965
  154.9507  140.0401  157.2143 H   0  0  0  0  0  0  0  0  0  0  0  0  # atno 8008 bound_to 7997
  154.7981  140.2847  155.5920 H   0  0  0  0  0  0  0  0  0  0  0  0  # atno 8009 bound_to 7997
  156.2958  140.2560  156.2843 H   0  0  0  0  0  0  0  0  0  0  0  0  # atno 8010 bound_to 7997
  139.5222  144.6524  151.5263 H   0  0  0  0  0  0  0  0  0  0  0  0  # atno 10167 bound_to 10162
  156.2450  130.7119  151.0996 H   0  0  0  0  0  0  0  0  0  0  0  0  # atno 10718 bound_to 10713
  153.0041  135.6280  154.2131 H   0  0  0  0  0  0  0  0  0  0  0  0  # atno 10763 bound_to 10752
  154.1874  135.2810  155.3034 H   0  0  0  0  0  0  0  0  0  0  0  0  # atno 10764 bound_to 10752
  154.5786  135.5654  153.7223 H   0  0  0  0  0  0  0  0  0  0  0  0  # atno 10765 bound_to 10752
  139.9133  134.7922  156.1912 H   0  0  0  0  0  0  0  0  0  0  0  0  # atno 11005 bound_to 11000
  145.2014  140.9856  143.4153 LP  0  0  0  0  0  0  0  0  0  0  0  0  # atno 17320 bound_to 7965
  144.9770  139.3821  143.6281 LP  0  0  0  0  0  0  0  0  0  0  0  0  # atno 17321 bound_to 7965
  140.6334  143.9031  150.6626 LP  0  0  0  0  0  0  0  0  0  0  0  0  # atno 17342 bound_to 10162
  140.2342  143.3712  152.1540 LP  0  0  0  0  0  0  0  0  0  0  0  0  # atno 17343 bound_to 10162
  157.7191  131.0692  150.6208 LP  0  0  0  0  0  0  0  0  0  0  0  0  # atno 17370 bound_to 10713
  156.6284  130.4425  149.5796 LP  0  0  0  0  0  0  0  0  0  0  0  0  # atno 17371 bound_to 10713
  141.0582  133.6854  156.1902 LP  0  0  0  0  0  0  0  0  0  0  0  0  # atno 17394 bound_to 11000
  140.6703  134.4875  157.5587 LP  0  0  0  0  0  0  0  0  0  0  0  0  # atno 17395 bound_to 11000

$$$$
