AV-unprocessed.smi:1424|AV-procd|sdf|5800|dock3
  -GOLD-   22720 5453D 1   1.00000     0.00000
 Structure written by MMmdl.
 45 47  0  0  0  0  0  0  0  0  1 V2000
  149.2857  132.9941  155.1474 O   0  0  0  0  0  0  0  0  0  0  0  0
  149.1605  133.8007  154.2263 C   0  0  0  0  0  0  0  0  0  0  0  0
  149.7352  135.0105  154.2247 N   0  0  0  0  0  0  0  0  0  0  0  0
  150.5588  135.5293  155.3094 C   0  0  0  0  0  0  0  0  0  0  0  0
  150.4728  137.0630  155.3914 C   0  0  1  0  0  0  0  0  0  0  0  0
  150.1406  137.5561  156.8132 C   0  0  0  0  0  0  0  0  0  0  0  0
  150.3408  139.0736  156.8625 C   0  0  0  0  0  0  0  0  0  0  0  0
  151.7569  139.4166  155.7542 S   0  0  0  0  0  0  0  0  0  0  0  0
  151.3675  140.4519  154.7850 O   0  0  0  0  0  0  0  0  0  0  0  0
  152.9835  139.5512  156.5546 O   0  0  0  0  0  0  0  0  0  0  0  0
  151.7590  137.7753  154.9353 C   0  0  0  0  0  0  0  0  0  0  0  0
  148.4588  133.5956  153.0987 N   0  0  0  0  0  0  0  0  0  0  0  0
  147.7093  132.4483  152.7066 C   0  0  0  0  0  0  0  0  0  0  0  0
  147.8908  131.1681  153.2857 C   0  0  0  0  0  0  0  0  0  0  0  0
  147.0900  130.0973  152.8491 C   0  0  0  0  0  0  0  0  0  0  0  0
  146.1282  130.3435  151.8533 C   0  0  0  0  0  0  0  0  0  0  0  0
  145.9326  131.5579  151.3011 N   0  0  0  0  0  0  0  0  0  0  0  0
  146.7016  132.5934  151.7181 C   0  0  0  0  0  0  0  0  0  0  0  0
  146.4758  133.8511  151.1304 N   0  0  0  0  0  0  0  0  0  0  0  0
  145.6004  133.8560  149.9706 C   0  0  0  0  0  0  0  0  0  0  0  0
  145.2385  135.3255  149.7484 C   0  0  0  0  0  0  0  0  0  0  0  0
  145.4271  135.9866  151.1196 C   0  0  0  0  0  0  0  0  0  0  0  0
  145.9646  134.8750  152.0267 C   0  0  0  0  0  0  0  0  0  0  0  0
  149.5919  135.6113  153.4261 H   0  0  0  0  0  0  0  0  0  0  0  0
  150.2263  135.0898  156.2512 H   0  0  0  0  0  0  0  0  0  0  0  0
  151.5932  135.2162  155.1588 H   0  0  0  0  0  0  0  0  0  0  0  0
  149.6641  137.3978  154.7396 H   0  0  0  0  0  0  0  0  0  0  0  0
  149.1289  137.2792  157.1115 H   0  0  0  0  0  0  0  0  0  0  0  0
  150.8224  137.0880  157.5248 H   0  0  0  0  0  0  0  0  0  0  0  0
  149.4678  139.5912  156.4647 H   0  0  0  0  0  0  0  0  0  0  0  0
  150.5439  139.4485  157.8656 H   0  0  0  0  0  0  0  0  0  0  0  0
  152.6466  137.2381  155.2715 H   0  0  0  0  0  0  0  0  0  0  0  0
  151.8179  137.8970  153.8537 H   0  0  0  0  0  0  0  0  0  0  0  0
  148.5210  134.3226  152.4009 H   0  0  0  0  0  0  0  0  0  0  0  0
  148.6147  130.9873  154.0645 H   0  0  0  0  0  0  0  0  0  0  0  0
  147.2073  129.1107  153.2723 H   0  0  0  0  0  0  0  0  0  0  0  0
  145.4949  129.5455  151.4949 H   0  0  0  0  0  0  0  0  0  0  0  0
  146.0979  133.4278  149.0998 H   0  0  0  0  0  0  0  0  0  0  0  0
  144.6988  133.2737  150.1652 H   0  0  0  0  0  0  0  0  0  0  0  0
  145.9199  135.7746  149.0247 H   0  0  0  0  0  0  0  0  0  0  0  0
  144.2243  135.4390  149.3649 H   0  0  0  0  0  0  0  0  0  0  0  0
  146.1467  136.8027  151.0450 H   0  0  0  0  0  0  0  0  0  0  0  0
  144.4961  136.3993  151.5092 H   0  0  0  0  0  0  0  0  0  0  0  0
  145.1615  134.4756  152.6477 H   0  0  0  0  0  0  0  0  0  0  0  0
  146.7499  135.2422  152.6881 H   0  0  0  0  0  0  0  0  0  0  0  0
  1  2  2  0  0  0  0
  2  3  1  0  0  0  0
  2 12  1  0  0  0  0
  3  4  1  0  0  0  0
  3 24  1  0  0  0  0
  4  5  1  0  0  0  0
  4 25  1  0  0  0  0
  4 26  1  0  0  0  0
  5 11  1  0  0  0  0
  5  6  1  0  0  0  0
  5 27  1  0  0  0  0
  6  7  1  0  0  0  0
  6 28  1  0  0  0  0
  6 29  1  0  0  0  0
  7  8  1  0  0  0  0
  7 30  1  0  0  0  0
  7 31  1  0  0  0  0
  8  9  2  0  0  0  0
  8 10  2  0  0  0  0
  8 11  1  0  0  0  0
 11 32  1  0  0  0  0
 11 33  1  0  0  0  0
 12 13  1  0  0  0  0
 12 34  1  0  0  0  0
 13 18  1  0  0  0  0
 13 14  2  0  0  0  0
 14 15  1  0  0  0  0
 14 35  1  0  0  0  0
 15 16  2  0  0  0  0
 15 36  1  0  0  0  0
 16 17  1  0  0  0  0
 16 37  1  0  0  0  0
 17 18  2  0  0  0  0
 18 19  1  0  0  0  0
 19 23  1  0  0  0  0
 19 20  1  0  0  0  0
 20 21  1  0  0  0  0
 20 38  1  0  0  0  0
 20 39  1  0  0  0  0
 21 22  1  0  0  0  0
 21 40  1  0  0  0  0
 21 41  1  0  0  0  0
 22 23  1  0  0  0  0
 22 42  1  0  0  0  0
 22 43  1  0  0  0  0
 23 44  1  0  0  0  0
 23 45  1  0  0  0  0
M  END
> <s_m_source_file>
AV-unprocessed.smi

> <i_m_source_file_index>
1424

> <i_lp_mmshare_version>
43012

> <i_f3d_flags>
0

> <s_epik_input>
Tz1TMSg9TylbQ0gyXVtDSDJdW0NASF0oW0NIMl0xKVtDSDJdW05IXUMoPU8pW05IXWMyW2NIXVtjSF1bY0hdbmMyTjNbQ0gyXVtDSDJdW0NIMl1bQ0gyXTM=

> <s_epik_cmdline>
J2VwaWtfcHl0aG9uJywgJy1waCcsICc3LjAnLCAnLXRuJywgJzgnLCAnLW1hJywgJzIwMCcsICctbWV0YWxfYmluZGluZycsICctaW1hZScsICc8aW5maWxlLm1hZT4nLCAnLW9tYWUnLCAnPG91dGZpbGUubWFlPic=

> <r_lp_tautomer_probability>
1

> <r_epik_Ionization_Penalty>
0.0965651

> <r_epik_Ionization_Penalty_Charging>
0

> <r_epik_Ionization_Penalty_Neutral>
0.0965651

> <r_epik_State_Penalty>
0.0861592

> <r_epik_Charging_Adjusted_Penalty>
0.0861592

> <i_epik_Tot_Q>
0

> <i_epik_Tot_abs_Q>
0

> <r_epik_Metal_State_Penalty>
0.0740444

> <b_epik_Metal_Only>
0

> <s_lp_Force_Field>
OPLS_2005

> <r_lp_Energy>
37.4342

> <b_lp_Chiralities_Consistent>
1

> <s_lp_Variant>
AV-unprocessed.smi:1424-2

> <Gold.Version>
5.8.1

> <Gold.Id.Protein>
6NUR|6NUR_protein|mol2

> <Gold.PLP.Fitness>
45.0719

> <Gold.PLP.PLP>
-35.4076

> <Gold.PLP.part.hbond>
-4.0484

> <Gold.PLP.part.metal>
0.0000

> <Gold.PLP.part.buried>
-3.8858

> <Gold.PLP.part.nonpolar>
-26.9835

> <Gold.PLP.part.repulsive>
0.3988

> <Gold.PLP.ligand.clash>
0.0000

> <Gold.PLP.ligand.torsion>
1.1104

> <Gold.PLP.Chemscore.Hbond>
3.9508

> <Gold.PLP.Chemscore.CHOScore>
0.0000

> <Gold.PLP.Chemscore.Metal>
0.0000

> <Gold.Chemscore.Hbonds>
donor molecule, donor type, donor heavy atom, donor atom, acceptor molecule, acceptor atom, score
      L1  H     3    24       P1  7948  0.75
      L1  H    12    34       P1  7948  0.50
      P1  H  7989  7998       L1     9  0.60
      P1  H  7997  8009       L1    10  0.84

> <Gold.PLP.Chemscore.Internal.Correction>
0.0329

> <Gold.Rescore>
     Score         DG    S(hbond)    S(metal)    S(lipo)     H(rot)  DE(clash)    DE(int)     intcor
     16.87     -20.38       3.19        0.00      68.36       1.47       0.26       3.25       ----

> <Gold.Chemscore.Fitness>
16.8734

> <Gold.Chemscore.DG>
-20.3751

> <Gold.Chemscore.ZeroCoef>
-5.4800

> <Gold.Chemscore.Hbond>
3.1949

> <Gold.Chemscore.Metal>
0.0000

> <Gold.Chemscore.Lipo>
68.3634

> <Gold.Chemscore.Internal_Hbond>
0.0000

> <Gold.Chemscore.DEClash>
0.2562

> <Gold.Chemscore.DEInternal>
3.2456

> <Gold.Chemscore.Rot>
1.4744

> <Gold.Chemscore.Internal.Correction>
   9.000000E+99

> <Gold.Chemscore.Hbonds>
donor molecule, donor type, donor heavy atom, donor atom, acceptor molecule, acceptor atom, score
      L1  H     3    24       P1  7948  0.09
      L1  H    12    34       P1  7948  0.02
      P1  H  7989  7998       L1     9  0.58
      P1  H  7997  8009       L1    10  0.84

> <Gold.Chemscore.Hbond.Weighted>
-10.6711

> <Gold.Chemscore.Metal.Weighted>
-0.0000

> <Gold.Chemscore.Lipo.Weighted>
-7.9985

> <Gold.Chemscore.Internal_Hbond.Weighted>
0.0000

> <Gold.Chemscore.DEClash.Weighted>
0.2562

> <Gold.Chemscore.DEInternal.Weighted>
3.2456

> <Gold.Chemscore.Rot.Weighted>
3.7744

> <Gold.Chemscore.Internal.Correction.Weighted>
   9.000000E+99

> <Gold.Protein.RotatedTorsions>
[ 6907 6896 6895 6894 ] final   63.66 input  -60.11 | X-H torsion
[ 7974 7965 7964 7962 ] final -144.09 input  175.53 | X-H torsion
[ 8008 7997 7996 7995 ] final -175.14 input   59.86 | X-H torsion
[ 10167 10162 10161 10158 ] final   67.26 input  -65.29 | X-H torsion
[ 10718 10713 10712 10709 ] final  -78.61 input   66.30 | X-H torsion
[ 10763 10752 10751 10750 ] final   56.41 input  -60.55 | X-H torsion
[ 11005 11000 10999 10996 ] final  -92.48 input  -57.11 | X-H torsion

> <Gold.Protein.ActiveResidues>
 VAL166  LYS551  ARG553  GLY616  TRP617  ASP618  TYR619  PRO620  LYS621  CYS622 
 ASP623  PHE694  ASN695  SER759  ASP760  ASP761  ALA762  ILE779  LEU786  VAL792 
 PHE793  MET794  SER795  GLU796  ALA797  LYS798  CYS799  TRP800  GLU811  SER814 

> <Gold.Protein.RotatedAtoms>
  152.4270  134.5849  159.9957 H   0  0  0  0  0  0  0  0  0  0  0  0  # atno 6907 bound_to 6896
  151.5982  133.3353  159.3050 H   0  0  0  0  0  0  0  0  0  0  0  0  # atno 6908 bound_to 6896
  150.8161  134.7380  159.6796 H   0  0  0  0  0  0  0  0  0  0  0  0  # atno 6909 bound_to 6896
  144.8322  140.5754  143.5507 H   0  0  0  0  0  0  0  0  0  0  0  0  # atno 7974 bound_to 7965
  155.9788  140.1177  157.0745 H   0  0  0  0  0  0  0  0  0  0  0  0  # atno 8008 bound_to 7997
  154.4177  140.1148  156.5475 H   0  0  0  0  0  0  0  0  0  0  0  0  # atno 8009 bound_to 7997
  155.6498  140.3473  155.4746 H   0  0  0  0  0  0  0  0  0  0  0  0  # atno 8010 bound_to 7997
  140.0915  144.4984  150.7096 H   0  0  0  0  0  0  0  0  0  0  0  0  # atno 10167 bound_to 10162
  156.0113  130.4523  150.3523 H   0  0  0  0  0  0  0  0  0  0  0  0  # atno 10718 bound_to 10713
  152.9832  135.5677  154.5225 H   0  0  0  0  0  0  0  0  0  0  0  0  # atno 10763 bound_to 10752
  154.4711  135.2785  155.1644 H   0  0  0  0  0  0  0  0  0  0  0  0  # atno 10764 bound_to 10752
  154.3192  135.6272  153.5553 H   0  0  0  0  0  0  0  0  0  0  0  0  # atno 10765 bound_to 10752
  141.1521  133.7824  157.0026 H   0  0  0  0  0  0  0  0  0  0  0  0  # atno 11005 bound_to 11000
  145.4870  139.1491  143.3730 LP  0  0  0  0  0  0  0  0  0  0  0  0  # atno 17320 bound_to 7965
  146.2624  140.5008  142.8848 LP  0  0  0  0  0  0  0  0  0  0  0  0  # atno 17321 bound_to 7965
  140.7026  143.2445  151.4820 LP  0  0  0  0  0  0  0  0  0  0  0  0  # atno 17342 bound_to 10162
  139.5722  144.1901  152.1853 LP  0  0  0  0  0  0  0  0  0  0  0  0  # atno 17343 bound_to 10162
  157.1614  131.0346  151.2839 LP  0  0  0  0  0  0  0  0  0  0  0  0  # atno 17370 bound_to 10713
  157.4307  130.7489  149.6988 LP  0  0  0  0  0  0  0  0  0  0  0  0  # atno 17371 bound_to 10713
  140.0930  134.9581  157.1806 LP  0  0  0  0  0  0  0  0  0  0  0  0  # atno 17394 bound_to 11000
  140.3420  134.2693  155.7210 LP  0  0  0  0  0  0  0  0  0  0  0  0  # atno 17395 bound_to 11000

$$$$
