AV-unprocessed.smi:1019|AV-procd|sdf|4447|dock5
  -GOLD-   22720 2413D 1   1.00000     0.00000
 Structure written by MMmdl.
 45 47  0  0  0  0  0  0  0  0  3 V2000
  145.7420  136.1634  153.5842 C   0  0  0  0  0  0  0  0  0  0  0  0
  146.0825  136.5681  152.2012 N   0  3  1  0  0  0  0  0  0  0  0  0
  145.2748  135.8459  151.1881 C   0  0  0  0  0  0  0  0  0  0  0  0
  145.5265  134.3487  151.2448 C   0  0  0  0  0  0  0  0  0  0  0  0
  144.6246  133.4602  150.6212 C   0  0  0  0  0  0  0  0  0  0  0  0
  144.8412  132.0701  150.6853 C   0  0  0  0  0  0  0  0  0  0  0  0
  145.9626  131.5629  151.3691 C   0  0  0  0  0  0  0  0  0  0  0  0
  146.8684  132.4460  151.9876 C   0  0  0  0  0  0  0  0  0  0  0  0
  146.6519  133.8364  151.9249 C   0  0  0  0  0  0  0  0  0  0  0  0
  146.0842  138.0437  152.0224 C   0  0  0  0  0  0  0  0  0  0  0  0
  146.7942  138.7552  153.1882 C   0  0  2  0  0  0  0  0  0  0  0  0
  145.8636  139.6215  153.8049 O   0  0  0  0  0  0  0  0  0  0  0  0
  148.0190  139.5710  152.7213 C   0  0  0  0  0  0  0  0  0  0  0  0
  148.5207  140.4938  153.7476 N   0  0  0  0  0  0  0  0  0  0  0  0
  148.0131  141.6801  154.1815 C   0  0  0  0  0  0  0  0  0  0  0  0
  148.8478  142.1552  155.1473 N   0  3  0  0  0  0  0  0  0  0  0  0
  149.9067  141.2629  155.3297 C   0  0  0  0  0  0  0  0  0  0  0  0
  150.9997  141.3077  156.1900 C   0  0  0  0  0  0  0  0  0  0  0  0
  151.9038  140.2273  156.1210 C   0  0  0  0  0  0  0  0  0  0  0  0
  151.7047  139.1583  155.2230 C   0  0  0  0  0  0  0  0  0  0  0  0
  150.5926  139.1227  154.3555 C   0  0  0  0  0  0  0  0  0  0  0  0
  149.7037  140.1941  154.4311 C   0  0  0  0  0  0  0  0  0  0  0  0
  144.7065  136.4129  153.8208 H   0  0  0  0  0  0  0  0  0  0  0  0
  146.3875  136.6625  154.3072 H   0  0  0  0  0  0  0  0  0  0  0  0
  145.8723  135.0887  153.7145 H   0  0  0  0  0  0  0  0  0  0  0  0
  144.2120  136.0072  151.3753 H   0  0  0  0  0  0  0  0  0  0  0  0
  145.4791  136.2395  150.1909 H   0  0  0  0  0  0  0  0  0  0  0  0
  143.7610  133.8419  150.0960 H   0  0  0  0  0  0  0  0  0  0  0  0
  144.1476  131.3924  150.2095 H   0  0  0  0  0  0  0  0  0  0  0  0
  146.1291  130.4967  151.4169 H   0  0  0  0  0  0  0  0  0  0  0  0
  147.7297  132.0564  152.5100 H   0  0  0  0  0  0  0  0  0  0  0  0
  147.3507  134.5063  152.4044 H   0  0  0  0  0  0  0  0  0  0  0  0
  146.5792  138.3254  151.0931 H   0  0  0  0  0  0  0  0  0  0  0  0
  145.0560  138.3961  151.9231 H   0  0  0  0  0  0  0  0  0  0  0  0
  147.0978  138.0239  153.9375 H   0  0  0  0  0  0  0  0  0  0  0  0
  145.1582  139.7879  153.1980 H   0  0  0  0  0  0  0  0  0  0  0  0
  148.8390  138.9177  152.4208 H   0  0  0  0  0  0  0  0  0  0  0  0
  147.7648  140.1676  151.8437 H   0  0  0  0  0  0  0  0  0  0  0  0
  147.1110  142.1576  153.8259 H   0  0  0  0  0  0  0  0  0  0  0  0
  151.1558  142.1253  156.8785 H   0  0  0  0  0  0  0  0  0  0  0  0
  152.7678  140.2185  156.7701 H   0  0  0  0  0  0  0  0  0  0  0  0
  152.4204  138.3492  155.1995 H   0  0  0  0  0  0  0  0  0  0  0  0
  150.4494  138.2996  153.6716 H   0  0  0  0  0  0  0  0  0  0  0  0
  147.0327  136.2645  152.0444 H   0  0  0  0  0  0  0  0  0  0  0  0
  148.7043  143.0265  155.6423 H   0  0  0  0  0  0  0  0  0  0  0  0
  1  2  1  0  0  0  0
  1 23  1  0  0  0  0
  1 24  1  0  0  0  0
  1 25  1  0  0  0  0
  2  3  1  0  0  0  0
  2 10  1  0  0  0  0
  2 44  1  0  0  0  0
  3  4  1  0  0  0  0
  3 26  1  0  0  0  0
  3 27  1  0  0  0  0
  4  9  1  0  0  0  0
  4  5  2  0  0  0  0
  5  6  1  0  0  0  0
  5 28  1  0  0  0  0
  6  7  2  0  0  0  0
  6 29  1  0  0  0  0
  7  8  1  0  0  0  0
  7 30  1  0  0  0  0
  8  9  2  0  0  0  0
  8 31  1  0  0  0  0
  9 32  1  0  0  0  0
 10 11  1  0  0  0  0
 10 33  1  0  0  0  0
 10 34  1  0  0  0  0
 11 12  1  0  0  0  0
 11 13  1  0  0  0  0
 11 35  1  0  0  0  0
 12 36  1  0  0  0  0
 13 14  1  0  0  0  0
 13 37  1  0  0  0  0
 13 38  1  0  0  0  0
 14 22  1  0  0  0  0
 14 15  1  0  0  0  0
 15 16  2  0  0  0  0
 15 39  1  0  0  0  0
 16 17  1  0  0  0  0
 16 45  1  0  0  0  0
 17 22  2  0  0  0  0
 17 18  1  0  0  0  0
 18 19  2  0  0  0  0
 18 40  1  0  0  0  0
 19 20  1  0  0  0  0
 19 41  1  0  0  0  0
 20 21  2  0  0  0  0
 20 42  1  0  0  0  0
 21 22  1  0  0  0  0
 21 43  1  0  0  0  0
M  CHG  1   2   1
M  CHG  1  16   1
M  END
> <s_m_source_file>
AV-unprocessed.smi

> <i_m_source_file_index>
1019

> <i_lp_mmshare_version>
43012

> <i_f3d_flags>
0

> <s_epik_input>
W2NIXTFbY0hdW2NIXVtjSF1bY0hdYzFbQ0gyXU4oW0NIM10pW0NIMl1bQ0BIXShbT0hdKVtDSDJdbihbY0hdbjIpYyhjMjMpW2NIXVtjSF1bY0hdW2NIXTM=

> <s_epik_cmdline>
J2VwaWtfcHl0aG9uJywgJy1waCcsICc3LjAnLCAnLXRuJywgJzgnLCAnLW1hJywgJzIwMCcsICctbWV0YWxfYmluZGluZycsICctaW1hZScsICc8aW5maWxlLm1hZT4nLCAnLW9tYWUnLCAnPG91dGZpbGUubWFlPic=

> <r_epik_Ionization_Penalty>
1.5198

> <r_epik_Ionization_Penalty_Charging>
1.5198

> <r_epik_Ionization_Penalty_Neutral>
3.13312e-06

> <r_epik_State_Penalty>
1.624

> <r_epik_Charging_Adjusted_Penalty>
3.1438

> <i_epik_Tot_Q>
2

> <i_epik_Tot_abs_Q>
2

> <r_epik_Metal_State_Penalty>
5.67392

> <b_epik_Metal_Only>
0

> <s_lp_Force_Field>
OPLS_2005

> <r_lp_Energy>
24.5939

> <b_lp_Chiralities_Consistent>
1

> <s_lp_Variant>
AV-unprocessed.smi:1019-5

> <Gold.Version>
5.8.1

> <Gold.Id.Protein>
6NUR|6NUR_protein|mol2

> <Gold.PLP.Fitness>
57.1599

> <Gold.PLP.PLP>
-44.6358

> <Gold.PLP.part.hbond>
-3.0000

> <Gold.PLP.part.metal>
0.0000

> <Gold.PLP.part.buried>
4.9843

> <Gold.PLP.part.nonpolar>
-45.8245

> <Gold.PLP.part.repulsive>
0.2225

> <Gold.PLP.ligand.clash>
0.0217

> <Gold.PLP.ligand.torsion>
1.3345

> <Gold.PLP.Chemscore.Hbond>
5.0000

> <Gold.PLP.Chemscore.CHOScore>
0.0000

> <Gold.PLP.Chemscore.Metal>
0.0000

> <Gold.Chemscore.Hbonds>
donor molecule, donor type, donor heavy atom, donor atom, acceptor molecule, acceptor atom, score
      L1  H     2    44       P1  7948  2.00
      L1  H    12    36       P1 10175  1.00
      L1  H    16    45       P1  8028  1.92

> <Gold.PLP.Chemscore.Internal.Correction>
0.2147

> <Gold.Rescore>
     Score         DG    S(hbond)    S(metal)    S(lipo)     H(rot)  DE(clash)    DE(int)     intcor
     16.62     -22.02       2.80        0.00     115.06       2.46       2.33       3.07       ----

> <Gold.Chemscore.Fitness>
16.6190

> <Gold.Chemscore.DG>
-22.0196

> <Gold.Chemscore.ZeroCoef>
-5.4800

> <Gold.Chemscore.Hbond>
2.8033

> <Gold.Chemscore.Metal>
0.0000

> <Gold.Chemscore.Lipo>
115.0604

> <Gold.Chemscore.Internal_Hbond>
0.0000

> <Gold.Chemscore.DEClash>
2.3306

> <Gold.Chemscore.DEInternal>
3.0700

> <Gold.Chemscore.Rot>
2.4552

> <Gold.Chemscore.Internal.Correction>
   9.000000E+99

> <Gold.Chemscore.Hbonds>
donor molecule, donor type, donor heavy atom, donor atom, acceptor molecule, acceptor atom, score
      L1  H     2    44       P1  7948  1.00
      L1  H    12    36       P1 10175  1.00
      L1  H    16    45       P1  8028  0.92

> <Gold.Chemscore.Hbond.Weighted>
-9.3629

> <Gold.Chemscore.Metal.Weighted>
-0.0000

> <Gold.Chemscore.Lipo.Weighted>
-13.4621

> <Gold.Chemscore.Internal_Hbond.Weighted>
0.0000

> <Gold.Chemscore.DEClash.Weighted>
2.3306

> <Gold.Chemscore.DEInternal.Weighted>
3.0700

> <Gold.Chemscore.Rot.Weighted>
6.2854

> <Gold.Chemscore.Internal.Correction.Weighted>
   9.000000E+99

> <Gold.Protein.RotatedTorsions>
[ 6907 6896 6895 6894 ] final -154.35 input  -60.11 | X-H torsion
[ 7974 7965 7964 7962 ] final   41.10 input  175.53 | X-H torsion
[ 8008 7997 7996 7995 ] final -150.65 input   59.86 | X-H torsion
[ 10167 10162 10161 10158 ] final    0.63 input  -65.29 | X-H torsion
[ 10718 10713 10712 10709 ] final   15.53 input   66.30 | X-H torsion
[ 10763 10752 10751 10750 ] final -145.39 input  -60.55 | X-H torsion
[ 11005 11000 10999 10996 ] final  -40.72 input  -57.11 | X-H torsion

> <Gold.Protein.ActiveResidues>
 VAL166  LYS551  ARG553  GLY616  TRP617  ASP618  TYR619  PRO620  LYS621  CYS622 
 ASP623  PHE694  ASN695  SER759  ASP760  ASP761  ALA762  ILE779  LEU786  VAL792 
 PHE793  MET794  SER795  GLU796  ALA797  LYS798  CYS799  TRP800  GLU811  SER814 

> <Gold.Protein.RotatedAtoms>
  151.2561  133.4325  159.2613 H   0  0  0  0  0  0  0  0  0  0  0  0  # atno 6907 bound_to 6896
  151.0573  134.9713  159.8252 H   0  0  0  0  0  0  0  0  0  0  0  0  # atno 6908 bound_to 6896
  152.5392  134.2513  159.8952 H   0  0  0  0  0  0  0  0  0  0  0  0  # atno 6909 bound_to 6896
  146.0851  139.5455  142.9512 H   0  0  0  0  0  0  0  0  0  0  0  0  # atno 7974 bound_to 7965
  155.6270  140.0687  157.2661 H   0  0  0  0  0  0  0  0  0  0  0  0  # atno 8008 bound_to 7997
  154.4215  140.1774  156.1480 H   0  0  0  0  0  0  0  0  0  0  0  0  # atno 8009 bound_to 7997
  155.9964  140.3340  155.6806 H   0  0  0  0  0  0  0  0  0  0  0  0  # atno 8010 bound_to 7997
  140.6720  143.7022  150.7943 H   0  0  0  0  0  0  0  0  0  0  0  0  # atno 10167 bound_to 10162
  157.0548  130.6284  149.5774 H   0  0  0  0  0  0  0  0  0  0  0  0  # atno 10718 bound_to 10713
  154.8386  135.3414  154.6496 H   0  0  0  0  0  0  0  0  0  0  0  0  # atno 10763 bound_to 10752
  153.7109  135.6964  153.5042 H   0  0  0  0  0  0  0  0  0  0  0  0  # atno 10764 bound_to 10752
  153.2453  135.4371  155.0694 H   0  0  0  0  0  0  0  0  0  0  0  0  # atno 10765 bound_to 10752
  141.0195  133.6869  156.2360 H   0  0  0  0  0  0  0  0  0  0  0  0  # atno 11005 bound_to 11000
  145.6145  141.0334  143.1949 LP  0  0  0  0  0  0  0  0  0  0  0  0  # atno 17320 bound_to 7965
  144.7320  139.7697  143.7343 LP  0  0  0  0  0  0  0  0  0  0  0  0  # atno 17321 bound_to 7965
  140.0709  143.5062  152.2580 LP  0  0  0  0  0  0  0  0  0  0  0  0  # atno 17342 bound_to 10162
  139.5993  144.7577  151.3210 LP  0  0  0  0  0  0  0  0  0  0  0  0  # atno 17343 bound_to 10162
  155.9996  130.5073  150.7614 LP  0  0  0  0  0  0  0  0  0  0  0  0  # atno 17370 bound_to 10713
  157.5002  131.0918  151.0324 LP  0  0  0  0  0  0  0  0  0  0  0  0  # atno 17371 bound_to 10713
  140.6597  134.4980  157.5582 LP  0  0  0  0  0  0  0  0  0  0  0  0  # atno 17394 bound_to 11000
  139.9137  134.8290  156.1439 LP  0  0  0  0  0  0  0  0  0  0  0  0  # atno 17395 bound_to 11000

$$$$
