AV-unprocessed.smi:2855|AV-procd|sdf|10986|dock5
  -GOLD-   2272015443D 1   1.00000     0.00000
 Structure written by MMmdl.
 46 47  0  0  0  0  0  0  0  0  2 V2000
  146.0374  143.7218  161.3363 C   0  0  0  0  0  0  0  0  0  0  0  0
  145.5820  142.7737  160.2179 C   0  0  1  0  0  0  0  0  0  0  0  0
  144.0842  142.9541  159.8991 C   0  0  0  0  0  0  0  0  0  0  0  0
  143.6380  142.0540  158.7315 C   0  0  0  0  0  0  0  0  0  0  0  0
  144.4579  142.3214  157.4439 C   0  0  1  0  0  0  0  0  0  0  0  0
  144.1625  143.7225  156.8001 C   0  0  0  0  0  0  0  0  0  0  0  0
  144.8441  143.9023  155.4279 C   0  0  0  0  0  0  0  0  0  0  0  0
  144.5729  144.9142  157.6872 C   0  0  0  0  0  0  0  0  0  0  0  0
  145.9441  142.0234  157.8144 C   0  0  1  0  0  0  0  0  0  0  0  0
  146.8704  142.0434  156.6863 N   0  0  0  0  0  0  0  0  0  0  0  0
  147.4087  140.9648  156.0965 C   0  0  0  0  0  0  0  0  0  0  0  0
  147.1836  139.8108  156.4637 O   0  0  0  0  0  0  0  0  0  0  0  0
  148.3684  141.2433  154.9318 C   0  0  0  0  0  0  0  0  0  0  0  0
  149.7158  140.6960  155.1568 N   0  0  0  0  0  0  0  0  0  0  0  0
  150.1589  139.6749  154.2976 C   0  0  0  0  0  0  0  0  0  0  0  0
  151.3787  139.1185  154.4245 C   0  0  0  0  0  0  0  0  0  0  0  0
  152.2506  139.6024  155.4877 C   0  0  0  0  0  0  0  0  0  0  0  0
  153.3670  139.1049  155.6198 O   0  0  0  0  0  0  0  0  0  0  0  0
  151.7761  140.5965  156.2943 N   0  5  0  0  0  0  0  0  0  0  0  0
  150.5327  141.1524  156.1537 C   0  0  0  0  0  0  0  0  0  0  0  0
  150.1237  142.0459  156.8957 O   0  0  0  0  0  0  0  0  0  0  0  0
  146.4436  142.9389  158.9493 C   0  0  0  0  0  0  0  0  0  0  0  0
  145.9269  144.7656  161.0410 H   0  0  0  0  0  0  0  0  0  0  0  0
  147.0850  143.5563  161.5890 H   0  0  0  0  0  0  0  0  0  0  0  0
  145.4516  143.5687  162.2432 H   0  0  0  0  0  0  0  0  0  0  0  0
  145.7198  141.7536  160.5794 H   0  0  0  0  0  0  0  0  0  0  0  0
  143.4896  142.7204  160.7830 H   0  0  0  0  0  0  0  0  0  0  0  0
  143.8757  143.9978  159.6629 H   0  0  0  0  0  0  0  0  0  0  0  0
  143.7678  141.0117  159.0266 H   0  0  0  0  0  0  0  0  0  0  0  0
  142.5680  142.1552  158.5583 H   0  0  0  0  0  0  0  0  0  0  0  0
  144.1416  141.5711  156.7178 H   0  0  0  0  0  0  0  0  0  0  0  0
  143.0917  143.8128  156.6231 H   0  0  0  0  0  0  0  0  0  0  0  0
  145.9179  143.7238  155.4914 H   0  0  0  0  0  0  0  0  0  0  0  0
  144.7008  144.9124  155.0432 H   0  0  0  0  0  0  0  0  0  0  0  0
  144.4303  143.2331  154.6745 H   0  0  0  0  0  0  0  0  0  0  0  0
  145.6008  144.8121  158.0366 H   0  0  0  0  0  0  0  0  0  0  0  0
  143.9254  145.0286  158.5541 H   0  0  0  0  0  0  0  0  0  0  0  0
  144.5050  145.8569  157.1439 H   0  0  0  0  0  0  0  0  0  0  0  0
  145.9852  141.0051  158.2073 H   0  0  0  0  0  0  0  0  0  0  0  0
  147.1136  142.9502  156.3150 H   0  0  0  0  0  0  0  0  0  0  0  0
  147.9505  140.8481  154.0038 H   0  0  0  0  0  0  0  0  0  0  0  0
  148.4177  142.3229  154.7848 H   0  0  0  0  0  0  0  0  0  0  0  0
  149.4550  139.3796  153.5335 H   0  0  0  0  0  0  0  0  0  0  0  0
  151.7048  138.3366  153.7546 H   0  0  0  0  0  0  0  0  0  0  0  0
  146.4466  143.9797  158.6249 H   0  0  0  0  0  0  0  0  0  0  0  0
  147.4798  142.6945  159.1871 H   0  0  0  0  0  0  0  0  0  0  0  0
  1  2  1  0  0  0  0
  1 23  1  0  0  0  0
  1 24  1  0  0  0  0
  1 25  1  0  0  0  0
  2 22  1  0  0  0  0
  2  3  1  0  0  0  0
  2 26  1  0  0  0  0
  3  4  1  0  0  0  0
  3 27  1  0  0  0  0
  3 28  1  0  0  0  0
  4  5  1  0  0  0  0
  4 29  1  0  0  0  0
  4 30  1  0  0  0  0
  5  6  1  0  0  0  0
  5  9  1  0  0  0  0
  5 31  1  0  0  0  0
  6  7  1  0  0  0  0
  6  8  1  0  0  0  0
  6 32  1  0  0  0  0
  7 33  1  0  0  0  0
  7 34  1  0  0  0  0
  7 35  1  0  0  0  0
  8 36  1  0  0  0  0
  8 37  1  0  0  0  0
  8 38  1  0  0  0  0
  9 10  1  0  0  0  0
  9 22  1  0  0  0  0
  9 39  1  0  0  0  0
 10 11  1  0  0  0  0
 10 40  1  0  0  0  0
 11 12  2  0  0  0  0
 11 13  1  0  0  0  0
 13 14  1  0  0  0  0
 13 41  1  0  0  0  0
 13 42  1  0  0  0  0
 14 20  1  0  0  0  0
 14 15  1  0  0  0  0
 15 16  2  0  0  0  0
 15 43  1  0  0  0  0
 16 17  1  0  0  0  0
 16 44  1  0  0  0  0
 17 18  2  0  0  0  0
 17 19  1  0  0  0  0
 19 20  1  0  0  0  0
 20 21  2  0  0  0  0
 22 45  1  0  0  0  0
 22 46  1  0  0  0  0
M  CHG  1  19  -1
M  END
> <s_m_source_file>
AV-unprocessed.smi

> <i_m_source_file_index>
2855

> <i_lp_mmshare_version>
43012

> <i_f3d_flags>
0

> <s_epik_input>
W0NIM11bQ0BASF0xW0NIMl1bQ0gyXVtDQEBIXShbQ0hdKFtDSDNdKVtDSDNdKVtDQEhdKFtDSDJdMSlbTkhdQyg9TylbQ0gyXW4yW2NIXVtjSF1jKD1PKVtuSF1jMj1P

> <s_epik_cmdline>
J2VwaWtfcHl0aG9uJywgJy1waCcsICc3LjAnLCAnLXRuJywgJzgnLCAnLW1hJywgJzIwMCcsICctbWV0YWxfYmluZGluZycsICctaW1hZScsICc8aW5maWxlLm1hZT4nLCAnLW9tYWUnLCAnPG91dGZpbGUubWFlPic=

> <r_lp_tautomer_probability>
0.999537

> <r_epik_Ionization_Penalty>
3.12102

> <r_epik_Ionization_Penalty_Charging>
2.9581e-08

> <r_epik_Ionization_Penalty_Neutral>
3.12102

> <r_epik_State_Penalty>
3.12011

> <r_epik_Charging_Adjusted_Penalty>
3.12011

> <i_epik_Tot_Q>
-1

> <i_epik_Tot_abs_Q>
1

> <r_epik_Metal_State_Penalty>
0.463583

> <b_epik_Metal_Only>
1

> <s_lp_Force_Field>
OPLS_2005

> <r_lp_Energy>
27.3846

> <b_lp_Chiralities_Consistent>
1

> <s_lp_Variant>
AV-unprocessed.smi:2855-10

> <Gold.Version>
5.8.1

> <Gold.Id.Protein>
6NUR|6NUR_protein|mol2

> <Gold.PLP.Fitness>
33.7005

> <Gold.PLP.PLP>
-28.3585

> <Gold.PLP.part.hbond>
-1.0000

> <Gold.PLP.part.metal>
0.0000

> <Gold.PLP.part.buried>
-4.1749

> <Gold.PLP.part.nonpolar>
-22.0296

> <Gold.PLP.part.repulsive>
0.1175

> <Gold.PLP.ligand.clash>
0.1809

> <Gold.PLP.ligand.torsion>
0.1765

> <Gold.PLP.Chemscore.Hbond>
1.0000

> <Gold.PLP.Chemscore.CHOScore>
0.9365

> <Gold.PLP.Chemscore.Metal>
0.0000

> <Gold.Chemscore.Hbonds>
donor molecule, donor type, donor heavy atom, donor atom, acceptor molecule, acceptor atom, score
      P1  H  7997  8010       L1    18  0.99
      L1  C    15    43       P1  7957  0.89

> <Gold.PLP.Chemscore.Internal.Correction>
0.0663

> <Gold.Rescore>
     Score         DG    S(hbond)    S(metal)    S(lipo)     H(rot)  DE(clash)    DE(int)     intcor
      7.27      -8.88       0.85        0.00      44.43       1.81       0.02       1.59       ----

> <Gold.Chemscore.Fitness>
7.2732

> <Gold.Chemscore.DG>
-8.8781

> <Gold.Chemscore.ZeroCoef>
-5.4800

> <Gold.Chemscore.Hbond>
0.8482

> <Gold.Chemscore.Metal>
0.0000

> <Gold.Chemscore.Lipo>
44.4332

> <Gold.Chemscore.Internal_Hbond>
0.0000

> <Gold.Chemscore.DEClash>
0.0164

> <Gold.Chemscore.DEInternal>
1.5885

> <Gold.Chemscore.Rot>
1.8100

> <Gold.Chemscore.Internal.Correction>
   9.000000E+99

> <Gold.Chemscore.Hbonds>
donor molecule, donor type, donor heavy atom, donor atom, acceptor molecule, acceptor atom, score
      P1  H  7997  8010       L1    18  0.75

> <Gold.Chemscore.Hbond.Weighted>
-2.8329

> <Gold.Chemscore.Metal.Weighted>
-0.0000

> <Gold.Chemscore.Lipo.Weighted>
-5.1987

> <Gold.Chemscore.Internal_Hbond.Weighted>
0.0000

> <Gold.Chemscore.DEClash.Weighted>
0.0164

> <Gold.Chemscore.DEInternal.Weighted>
1.5885

> <Gold.Chemscore.Rot.Weighted>
4.6335

> <Gold.Chemscore.Internal.Correction.Weighted>
   9.000000E+99

> <Gold.Protein.RotatedTorsions>
[ 6907 6896 6895 6894 ] final  103.04 input  -60.11 | X-H torsion
[ 7974 7965 7964 7962 ] final  179.80 input  175.53 | X-H torsion
[ 8008 7997 7996 7995 ] final   95.48 input   59.86 | X-H torsion
[ 10167 10162 10161 10158 ] final   76.59 input  -65.29 | X-H torsion
[ 10718 10713 10712 10709 ] final    7.19 input   66.30 | X-H torsion
[ 10763 10752 10751 10750 ] final  -95.44 input  -60.55 | X-H torsion
[ 11005 11000 10999 10996 ] final   37.84 input  -57.11 | X-H torsion

> <Gold.Protein.ActiveResidues>
 VAL166  LYS551  ARG553  GLY616  TRP617  ASP618  TYR619  PRO620  LYS621  CYS622 
 ASP623  PHE694  ASN695  SER759  ASP760  ASP761  ALA762  ILE779  LEU786  VAL792 
 PHE793  MET794  SER795  GLU796  ALA797  LYS798  CYS799  TRP800  GLU811  SER814 

> <Gold.Protein.RotatedAtoms>
  152.5307  133.9885  159.7839 H   0  0  0  0  0  0  0  0  0  0  0  0  # atno 6907 bound_to 6896
  151.0126  133.5943  159.2688 H   0  0  0  0  0  0  0  0  0  0  0  0  # atno 6908 bound_to 6896
  151.3012  135.0776  159.9292 H   0  0  0  0  0  0  0  0  0  0  0  0  # atno 6909 bound_to 6896
  144.7142  140.0603  143.6433 H   0  0  0  0  0  0  0  0  0  0  0  0  # atno 7974 bound_to 7965
  156.0693  140.3286  155.7557 H   0  0  0  0  0  0  0  0  0  0  0  0  # atno 8008 bound_to 7997
  155.5330  140.0595  157.2902 H   0  0  0  0  0  0  0  0  0  0  0  0  # atno 8009 bound_to 7997
  154.4522  140.1924  156.0503 H   0  0  0  0  0  0  0  0  0  0  0  0  # atno 8010 bound_to 7997
  139.9906  144.5759  150.7821 H   0  0  0  0  0  0  0  0  0  0  0  0  # atno 10167 bound_to 10162
  156.9333  130.5834  149.5650 H   0  0  0  0  0  0  0  0  0  0  0  0  # atno 10718 bound_to 10713
  154.7148  135.5120  153.8721 H   0  0  0  0  0  0  0  0  0  0  0  0  # atno 10763 bound_to 10752
  153.0811  135.6631  154.0052 H   0  0  0  0  0  0  0  0  0  0  0  0  # atno 10764 bound_to 10752
  153.9887  135.3022  155.3393 H   0  0  0  0  0  0  0  0  0  0  0  0  # atno 10765 bound_to 10752
  140.2185  134.3669  155.8016 H   0  0  0  0  0  0  0  0  0  0  0  0  # atno 11005 bound_to 11000
  145.9869  139.2985  143.1008 LP  0  0  0  0  0  0  0  0  0  0  0  0  # atno 17320 bound_to 7965
  145.8947  140.9281  143.0534 LP  0  0  0  0  0  0  0  0  0  0  0  0  # atno 17321 bound_to 7965
  140.7456  143.2878  151.3415 LP  0  0  0  0  0  0  0  0  0  0  0  0  # atno 17342 bound_to 10162
  139.6342  144.0662  152.2502 LP  0  0  0  0  0  0  0  0  0  0  0  0  # atno 17343 bound_to 10162
  156.0437  130.5516  150.8831 LP  0  0  0  0  0  0  0  0  0  0  0  0  # atno 17370 bound_to 10713
  157.5833  131.0946  150.9237 LP  0  0  0  0  0  0  0  0  0  0  0  0  # atno 17371 bound_to 10713
  141.2224  133.7181  156.8536 LP  0  0  0  0  0  0  0  0  0  0  0  0  # atno 17394 bound_to 11000
  140.1875  134.8989  157.3021 LP  0  0  0  0  0  0  0  0  0  0  0  0  # atno 17395 bound_to 11000

$$$$
