#       Name:                AV-unprocessed.smi:939
#       Creating user name   scv26
#       Creation time:       Fri Mar 27 02:12:50 2020


#       File generated by GOLD software.
#

@<TRIPOS>MOLECULE
AV-unprocessed.smi:939
    39    40     1
SMALL
NO_CHARGES


@<TRIPOS>ATOM
      1 ****        -2.3862  -1.9457   2.2659 C.3            1 S1                 0.0000
      2 ****        -2.1796  -0.9897   1.0860 C.3            1 S1                 0.0000
      3 ****        -1.2396   0.1306   1.4202 C.2            1 S1                 0.0000
      4 ****         0.1385  -0.0956   1.3702 N.2            1 S1                 0.0000
      5 ****         0.8530   0.9854   1.6918 C.2            1 S1                 0.0000
      6 ****         2.3476   1.0319   1.6483 C.3            1 S1                 0.0000
      7 ****         2.9099   1.5102   0.2953 C.3            1 S1                 0.0000
      8 ****         2.3370   0.7768  -0.8282 N.am           1 S1                 0.0000
      9 ****         2.7307  -0.4393  -1.2405 C.2            1 S1                 0.0000
     10 ****         3.7110  -1.0242  -0.7836 O.2            1 S1                 0.0000
     11 ****         1.9394  -0.9995  -2.1723 N.am           1 S1                 0.0000
     12 ****         2.0961  -2.2766  -2.8011 C.3            1 S1                 0.0000
     13 ****         2.1592  -2.3217  -4.3118 C.3            1 S1                 0.0000
     14 ****         0.9245  -2.8046  -3.5992 C.3            1 S1                 0.0000
     15 ****        -0.1444   2.3785   2.0821 S.3            1 S1                 0.0000
     16 ****        -1.5695   1.4121   1.7956 C.2            1 S1                 0.0000
     17 ****        -2.9337   1.9945   1.9613 C.3            1 S1                 0.0000
     18 ****        -3.0754  -2.7474   2.0004 H              1 S1                 0.0000
     19 ****        -2.8004  -1.4214   3.1277 H              1 S1                 0.0000
     20 ****        -1.4450  -2.4032   2.5720 H              1 S1                 0.0000
     21 ****        -1.7994  -1.5519   0.2322 H              1 S1                 0.0000
     22 ****        -3.1451  -0.5935   0.7712 H              1 S1                 0.0000
     23 ****         2.7005   1.6843   2.4473 H              1 S1                 0.0000
     24 ****         2.7306   0.0360   1.8751 H              1 S1                 0.0000
     25 ****         2.6644   2.5630   0.1544 H              1 S1                 0.0000
     26 ****         3.9988   1.4434   0.2866 H              1 S1                 0.0000
     27 ****         1.5208   1.1802  -1.2644 H              1 S1                 0.0000
     28 ****         1.1280  -0.4677  -2.4529 H              1 S1                 0.0000
     29 ****         2.6628  -3.0368  -2.2657 H              1 S1                 0.0000
     30 ****         2.0938  -1.3783  -4.8507 H              1 S1                 0.0000
     31 ****         2.8084  -3.0699  -4.7620 H              1 S1                 0.0000
     32 ****         0.7450  -3.8776  -3.5768 H              1 S1                 0.0000
     33 ****         0.0322  -2.1846  -3.6663 H              1 S1                 0.0000
     34 ****        -3.5153   1.4169   2.6800 H              1 S1                 0.0000
     35 ****        -3.4716   1.9948   1.0131 H              1 S1                 0.0000
     36 ****        -2.8845   3.0230   2.3195 H              1 S1                 0.0000
     37 ****         0.5462  -0.9738   1.1201 LP             1 S1                 0.0000
     38 ****         4.2607  -0.5944  -0.0673 LP             1 S1                 0.0000
     39 ****         3.9585  -1.9297  -1.1284 LP             1 S1                 0.0000
@<TRIPOS>BOND
    1    1    2 1     
    2    1   18 1     
    3    1   19 1     
    4    1   20 1     
    5    2    3 1     
    6    2   21 1     
    7    2   22 1     
    8    3   16 2     
    9    3    4 1     
   10    4    5 2     
   11    5    6 1     
   12    5   15 1     
   13    6    7 1     
   14    6   23 1     
   15    6   24 1     
   16    7    8 1     
   17    7   25 1     
   18    7   26 1     
   19    8    9 am    
   20    8   27 1     
   21    9   10 2     
   22    9   11 am    
   23   11   12 1     
   24   11   28 1     
   25   12   14 1     
   26   12   13 1     
   27   12   29 1     
   28   13   14 1     
   29   13   30 1     
   30   13   31 1     
   31   14   32 1     
   32   14   33 1     
   33   15   16 1     
   34   16   17 1     
   35   17   34 1     
   36   17   35 1     
   37   17   36 1     
   38    4   37 1     
   39   10   38 1     
   40   10   39 1     
@<TRIPOS>SUBSTRUCTURE
      1 S1             1
@<TRIPOS>SET
LONE_PAIRS      STATIC     ATOMS    <user>   **** ""
3 37 38 39
DONOR_HYDROGENS      STATIC     ATOMS    <user>   **** ""
2 27 28
ATOM$BLUE        STATIC     ATOMS    COLORGROUP SYSTEM
3 37 38 39
ATOM$RED        STATIC     ATOMS    COLORGROUP SYSTEM
2 27 28
