AV-unprocessed.smi:1029|AV-procd|sdf|4475|dock10
  -GOLD-   22720 2453D 1   1.00000     0.00000
 Structure written by MMmdl.
 46 47  0  0  0  0  0  0  0  0  2 V2000
  152.4511  141.2502  159.0825 C   0  0  0  0  0  0  0  0  0  0  0  0
  152.0309  140.7438  157.7344 C   0  0  0  0  0  0  0  0  0  0  0  0
  150.8494  141.0516  157.0035 C   0  0  0  0  0  0  0  0  0  0  0  0
  151.0006  140.3148  155.8590 C   0  0  0  0  0  0  0  0  0  0  0  0
  150.1588  140.2208  154.7968 N   0  0  0  0  0  0  0  0  0  0  0  0
  148.8144  140.2024  154.7840 C   0  0  0  0  0  0  0  0  0  0  0  0
  148.0878  140.2963  155.7736 O   0  0  0  0  0  0  0  0  0  0  0  0
  148.3442  140.0705  153.5351 N   0  0  0  0  0  0  0  0  0  0  0  0
  146.9315  140.0085  153.1749 C   0  0  0  0  0  0  0  0  0  0  0  0
  146.5968  138.7358  152.3704 C   0  0  1  0  0  0  0  0  0  0  0  0
  147.7023  138.4162  151.5476 O   0  0  0  0  0  0  0  0  0  0  0  0
  146.3523  137.5275  153.2980 C   0  0  0  0  0  0  0  0  0  0  0  0
  146.3767  136.2330  152.5684 N   0  3  2  0  0  0  0  0  0  0  0  0
  145.2623  136.0815  151.5952 C   0  0  0  0  0  0  0  0  0  0  0  0
  145.4147  134.7895  150.7750 C   0  0  0  0  0  0  0  0  0  0  0  0
  145.5012  133.5542  151.6869 C   0  0  1  0  0  0  0  0  0  0  0  0
  145.6863  132.2622  150.8785 C   0  0  0  0  0  0  0  0  0  0  0  0
  146.6357  133.7559  152.7051 C   0  0  0  0  0  0  0  0  0  0  0  0
  146.4587  135.0685  153.4869 C   0  0  0  0  0  0  0  0  0  0  0  0
  152.1583  139.6107  155.8776 O   0  0  0  0  0  0  0  0  0  0  0  0
  152.8120  139.8953  157.0821 N   0  0  0  0  0  0  0  0  0  0  0  0
  151.7377  141.9779  159.4696 H   0  0  0  0  0  0  0  0  0  0  0  0
  153.4261  141.7358  159.0338 H   0  0  0  0  0  0  0  0  0  0  0  0
  152.5191  140.4358  159.8042 H   0  0  0  0  0  0  0  0  0  0  0  0
  150.0393  141.7048  157.2900 H   0  0  0  0  0  0  0  0  0  0  0  0
  150.6123  140.1596  153.8973 H   0  0  0  0  0  0  0  0  0  0  0  0
  149.0110  140.0066  152.7798 H   0  0  0  0  0  0  0  0  0  0  0  0
  146.2872  140.1123  154.0502 H   0  0  0  0  0  0  0  0  0  0  0  0
  146.7412  140.8872  152.5578 H   0  0  0  0  0  0  0  0  0  0  0  0
  145.7235  138.9186  151.7448 H   0  0  0  0  0  0  0  0  0  0  0  0
  148.4060  139.0188  151.7360 H   0  0  0  0  0  0  0  0  0  0  0  0
  147.1189  137.5292  154.0748 H   0  0  0  0  0  0  0  0  0  0  0  0
  145.3975  137.6264  153.8165 H   0  0  0  0  0  0  0  0  0  0  0  0
  144.3098  136.0762  152.1277 H   0  0  0  0  0  0  0  0  0  0  0  0
  145.2351  136.9294  150.9119 H   0  0  0  0  0  0  0  0  0  0  0  0
  144.5726  134.6893  150.0892 H   0  0  0  0  0  0  0  0  0  0  0  0
  146.3101  134.8561  150.1550 H   0  0  0  0  0  0  0  0  0  0  0  0
  144.5620  133.4699  152.2359 H   0  0  0  0  0  0  0  0  0  0  0  0
  146.6138  132.2807  150.3052 H   0  0  0  0  0  0  0  0  0  0  0  0
  144.8644  132.1173  150.1769 H   0  0  0  0  0  0  0  0  0  0  0  0
  145.7170  131.3909  151.5331 H   0  0  0  0  0  0  0  0  0  0  0  0
  146.6678  132.9165  153.4007 H   0  0  0  0  0  0  0  0  0  0  0  0
  147.5975  133.7671  152.1903 H   0  0  0  0  0  0  0  0  0  0  0  0
  147.3031  135.1930  154.1661 H   0  0  0  0  0  0  0  0  0  0  0  0
  145.5592  135.0239  154.1031 H   0  0  0  0  0  0  0  0  0  0  0  0
  147.2353  136.2296  152.0357 H   0  0  0  0  0  0  0  0  0  0  0  0
  1  2  1  0  0  0  0
  1 22  1  0  0  0  0
  1 23  1  0  0  0  0
  1 24  1  0  0  0  0
  2 21  2  0  0  0  0
  2  3  1  0  0  0  0
  3  4  2  0  0  0  0
  3 25  1  0  0  0  0
  4  5  1  0  0  0  0
  4 20  1  0  0  0  0
  5  6  1  0  0  0  0
  5 26  1  0  0  0  0
  6  7  2  0  0  0  0
  6  8  1  0  0  0  0
  8  9  1  0  0  0  0
  8 27  1  0  0  0  0
  9 10  1  0  0  0  0
  9 28  1  0  0  0  0
  9 29  1  0  0  0  0
 10 11  1  0  0  0  0
 10 12  1  0  0  0  0
 10 30  1  0  0  0  0
 11 31  1  0  0  0  0
 12 13  1  0  0  0  0
 12 32  1  0  0  0  0
 12 33  1  0  0  0  0
 13 19  1  0  0  0  0
 13 14  1  0  0  0  0
 13 46  1  0  0  0  0
 14 15  1  0  0  0  0
 14 34  1  0  0  0  0
 14 35  1  0  0  0  0
 15 16  1  0  0  0  0
 15 36  1  0  0  0  0
 15 37  1  0  0  0  0
 16 17  1  0  0  0  0
 16 18  1  0  0  0  0
 16 38  1  0  0  0  0
 17 39  1  0  0  0  0
 17 40  1  0  0  0  0
 17 41  1  0  0  0  0
 18 19  1  0  0  0  0
 18 42  1  0  0  0  0
 18 43  1  0  0  0  0
 19 44  1  0  0  0  0
 19 45  1  0  0  0  0
 20 21  1  0  0  0  0
M  CHG  1  13   1
M  END
> <s_m_source_file>
AV-unprocessed.smi

> <i_m_source_file_index>
1029

> <i_lp_mmshare_version>
43012

> <i_f3d_flags>
0

> <s_epik_input>
W0NIM11jMVtjSF1jKG9uMSlbTkhdQyg9TylbTkhdW0NIMl1bQ0BIXShbT0hdKVtDSDJdTjJbQ0gyXVtDSDJdW0NIXShbQ0gzXSlbQ0gyXVtDSDJdMg==

> <s_epik_cmdline>
J2VwaWtfcHl0aG9uJywgJy1waCcsICc3LjAnLCAnLXRuJywgJzgnLCAnLW1hJywgJzIwMCcsICctbWV0YWxfYmluZGluZycsICctaW1hZScsICc8aW5maWxlLm1hZT4nLCAnLW9tYWUnLCAnPG91dGZpbGUubWFlPic=

> <r_lp_tautomer_probability>
1

> <r_epik_Ionization_Penalty>
0.00211787

> <r_epik_Ionization_Penalty_Charging>
0.00153238

> <r_epik_Ionization_Penalty_Neutral>
0.000585488

> <r_epik_State_Penalty>
-0

> <r_epik_Charging_Adjusted_Penalty>
0.00153238

> <i_epik_Tot_Q>
1

> <i_epik_Tot_abs_Q>
1

> <r_epik_Metal_State_Penalty>
-0

> <b_epik_Metal_Only>
0

> <s_lp_Force_Field>
OPLS_2005

> <r_lp_Energy>
20.5913

> <b_lp_Chiralities_Consistent>
1

> <s_lp_Variant>
AV-unprocessed.smi:1029-2

> <Gold.Version>
5.8.1

> <Gold.Id.Protein>
6NUR|6NUR_protein|mol2

> <Gold.PLP.Fitness>
51.7786

> <Gold.PLP.PLP>
-35.3357

> <Gold.PLP.part.hbond>
-5.8497

> <Gold.PLP.part.metal>
0.0000

> <Gold.PLP.part.buried>
-3.9767

> <Gold.PLP.part.nonpolar>
-26.0064

> <Gold.PLP.part.repulsive>
1.0050

> <Gold.PLP.ligand.clash>
0.0000

> <Gold.PLP.ligand.torsion>
0.7058

> <Gold.PLP.Chemscore.Hbond>
5.9280

> <Gold.PLP.Chemscore.CHOScore>
0.0000

> <Gold.PLP.Chemscore.Metal>
0.0000

> <Gold.Chemscore.Hbonds>
donor molecule, donor type, donor heavy atom, donor atom, acceptor molecule, acceptor atom, score
      L1  H     8    27       P1  7957  1.00
      L1  H    11    31       P1  7957  0.93
      L1  H    13    46       P1  7948  2.00
      P1  H  7954  7966       L1    11  1.00
      P1  H  7997  8009       L1    21  1.00

> <Gold.PLP.Chemscore.Internal.Correction>
0.0705

> <Gold.Rescore>
     Score         DG    S(hbond)    S(metal)    S(lipo)     H(rot)  DE(clash)    DE(int)     intcor
     19.08     -20.08       3.81        0.00      69.99       2.46       0.29       0.70       ----

> <Gold.Chemscore.Fitness>
19.0819

> <Gold.Chemscore.DG>
-20.0770

> <Gold.Chemscore.ZeroCoef>
-5.4800

> <Gold.Chemscore.Hbond>
3.8061

> <Gold.Chemscore.Metal>
0.0000

> <Gold.Chemscore.Lipo>
69.9858

> <Gold.Chemscore.Internal_Hbond>
0.0000

> <Gold.Chemscore.DEClash>
0.2937

> <Gold.Chemscore.DEInternal>
0.7014

> <Gold.Chemscore.Rot>
2.4624

> <Gold.Chemscore.Internal.Correction>
   9.000000E+99

> <Gold.Chemscore.Hbonds>
donor molecule, donor type, donor heavy atom, donor atom, acceptor molecule, acceptor atom, score
      L1  H     8    27       P1  7957  0.99
      L1  H    11    31       P1  7957  0.79
      L1  H    13    46       P1  7948  0.98
      P1  H  7954  7966       L1    11  0.24
      P1  H  7997  8009       L1    21  0.55

> <Gold.Chemscore.Hbond.Weighted>
-12.7124

> <Gold.Chemscore.Metal.Weighted>
-0.0000

> <Gold.Chemscore.Lipo.Weighted>
-8.1883

> <Gold.Chemscore.Internal_Hbond.Weighted>
0.0000

> <Gold.Chemscore.DEClash.Weighted>
0.2937

> <Gold.Chemscore.DEInternal.Weighted>
0.7014

> <Gold.Chemscore.Rot.Weighted>
6.3037

> <Gold.Chemscore.Internal.Correction.Weighted>
   9.000000E+99

> <Gold.Protein.RotatedTorsions>
[ 6907 6896 6895 6894 ] final -174.89 input  -60.11 | X-H torsion
[ 7974 7965 7964 7962 ] final    9.87 input  175.53 | X-H torsion
[ 8008 7997 7996 7995 ] final  175.86 input   59.86 | X-H torsion
[ 10167 10162 10161 10158 ] final  -56.89 input  -65.29 | X-H torsion
[ 10718 10713 10712 10709 ] final  125.61 input   66.30 | X-H torsion
[ 10763 10752 10751 10750 ] final  -13.27 input  -60.55 | X-H torsion
[ 11005 11000 10999 10996 ] final   88.93 input  -57.11 | X-H torsion

> <Gold.Protein.ActiveResidues>
 VAL166  LYS551  ARG553  GLY616  TRP617  ASP618  TYR619  PRO620  LYS621  CYS622 
 ASP623  PHE694  ASN695  SER759  ASP760  ASP761  ALA762  ILE779  LEU786  VAL792 
 PHE793  MET794  SER795  GLU796  ALA797  LYS798  CYS799  TRP800  GLU811  SER814 

> <Gold.Protein.RotatedAtoms>
  151.5797  133.3379  159.3005 H   0  0  0  0  0  0  0  0  0  0  0  0  # atno 6907 bound_to 6896
  150.8320  134.7580  159.6873 H   0  0  0  0  0  0  0  0  0  0  0  0  # atno 6908 bound_to 6896
  152.4402  134.5612  159.9946 H   0  0  0  0  0  0  0  0  0  0  0  0  # atno 6909 bound_to 6896
  146.2397  139.9719  142.8446 H   0  0  0  0  0  0  0  0  0  0  0  0  # atno 7974 bound_to 7965
  156.0826  140.1398  156.9693 H   0  0  0  0  0  0  0  0  0  0  0  0  # atno 8008 bound_to 7997
  154.4594  140.0949  156.6899 H   0  0  0  0  0  0  0  0  0  0  0  0  # atno 8009 bound_to 7997
  155.5051  140.3452  155.4380 H   0  0  0  0  0  0  0  0  0  0  0  0  # atno 8010 bound_to 7997
  140.6291  143.2451  151.5288 H   0  0  0  0  0  0  0  0  0  0  0  0  # atno 10167 bound_to 10162
  157.5489  131.1094  150.8736 H   0  0  0  0  0  0  0  0  0  0  0  0  # atno 10718 bound_to 10713
  153.5108  135.7016  153.5782 H   0  0  0  0  0  0  0  0  0  0  0  0  # atno 10763 bound_to 10752
  153.3873  135.3905  155.1899 H   0  0  0  0  0  0  0  0  0  0  0  0  # atno 10764 bound_to 10752
  154.8703  135.3849  154.4588 H   0  0  0  0  0  0  0  0  0  0  0  0  # atno 10765 bound_to 10752
  139.8886  134.8519  156.3070 H   0  0  0  0  0  0  0  0  0  0  0  0  # atno 11005 bound_to 11000
  145.1673  140.9703  143.4342 LP  0  0  0  0  0  0  0  0  0  0  0  0  # atno 17320 bound_to 7965
  145.0061  139.3553  143.6143 LP  0  0  0  0  0  0  0  0  0  0  0  0  # atno 17321 bound_to 7965
  139.5507  144.2403  152.1525 LP  0  0  0  0  0  0  0  0  0  0  0  0  # atno 17342 bound_to 10162
  140.1642  144.4997  150.6615 LP  0  0  0  0  0  0  0  0  0  0  0  0  # atno 17343 bound_to 10162
  156.9266  130.5334  149.5279 LP  0  0  0  0  0  0  0  0  0  0  0  0  # atno 17370 bound_to 10713
  156.0559  130.5621  150.9091 LP  0  0  0  0  0  0  0  0  0  0  0  0  # atno 17371 bound_to 10713
  140.9876  133.7229  156.0764 LP  0  0  0  0  0  0  0  0  0  0  0  0  # atno 17394 bound_to 11000
  140.7668  134.3877  157.5515 LP  0  0  0  0  0  0  0  0  0  0  0  0  # atno 17395 bound_to 11000

$$$$
