AV-unprocessed.smi:1648|AV-procd|sdf|6629|dock8
  -GOLD-   22720 7333D 1   1.00000     0.00000
 Structure written by MMmdl.
 42 42  0  0  0  0  0  0  0  0  2 V2000
  145.8544  134.9510  151.9107 C   0  0  0  0  0  0  0  0  0  0  0  0
  146.4536  134.4660  153.2321 C   0  0  0  0  0  0  0  0  0  0  0  0
  145.7303  133.9090  154.0545 O   0  0  0  0  0  0  0  0  0  0  0  0
  147.7617  134.6614  153.4732 N   0  0  0  0  0  0  0  0  0  0  0  0
  148.5155  134.2730  154.6684 C   0  0  2  0  0  0  0  0  0  0  0  0
  149.1729  135.5326  155.2641 C   0  0  0  0  0  0  0  0  0  0  0  0
  149.2954  135.6591  156.4837 O   0  0  0  0  0  0  0  0  0  0  0  0
  149.5706  136.4670  154.3862 N   0  0  0  0  0  0  0  0  0  0  0  0
  150.1940  137.7396  154.7354 C   0  0  1  0  0  0  0  0  0  0  0  0
  151.6673  137.7179  154.2979 C   0  0  0  0  0  0  0  0  0  0  0  0
  149.3931  138.9069  154.1179 C   0  0  0  0  0  0  0  0  0  0  0  0
  149.7138  140.2045  154.7188 N   0  0  0  0  0  0  0  0  0  0  0  0
  150.7864  140.5143  155.5155 C   0  0  0  0  0  0  0  0  0  0  0  0
  150.6683  141.8441  155.8291 C   0  0  0  0  0  0  0  0  0  0  0  0
  149.5327  142.2899  155.2075 N   0  3  0  0  0  0  0  0  0  0  0  0
  148.9548  141.2918  154.5312 C   0  0  0  0  0  0  0  0  0  0  0  0
  149.6148  133.2495  154.2554 C   0  0  0  0  0  0  0  0  0  0  0  0
  149.0177  132.0326  153.5211 C   0  0  0  0  0  0  0  0  0  0  0  0
  150.4599  132.7525  155.4476 C   0  0  0  0  0  0  0  0  0  0  0  0
  145.9328  136.0351  151.8267 H   0  0  0  0  0  0  0  0  0  0  0  0
  144.7981  134.6867  151.8492 H   0  0  0  0  0  0  0  0  0  0  0  0
  146.3621  134.4942  151.0610 H   0  0  0  0  0  0  0  0  0  0  0  0
  148.2869  135.1493  152.7618 H   0  0  0  0  0  0  0  0  0  0  0  0
  147.8549  133.8088  155.4026 H   0  0  0  0  0  0  0  0  0  0  0  0
  149.4301  136.2819  153.4033 H   0  0  0  0  0  0  0  0  0  0  0  0
  150.1806  137.8435  155.8221 H   0  0  0  0  0  0  0  0  0  0  0  0
  152.1919  138.6198  154.6132 H   0  0  0  0  0  0  0  0  0  0  0  0
  151.7588  137.6398  153.2142 H   0  0  0  0  0  0  0  0  0  0  0  0
  152.1928  136.8696  154.7380 H   0  0  0  0  0  0  0  0  0  0  0  0
  149.5844  138.9778  153.0460 H   0  0  0  0  0  0  0  0  0  0  0  0
  148.3202  138.7475  154.2363 H   0  0  0  0  0  0  0  0  0  0  0  0
  151.5335  139.7850  155.7941 H   0  0  0  0  0  0  0  0  0  0  0  0
  151.2922  142.4896  156.4303 H   0  0  0  0  0  0  0  0  0  0  0  0
  148.0524  141.3518  153.9489 H   0  0  0  0  0  0  0  0  0  0  0  0
  150.2977  133.7376  153.5574 H   0  0  0  0  0  0  0  0  0  0  0  0
  148.2986  131.5065  154.1497 H   0  0  0  0  0  0  0  0  0  0  0  0
  149.7961  131.3216  153.2426 H   0  0  0  0  0  0  0  0  0  0  0  0
  148.5080  132.3185  152.6008 H   0  0  0  0  0  0  0  0  0  0  0  0
  149.8316  132.2959  156.2129 H   0  0  0  0  0  0  0  0  0  0  0  0
  151.0267  133.5567  155.9166 H   0  0  0  0  0  0  0  0  0  0  0  0
  151.1859  132.0046  155.1277 H   0  0  0  0  0  0  0  0  0  0  0  0
  149.1808  143.2383  155.2499 H   0  0  0  0  0  0  0  0  0  0  0  0
  1  2  1  0  0  0  0
  1 20  1  0  0  0  0
  1 21  1  0  0  0  0
  1 22  1  0  0  0  0
  2  3  2  0  0  0  0
  2  4  1  0  0  0  0
  4  5  1  0  0  0  0
  4 23  1  0  0  0  0
  5  6  1  0  0  0  0
  5 17  1  0  0  0  0
  5 24  1  0  0  0  0
  6  7  2  0  0  0  0
  6  8  1  0  0  0  0
  8  9  1  0  0  0  0
  8 25  1  0  0  0  0
  9 10  1  0  0  0  0
  9 11  1  0  0  0  0
  9 26  1  0  0  0  0
 10 27  1  0  0  0  0
 10 28  1  0  0  0  0
 10 29  1  0  0  0  0
 11 12  1  0  0  0  0
 11 30  1  0  0  0  0
 11 31  1  0  0  0  0
 12 16  1  0  0  0  0
 12 13  1  0  0  0  0
 13 14  2  0  0  0  0
 13 32  1  0  0  0  0
 14 15  1  0  0  0  0
 14 33  1  0  0  0  0
 15 16  2  0  0  0  0
 15 42  1  0  0  0  0
 16 34  1  0  0  0  0
 17 18  1  0  0  0  0
 17 19  1  0  0  0  0
 17 35  1  0  0  0  0
 18 36  1  0  0  0  0
 18 37  1  0  0  0  0
 18 38  1  0  0  0  0
 19 39  1  0  0  0  0
 19 40  1  0  0  0  0
 19 41  1  0  0  0  0
M  CHG  1  15   1
M  END
> <s_m_source_file>
AV-unprocessed.smi

> <i_m_source_file_index>
1648

> <i_lp_mmshare_version>
43012

> <i_f3d_flags>
0

> <s_epik_input>
W0NIM11DKD1PKVtOSF1bQ0BASF0oW0NIXShbQ0gzXSlbQ0gzXSlDKD1PKVtOSF1bQ0BIXShbQ0gzXSlbQ0gyXW4xW2NIXVtjSF1uW2NIXTE=

> <s_epik_cmdline>
J2VwaWtfcHl0aG9uJywgJy1waCcsICc3LjAnLCAnLXRuJywgJzgnLCAnLW1hJywgJzIwMCcsICctbWV0YWxfYmluZGluZycsICctaW1hZScsICc8aW5maWxlLm1hZT4nLCAnLW9tYWUnLCAnPG91dGZpbGUubWFlPic=

> <r_lp_tautomer_probability>
1

> <r_epik_Ionization_Penalty>
0.251562

> <r_epik_Ionization_Penalty_Charging>
0

> <r_epik_Ionization_Penalty_Neutral>
0.251562

> <r_epik_State_Penalty>
0.242926

> <r_epik_Charging_Adjusted_Penalty>
0.242926

> <i_epik_Tot_Q>
1

> <i_epik_Tot_abs_Q>
1

> <r_epik_Metal_State_Penalty>
0.53388

> <b_epik_Metal_Only>
0

> <s_lp_Force_Field>
OPLS_2005

> <r_lp_Energy>
11.8238

> <b_lp_Chiralities_Consistent>
1

> <s_lp_Variant>
AV-unprocessed.smi:1648-3

> <Gold.Version>
5.8.1

> <Gold.Id.Protein>
6NUR|6NUR_protein|mol2

> <Gold.PLP.Fitness>
44.6171

> <Gold.PLP.PLP>
-34.6986

> <Gold.PLP.part.hbond>
-2.9662

> <Gold.PLP.part.metal>
0.0000

> <Gold.PLP.part.buried>
-3.7502

> <Gold.PLP.part.nonpolar>
-28.9853

> <Gold.PLP.part.repulsive>
0.3317

> <Gold.PLP.ligand.clash>
0.0000

> <Gold.PLP.ligand.torsion>
1.0597

> <Gold.PLP.Chemscore.Hbond>
3.9913

> <Gold.PLP.Chemscore.CHOScore>
0.0000

> <Gold.PLP.Chemscore.Metal>
0.0000

> <Gold.Chemscore.Hbonds>
donor molecule, donor type, donor heavy atom, donor atom, acceptor molecule, acceptor atom, score
      L1  H     4    23       P1  7948  0.99
      L1  H     8    25       P1  7948  1.00
      L1  H    15    42       P1  8028  2.00

> <Gold.PLP.Chemscore.Internal.Correction>
0.0642

> <Gold.Rescore>
     Score         DG    S(hbond)    S(metal)    S(lipo)     H(rot)  DE(clash)    DE(int)     intcor
     14.46     -15.65       2.94        0.00      60.12       2.61       0.02       1.17       ----

> <Gold.Chemscore.Fitness>
14.4617

> <Gold.Chemscore.DG>
-15.6485

> <Gold.Chemscore.ZeroCoef>
-5.4800

> <Gold.Chemscore.Hbond>
2.9418

> <Gold.Chemscore.Metal>
0.0000

> <Gold.Chemscore.Lipo>
60.1157

> <Gold.Chemscore.Internal_Hbond>
0.0000

> <Gold.Chemscore.DEClash>
0.0170

> <Gold.Chemscore.DEInternal>
1.1698

> <Gold.Chemscore.Rot>
2.6135

> <Gold.Chemscore.Internal.Correction>
   9.000000E+99

> <Gold.Chemscore.Hbonds>
donor molecule, donor type, donor heavy atom, donor atom, acceptor molecule, acceptor atom, score
      L1  H     4    23       P1  7948  0.81
      L1  H     8    25       P1  7948  0.64
      L1  H    15    42       P1  8028  0.96

> <Gold.Chemscore.Hbond.Weighted>
-9.8256

> <Gold.Chemscore.Metal.Weighted>
-0.0000

> <Gold.Chemscore.Lipo.Weighted>
-7.0335

> <Gold.Chemscore.Internal_Hbond.Weighted>
0.0000

> <Gold.Chemscore.DEClash.Weighted>
0.0170

> <Gold.Chemscore.DEInternal.Weighted>
1.1698

> <Gold.Chemscore.Rot.Weighted>
6.6906

> <Gold.Chemscore.Internal.Correction.Weighted>
   9.000000E+99

> <Gold.Protein.RotatedTorsions>
[ 6907 6896 6895 6894 ] final -171.35 input  -60.11 | X-H torsion
[ 7974 7965 7964 7962 ] final  108.45 input  175.53 | X-H torsion
[ 8008 7997 7996 7995 ] final  167.86 input   59.86 | X-H torsion
[ 10167 10162 10161 10158 ] final  -40.27 input  -65.29 | X-H torsion
[ 10718 10713 10712 10709 ] final  166.70 input   66.30 | X-H torsion
[ 10763 10752 10751 10750 ] final  -24.89 input  -60.55 | X-H torsion
[ 11005 11000 10999 10996 ] final   -5.76 input  -57.11 | X-H torsion

> <Gold.Protein.ActiveResidues>
 VAL166  LYS551  ARG553  GLY616  TRP617  ASP618  TYR619  PRO620  LYS621  CYS622 
 ASP623  PHE694  ASN695  SER759  ASP760  ASP761  ALA762  ILE779  LEU786  VAL792 
 PHE793  MET794  SER795  GLU796  ALA797  LYS798  CYS799  TRP800  GLU811  SER814 

> <Gold.Protein.RotatedAtoms>
  151.5224  133.3464  159.2903 H   0  0  0  0  0  0  0  0  0  0  0  0  # atno 6907 bound_to 6896
  150.8644  134.8006  159.7118 H   0  0  0  0  0  0  0  0  0  0  0  0  # atno 6908 bound_to 6896
  152.4653  134.5098  159.9802 H   0  0  0  0  0  0  0  0  0  0  0  0  # atno 6909 bound_to 6896
  145.2806  139.2634  143.3918 H   0  0  0  0  0  0  0  0  0  0  0  0  # atno 7974 bound_to 7965
  156.1597  140.1605  156.8633 H   0  0  0  0  0  0  0  0  0  0  0  0  # atno 8008 bound_to 7997
  154.5149  140.0792  156.8097 H   0  0  0  0  0  0  0  0  0  0  0  0  # atno 8009 bound_to 7997
  155.3732  140.3401  155.4246 H   0  0  0  0  0  0  0  0  0  0  0  0  # atno 8010 bound_to 7997
  140.7039  143.3164  151.2900 H   0  0  0  0  0  0  0  0  0  0  0  0  # atno 10167 bound_to 10162
  157.0622  131.0343  151.2643 H   0  0  0  0  0  0  0  0  0  0  0  0  # atno 10718 bound_to 10713
  153.6910  135.6961  153.5090 H   0  0  0  0  0  0  0  0  0  0  0  0  # atno 10763 bound_to 10752
  153.2413  135.4305  155.0700 H   0  0  0  0  0  0  0  0  0  0  0  0  # atno 10764 bound_to 10752
  154.8372  135.3508  154.6452 H   0  0  0  0  0  0  0  0  0  0  0  0  # atno 10765 bound_to 10752
  140.6946  133.9042  155.8641 H   0  0  0  0  0  0  0  0  0  0  0  0  # atno 11005 bound_to 11000
  146.3218  140.3272  142.8637 LP  0  0  0  0  0  0  0  0  0  0  0  0  # atno 17320 bound_to 7965
  144.9257  140.7918  143.5720 LP  0  0  0  0  0  0  0  0  0  0  0  0  # atno 17321 bound_to 7965
  139.6604  144.0200  152.2688 LP  0  0  0  0  0  0  0  0  0  0  0  0  # atno 17342 bound_to 10162
  139.9766  144.6457  150.7940 LP  0  0  0  0  0  0  0  0  0  0  0  0  # atno 17343 bound_to 10162
  157.4946  130.7842  149.7542 LP  0  0  0  0  0  0  0  0  0  0  0  0  # atno 17370 bound_to 10713
  155.9975  130.3899  150.2737 LP  0  0  0  0  0  0  0  0  0  0  0  0  # atno 17371 bound_to 10713
  141.0213  134.0884  157.4117 LP  0  0  0  0  0  0  0  0  0  0  0  0  # atno 17394 bound_to 11000
  139.8914  135.0118  156.6787 LP  0  0  0  0  0  0  0  0  0  0  0  0  # atno 17395 bound_to 11000

$$$$
