#       Name:                AV-unprocessed.smi:501
#       Creating user name   scv26
#       Creation time:       Thu Mar 26 23:20:21 2020


#       File generated by GOLD software.
#

@<TRIPOS>MOLECULE
AV-unprocessed.smi:501
    50    52     1
SMALL
NO_CHARGES


@<TRIPOS>ATOM
      1 ****        -5.2894   0.1728  -0.0318 C.3            1 S1                 0.0000
      2 ****        -4.3766   1.0622   0.7872 C.ar           1 S1                 0.0000
      3 ****        -4.9231   1.9382   1.7457 C.ar           1 S1                 0.0000
      4 ****        -4.0757   2.7625   2.5082 C.ar           1 S1                 0.0000
      5 ****        -2.6823   2.7109   2.3147 C.ar           1 S1                 0.0000
      6 ****        -2.1178   1.8376   1.3626 C.ar           1 S1                 0.0000
      7 ****        -0.7446   1.8490   1.2420 O.3            1 S1                 0.0000
      8 ****        -0.1442   0.9590   0.3120 C.3            1 S1                 0.0000
      9 ****         1.3771   1.1369   0.3791 C.3            1 S1                 0.0000
     10 ****         2.0664   0.2699  -0.5663 N.pl3          1 S1                 0.0000
     11 ****         2.5687  -0.9800  -0.3806 C.2            1 S1                 0.0000
     12 ****         2.4716  -1.7266   0.9179 C.3            1 S1                 0.0000
     13 ****         1.3073  -2.7312   0.9394 C.3            1 S1                 0.0000
     14 ****         1.2147  -3.4206   2.2212 N.am           1 S1                 0.0000
     15 ****         1.9588  -4.4759   2.5808 C.2            1 S1                 0.0000
     16 ****         2.8209  -4.9937   1.8725 O.2            1 S1                 0.0000
     17 ****         3.1490  -1.5326  -1.4469 N.2            1 S1                 0.0000
     18 ****         3.0127  -0.5561  -2.4127 C.ar           1 S1                 0.0000
     19 ****         3.4257  -0.5370  -3.7641 C.ar           1 S1                 0.0000
     20 ****         3.1679   0.5891  -4.5731 C.ar           1 S1                 0.0000
     21 ****         2.4947   1.7090  -4.0436 C.ar           1 S1                 0.0000
     22 ****         2.0758   1.7103  -2.6991 C.ar           1 S1                 0.0000
     23 ****         2.3371   0.5843  -1.8951 C.ar           1 S1                 0.0000
     24 ****        -2.9798   1.0112   0.5972 C.ar           1 S1                 0.0000
     25 ****        -6.2397   0.6700  -0.2285 H              1 S1                 0.0000
     26 ****        -5.4912  -0.7544   0.5048 H              1 S1                 0.0000
     27 ****        -4.8350  -0.0768  -0.9910 H              1 S1                 0.0000
     28 ****        -5.9917   1.9799   1.8990 H              1 S1                 0.0000
     29 ****        -4.4940   3.4343   3.2431 H              1 S1                 0.0000
     30 ****        -2.0395   3.3472   2.9050 H              1 S1                 0.0000
     31 ****        -0.4101  -0.0697   0.5536 H              1 S1                 0.0000
     32 ****        -0.4968   1.1754  -0.6977 H              1 S1                 0.0000
     33 ****         1.6355   2.1704   0.1464 H              1 S1                 0.0000
     34 ****         1.7443   0.9631   1.3886 H              1 S1                 0.0000
     35 ****         3.4126  -2.2573   1.0688 H              1 S1                 0.0000
     36 ****         2.3916  -1.0374   1.7558 H              1 S1                 0.0000
     37 ****         0.3632  -2.2164   0.7679 H              1 S1                 0.0000
     38 ****         1.4135  -3.4562   0.1305 H              1 S1                 0.0000
     39 ****         0.5329  -3.0732   2.8801 H              1 S1                 0.0000
     40 ****         1.6940  -4.8157   3.5939 H              1 S1                 0.0000
     41 ****         3.9407  -1.3909  -4.1788 H              1 S1                 0.0000
     42 ****         3.4876   0.5933  -5.6049 H              1 S1                 0.0000
     43 ****         2.3000   2.5673  -4.6700 H              1 S1                 0.0000
     44 ****         1.5592   2.5665  -2.2915 H              1 S1                 0.0000
     45 ****        -2.5900   0.3293  -0.1432 H              1 S1                 0.0000
     46 ****        -0.3663   1.6359   2.1428 LP             1 S1                 0.0000
     47 ****        -0.4779   2.7763   0.9794 LP             1 S1                 0.0000
     48 ****         3.0049  -4.6274   0.9604 LP             1 S1                 0.0000
     49 ****         3.3377  -5.7809   2.2088 LP             1 S1                 0.0000
     50 ****         3.5773  -2.4326  -1.5268 LP             1 S1                 0.0000
@<TRIPOS>BOND
    1    1    2 1     
    2    1   25 1     
    3    1   26 1     
    4    1   27 1     
    5    2   24 ar    
    6    2    3 ar    
    7    3    4 ar    
    8    3   28 1     
    9    4    5 ar    
   10    4   29 1     
   11    5    6 ar    
   12    5   30 1     
   13    6    7 1     
   14    6   24 ar    
   15    7    8 1     
   16    8    9 1     
   17    8   31 1     
   18    8   32 1     
   19    9   10 1     
   20    9   33 1     
   21    9   34 1     
   22   10   23 1     
   23   10   11 1     
   24   11   12 1     
   25   11   17 2     
   26   12   13 1     
   27   12   35 1     
   28   12   36 1     
   29   13   14 1     
   30   13   37 1     
   31   13   38 1     
   32   14   15 am    
   33   14   39 1     
   34   15   16 2     
   35   15   40 1     
   36   17   18 1     
   37   18   23 ar    
   38   18   19 ar    
   39   19   20 ar    
   40   19   41 1     
   41   20   21 ar    
   42   20   42 1     
   43   21   22 ar    
   44   21   43 1     
   45   22   23 ar    
   46   22   44 1     
   47   24   45 1     
   48    7   46 1     
   49    7   47 1     
   50   16   48 1     
   51   16   49 1     
   52   17   50 1     
@<TRIPOS>SUBSTRUCTURE
      1 S1             1
@<TRIPOS>SET
LONE_PAIRS      STATIC     ATOMS    <user>   **** ""
5 46 47 48 49 50
DONOR_HYDROGENS      STATIC     ATOMS    <user>   **** ""
1 39
ATOM$BLUE        STATIC     ATOMS    COLORGROUP SYSTEM
5 46 47 48 49 50
ATOM$RED        STATIC     ATOMS    COLORGROUP SYSTEM
1 39
