#       Name:                AV-unprocessed.smi:1706
#       Creating user name   scv26
#       Creation time:       Fri Mar 27 08:09:18 2020


#       File generated by GOLD software.
#

@<TRIPOS>MOLECULE
AV-unprocessed.smi:1706
    40    41     1
SMALL
NO_CHARGES


@<TRIPOS>ATOM
      1 ****        -3.7988   1.9320  -1.1995 C.3            1 S1                 0.0000
      2 ****        -3.0143   0.8149  -1.6798 N.pl3          1 S1                 0.0000
      3 ****        -2.5851  -0.2952  -0.9854 C.2            1 S1                 0.0000
      4 ****        -1.8633  -1.0671  -1.8519 C.2            1 S1                 0.0000
      5 ****        -1.1578  -2.3715  -1.5883 C.3            1 S1                 0.0000
      6 ****         0.3538  -2.1842  -1.3764 C.3            1 S1                 0.0000
      7 ****         0.6178  -1.2323  -0.3023 N.am           1 S1                 0.0000
      8 ****         1.6568  -0.3838  -0.2429 C.2            1 S1                 0.0000
      9 ****         2.5412  -0.3669  -1.0999 O.2            1 S1                 0.0000
     10 ****         1.6223   0.4750   0.8063 N.am           1 S1                 0.0000
     11 ****         0.7295   0.4049   1.9731 C.3            1 S1                 0.0000
     12 ****         1.5780   0.0654   3.2118 C.3            1 S1                 0.0000
     13 ****         2.5934   1.0512   3.3830 O.3            1 S1                 0.0000
     14 ****         3.4581   1.1653   2.2553 C.3            1 S1                 0.0000
     15 ****         2.6330   1.5175   1.0046 C.3            1 S1                 0.0000
     16 ****        -1.9165  -0.3330  -3.0712 C.2            1 S1                 0.0000
     17 ****        -2.6044   0.7921  -2.9646 N.2            1 S1                 0.0000
     18 ****        -4.2407   1.6896  -0.2327 H              1 S1                 0.0000
     19 ****        -4.5975   2.1589  -1.9065 H              1 S1                 0.0000
     20 ****        -3.1587   2.8076  -1.0880 H              1 S1                 0.0000
     21 ****        -2.8174  -0.4389   0.0597 H              1 S1                 0.0000
     22 ****        -1.5803  -2.8611  -0.7102 H              1 S1                 0.0000
     23 ****        -1.3161  -3.0663  -2.4135 H              1 S1                 0.0000
     24 ****         0.8217  -3.1380  -1.1309 H              1 S1                 0.0000
     25 ****         0.8043  -1.8415  -2.3097 H              1 S1                 0.0000
     26 ****        -0.0703  -1.1803   0.4343 H              1 S1                 0.0000
     27 ****         0.2417   1.3713   2.1087 H              1 S1                 0.0000
     28 ****        -0.0772  -0.3215   1.8762 H              1 S1                 0.0000
     29 ****         0.9523   0.0448   4.1041 H              1 S1                 0.0000
     30 ****         2.0298  -0.9231   3.1149 H              1 S1                 0.0000
     31 ****         4.1950   1.9437   2.4531 H              1 S1                 0.0000
     32 ****         4.0069   0.2335   2.1096 H              1 S1                 0.0000
     33 ****         3.2940   1.6372   0.1451 H              1 S1                 0.0000
     34 ****         2.1382   2.4805   1.1386 H              1 S1                 0.0000
     35 ****        -1.4707  -0.5802  -4.0234 H              1 S1                 0.0000
     36 ****         2.5003  -0.9996  -1.8733 LP             1 S1                 0.0000
     37 ****         3.3003   0.2795  -1.0224 LP             1 S1                 0.0000
     38 ****         3.1429   0.8066   4.1819 LP             1 S1                 0.0000
     39 ****         2.1547   1.9363   3.5384 LP             1 S1                 0.0000
     40 ****        -2.7807   1.4722  -3.6762 LP             1 S1                 0.0000
@<TRIPOS>BOND
    1    1    2 1     
    2    1   18 1     
    3    1   19 1     
    4    1   20 1     
    5    2   17 1     
    6    2    3 1     
    7    3    4 2     
    8    3   21 1     
    9    4    5 1     
   10    4   16 1     
   11    5    6 1     
   12    5   22 1     
   13    5   23 1     
   14    6    7 1     
   15    6   24 1     
   16    6   25 1     
   17    7    8 am    
   18    7   26 1     
   19    8    9 2     
   20    8   10 am    
   21   10   15 1     
   22   10   11 1     
   23   11   12 1     
   24   11   27 1     
   25   11   28 1     
   26   12   13 1     
   27   12   29 1     
   28   12   30 1     
   29   13   14 1     
   30   14   15 1     
   31   14   31 1     
   32   14   32 1     
   33   15   33 1     
   34   15   34 1     
   35   16   17 2     
   36   16   35 1     
   37    9   36 1     
   38    9   37 1     
   39   13   38 1     
   40   13   39 1     
   41   17   40 1     
@<TRIPOS>SUBSTRUCTURE
      1 S1             1
@<TRIPOS>SET
LONE_PAIRS      STATIC     ATOMS    <user>   **** ""
5 36 37 38 39 40
DONOR_HYDROGENS      STATIC     ATOMS    <user>   **** ""
1 26
ATOM$BLUE        STATIC     ATOMS    COLORGROUP SYSTEM
5 36 37 38 39 40
ATOM$RED        STATIC     ATOMS    COLORGROUP SYSTEM
1 26
