AV-unprocessed.smi:988|AV-procd|sdf|4324|dock10
  -GOLD-   22720 2233D 1   1.00000     0.00000
 Structure written by MMmdl.
 28 28  0  0  0  0  0  0  0  0  1 V2000
  150.1608  130.5227  154.4328 C   0  0  0  0  0  0  0  0  0  0  0  0
  149.2321  131.5919  154.4444 O   0  0  0  0  0  0  0  0  0  0  0  0
  149.8251  132.8264  154.8141 C   0  0  0  0  0  0  0  0  0  0  0  0
  148.7867  133.9523  154.7025 C   0  0  0  0  0  0  0  0  0  0  0  0
  148.2523  134.0363  153.3486 N   0  0  0  0  0  0  0  0  0  0  0  0
  147.4503  133.1261  152.7747 C   0  0  0  0  0  0  0  0  0  0  0  0
  147.0017  132.1434  153.3645 O   0  0  0  0  0  0  0  0  0  0  0  0
  147.1213  133.3466  151.2985 C   0  0  0  0  0  0  0  0  0  0  0  0
  145.8534  132.7258  150.9564 N   0  0  0  0  0  0  0  0  0  0  0  0
  144.8238  133.2440  150.1979 C   0  0  0  0  0  0  0  0  0  0  0  0
  143.8328  132.3054  150.1644 C   0  0  0  0  0  0  0  0  0  0  0  0
  142.5936  132.4136  149.5055 N   0  0  0  0  0  0  0  0  0  0  0  0
  144.3556  131.2319  150.9391 C   0  0  0  0  0  0  0  0  0  0  0  0
  145.5652  131.4863  151.4121 N   0  0  0  0  0  0  0  0  0  0  0  0
  149.6526  129.6000  154.1528 H   0  0  0  0  0  0  0  0  0  0  0  0
  150.6080  130.3767  155.4169 H   0  0  0  0  0  0  0  0  0  0  0  0
  150.9563  130.7010  153.7083 H   0  0  0  0  0  0  0  0  0  0  0  0
  150.1885  132.7610  155.8407 H   0  0  0  0  0  0  0  0  0  0  0  0
  150.6849  133.0442  154.1778 H   0  0  0  0  0  0  0  0  0  0  0  0
  147.9922  133.8203  155.4389 H   0  0  0  0  0  0  0  0  0  0  0  0
  149.2616  134.9071  154.9295 H   0  0  0  0  0  0  0  0  0  0  0  0
  148.5681  134.8101  152.7818 H   0  0  0  0  0  0  0  0  0  0  0  0
  147.0567  134.4142  151.0843 H   0  0  0  0  0  0  0  0  0  0  0  0
  147.9150  132.9381  150.6708 H   0  0  0  0  0  0  0  0  0  0  0  0
  144.8825  134.2282  149.7560 H   0  0  0  0  0  0  0  0  0  0  0  0
  142.3376  133.2392  148.9827 H   0  0  0  0  0  0  0  0  0  0  0  0
  141.9093  131.6711  149.5289 H   0  0  0  0  0  0  0  0  0  0  0  0
  143.8958  130.2825  151.1710 H   0  0  0  0  0  0  0  0  0  0  0  0
  1  2  1  0  0  0  0
  1 15  1  0  0  0  0
  1 16  1  0  0  0  0
  1 17  1  0  0  0  0
  2  3  1  0  0  0  0
  3  4  1  0  0  0  0
  3 18  1  0  0  0  0
  3 19  1  0  0  0  0
  4  5  1  0  0  0  0
  4 20  1  0  0  0  0
  4 21  1  0  0  0  0
  5  6  1  0  0  0  0
  5 22  1  0  0  0  0
  6  7  2  0  0  0  0
  6  8  1  0  0  0  0
  8  9  1  0  0  0  0
  8 23  1  0  0  0  0
  8 24  1  0  0  0  0
  9 14  1  0  0  0  0
  9 10  1  0  0  0  0
 10 11  2  0  0  0  0
 10 25  1  0  0  0  0
 11 12  1  0  0  0  0
 11 13  1  0  0  0  0
 12 26  1  0  0  0  0
 12 27  1  0  0  0  0
 13 14  2  0  0  0  0
 13 28  1  0  0  0  0
M  END
> <s_m_source_file>
AV-unprocessed.smi

> <i_m_source_file_index>
988

> <i_lp_mmshare_version>
43012

> <i_f3d_flags>
0

> <s_epik_input>
W0NIM11PW0NIMl1bQ0gyXVtOSF1DKD1PKVtDSDJdbjFbY0hdYyhbTkgyXSlbY0hdbjE=

> <s_epik_cmdline>
J2VwaWtfcHl0aG9uJywgJy1waCcsICc3LjAnLCAnLXRuJywgJzgnLCAnLW1hJywgJzIwMCcsICctbWV0YWxfYmluZGluZycsICctaW1hZScsICc8aW5maWxlLm1hZT4nLCAnLW9tYWUnLCAnPG91dGZpbGUubWFlPic=

> <r_lp_tautomer_probability>
1

> <r_epik_Ionization_Penalty>
0.00010261

> <r_epik_Ionization_Penalty_Charging>
0

> <r_epik_Ionization_Penalty_Neutral>
0.00010261

> <r_epik_State_Penalty>
-0

> <r_epik_Charging_Adjusted_Penalty>
0

> <i_epik_Tot_Q>
0

> <i_epik_Tot_abs_Q>
0

> <r_epik_Metal_State_Penalty>
-0

> <b_epik_Metal_Only>
0

> <s_lp_Force_Field>
OPLS_2005

> <r_lp_Energy>
5.59493

> <b_lp_Chiralities_Consistent>
1

> <s_lp_Variant>
AV-unprocessed.smi:988-1

> <Gold.Version>
5.8.1

> <Gold.Id.Protein>
6NUR|6NUR_protein|mol2

> <Gold.PLP.Fitness>
36.1512

> <Gold.PLP.PLP>
-27.2448

> <Gold.PLP.part.hbond>
-3.0000

> <Gold.PLP.part.metal>
0.0000

> <Gold.PLP.part.buried>
-5.1003

> <Gold.PLP.part.nonpolar>
-19.5783

> <Gold.PLP.part.repulsive>
0.4036

> <Gold.PLP.ligand.clash>
0.0000

> <Gold.PLP.ligand.torsion>
0.6179

> <Gold.PLP.Chemscore.Hbond>
2.4640

> <Gold.PLP.Chemscore.CHOScore>
0.9127

> <Gold.PLP.Chemscore.Metal>
0.0000

> <Gold.Chemscore.Hbonds>
donor molecule, donor type, donor heavy atom, donor atom, acceptor molecule, acceptor atom, score
      L1  H     5    22       P1  7948  1.00
      L1  H    12    26       P1 10186  0.46
      L1  H    12    27       P1 10952  1.00
      L1  C    10    25       P1  7921  0.90

> <Gold.PLP.Chemscore.Internal.Correction>
0.0122

> <Gold.Rescore>
     Score         DG    S(hbond)    S(metal)    S(lipo)     H(rot)  DE(clash)    DE(int)     intcor
     11.91     -15.26       2.93        0.00      50.63       2.31       0.04       3.31       ----

> <Gold.Chemscore.Fitness>
11.9113

> <Gold.Chemscore.DG>
-15.2636

> <Gold.Chemscore.ZeroCoef>
-5.4800

> <Gold.Chemscore.Hbond>
2.9285

> <Gold.Chemscore.Metal>
0.0000

> <Gold.Chemscore.Lipo>
50.6293

> <Gold.Chemscore.Internal_Hbond>
0.0000

> <Gold.Chemscore.DEClash>
0.0415

> <Gold.Chemscore.DEInternal>
3.3107

> <Gold.Chemscore.Rot>
2.3129

> <Gold.Chemscore.Internal.Correction>
   9.000000E+99

> <Gold.Chemscore.Hbonds>
donor molecule, donor type, donor heavy atom, donor atom, acceptor molecule, acceptor atom, score
      L1  H     5    22       P1  7948  0.30
      L1  H    12    26       P1 10186  0.46
      L1  H    12    27       P1 10952  1.00

> <Gold.Chemscore.Hbond.Weighted>
-9.7811

> <Gold.Chemscore.Metal.Weighted>
-0.0000

> <Gold.Chemscore.Lipo.Weighted>
-5.9236

> <Gold.Chemscore.Internal_Hbond.Weighted>
0.0000

> <Gold.Chemscore.DEClash.Weighted>
0.0415

> <Gold.Chemscore.DEInternal.Weighted>
3.3107

> <Gold.Chemscore.Rot.Weighted>
5.9211

> <Gold.Chemscore.Internal.Correction.Weighted>
   9.000000E+99

> <Gold.Protein.RotatedTorsions>
[ 6907 6896 6895 6894 ] final -116.13 input  -60.11 | X-H torsion
[ 7974 7965 7964 7962 ] final -144.66 input  175.53 | X-H torsion
[ 8008 7997 7996 7995 ] final   72.15 input   59.86 | X-H torsion
[ 10167 10162 10161 10158 ] final  -45.95 input  -65.29 | X-H torsion
[ 10718 10713 10712 10709 ] final  167.48 input   66.30 | X-H torsion
[ 10763 10752 10751 10750 ] final   35.03 input  -60.55 | X-H torsion
[ 11005 11000 10999 10996 ] final   28.73 input  -57.11 | X-H torsion

> <Gold.Protein.ActiveResidues>
 VAL166  LYS551  ARG553  GLY616  TRP617  ASP618  TYR619  PRO620  LYS621  CYS622 
 ASP623  PHE694  ASN695  SER759  ASP760  ASP761  ALA762  ILE779  LEU786  VAL792 
 PHE793  MET794  SER795  GLU796  ALA797  LYS798  CYS799  TRP800  GLU811  SER814 

> <Gold.Protein.RotatedAtoms>
  150.8032  133.8560  159.3218 H   0  0  0  0  0  0  0  0  0  0  0  0  # atno 6907 bound_to 6896
  151.6366  135.1015  160.0142 H   0  0  0  0  0  0  0  0  0  0  0  0  # atno 6908 bound_to 6896
  152.4121  133.6940  159.6442 H   0  0  0  0  0  0  0  0  0  0  0  0  # atno 6909 bound_to 6896
  144.8282  140.5682  143.5533 H   0  0  0  0  0  0  0  0  0  0  0  0  # atno 7974 bound_to 7965
  155.7646  140.3486  155.5215 H   0  0  0  0  0  0  0  0  0  0  0  0  # atno 8008 bound_to 7997
  155.8881  140.1013  157.1459 H   0  0  0  0  0  0  0  0  0  0  0  0  # atno 8009 bound_to 7997
  154.4031  140.1309  156.4268 H   0  0  0  0  0  0  0  0  0  0  0  0  # atno 8010 bound_to 7997
  140.6837  143.2854  151.3712 H   0  0  0  0  0  0  0  0  0  0  0  0  # atno 10167 bound_to 10162
  157.0509  131.0313  151.2681 H   0  0  0  0  0  0  0  0  0  0  0  0  # atno 10718 bound_to 10713
  153.0137  135.6344  154.1762 H   0  0  0  0  0  0  0  0  0  0  0  0  # atno 10763 bound_to 10752
  154.1503  135.2829  155.3139 H   0  0  0  0  0  0  0  0  0  0  0  0  # atno 10764 bound_to 10752
  154.6058  135.5572  153.7483 H   0  0  0  0  0  0  0  0  0  0  0  0  # atno 10765 bound_to 10752
  140.3125  134.2634  155.7731 H   0  0  0  0  0  0  0  0  0  0  0  0  # atno 11005 bound_to 11000
  145.4954  139.1486  143.3686 LP  0  0  0  0  0  0  0  0  0  0  0  0  # atno 17320 bound_to 7965
  146.2586  140.5093  142.8863 LP  0  0  0  0  0  0  0  0  0  0  0  0  # atno 17321 bound_to 7965
  139.6179  144.0966  152.2363 LP  0  0  0  0  0  0  0  0  0  0  0  0  # atno 17342 bound_to 10162
  140.0401  144.6014  150.7418 LP  0  0  0  0  0  0  0  0  0  0  0  0  # atno 17343 bound_to 10162
  157.5031  130.7892  149.7625 LP  0  0  0  0  0  0  0  0  0  0  0  0  # atno 17370 bound_to 10713
  156.0008  130.3881  150.2614 LP  0  0  0  0  0  0  0  0  0  0  0  0  # atno 17371 bound_to 10713
  141.2105  133.7718  156.9928 LP  0  0  0  0  0  0  0  0  0  0  0  0  # atno 17394 bound_to 11000
  140.1012  134.9534  157.1926 LP  0  0  0  0  0  0  0  0  0  0  0  0  # atno 17395 bound_to 11000

$$$$
