AV-unprocessed.smi:2511|AV-procd|sdf|9886|dock7
  -GOLD-   2272013523D 1   1.00000     0.00000
 Structure written by MMmdl.
 40 41  0  0  0  0  0  0  0  0  1 V2000
  150.6945  143.0195  156.2934 N   0  0  0  0  0  0  0  0  0  0  0  0
  150.9181  141.7079  156.4285 C   0  0  0  0  0  0  0  0  0  0  0  0
  151.7817  141.2656  157.1846 O   0  0  0  0  0  0  0  0  0  0  0  0
  150.0827  140.7963  155.5692 C   0  0  0  0  0  0  0  0  0  0  0  0
  148.6959  141.0324  155.4307 C   0  0  0  0  0  0  0  0  0  0  0  0
  147.9316  140.1738  154.6178 C   0  0  0  0  0  0  0  0  0  0  0  0
  148.5751  139.0961  153.9654 C   0  0  0  0  0  0  0  0  0  0  0  0
  147.9223  138.1684  153.1094 N   0  0  0  0  0  0  0  0  0  0  0  0
  146.6252  138.1199  152.7476 C   0  0  0  0  0  0  0  0  0  0  0  0
  145.7649  138.9166  153.1154 O   0  0  0  0  0  0  0  0  0  0  0  0
  146.3143  137.0885  151.9411 N   0  0  0  0  0  0  0  0  0  0  0  0
  145.0138  136.7339  151.3624 C   0  0  2  0  0  0  0  0  0  0  0  0
  143.9112  136.8537  152.4318 C   0  0  0  0  0  0  0  0  0  0  0  0
  144.0139  135.7497  153.4978 C   0  0  0  0  0  0  0  0  0  0  0  0
  144.0146  134.3520  152.8591 C   0  0  0  0  0  0  0  0  0  0  0  0
  145.1414  134.2021  151.8154 C   0  0  1  0  0  0  0  0  0  0  0  0
  145.1597  132.7961  151.1805 C   0  0  0  0  0  0  0  0  0  0  0  0
  145.2953  131.8549  152.1152 F   0  0  0  0  0  0  0  0  0  0  0  0
  144.0250  132.5818  150.5144 F   0  0  0  0  0  0  0  0  0  0  0  0
  146.1724  132.6967  150.3193 F   0  0  0  0  0  0  0  0  0  0  0  0
  145.0274  135.3153  150.7492 C   0  0  0  0  0  0  0  0  0  0  0  0
  149.9654  138.9568  154.1496 C   0  0  0  0  0  0  0  0  0  0  0  0
  150.7028  139.7754  154.9288 N   0  0  0  0  0  0  0  0  0  0  0  0
  151.2209  143.6809  156.8450 H   0  0  0  0  0  0  0  0  0  0  0  0
  149.9942  143.3384  155.6393 H   0  0  0  0  0  0  0  0  0  0  0  0
  148.2158  141.8581  155.9358 H   0  0  0  0  0  0  0  0  0  0  0  0
  146.8768  140.3687  154.5042 H   0  0  0  0  0  0  0  0  0  0  0  0
  148.4969  137.4046  152.7837 H   0  0  0  0  0  0  0  0  0  0  0  0
  147.0750  136.4674  151.7051 H   0  0  0  0  0  0  0  0  0  0  0  0
  144.7794  137.4537  150.5762 H   0  0  0  0  0  0  0  0  0  0  0  0
  143.9483  137.8357  152.9053 H   0  0  0  0  0  0  0  0  0  0  0  0
  142.9360  136.7890  151.9473 H   0  0  0  0  0  0  0  0  0  0  0  0
  144.9236  135.8839  154.0842 H   0  0  0  0  0  0  0  0  0  0  0  0
  143.1832  135.8355  154.1987 H   0  0  0  0  0  0  0  0  0  0  0  0
  144.1246  133.5996  153.6405 H   0  0  0  0  0  0  0  0  0  0  0  0
  143.0475  134.1677  152.3893 H   0  0  0  0  0  0  0  0  0  0  0  0
  146.0924  134.3313  152.3346 H   0  0  0  0  0  0  0  0  0  0  0  0
  144.1078  135.1716  150.1807 H   0  0  0  0  0  0  0  0  0  0  0  0
  145.8383  135.2253  150.0261 H   0  0  0  0  0  0  0  0  0  0  0  0
  150.5054  138.1589  153.6610 H   0  0  0  0  0  0  0  0  0  0  0  0
  1  2  1  0  0  0  0
  1 24  1  0  0  0  0
  1 25  1  0  0  0  0
  2  3  2  0  0  0  0
  2  4  1  0  0  0  0
  4 23  1  0  0  0  0
  4  5  2  0  0  0  0
  5  6  1  0  0  0  0
  5 26  1  0  0  0  0
  6  7  2  0  0  0  0
  6 27  1  0  0  0  0
  7  8  1  0  0  0  0
  7 22  1  0  0  0  0
  8  9  1  0  0  0  0
  8 28  1  0  0  0  0
  9 10  2  0  0  0  0
  9 11  1  0  0  0  0
 11 12  1  0  0  0  0
 11 29  1  0  0  0  0
 12 21  1  0  0  0  0
 12 13  1  0  0  0  0
 12 30  1  0  0  0  0
 13 14  1  0  0  0  0
 13 31  1  0  0  0  0
 13 32  1  0  0  0  0
 14 15  1  0  0  0  0
 14 33  1  0  0  0  0
 14 34  1  0  0  0  0
 15 16  1  0  0  0  0
 15 35  1  0  0  0  0
 15 36  1  0  0  0  0
 16 17  1  0  0  0  0
 16 21  1  0  0  0  0
 16 37  1  0  0  0  0
 17 18  1  0  0  0  0
 17 19  1  0  0  0  0
 17 20  1  0  0  0  0
 21 38  1  0  0  0  0
 21 39  1  0  0  0  0
 22 23  2  0  0  0  0
 22 40  1  0  0  0  0
M  END
> <s_m_source_file>
AV-unprocessed.smi

> <i_m_source_file_index>
2511

> <i_lp_mmshare_version>
43012

> <i_f3d_flags>
0

> <s_epik_input>
W05IMl1DKD1PKWMxW2NIXVtjSF1jKFtjSF1uMSlbTkhdQyg9TylbTkhdW0NAQEhdMltDSDJdW0NIMl1bQ0gyXVtDQEBIXShDKEYpKEYpRilbQ0gyXTI=

> <s_epik_cmdline>
J2VwaWtfcHl0aG9uJywgJy1waCcsICc3LjAnLCAnLXRuJywgJzgnLCAnLW1hJywgJzIwMCcsICctbWV0YWxfYmluZGluZycsICctaW1hZScsICc8aW5maWxlLm1hZT4nLCAnLW9tYWUnLCAnPG91dGZpbGUubWFlPic=

> <r_lp_tautomer_probability>
1

> <r_epik_Ionization_Penalty>
4.28758e-05

> <r_epik_Ionization_Penalty_Charging>
0

> <r_epik_Ionization_Penalty_Neutral>
4.28758e-05

> <r_epik_State_Penalty>
-0

> <r_epik_Charging_Adjusted_Penalty>
0

> <i_epik_Tot_Q>
0

> <i_epik_Tot_abs_Q>
0

> <r_epik_Metal_State_Penalty>
-0

> <b_epik_Metal_Only>
0

> <s_lp_Force_Field>
OPLS_2005

> <r_lp_Energy>
27.7433

> <b_lp_Chiralities_Consistent>
1

> <s_lp_Variant>
AV-unprocessed.smi:2511-1

> <Gold.Version>
5.8.1

> <Gold.Id.Protein>
6NUR|6NUR_protein|mol2

> <Gold.PLP.Fitness>
43.2691

> <Gold.PLP.PLP>
-34.2732

> <Gold.PLP.part.hbond>
-4.5163

> <Gold.PLP.part.metal>
0.0000

> <Gold.PLP.part.buried>
-0.2950

> <Gold.PLP.part.nonpolar>
-33.1449

> <Gold.PLP.part.repulsive>
3.2542

> <Gold.PLP.ligand.clash>
0.0000

> <Gold.PLP.ligand.torsion>
0.8891

> <Gold.PLP.Chemscore.Hbond>
3.5840

> <Gold.PLP.Chemscore.CHOScore>
0.0000

> <Gold.PLP.Chemscore.Metal>
0.0000

> <Gold.Chemscore.Hbonds>
donor molecule, donor type, donor heavy atom, donor atom, acceptor molecule, acceptor atom, score
      L1  H     1    25       P1  8028  0.66
      L1  H     8    28       P1  7948  1.00
      L1  H    11    29       P1  7948  0.88
      P1  H  7989  7998       L1    23  0.90

> <Gold.PLP.Chemscore.Internal.Correction>
0.0222

> <Gold.Rescore>
     Score         DG    S(hbond)    S(metal)    S(lipo)     H(rot)  DE(clash)    DE(int)     intcor
     14.07     -19.95       2.91        0.00      62.60       1.00       2.60       3.28       ----

> <Gold.Chemscore.Fitness>
14.0672

> <Gold.Chemscore.DG>
-19.9542

> <Gold.Chemscore.ZeroCoef>
-5.4800

> <Gold.Chemscore.Hbond>
2.9073

> <Gold.Chemscore.Metal>
0.0000

> <Gold.Chemscore.Lipo>
62.5956

> <Gold.Chemscore.Internal_Hbond>
0.0000

> <Gold.Chemscore.DEClash>
2.6037

> <Gold.Chemscore.DEInternal>
3.2833

> <Gold.Chemscore.Rot>
1.0000

> <Gold.Chemscore.Internal.Correction>
   9.000000E+99

> <Gold.Chemscore.Hbonds>
donor molecule, donor type, donor heavy atom, donor atom, acceptor molecule, acceptor atom, score
      L1  H     1    25       P1  8028  0.64
      L1  H     8    28       P1  7948  0.94
      L1  H    11    29       P1  7948  0.86
      P1  H  7989  7998       L1    23  0.04

> <Gold.Chemscore.Hbond.Weighted>
-9.7105

> <Gold.Chemscore.Metal.Weighted>
-0.0000

> <Gold.Chemscore.Lipo.Weighted>
-7.3237

> <Gold.Chemscore.Internal_Hbond.Weighted>
0.0000

> <Gold.Chemscore.DEClash.Weighted>
2.6037

> <Gold.Chemscore.DEInternal.Weighted>
3.2833

> <Gold.Chemscore.Rot.Weighted>
2.5600

> <Gold.Chemscore.Internal.Correction.Weighted>
   9.000000E+99

> <Gold.Protein.RotatedTorsions>
[ 6907 6896 6895 6894 ] final  176.60 input  -60.11 | X-H torsion
[ 7974 7965 7964 7962 ] final -116.09 input  175.53 | X-H torsion
[ 8008 7997 7996 7995 ] final   65.82 input   59.86 | X-H torsion
[ 10167 10162 10161 10158 ] final   65.64 input  -65.29 | X-H torsion
[ 10718 10713 10712 10709 ] final -148.58 input   66.30 | X-H torsion
[ 10763 10752 10751 10750 ] final  141.33 input  -60.55 | X-H torsion
[ 11005 11000 10999 10996 ] final  -64.32 input  -57.11 | X-H torsion

> <Gold.Protein.ActiveResidues>
 VAL166  LYS551  ARG553  GLY616  TRP617  ASP618  TYR619  PRO620  LYS621  CYS622 
 ASP623  PHE694  ASN695  SER759  ASP760  ASP761  ALA762  ILE779  LEU786  VAL792 
 PHE793  MET794  SER795  GLU796  ALA797  LYS798  CYS799  TRP800  GLU811  SER814 

> <Gold.Protein.RotatedAtoms>
  151.7175  133.3313  159.3306 H   0  0  0  0  0  0  0  0  0  0  0  0  # atno 6907 bound_to 6896
  150.7667  134.6478  159.6281 H   0  0  0  0  0  0  0  0  0  0  0  0  # atno 6908 bound_to 6896
  152.3673  134.6788  160.0239 H   0  0  0  0  0  0  0  0  0  0  0  0  # atno 6909 bound_to 6896
  145.1008  140.8550  143.3927 H   0  0  0  0  0  0  0  0  0  0  0  0  # atno 7974 bound_to 7965
  155.6677  140.3497  155.4806 H   0  0  0  0  0  0  0  0  0  0  0  0  # atno 8008 bound_to 7997
  155.9715  140.1156  157.0831 H   0  0  0  0  0  0  0  0  0  0  0  0  # atno 8009 bound_to 7997
  154.4167  140.1156  156.5299 H   0  0  0  0  0  0  0  0  0  0  0  0  # atno 8010 bound_to 7997
  140.1091  144.4834  150.6989 H   0  0  0  0  0  0  0  0  0  0  0  0  # atno 10167 bound_to 10162
  156.4221  130.8034  151.2257 H   0  0  0  0  0  0  0  0  0  0  0  0  # atno 10718 bound_to 10713
  153.9374  135.2983  155.3444 H   0  0  0  0  0  0  0  0  0  0  0  0  # atno 10763 bound_to 10752
  154.7495  135.4987  153.9266 H   0  0  0  0  0  0  0  0  0  0  0  0  # atno 10764 bound_to 10752
  153.1060  135.6747  153.9692 H   0  0  0  0  0  0  0  0  0  0  0  0  # atno 10765 bound_to 10752
  141.1421  133.6664  156.5815 H   0  0  0  0  0  0  0  0  0  0  0  0  # atno 11005 bound_to 11000
  145.0958  139.2858  143.5712 LP  0  0  0  0  0  0  0  0  0  0  0  0  # atno 17320 bound_to 7965
  146.3530  140.0509  142.8636 LP  0  0  0  0  0  0  0  0  0  0  0  0  # atno 17321 bound_to 7965
  140.6936  143.2390  151.5064 LP  0  0  0  0  0  0  0  0  0  0  0  0  # atno 17342 bound_to 10162
  139.5629  144.2112  152.1720 LP  0  0  0  0  0  0  0  0  0  0  0  0  # atno 17343 bound_to 10162
  157.7508  131.0225  150.3794 LP  0  0  0  0  0  0  0  0  0  0  0  0  # atno 17370 bound_to 10713
  156.4114  130.3935  149.6889 LP  0  0  0  0  0  0  0  0  0  0  0  0  # atno 17371 bound_to 10713
  140.3834  134.7503  157.4676 LP  0  0  0  0  0  0  0  0  0  0  0  0  # atno 17394 bound_to 11000
  140.0620  134.5982  155.8738 LP  0  0  0  0  0  0  0  0  0  0  0  0  # atno 17395 bound_to 11000

$$$$
