AV-unprocessed.smi:224|AV-procd|sdf|1710|dock9
  -GOLD-   2262020173D 1   1.00000     0.00000
 Structure written by MMmdl.
 56 59  0  0  0  0  0  0  0  0  2 V2000
  145.5205  132.2990  149.7808 C   0  0  0  0  0  0  0  0  0  0  0  0
  144.8732  133.4718  150.5286 C   0  0  1  0  0  0  0  0  0  0  0  0
  144.2068  134.2834  149.5829 O   0  0  0  0  0  0  0  0  0  0  0  0
  143.8636  132.9912  151.5910 C   0  0  0  0  0  0  0  0  0  0  0  0
  144.0642  133.6053  152.9330 N   0  3  1  0  0  0  0  0  0  0  0  0
  145.4895  133.5688  153.3551 C   0  0  0  0  0  0  0  0  0  0  0  0
  145.6575  134.0567  154.8048 C   0  0  0  0  0  0  0  0  0  0  0  0
  145.0416  135.3676  154.9947 N   0  0  0  0  0  0  0  0  0  0  0  0
  145.7861  136.4920  154.8117 C   0  0  0  0  0  0  0  0  0  0  0  0
  145.1672  137.6670  154.5180 N   0  0  0  0  0  0  0  0  0  0  0  0
  145.8769  138.7868  154.3551 C   0  0  0  0  0  0  0  0  0  0  0  0
  147.1969  138.9552  154.4371 N   0  0  0  0  0  0  0  0  0  0  0  0
  147.8291  137.7806  154.7181 C   0  0  0  0  0  0  0  0  0  0  0  0
  147.2075  136.5141  154.9138 C   0  0  0  0  0  0  0  0  0  0  0  0
  148.1779  135.5486  155.1568 N   0  0  0  0  0  0  0  0  0  0  0  0
  149.3035  136.2077  155.1218 C   0  0  0  0  0  0  0  0  0  0  0  0
  149.1859  137.5565  154.8753 N   0  0  0  0  0  0  0  0  0  0  0  0
  150.2712  138.5220  154.7838 C   0  0  0  0  0  0  0  0  0  0  0  0
  150.6186  139.1910  156.1347 C   0  0  1  0  0  0  0  0  0  0  0  0
  149.4810  139.8934  156.6063 O   0  0  0  0  0  0  0  0  0  0  0  0
  151.0400  138.1904  157.2026 C   0  0  0  0  0  0  0  0  0  0  0  0
  151.9540  139.0193  158.0949 C   0  0  0  0  0  0  0  0  0  0  0  0
  152.6738  139.8131  157.1667 O   0  0  0  0  0  0  0  0  0  0  0  0
  151.8119  140.1678  156.0885 C   0  0  0  0  0  0  0  0  0  0  0  0
  143.6354  135.4239  154.6007 C   0  0  0  0  0  0  0  0  0  0  0  0
  143.4207  134.9401  153.1483 C   0  0  1  0  0  0  0  0  0  0  0  0
  143.8429  136.0040  152.1124 C   0  0  0  0  0  0  0  0  0  0  0  0
  146.0651  131.6509  150.4680 H   0  0  0  0  0  0  0  0  0  0  0  0
  146.2300  132.6525  149.0319 H   0  0  0  0  0  0  0  0  0  0  0  0
  144.7740  131.6890  149.2706 H   0  0  0  0  0  0  0  0  0  0  0  0
  145.6703  134.0549  150.9883 H   0  0  0  0  0  0  0  0  0  0  0  0
  144.8145  134.5121  148.8961 H   0  0  0  0  0  0  0  0  0  0  0  0
  142.8587  133.2360  151.2430 H   0  0  0  0  0  0  0  0  0  0  0  0
  143.8885  131.9044  151.6743 H   0  0  0  0  0  0  0  0  0  0  0  0
  145.8704  132.5499  153.2789 H   0  0  0  0  0  0  0  0  0  0  0  0
  146.0891  134.1754  152.6758 H   0  0  0  0  0  0  0  0  0  0  0  0
  145.1696  133.3558  155.4830 H   0  0  0  0  0  0  0  0  0  0  0  0
  146.7098  134.0667  155.0918 H   0  0  0  0  0  0  0  0  0  0  0  0
  145.3057  139.6750  154.1293 H   0  0  0  0  0  0  0  0  0  0  0  0
  150.2576  135.7257  155.2793 H   0  0  0  0  0  0  0  0  0  0  0  0
  151.1471  138.0133  154.3790 H   0  0  0  0  0  0  0  0  0  0  0  0
  149.9936  139.2796  154.0498 H   0  0  0  0  0  0  0  0  0  0  0  0
  149.7611  140.5023  157.2725 H   0  0  0  0  0  0  0  0  0  0  0  0
  150.2037  137.7422  157.7409 H   0  0  0  0  0  0  0  0  0  0  0  0
  151.6191  137.3813  156.7554 H   0  0  0  0  0  0  0  0  0  0  0  0
  151.3757  139.6650  158.7575 H   0  0  0  0  0  0  0  0  0  0  0  0
  152.6204  138.4076  158.7032 H   0  0  0  0  0  0  0  0  0  0  0  0
  152.3836  140.0764  155.1659 H   0  0  0  0  0  0  0  0  0  0  0  0
  151.5002  141.2096  156.1764 H   0  0  0  0  0  0  0  0  0  0  0  0
  143.0809  134.7761  155.2807 H   0  0  0  0  0  0  0  0  0  0  0  0
  143.2065  136.4167  154.7243 H   0  0  0  0  0  0  0  0  0  0  0  0
  142.3442  134.8117  153.0447 H   0  0  0  0  0  0  0  0  0  0  0  0
  143.3986  136.9709  152.3504 H   0  0  0  0  0  0  0  0  0  0  0  0
  143.5096  135.7447  151.1080 H   0  0  0  0  0  0  0  0  0  0  0  0
  144.9228  136.1431  152.0788 H   0  0  0  0  0  0  0  0  0  0  0  0
  143.5908  132.9849  153.5746 H   0  0  0  0  0  0  0  0  0  0  0  0
  1  2  1  0  0  0  0
  1 28  1  0  0  0  0
  1 29  1  0  0  0  0
  1 30  1  0  0  0  0
  2  3  1  0  0  0  0
  2  4  1  0  0  0  0
  2 31  1  0  0  0  0
  3 32  1  0  0  0  0
  4  5  1  0  0  0  0
  4 33  1  0  0  0  0
  4 34  1  0  0  0  0
  5 26  1  0  0  0  0
  5  6  1  0  0  0  0
  5 56  1  0  0  0  0
  6  7  1  0  0  0  0
  6 35  1  0  0  0  0
  6 36  1  0  0  0  0
  7  8  1  0  0  0  0
  7 37  1  0  0  0  0
  7 38  1  0  0  0  0
  8  9  1  0  0  0  0
  8 25  1  0  0  0  0
  9 14  1  0  0  0  0
  9 10  2  0  0  0  0
 10 11  1  0  0  0  0
 11 12  2  0  0  0  0
 11 39  1  0  0  0  0
 12 13  1  0  0  0  0
 13 17  1  0  0  0  0
 13 14  2  0  0  0  0
 14 15  1  0  0  0  0
 15 16  2  0  0  0  0
 16 17  1  0  0  0  0
 16 40  1  0  0  0  0
 17 18  1  0  0  0  0
 18 19  1  0  0  0  0
 18 41  1  0  0  0  0
 18 42  1  0  0  0  0
 19 24  1  0  0  0  0
 19 20  1  0  0  0  0
 19 21  1  0  0  0  0
 20 43  1  0  0  0  0
 21 22  1  0  0  0  0
 21 44  1  0  0  0  0
 21 45  1  0  0  0  0
 22 23  1  0  0  0  0
 22 46  1  0  0  0  0
 22 47  1  0  0  0  0
 23 24  1  0  0  0  0
 24 48  1  0  0  0  0
 24 49  1  0  0  0  0
 25 26  1  0  0  0  0
 25 50  1  0  0  0  0
 25 51  1  0  0  0  0
 26 27  1  0  0  0  0
 26 52  1  0  0  0  0
 27 53  1  0  0  0  0
 27 54  1  0  0  0  0
 27 55  1  0  0  0  0
M  CHG  1   5   1
M  END
> <s_m_source_file>
AV-unprocessed.smi

> <i_m_source_file_index>
224

> <i_lp_mmshare_version>
43012

> <i_f3d_flags>
0

> <s_epik_input>
W0NIM11bQ0BIXShbT0hdKVtDSDJdTjFbQ0gyXVtDSDJdTihbQ0gyXVtDQEhdMVtDSDNdKWMobltjSF1uMiljKGMyMyluW2NIXW4zW0NIMl1bQ0BAXTQoW09IXSlbQ0gyXVtDSDJdT1tDSDJdNA==

> <s_epik_cmdline>
J2VwaWtfcHl0aG9uJywgJy1waCcsICc3LjAnLCAnLXRuJywgJzgnLCAnLW1hJywgJzIwMCcsICctbWV0YWxfYmluZGluZycsICctaW1hZScsICc8aW5maWxlLm1hZT4nLCAnLW9tYWUnLCAnPG91dGZpbGUubWFlPic=

> <r_lp_tautomer_probability>
1

> <r_epik_Ionization_Penalty>
0.00516958

> <r_epik_Ionization_Penalty_Charging>
0.00509693

> <r_epik_Ionization_Penalty_Neutral>
7.26542e-05

> <r_epik_State_Penalty>
-0

> <r_epik_Charging_Adjusted_Penalty>
0.00509693

> <i_epik_Tot_Q>
1

> <i_epik_Tot_abs_Q>
1

> <r_epik_Metal_State_Penalty>
-0

> <b_epik_Metal_Only>
0

> <s_lp_Force_Field>
OPLS_2005

> <r_lp_Energy>
49.6762

> <b_lp_Chiralities_Consistent>
1

> <s_lp_Variant>
AV-unprocessed.smi:224-4

> <Gold.Version>
5.8.1

> <Gold.Id.Protein>
6NUR|6NUR_protein|mol2

> <Gold.PLP.Fitness>
41.3348

> <Gold.PLP.PLP>
-28.7954

> <Gold.PLP.part.hbond>
-3.8180

> <Gold.PLP.part.metal>
0.0000

> <Gold.PLP.part.buried>
-4.4542

> <Gold.PLP.part.nonpolar>
-20.6378

> <Gold.PLP.part.repulsive>
0.2961

> <Gold.PLP.ligand.clash>
0.0000

> <Gold.PLP.ligand.torsion>
1.4032

> <Gold.PLP.Chemscore.Hbond>
4.0000

> <Gold.PLP.Chemscore.CHOScore>
1.0000

> <Gold.PLP.Chemscore.Metal>
0.0000

> <Gold.Chemscore.Hbonds>
donor molecule, donor type, donor heavy atom, donor atom, acceptor molecule, acceptor atom, score
      L1  H     3    32       P1  7921  1.00
      L1  H     5    56       P1 10957  2.00
      P1  H  7997  8010       L1    23  1.00
      L1  C    11    39       P1 10175  1.00

> <Gold.PLP.Chemscore.Internal.Correction>
0.3458

> <Gold.Rescore>
     Score         DG    S(hbond)    S(metal)    S(lipo)     H(rot)  DE(clash)    DE(int)     intcor
     12.85     -15.17       2.92        0.00      65.70       3.02       0.01       2.31       ----

> <Gold.Chemscore.Fitness>
12.8549

> <Gold.Chemscore.DG>
-15.1707

> <Gold.Chemscore.ZeroCoef>
-5.4800

> <Gold.Chemscore.Hbond>
2.9172

> <Gold.Chemscore.Metal>
0.0000

> <Gold.Chemscore.Lipo>
65.6955

> <Gold.Chemscore.Internal_Hbond>
0.0000

> <Gold.Chemscore.DEClash>
0.0093

> <Gold.Chemscore.DEInternal>
2.3065

> <Gold.Chemscore.Rot>
3.0231

> <Gold.Chemscore.Internal.Correction>
   9.000000E+99

> <Gold.Chemscore.Hbonds>
donor molecule, donor type, donor heavy atom, donor atom, acceptor molecule, acceptor atom, score
      L1  H     3    32       P1  7921  1.00
      L1  H     5    56       P1 10957  0.87
      P1  H  7997  8010       L1    23  0.74

> <Gold.Chemscore.Hbond.Weighted>
-9.7434

> <Gold.Chemscore.Metal.Weighted>
-0.0000

> <Gold.Chemscore.Lipo.Weighted>
-7.6864

> <Gold.Chemscore.Internal_Hbond.Weighted>
0.0000

> <Gold.Chemscore.DEClash.Weighted>
0.0093

> <Gold.Chemscore.DEInternal.Weighted>
2.3065

> <Gold.Chemscore.Rot.Weighted>
7.7391

> <Gold.Chemscore.Internal.Correction.Weighted>
   9.000000E+99

> <Gold.Protein.RotatedTorsions>
[ 6907 6896 6895 6894 ] final   38.77 input  -60.11 | X-H torsion
[ 7974 7965 7964 7962 ] final -104.36 input  175.53 | X-H torsion
[ 8008 7997 7996 7995 ] final   56.42 input   59.86 | X-H torsion
[ 10167 10162 10161 10158 ] final   34.39 input  -65.29 | X-H torsion
[ 10718 10713 10712 10709 ] final   94.32 input   66.30 | X-H torsion
[ 10763 10752 10751 10750 ] final  139.26 input  -60.55 | X-H torsion
[ 11005 11000 10999 10996 ] final  140.72 input  -57.11 | X-H torsion

> <Gold.Protein.ActiveResidues>
 VAL166  LYS551  ARG553  GLY616  TRP617  ASP618  TYR619  PRO620  LYS621  CYS622 
 ASP623  PHE694  ASN695  SER759  ASP760  ASP761  ALA762  ILE779  LEU786  VAL792 
 PHE793  MET794  SER795  GLU796  ALA797  LYS798  CYS799  TRP800  GLU811  SER814 

> <Gold.Protein.RotatedAtoms>
  152.1608  134.8913  160.0541 H   0  0  0  0  0  0  0  0  0  0  0  0  # atno 6907 bound_to 6896
  151.9910  133.3786  159.4152 H   0  0  0  0  0  0  0  0  0  0  0  0  # atno 6908 bound_to 6896
  150.6887  134.3859  159.5098 H   0  0  0  0  0  0  0  0  0  0  0  0  # atno 6909 bound_to 6896
  145.2442  140.9215  143.3132 H   0  0  0  0  0  0  0  0  0  0  0  0  # atno 7974 bound_to 7965
  155.5171  140.3478  155.4399 H   0  0  0  0  0  0  0  0  0  0  0  0  # atno 8008 bound_to 7997
  156.0810  140.1386  156.9740 H   0  0  0  0  0  0  0  0  0  0  0  0  # atno 8009 bound_to 7997
  154.4580  140.0946  156.6788 H   0  0  0  0  0  0  0  0  0  0  0  0  # atno 8010 bound_to 7997
  140.4320  144.1311  150.6161 H   0  0  0  0  0  0  0  0  0  0  0  0  # atno 10167 bound_to 10162
  157.6949  131.0508  150.4169 H   0  0  0  0  0  0  0  0  0  0  0  0  # atno 10718 bound_to 10713
  153.9032  135.3019  155.3448 H   0  0  0  0  0  0  0  0  0  0  0  0  # atno 10763 bound_to 10752
  154.7660  135.4910  153.9558 H   0  0  0  0  0  0  0  0  0  0  0  0  # atno 10764 bound_to 10752
  153.1233  135.6787  153.9399 H   0  0  0  0  0  0  0  0  0  0  0  0  # atno 10765 bound_to 10752
  140.0348  134.9334  157.0732 H   0  0  0  0  0  0  0  0  0  0  0  0  # atno 11005 bound_to 11000
  144.9562  139.4029  143.6378 LP  0  0  0  0  0  0  0  0  0  0  0  0  # atno 17320 bound_to 7965
  146.3320  139.8593  142.8859 LP  0  0  0  0  0  0  0  0  0  0  0  0  # atno 17321 bound_to 7965
  140.4416  143.2524  151.9465 LP  0  0  0  0  0  0  0  0  0  0  0  0  # atno 17342 bound_to 10162
  139.4785  144.5648  151.8182 LP  0  0  0  0  0  0  0  0  0  0  0  0  # atno 17343 bound_to 10162
  156.4548  130.4019  149.6613 LP  0  0  0  0  0  0  0  0  0  0  0  0  # atno 17370 bound_to 10713
  156.3750  130.7550  151.2537 LP  0  0  0  0  0  0  0  0  0  0  0  0  # atno 17371 bound_to 10713
  140.4165  134.1925  155.7163 LP  0  0  0  0  0  0  0  0  0  0  0  0  # atno 17394 bound_to 11000
  141.1851  133.8330  157.1115 LP  0  0  0  0  0  0  0  0  0  0  0  0  # atno 17395 bound_to 11000

$$$$
