AV-unprocessed.smi:3054|AV-procd|sdf|11640|dock10
  -GOLD-   2272017 33D 1   1.00000     0.00000
 Structure written by MMmdl.
 40 41  0  0  0  0  0  0  0  0  2 V2000
  143.3288  135.8280  153.3107 C   0  0  0  0  0  0  0  0  0  0  0  0
  143.9133  137.0289  152.5538 C   0  0  0  0  0  0  0  0  0  0  0  0
  145.4609  137.0064  152.4540 C   0  0  1  0  0  0  0  0  0  0  0  0
  146.1400  137.2676  153.8188 C   0  0  0  0  0  0  0  0  0  0  0  0
  147.5946  137.3626  153.7114 N   0  0  0  0  0  0  0  0  0  0  0  0
  148.3708  138.2373  154.3668 C   0  0  0  0  0  0  0  0  0  0  0  0
  147.9364  139.0586  155.1734 O   0  0  0  0  0  0  0  0  0  0  0  0
  149.6635  138.0875  154.0368 N   0  0  0  0  0  0  0  0  0  0  0  0
  150.7643  138.8324  154.5283 C   0  0  0  0  0  0  0  0  0  0  0  0
  152.1607  138.5931  154.3660 C   0  0  0  0  0  0  0  0  0  0  0  0
  152.8805  139.5202  154.9814 N   0  0  0  0  0  0  0  0  0  0  0  0
  151.9624  140.3438  155.5349 N   0  0  0  0  0  0  0  0  0  0  0  0
  150.6629  139.9622  155.2840 C   0  0  0  0  0  0  0  0  0  0  0  0
  145.9906  135.7647  151.8177 N   0  3  0  0  0  0  0  0  0  0  0  0
  146.1107  134.5616  152.6801 C   0  0  0  0  0  0  0  0  0  0  0  0
  145.2954  133.4612  151.9988 C   0  0  0  0  0  0  0  0  0  0  0  0
  145.3626  133.8388  150.5244 C   0  0  0  0  0  0  0  0  0  0  0  0
  145.3144  135.3656  150.5599 C   0  0  0  0  0  0  0  0  0  0  0  0
  152.2356  141.1522  156.0757 H   0  0  0  0  0  0  0  0  0  0  0  0
  142.2479  135.9264  153.4125 H   0  0  0  0  0  0  0  0  0  0  0  0
  143.7483  135.7511  154.3140 H   0  0  0  0  0  0  0  0  0  0  0  0
  143.5213  134.8893  152.7919 H   0  0  0  0  0  0  0  0  0  0  0  0
  143.4653  137.0650  151.5608 H   0  0  0  0  0  0  0  0  0  0  0  0
  143.5807  137.9330  153.0631 H   0  0  0  0  0  0  0  0  0  0  0  0
  145.7597  137.8249  151.7965 H   0  0  0  0  0  0  0  0  0  0  0  0
  145.7946  138.2130  154.2350 H   0  0  0  0  0  0  0  0  0  0  0  0
  145.8531  136.5020  154.5417 H   0  0  0  0  0  0  0  0  0  0  0  0
  148.0421  136.7269  153.0668 H   0  0  0  0  0  0  0  0  0  0  0  0
  149.8845  137.3689  153.3630 H   0  0  0  0  0  0  0  0  0  0  0  0
  152.6724  137.8019  153.8387 H   0  0  0  0  0  0  0  0  0  0  0  0
  149.8095  140.5115  155.6541 H   0  0  0  0  0  0  0  0  0  0  0  0
  147.1617  134.2727  152.6952 H   0  0  0  0  0  0  0  0  0  0  0  0
  145.8138  134.7165  153.7164 H   0  0  0  0  0  0  0  0  0  0  0  0
  145.6817  132.4616  152.2000 H   0  0  0  0  0  0  0  0  0  0  0  0
  144.2608  133.4984  152.3432 H   0  0  0  0  0  0  0  0  0  0  0  0
  146.3103  133.5045  150.0997 H   0  0  0  0  0  0  0  0  0  0  0  0
  144.5553  133.4020  149.9357 H   0  0  0  0  0  0  0  0  0  0  0  0
  144.2745  135.6931  150.5571 H   0  0  0  0  0  0  0  0  0  0  0  0
  145.8006  135.8151  149.6937 H   0  0  0  0  0  0  0  0  0  0  0  0
  146.9387  135.9868  151.5484 H   0  0  0  0  0  0  0  0  0  0  0  0
  1  2  1  0  0  0  0
  1 20  1  0  0  0  0
  1 21  1  0  0  0  0
  1 22  1  0  0  0  0
  2  3  1  0  0  0  0
  2 23  1  0  0  0  0
  2 24  1  0  0  0  0
  3  4  1  0  0  0  0
  3 14  1  0  0  0  0
  3 25  1  0  0  0  0
  4  5  1  0  0  0  0
  4 26  1  0  0  0  0
  4 27  1  0  0  0  0
  5  6  1  0  0  0  0
  5 28  1  0  0  0  0
  6  7  2  0  0  0  0
  6  8  1  0  0  0  0
  8  9  1  0  0  0  0
  8 29  1  0  0  0  0
  9 13  2  0  0  0  0
  9 10  1  0  0  0  0
 10 11  2  0  0  0  0
 10 30  1  0  0  0  0
 11 12  1  0  0  0  0
 12 19  1  0  0  0  0
 12 13  1  0  0  0  0
 13 31  1  0  0  0  0
 14 18  1  0  0  0  0
 14 15  1  0  0  0  0
 14 40  1  0  0  0  0
 15 16  1  0  0  0  0
 15 32  1  0  0  0  0
 15 33  1  0  0  0  0
 16 17  1  0  0  0  0
 16 34  1  0  0  0  0
 16 35  1  0  0  0  0
 17 18  1  0  0  0  0
 17 36  1  0  0  0  0
 17 37  1  0  0  0  0
 18 38  1  0  0  0  0
 18 39  1  0  0  0  0
M  CHG  1  14   1
M  END
> <s_m_source_file>
AV-unprocessed.smi

> <i_m_source_file_index>
3054

> <i_lp_mmshare_version>
43012

> <i_f3d_flags>
0

> <s_epik_input>
W0NIMl0xW0NIMl1bQ0gyXVtDSDJdTjFbQ0BIXShbQ0gyXVtDSDNdKVtDSDJdW05IXUMoPU8pW05IXWMyW2NIXW5bbkhdW2NIXTI=

> <s_epik_cmdline>
J2VwaWtfcHl0aG9uJywgJy1waCcsICc3LjAnLCAnLXRuJywgJzgnLCAnLW1hJywgJzIwMCcsICctbWV0YWxfYmluZGluZycsICctaW1hZScsICc8aW5maWxlLm1hZT4nLCAnLW9tYWUnLCAnPG91dGZpbGUubWFlPic=

> <r_lp_tautomer_probability>
0.5

> <r_epik_Ionization_Penalty>
0.00108132

> <r_epik_Ionization_Penalty_Charging>
0.00104139

> <r_epik_Ionization_Penalty_Neutral>
3.99244e-05

> <r_epik_State_Penalty>
0.00068071

> <r_epik_Charging_Adjusted_Penalty>
0.0017221

> <i_epik_Tot_Q>
1

> <i_epik_Tot_abs_Q>
1

> <r_epik_Metal_State_Penalty>
-0

> <b_epik_Metal_Only>
0

> <s_lp_Force_Field>
OPLS_2005

> <r_lp_Energy>
40.663

> <b_lp_Chiralities_Consistent>
1

> <s_lp_Variant>
AV-unprocessed.smi:3054-2

> <Gold.Version>
5.8.1

> <Gold.Id.Protein>
6NUR|6NUR_protein|mol2

> <Gold.PLP.Fitness>
41.2847

> <Gold.PLP.PLP>
-27.7251

> <Gold.PLP.part.hbond>
-4.9205

> <Gold.PLP.part.metal>
0.0000

> <Gold.PLP.part.buried>
-2.5496

> <Gold.PLP.part.nonpolar>
-20.3521

> <Gold.PLP.part.repulsive>
1.0447

> <Gold.PLP.ligand.clash>
0.0000

> <Gold.PLP.ligand.torsion>
0.3962

> <Gold.PLP.Chemscore.Hbond>
4.7441

> <Gold.PLP.Chemscore.CHOScore>
0.0000

> <Gold.PLP.Chemscore.Metal>
0.0000

> <Gold.Chemscore.Hbonds>
donor molecule, donor type, donor heavy atom, donor atom, acceptor molecule, acceptor atom, score
      L1  H     5    28       P1  7948  1.00
      L1  H     8    29       P1  7948  0.77
      L1  H    14    40       P1  7948  2.00
      P1  H  7997  8009       L1    11  0.85

> <Gold.PLP.Chemscore.Internal.Correction>
0.1197

> <Gold.Rescore>
     Score         DG    S(hbond)    S(metal)    S(lipo)     H(rot)  DE(clash)    DE(int)     intcor
     16.27     -18.57       3.20        0.00      59.98       1.81       0.62       1.68       ----

> <Gold.Chemscore.Fitness>
16.2706

> <Gold.Chemscore.DG>
-18.5675

> <Gold.Chemscore.ZeroCoef>
-5.4800

> <Gold.Chemscore.Hbond>
3.2040

> <Gold.Chemscore.Metal>
0.0000

> <Gold.Chemscore.Lipo>
59.9848

> <Gold.Chemscore.Internal_Hbond>
0.0000

> <Gold.Chemscore.DEClash>
0.6196

> <Gold.Chemscore.DEInternal>
1.6773

> <Gold.Chemscore.Rot>
1.8094

> <Gold.Chemscore.Internal.Correction>
   9.000000E+99

> <Gold.Chemscore.Hbonds>
donor molecule, donor type, donor heavy atom, donor atom, acceptor molecule, acceptor atom, score
      L1  H     5    28       P1  7948  0.98
      L1  H     8    29       P1  7948  0.36
      L1  H    14    40       P1  7948  0.93
      P1  H  7997  8009       L1    11  0.15

> <Gold.Chemscore.Hbond.Weighted>
-10.7014

> <Gold.Chemscore.Metal.Weighted>
-0.0000

> <Gold.Chemscore.Lipo.Weighted>
-7.0182

> <Gold.Chemscore.Internal_Hbond.Weighted>
0.0000

> <Gold.Chemscore.DEClash.Weighted>
0.6196

> <Gold.Chemscore.DEInternal.Weighted>
1.6773

> <Gold.Chemscore.Rot.Weighted>
4.6322

> <Gold.Chemscore.Internal.Correction.Weighted>
   9.000000E+99

> <Gold.Protein.RotatedTorsions>
[ 6907 6896 6895 6894 ] final -179.80 input  -60.11 | X-H torsion
[ 7974 7965 7964 7962 ] final   45.19 input  175.53 | X-H torsion
[ 8008 7997 7996 7995 ] final -139.81 input   59.86 | X-H torsion
[ 10167 10162 10161 10158 ] final  155.19 input  -65.29 | X-H torsion
[ 10718 10713 10712 10709 ] final   29.74 input   66.30 | X-H torsion
[ 10763 10752 10751 10750 ] final  -45.75 input  -60.55 | X-H torsion
[ 11005 11000 10999 10996 ] final  163.88 input  -57.11 | X-H torsion

> <Gold.Protein.ActiveResidues>
 VAL166  LYS551  ARG553  GLY616  TRP617  ASP618  TYR619  PRO620  LYS621  CYS622 
 ASP623  PHE694  ASN695  SER759  ASP760  ASP761  ALA762  ILE779  LEU786  VAL792 
 PHE793  MET794  SER795  GLU796  ALA797  LYS798  CYS799  TRP800  GLU811  SER814 

> <Gold.Protein.RotatedAtoms>
  151.6593  133.3317  159.3169 H   0  0  0  0  0  0  0  0  0  0  0  0  # atno 6907 bound_to 6896
  150.7921  134.6958  159.6531 H   0  0  0  0  0  0  0  0  0  0  0  0  # atno 6908 bound_to 6896
  152.4003  134.6301  160.0125 H   0  0  0  0  0  0  0  0  0  0  0  0  # atno 6909 bound_to 6896
  146.0502  139.4992  142.9723 H   0  0  0  0  0  0  0  0  0  0  0  0  # atno 7974 bound_to 7965
  155.4509  140.0538  157.3001 H   0  0  0  0  0  0  0  0  0  0  0  0  # atno 8008 bound_to 7997
  154.4777  140.2068  155.9793 H   0  0  0  0  0  0  0  0  0  0  0  0  # atno 8009 bound_to 7997
  156.1158  140.3196  155.8142 H   0  0  0  0  0  0  0  0  0  0  0  0  # atno 8010 bound_to 7997
  139.4821  144.5121  151.8009 H   0  0  0  0  0  0  0  0  0  0  0  0  # atno 10167 bound_to 10162
  157.2505  130.7112  149.6403 H   0  0  0  0  0  0  0  0  0  0  0  0  # atno 10718 bound_to 10713
  154.0337  135.6653  153.4783 H   0  0  0  0  0  0  0  0  0  0  0  0  # atno 10763 bound_to 10752
  153.0530  135.5073  154.7908 H   0  0  0  0  0  0  0  0  0  0  0  0  # atno 10764 bound_to 10752
  154.6862  135.3053  154.9509 H   0  0  0  0  0  0  0  0  0  0  0  0  # atno 10765 bound_to 10752
  140.2403  134.8056  157.3404 H   0  0  0  0  0  0  0  0  0  0  0  0  # atno 11005 bound_to 11000
  145.6737  141.0210  143.1644 LP  0  0  0  0  0  0  0  0  0  0  0  0  # atno 17320 bound_to 7965
  144.7119  139.8340  143.7412 LP  0  0  0  0  0  0  0  0  0  0  0  0  # atno 17321 bound_to 7965
  140.4625  144.1702  150.5908 LP  0  0  0  0  0  0  0  0  0  0  0  0  # atno 17342 bound_to 10162
  140.4469  143.2502  151.9399 LP  0  0  0  0  0  0  0  0  0  0  0  0  # atno 17343 bound_to 10162
  155.9666  130.4429  150.5400 LP  0  0  0  0  0  0  0  0  0  0  0  0  # atno 17370 bound_to 10713
  157.3283  131.0695  151.1880 LP  0  0  0  0  0  0  0  0  0  0  0  0  # atno 17371 bound_to 10713
  140.1660  134.4668  155.7863 LP  0  0  0  0  0  0  0  0  0  0  0  0  # atno 17394 bound_to 11000
  141.2211  133.6921  156.7626 LP  0  0  0  0  0  0  0  0  0  0  0  0  # atno 17395 bound_to 11000

$$$$
