AV-unprocessed.smi:833|AV-procd|sdf|3881|dock7
  -GOLD-   22720 1333D 1   1.00000     0.00000
 Structure written by MMmdl.
 39 40  0  0  0  0  0  0  0  0  1 V2000
  144.1217  133.6599  150.7910 C   0  0  0  0  0  0  0  0  0  0  0  0
  145.1003  134.8415  150.8265 C   0  0  1  0  0  0  0  0  0  0  0  0
  144.6660  135.7615  149.8461 O   0  0  0  0  0  0  0  0  0  0  0  0
  145.1166  135.5375  152.2028 C   0  0  0  0  0  0  0  0  0  0  0  0
  146.2924  136.3844  152.3718 N   0  0  0  0  0  0  0  0  0  0  0  0
  146.3083  137.5652  153.0047 C   0  0  0  0  0  0  0  0  0  0  0  0
  145.3142  138.0748  153.5213 O   0  0  0  0  0  0  0  0  0  0  0  0
  147.5335  138.1145  152.9768 N   0  0  0  0  0  0  0  0  0  0  0  0
  147.9346  139.3825  153.4837 C   0  0  0  0  0  0  0  0  0  0  0  0
  147.0919  140.5163  153.3832 C   0  0  0  0  0  0  0  0  0  0  0  0
  147.4982  141.7315  153.9606 C   0  0  0  0  0  0  0  0  0  0  0  0
  148.7296  141.7670  154.6351 C   0  0  0  0  0  0  0  0  0  0  0  0
  149.5370  140.6937  154.7515 N   0  0  0  0  0  0  0  0  0  0  0  0
  149.1662  139.5178  154.1869 C   0  0  0  0  0  0  0  0  0  0  0  0
  150.0615  138.4322  154.3273 N   0  0  0  0  0  0  0  0  0  0  0  0
  151.4784  138.7293  154.5189 C   0  0  0  0  0  0  0  0  0  0  0  0
  152.0176  137.6696  155.4855 C   0  0  0  0  0  0  0  0  0  0  0  0
  151.0113  136.5290  155.3696 C   0  0  0  0  0  0  0  0  0  0  0  0
  149.7001  137.2746  155.1384 C   0  0  0  0  0  0  0  0  0  0  0  0
  144.4100  132.8911  151.5082 H   0  0  0  0  0  0  0  0  0  0  0  0
  144.1004  133.1954  149.8044 H   0  0  0  0  0  0  0  0  0  0  0  0
  143.1064  133.9764  151.0327 H   0  0  0  0  0  0  0  0  0  0  0  0
  146.0974  134.4834  150.5660 H   0  0  0  0  0  0  0  0  0  0  0  0
  144.8548  135.4010  148.9924 H   0  0  0  0  0  0  0  0  0  0  0  0
  144.1935  136.0900  152.3897 H   0  0  0  0  0  0  0  0  0  0  0  0
  145.1790  134.7839  152.9884 H   0  0  0  0  0  0  0  0  0  0  0  0
  147.1567  136.0453  151.9757 H   0  0  0  0  0  0  0  0  0  0  0  0
  148.2300  137.6262  152.4331 H   0  0  0  0  0  0  0  0  0  0  0  0
  146.1313  140.4672  152.8935 H   0  0  0  0  0  0  0  0  0  0  0  0
  146.8742  142.6107  153.8995 H   0  0  0  0  0  0  0  0  0  0  0  0
  149.0740  142.6793  155.0991 H   0  0  0  0  0  0  0  0  0  0  0  0
  151.9874  138.6469  153.5584 H   0  0  0  0  0  0  0  0  0  0  0  0
  151.6399  139.7376  154.9029 H   0  0  0  0  0  0  0  0  0  0  0  0
  153.0380  137.3638  155.2530 H   0  0  0  0  0  0  0  0  0  0  0  0
  152.0084  138.0628  156.5030 H   0  0  0  0  0  0  0  0  0  0  0  0
  151.2476  135.9097  154.5032 H   0  0  0  0  0  0  0  0  0  0  0  0
  150.9866  135.8876  156.2509 H   0  0  0  0  0  0  0  0  0  0  0  0
  149.2878  137.5875  156.0985 H   0  0  0  0  0  0  0  0  0  0  0  0
  148.9616  136.6504  154.6346 H   0  0  0  0  0  0  0  0  0  0  0  0
  1  2  1  0  0  0  0
  1 20  1  0  0  0  0
  1 21  1  0  0  0  0
  1 22  1  0  0  0  0
  2  3  1  0  0  0  0
  2  4  1  0  0  0  0
  2 23  1  0  0  0  0
  3 24  1  0  0  0  0
  4  5  1  0  0  0  0
  4 25  1  0  0  0  0
  4 26  1  0  0  0  0
  5  6  1  0  0  0  0
  5 27  1  0  0  0  0
  6  7  2  0  0  0  0
  6  8  1  0  0  0  0
  8  9  1  0  0  0  0
  8 28  1  0  0  0  0
  9 14  1  0  0  0  0
  9 10  2  0  0  0  0
 10 11  1  0  0  0  0
 10 29  1  0  0  0  0
 11 12  2  0  0  0  0
 11 30  1  0  0  0  0
 12 13  1  0  0  0  0
 12 31  1  0  0  0  0
 13 14  2  0  0  0  0
 14 15  1  0  0  0  0
 15 19  1  0  0  0  0
 15 16  1  0  0  0  0
 16 17  1  0  0  0  0
 16 32  1  0  0  0  0
 16 33  1  0  0  0  0
 17 18  1  0  0  0  0
 17 34  1  0  0  0  0
 17 35  1  0  0  0  0
 18 19  1  0  0  0  0
 18 36  1  0  0  0  0
 18 37  1  0  0  0  0
 19 38  1  0  0  0  0
 19 39  1  0  0  0  0
M  END
> <s_m_source_file>
AV-unprocessed.smi

> <i_m_source_file_index>
833

> <i_lp_mmshare_version>
43012

> <i_f3d_flags>
0

> <s_epik_input>
W0NIM11bQ0BIXShbT0hdKVtDSDJdW05IXUMoPU8pW05IXWMxW2NIXVtjSF1bY0hdbmMxTjJbQ0gyXVtDSDJdW0NIMl1bQ0gyXTI=

> <s_epik_cmdline>
J2VwaWtfcHl0aG9uJywgJy1waCcsICc3LjAnLCAnLXRuJywgJzgnLCAnLW1hJywgJzIwMCcsICctbWV0YWxfYmluZGluZycsICctaW1hZScsICc8aW5maWxlLm1hZT4nLCAnLW9tYWUnLCAnPG91dGZpbGUubWFlPic=

> <r_lp_tautomer_probability>
1

> <r_epik_Ionization_Penalty>
0.0986749

> <r_epik_Ionization_Penalty_Charging>
0

> <r_epik_Ionization_Penalty_Neutral>
0.0986749

> <r_epik_State_Penalty>
0.0881977

> <r_epik_Charging_Adjusted_Penalty>
0.0881977

> <i_epik_Tot_Q>
0

> <i_epik_Tot_abs_Q>
0

> <r_epik_Metal_State_Penalty>
0.0755487

> <b_epik_Metal_Only>
0

> <s_lp_Force_Field>
OPLS_2005

> <r_lp_Energy>
30.9988

> <b_lp_Chiralities_Consistent>
1

> <s_lp_Variant>
AV-unprocessed.smi:833-2

> <Gold.Version>
5.8.1

> <Gold.Id.Protein>
6NUR|6NUR_protein|mol2

> <Gold.PLP.Fitness>
41.4882

> <Gold.PLP.PLP>
-31.2881

> <Gold.PLP.part.hbond>
-4.1458

> <Gold.PLP.part.metal>
0.0000

> <Gold.PLP.part.buried>
-2.6309

> <Gold.PLP.part.nonpolar>
-25.9443

> <Gold.PLP.part.repulsive>
1.0776

> <Gold.PLP.ligand.clash>
0.0000

> <Gold.PLP.ligand.torsion>
1.0305

> <Gold.PLP.Chemscore.Hbond>
2.9760

> <Gold.PLP.Chemscore.CHOScore>
1.0000

> <Gold.PLP.Chemscore.Metal>
0.0000

> <Gold.Chemscore.Hbonds>
donor molecule, donor type, donor heavy atom, donor atom, acceptor molecule, acceptor atom, score
      L1  H     3    24       P1  7921  1.00
      L1  H     5    27       P1  7948  0.98
      L1  H     8    28       P1  7948  1.00
      L1  C    12    31       P1  8028  1.00

> <Gold.PLP.Chemscore.Internal.Correction>
0.3332

> <Gold.Rescore>
     Score         DG    S(hbond)    S(metal)    S(lipo)     H(rot)  DE(clash)    DE(int)     intcor
     15.85     -17.85       2.92        0.00      66.77       2.03       0.08       1.93       ----

> <Gold.Chemscore.Fitness>
15.8501

> <Gold.Chemscore.DG>
-17.8528

> <Gold.Chemscore.ZeroCoef>
-5.4800

> <Gold.Chemscore.Hbond>
2.9220

> <Gold.Chemscore.Metal>
0.0000

> <Gold.Chemscore.Lipo>
66.7660

> <Gold.Chemscore.Internal_Hbond>
0.0000

> <Gold.Chemscore.DEClash>
0.0768

> <Gold.Chemscore.DEInternal>
1.9258

> <Gold.Chemscore.Rot>
2.0306

> <Gold.Chemscore.Internal.Correction>
   9.000000E+99

> <Gold.Chemscore.Hbonds>
donor molecule, donor type, donor heavy atom, donor atom, acceptor molecule, acceptor atom, score
      L1  H     3    24       P1  7921  0.94
      L1  H     5    27       P1  7948  0.93
      L1  H     8    28       P1  7948  0.97

> <Gold.Chemscore.Hbond.Weighted>
-9.7596

> <Gold.Chemscore.Metal.Weighted>
-0.0000

> <Gold.Chemscore.Lipo.Weighted>
-7.8116

> <Gold.Chemscore.Internal_Hbond.Weighted>
0.0000

> <Gold.Chemscore.DEClash.Weighted>
0.0768

> <Gold.Chemscore.DEInternal.Weighted>
1.9258

> <Gold.Chemscore.Rot.Weighted>
5.1984

> <Gold.Chemscore.Internal.Correction.Weighted>
   9.000000E+99

> <Gold.Protein.RotatedTorsions>
[ 6907 6896 6895 6894 ] final  -27.62 input  -60.11 | X-H torsion
[ 7974 7965 7964 7962 ] final  113.92 input  175.53 | X-H torsion
[ 8008 7997 7996 7995 ] final  143.79 input   59.86 | X-H torsion
[ 10167 10162 10161 10158 ] final   78.74 input  -65.29 | X-H torsion
[ 10718 10713 10712 10709 ] final -111.48 input   66.30 | X-H torsion
[ 10763 10752 10751 10750 ] final -114.28 input  -60.55 | X-H torsion
[ 11005 11000 10999 10996 ] final   61.33 input  -57.11 | X-H torsion

> <Gold.Protein.ActiveResidues>
 VAL166  LYS551  ARG553  GLY616  TRP617  ASP618  TYR619  PRO620  LYS621  CYS622 
 ASP623  PHE694  ASN695  SER759  ASP760  ASP761  ALA762  ILE779  LEU786  VAL792 
 PHE793  MET794  SER795  GLU796  ALA797  LYS798  CYS799  TRP800  GLU811  SER814 

> <Gold.Protein.RotatedAtoms>
  151.1443  135.0195  159.8639 H   0  0  0  0  0  0  0  0  0  0  0  0  # atno 6907 bound_to 6896
  152.5453  134.1463  159.8510 H   0  0  0  0  0  0  0  0  0  0  0  0  # atno 6908 bound_to 6896
  151.1541  133.4842  159.2627 H   0  0  0  0  0  0  0  0  0  0  0  0  # atno 6909 bound_to 6896
  145.2109  139.2906  143.4268 H   0  0  0  0  0  0  0  0  0  0  0  0  # atno 7974 bound_to 7965
  156.2922  140.2253  156.4948 H   0  0  0  0  0  0  0  0  0  0  0  0  # atno 8008 bound_to 7997
  154.7740  140.0464  157.1096 H   0  0  0  0  0  0  0  0  0  0  0  0  # atno 8009 bound_to 7997
  154.9839  140.3082  155.4938 H   0  0  0  0  0  0  0  0  0  0  0  0  # atno 8010 bound_to 7997
  139.9677  144.5916  150.8014 H   0  0  0  0  0  0  0  0  0  0  0  0  # atno 10167 bound_to 10162
  156.0649  130.5869  150.8378 H   0  0  0  0  0  0  0  0  0  0  0  0  # atno 10718 bound_to 10713
  154.8433  135.4423  154.1482 H   0  0  0  0  0  0  0  0  0  0  0  0  # atno 10763 bound_to 10752
  153.2649  135.6939  153.7546 H   0  0  0  0  0  0  0  0  0  0  0  0  # atno 10764 bound_to 10752
  153.6808  135.3403  155.3153 H   0  0  0  0  0  0  0  0  0  0  0  0  # atno 10765 bound_to 10752
  140.0168  134.6212  155.9697 H   0  0  0  0  0  0  0  0  0  0  0  0  # atno 11005 bound_to 11000
  146.3397  140.2385  142.8595 LP  0  0  0  0  0  0  0  0  0  0  0  0  # atno 17320 bound_to 7965
  144.9856  140.8500  143.5370 LP  0  0  0  0  0  0  0  0  0  0  0  0  # atno 17321 bound_to 7965
  140.7532  143.3004  151.3094 LP  0  0  0  0  0  0  0  0  0  0  0  0  # atno 17342 bound_to 10162
  139.6505  144.0371  152.2623 LP  0  0  0  0  0  0  0  0  0  0  0  0  # atno 17343 bound_to 10162
  157.5684  131.0946  150.9455 LP  0  0  0  0  0  0  0  0  0  0  0  0  # atno 17370 bound_to 10713
  156.9676  130.5479  149.5289 LP  0  0  0  0  0  0  0  0  0  0  0  0  # atno 17371 bound_to 10713
  141.1748  133.6539  156.4787 LP  0  0  0  0  0  0  0  0  0  0  0  0  # atno 17394 bound_to 11000
  140.4456  134.6975  157.5014 LP  0  0  0  0  0  0  0  0  0  0  0  0  # atno 17395 bound_to 11000

$$$$
