AV-unprocessed.smi:2768|AV-procd|sdf|10653|dock4
  -GOLD-   2272015103D 1   1.00000     0.00000
 Structure written by MMmdl.
 34 35  0  0  0  0  0  0  0  0  2 V2000
  152.7192  139.7704  156.5540 O   0  0  0  0  0  0  0  0  0  0  0  0
  151.5033  139.5686  156.6508 C   0  0  0  0  0  0  0  0  0  0  0  0
  150.6355  139.9249  157.6417 N   0  5  0  0  0  0  0  0  0  0  0  0
  150.8343  141.0590  158.5486 C   0  0  1  0  0  0  0  0  0  0  0  0
  152.3387  141.2388  158.8760 C   0  0  0  0  0  0  0  0  0  0  0  0
  152.6289  142.4943  159.7372 C   0  0  0  0  0  0  0  0  0  0  0  0
  152.0931  143.7931  159.0983 C   0  0  0  0  0  0  0  0  0  0  0  0
  150.5920  143.6346  158.7681 C   0  0  0  0  0  0  0  0  0  0  0  0
  150.2773  142.3705  157.9230 C   0  0  1  0  0  0  0  0  0  0  0  0
  150.7868  142.5603  156.6153 O   0  0  0  0  0  0  0  0  0  0  0  0
  150.7910  138.8172  155.5056 C   0  0  0  0  0  0  0  0  0  0  0  0
  151.7008  138.4296  154.6073 F   0  0  0  0  0  0  0  0  0  0  0  0
  150.2092  137.7111  155.9818 F   0  0  0  0  0  0  0  0  0  0  0  0
  149.7539  139.7167  154.8344 C   0  0  0  0  0  0  0  0  0  0  0  0
  148.5178  139.1943  154.3892 C   0  0  0  0  0  0  0  0  0  0  0  0
  147.5909  140.0672  153.7887 C   0  0  0  0  0  0  0  0  0  0  0  0
  147.9295  141.4266  153.6514 C   0  0  0  0  0  0  0  0  0  0  0  0
  149.1844  141.8540  154.1275 C   0  0  0  0  0  0  0  0  0  0  0  0
  150.0792  141.0261  154.7067 N   0  0  0  0  0  0  0  0  0  0  0  0
  150.3116  140.9131  159.4954 H   0  0  0  0  0  0  0  0  0  0  0  0
  149.1948  142.2770  157.8259 H   0  0  0  0  0  0  0  0  0  0  0  0
  152.7100  140.3539  159.3940 H   0  0  0  0  0  0  0  0  0  0  0  0
  152.9114  141.3074  157.9498 H   0  0  0  0  0  0  0  0  0  0  0  0
  152.1958  142.3744  160.7324 H   0  0  0  0  0  0  0  0  0  0  0  0
  153.7043  142.5858  159.8917 H   0  0  0  0  0  0  0  0  0  0  0  0
  152.2475  144.6392  159.7682 H   0  0  0  0  0  0  0  0  0  0  0  0
  152.6499  144.0103  158.1861 H   0  0  0  0  0  0  0  0  0  0  0  0
  150.0280  143.5991  159.7022 H   0  0  0  0  0  0  0  0  0  0  0  0
  150.2367  144.5249  158.2477 H   0  0  0  0  0  0  0  0  0  0  0  0
  150.2431  143.2099  156.1943 H   0  0  0  0  0  0  0  0  0  0  0  0
  148.2796  138.1485  154.5165 H   0  0  0  0  0  0  0  0  0  0  0  0
  146.6363  139.7009  153.4412 H   0  0  0  0  0  0  0  0  0  0  0  0
  147.2438  142.1251  153.1952 H   0  0  0  0  0  0  0  0  0  0  0  0
  149.4776  142.8898  154.0399 H   0  0  0  0  0  0  0  0  0  0  0  0
  1  2  2  0  0  0  0
  2  3  1  0  0  0  0
  2 11  1  0  0  0  0
  3  4  1  0  0  0  0
  4 20  1  0  0  0  0
  4  9  1  0  0  0  0
  4  5  1  0  0  0  0
  5  6  1  0  0  0  0
  5 22  1  0  0  0  0
  5 23  1  0  0  0  0
  6  7  1  0  0  0  0
  6 24  1  0  0  0  0
  6 25  1  0  0  0  0
  7  8  1  0  0  0  0
  7 26  1  0  0  0  0
  7 27  1  0  0  0  0
  8  9  1  0  0  0  0
  8 28  1  0  0  0  0
  8 29  1  0  0  0  0
  9 21  1  0  0  0  0
  9 10  1  0  0  0  0
 10 30  1  0  0  0  0
 11 12  1  0  0  0  0
 11 13  1  0  0  0  0
 11 14  1  0  0  0  0
 14 19  1  0  0  0  0
 14 15  2  0  0  0  0
 15 16  1  0  0  0  0
 15 31  1  0  0  0  0
 16 17  2  0  0  0  0
 16 32  1  0  0  0  0
 17 18  1  0  0  0  0
 17 33  1  0  0  0  0
 18 19  2  0  0  0  0
 18 34  1  0  0  0  0
M  CHG  1   3  -1
M  END
> <s_m_source_file>
AV-unprocessed.smi

> <i_m_source_file_index>
2768

> <i_lp_mmshare_version>
43012

> <i_f3d_flags>
0

> <s_epik_input>
bjFbY0hdW2NIXVtjSF1bY0hdYzFDKEYpKEYpQyg9TylbTkhdW0NAQEhdMltDSDJdW0NIMl1bQ0gyXVtDSDJdW0NASF0yW09IXQ==

> <s_epik_cmdline>
J2VwaWtfcHl0aG9uJywgJy1waCcsICc3LjAnLCAnLXRuJywgJzgnLCAnLW1hJywgJzIwMCcsICctbWV0YWxfYmluZGluZycsICctaW1hZScsICc8aW5maWxlLm1hZT4nLCAnLW9tYWUnLCAnPG91dGZpbGUubWFlPic=

> <r_lp_tautomer_probability>
1

> <r_epik_Ionization_Penalty>
5.70553

> <r_epik_Ionization_Penalty_Charging>
5.70553

> <r_epik_Ionization_Penalty_Neutral>
5.5493e-06

> <r_epik_State_Penalty>
5.70549

> <r_epik_Charging_Adjusted_Penalty>
11.411

> <i_epik_Tot_Q>
-1

> <i_epik_Tot_abs_Q>
1

> <r_epik_Metal_State_Penalty>
1.6859

> <b_epik_Metal_Only>
1

> <s_lp_Force_Field>
OPLS_2005

> <r_lp_Energy>
27.4562

> <b_lp_Chiralities_Consistent>
1

> <s_lp_Variant>
AV-unprocessed.smi:2768-6

> <Gold.Version>
5.8.1

> <Gold.Id.Protein>
6NUR|6NUR_protein|mol2

> <Gold.PLP.Fitness>
42.6191

> <Gold.PLP.PLP>
-34.4908

> <Gold.PLP.part.hbond>
-3.0000

> <Gold.PLP.part.metal>
0.0000

> <Gold.PLP.part.buried>
-1.6845

> <Gold.PLP.part.nonpolar>
-30.0760

> <Gold.PLP.part.repulsive>
0.1189

> <Gold.PLP.ligand.clash>
0.0000

> <Gold.PLP.ligand.torsion>
1.4692

> <Gold.PLP.Chemscore.Hbond>
2.6820

> <Gold.PLP.Chemscore.CHOScore>
1.0000

> <Gold.PLP.Chemscore.Metal>
0.0000

> <Gold.Chemscore.Hbonds>
donor molecule, donor type, donor heavy atom, donor atom, acceptor molecule, acceptor atom, score
      L1  H    10    30       P1  8028  0.84
      P1  H  7989  7998       L1    19  0.64
      P1  H  7997  8009       L1     1  1.00
      L1  C    18    34       P1  8028  0.93

> <Gold.PLP.Chemscore.Internal.Correction>
0.0207

> <Gold.Rescore>
     Score         DG    S(hbond)    S(metal)    S(lipo)     H(rot)  DE(clash)    DE(int)     intcor
     16.00     -18.30       2.40        0.00      83.74       1.95       0.25       2.04       ----

> <Gold.Chemscore.Fitness>
15.9993

> <Gold.Chemscore.DG>
-18.2965

> <Gold.Chemscore.ZeroCoef>
-5.4800

> <Gold.Chemscore.Hbond>
2.3987

> <Gold.Chemscore.Metal>
0.0000

> <Gold.Chemscore.Lipo>
83.7396

> <Gold.Chemscore.Internal_Hbond>
0.0000

> <Gold.Chemscore.DEClash>
0.2523

> <Gold.Chemscore.DEInternal>
2.0449

> <Gold.Chemscore.Rot>
1.9503

> <Gold.Chemscore.Internal.Correction>
   9.000000E+99

> <Gold.Chemscore.Hbonds>
donor molecule, donor type, donor heavy atom, donor atom, acceptor molecule, acceptor atom, score
      L1  H    10    30       P1  8028  0.82
      P1  H  7989  7998       L1    19  0.11
      P1  H  7997  8009       L1     1  1.00

> <Gold.Chemscore.Hbond.Weighted>
-8.0118

> <Gold.Chemscore.Metal.Weighted>
-0.0000

> <Gold.Chemscore.Lipo.Weighted>
-9.7975

> <Gold.Chemscore.Internal_Hbond.Weighted>
0.0000

> <Gold.Chemscore.DEClash.Weighted>
0.2523

> <Gold.Chemscore.DEInternal.Weighted>
2.0449

> <Gold.Chemscore.Rot.Weighted>
4.9928

> <Gold.Chemscore.Internal.Correction.Weighted>
   9.000000E+99

> <Gold.Protein.RotatedTorsions>
[ 6907 6896 6895 6894 ] final   20.66 input  -60.11 | X-H torsion
[ 7974 7965 7964 7962 ] final    0.74 input  175.53 | X-H torsion
[ 8008 7997 7996 7995 ] final -171.55 input   59.86 | X-H torsion
[ 10167 10162 10161 10158 ] final   35.09 input  -65.29 | X-H torsion
[ 10718 10713 10712 10709 ] final  112.51 input   66.30 | X-H torsion
[ 10763 10752 10751 10750 ] final  165.80 input  -60.55 | X-H torsion
[ 11005 11000 10999 10996 ] final  -29.15 input  -57.11 | X-H torsion

> <Gold.Protein.ActiveResidues>
 VAL166  LYS551  ARG553  GLY616  TRP617  ASP618  TYR619  PRO620  LYS621  CYS622 
 ASP623  PHE694  ASN695  SER759  ASP760  ASP761  ALA762  ILE779  LEU786  VAL792 
 PHE793  MET794  SER795  GLU796  ALA797  LYS798  CYS799  TRP800  GLU811  SER814 

> <Gold.Protein.RotatedAtoms>
  151.8998  135.0383  160.0505 H   0  0  0  0  0  0  0  0  0  0  0  0  # atno 6907 bound_to 6896
  152.2367  133.5097  159.5255 H   0  0  0  0  0  0  0  0  0  0  0  0  # atno 6908 bound_to 6896
  150.7041  134.1060  159.4025 H   0  0  0  0  0  0  0  0  0  0  0  0  # atno 6909 bound_to 6896
  146.2436  140.1092  142.8344 H   0  0  0  0  0  0  0  0  0  0  0  0  # atno 7974 bound_to 7965
  155.9330  140.1095  157.1117 H   0  0  0  0  0  0  0  0  0  0  0  0  # atno 8008 bound_to 7997
  154.4074  140.1234  156.4893 H   0  0  0  0  0  0  0  0  0  0  0  0  # atno 8009 bound_to 7997
  155.7056  140.3471  155.4954 H   0  0  0  0  0  0  0  0  0  0  0  0  # atno 8010 bound_to 7997
  140.4254  144.1400  150.6152 H   0  0  0  0  0  0  0  0  0  0  0  0  # atno 10167 bound_to 10162
  157.6388  131.0969  150.6906 H   0  0  0  0  0  0  0  0  0  0  0  0  # atno 10718 bound_to 10713
  154.3294  135.2755  155.2479 H   0  0  0  0  0  0  0  0  0  0  0  0  # atno 10763 bound_to 10752
  154.4798  135.5861  153.6385 H   0  0  0  0  0  0  0  0  0  0  0  0  # atno 10764 bound_to 10752
  152.9868  135.6108  154.3485 H   0  0  0  0  0  0  0  0  0  0  0  0  # atno 10765 bound_to 10752
  140.9271  133.7362  156.0883 H   0  0  0  0  0  0  0  0  0  0  0  0  # atno 11005 bound_to 11000
  145.0502  140.9012  143.5000 LP  0  0  0  0  0  0  0  0  0  0  0  0  # atno 17320 bound_to 7965
  145.1188  139.2707  143.5599 LP  0  0  0  0  0  0  0  0  0  0  0  0  # atno 17321 bound_to 7965
  140.4487  143.2496  151.9377 LP  0  0  0  0  0  0  0  0  0  0  0  0  # atno 17342 bound_to 10162
  139.4783  144.5584  151.8278 LP  0  0  0  0  0  0  0  0  0  0  0  0  # atno 17343 bound_to 10162
  156.7233  130.4687  149.5517 LP  0  0  0  0  0  0  0  0  0  0  0  0  # atno 17370 bound_to 10713
  156.1651  130.6399  151.0767 LP  0  0  0  0  0  0  0  0  0  0  0  0  # atno 17371 bound_to 10713
  140.7912  134.3615  157.5464 LP  0  0  0  0  0  0  0  0  0  0  0  0  # atno 17394 bound_to 11000
  139.8788  134.9141  156.3099 LP  0  0  0  0  0  0  0  0  0  0  0  0  # atno 17395 bound_to 11000

$$$$
