AV-unprocessed.smi:72|AV-procd|sdf|712|dock7
  -GOLD-   2262017 33D 1   1.00000     0.00000
 Structure written by MMmdl.
 28 29  0  0  0  0  0  0  0  0  2 V2000
  154.3679  137.8520  155.0716 N   0  0  0  0  0  0  0  0  0  0  0  0
  153.1754  138.2501  155.1624 C   0  0  0  0  0  0  0  0  0  0  0  0
  152.8933  139.6252  155.5122 N   0  0  0  0  0  0  0  0  0  0  0  0
  151.6494  139.9841  155.6005 C   0  0  0  0  0  0  0  0  0  0  0  0
  150.5599  139.0456  155.3631 N   0  0  0  0  0  0  0  0  0  0  0  0
  149.1019  139.4602  155.4617 C   0  0  1  0  0  0  0  0  0  0  0  0
  148.9012  140.2268  156.6175 O   0  0  0  0  0  0  0  0  0  0  0  0
  148.5693  141.5618  156.2556 C   0  0  2  0  0  0  0  0  0  0  0  0
  147.8260  142.2726  157.4010 C   0  0  0  0  0  0  0  0  0  0  0  0
  148.5707  142.2754  158.6019 O   0  0  0  0  0  0  0  0  0  0  0  0
  147.8261  141.4086  154.9284 C   0  0  1  0  0  0  0  0  0  0  0  0
  147.7720  142.6103  154.1821 O   0  0  0  0  0  0  0  0  0  0  0  0
  148.6243  140.2997  154.2485 C   0  0  1  0  0  0  0  0  0  0  0  0
  149.6875  140.8127  153.4588 O   0  0  0  0  0  0  0  0  0  0  0  0
  150.8675  137.7057  155.0075 C   0  0  0  0  0  0  0  0  0  0  0  0
  149.9323  136.9363  154.7852 O   0  0  0  0  0  0  0  0  0  0  0  0
  152.1754  137.3352  154.9171 N   0  5  0  0  0  0  0  0  0  0  0  0
  148.5390  138.5345  155.5916 H   0  0  0  0  0  0  0  0  0  0  0  0
  149.5105  142.0851  156.0777 H   0  0  0  0  0  0  0  0  0  0  0  0
  146.8106  141.0496  155.0980 H   0  0  0  0  0  0  0  0  0  0  0  0
  147.9911  139.6845  153.6085 H   0  0  0  0  0  0  0  0  0  0  0  0
  155.0333  138.5858  155.2670 H   0  0  0  0  0  0  0  0  0  0  0  0
  151.3494  141.0010  155.8524 H   0  0  0  0  0  0  0  0  0  0  0  0
  147.5807  143.2971  157.1200 H   0  0  0  0  0  0  0  0  0  0  0  0
  146.8830  141.7618  157.5967 H   0  0  0  0  0  0  0  0  0  0  0  0
  149.2022  141.5735  158.5649 H   0  0  0  0  0  0  0  0  0  0  0  0
  148.1700  143.2970  154.6947 H   0  0  0  0  0  0  0  0  0  0  0  0
  149.5074  140.6135  152.5522 H   0  0  0  0  0  0  0  0  0  0  0  0
  1  2  2  0  0  0  0
  1 22  1  0  0  0  0
  2 17  1  0  0  0  0
  2  3  1  0  0  0  0
  3  4  2  0  0  0  0
  4  5  1  0  0  0  0
  4 23  1  0  0  0  0
  5  6  1  0  0  0  0
  5 15  1  0  0  0  0
  6 18  1  0  0  0  0
  6 13  1  0  0  0  0
  6  7  1  0  0  0  0
  7  8  1  0  0  0  0
  8 19  1  0  0  0  0
  8  9  1  0  0  0  0
  8 11  1  0  0  0  0
  9 10  1  0  0  0  0
  9 24  1  0  0  0  0
  9 25  1  0  0  0  0
 10 26  1  0  0  0  0
 11 20  1  0  0  0  0
 11 12  1  0  0  0  0
 11 13  1  0  0  0  0
 12 27  1  0  0  0  0
 13 21  1  0  0  0  0
 13 14  1  0  0  0  0
 14 28  1  0  0  0  0
 15 16  2  0  0  0  0
 15 17  1  0  0  0  0
M  CHG  1  17  -1
M  END
> <s_m_source_file>
AV-unprocessed.smi

> <i_m_source_file_index>
72

> <i_lp_mmshare_version>
43012

> <i_f3d_flags>
0

> <s_epik_input>
W05IMl1jMW5bY0hdbihjKD1PKW4xKVtDQEBIXTJPW0NASF0oW0NIMl1bT0hdKVtDQEBIXShbT0hdKVtDQEhdMltPSF0=

> <s_epik_cmdline>
J2VwaWtfcHl0aG9uJywgJy1waCcsICc3LjAnLCAnLXRuJywgJzgnLCAnLW1hJywgJzIwMCcsICctbWV0YWxfYmluZGluZycsICctaW1hZScsICc8aW5maWxlLm1hZT4nLCAnLW9tYWUnLCAnPG91dGZpbGUubWFlPic=

> <r_lp_tautomer_probability>
7.17554e-07

> <r_epik_Ionization_Penalty>
12.8705

> <r_epik_Ionization_Penalty_Charging>
5.64144

> <r_epik_Ionization_Penalty_Neutral>
7.22905

> <r_epik_State_Penalty>
3.30104

> <r_epik_Charging_Adjusted_Penalty>
8.94249

> <i_epik_Tot_Q>
-1

> <i_epik_Tot_abs_Q>
1

> <r_epik_Metal_State_Penalty>
0.529074

> <b_epik_Metal_Only>
1

> <s_epik_Chemistry_Notes>
This compound contains an acetal/aminal-like group ( X-CH(R)-Y where X, Y are N, S, or O) that may be acid/base labile, releasing an aldehyde.

> <s_lp_Force_Field>
OPLS_2005

> <r_lp_Energy>
42.9938

> <b_lp_Chiralities_Consistent>
1

> <s_lp_Variant>
AV-unprocessed.smi:72-50

> <Gold.Version>
5.8.1

> <Gold.Id.Protein>
6NUR|6NUR_protein|mol2

> <Gold.PLP.Fitness>
40.3505

> <Gold.PLP.PLP>
-26.4488

> <Gold.PLP.part.hbond>
-8.7973

> <Gold.PLP.part.metal>
0.0000

> <Gold.PLP.part.buried>
-3.2786

> <Gold.PLP.part.nonpolar>
-15.9828

> <Gold.PLP.part.repulsive>
0.7919

> <Gold.PLP.ligand.clash>
0.0000

> <Gold.PLP.ligand.torsion>
0.3996

> <Gold.PLP.Chemscore.Hbond>
4.8880

> <Gold.PLP.Chemscore.CHOScore>
0.0000

> <Gold.PLP.Chemscore.Metal>
0.0000

> <Gold.Chemscore.Hbonds>
donor molecule, donor type, donor heavy atom, donor atom, acceptor molecule, acceptor atom, score
      L1  H    12    27       P1  8028  1.00
      L1  H    14    28       P1  7957  0.93
      P1  H  7989  7998       L1    14  0.32
      P1  H  7997  8010       L1     3  1.00
      P1  H 10752 10763       L1    17  1.57

> <Gold.PLP.Chemscore.Internal.Correction>
0.0369

> <Gold.Rescore>
     Score         DG    S(hbond)    S(metal)    S(lipo)     H(rot)  DE(clash)    DE(int)     intcor
      7.51      -9.21       3.52        0.00      19.90       4.04       0.34       1.36       ----

> <Gold.Chemscore.Fitness>
7.5131

> <Gold.Chemscore.DG>
-9.2102

> <Gold.Chemscore.ZeroCoef>
-5.4800

> <Gold.Chemscore.Hbond>
3.5166

> <Gold.Chemscore.Metal>
0.0000

> <Gold.Chemscore.Lipo>
19.8961

> <Gold.Chemscore.Internal_Hbond>
0.0000

> <Gold.Chemscore.DEClash>
0.3380

> <Gold.Chemscore.DEInternal>
1.3590

> <Gold.Chemscore.Rot>
4.0403

> <Gold.Chemscore.Internal.Correction>
   9.000000E+99

> <Gold.Chemscore.Hbonds>
donor molecule, donor type, donor heavy atom, donor atom, acceptor molecule, acceptor atom, score
      L1  H    12    27       P1  8028  0.96
      L1  H    14    28       P1  7957  0.88
      P1  H  7989  7998       L1    14  0.10
      P1  H  7997  8010       L1     3  0.35
      P1  H 10752 10763       L1    17  0.54

> <Gold.Chemscore.Hbond.Weighted>
-11.7454

> <Gold.Chemscore.Metal.Weighted>
-0.0000

> <Gold.Chemscore.Lipo.Weighted>
-2.3278

> <Gold.Chemscore.Internal_Hbond.Weighted>
0.0000

> <Gold.Chemscore.DEClash.Weighted>
0.3380

> <Gold.Chemscore.DEInternal.Weighted>
1.3590

> <Gold.Chemscore.Rot.Weighted>
10.3431

> <Gold.Chemscore.Internal.Correction.Weighted>
   9.000000E+99

> <Gold.Protein.RotatedTorsions>
[ 6907 6896 6895 6894 ] final   83.27 input  -60.11 | X-H torsion
[ 7974 7965 7964 7962 ] final   -5.86 input  175.53 | X-H torsion
[ 8008 7997 7996 7995 ] final  101.55 input   59.86 | X-H torsion
[ 10167 10162 10161 10158 ] final -141.45 input  -65.29 | X-H torsion
[ 10718 10713 10712 10709 ] final  135.35 input   66.30 | X-H torsion
[ 10763 10752 10751 10750 ] final   58.69 input  -60.55 | X-H torsion
[ 11005 11000 10999 10996 ] final  -52.34 input  -57.11 | X-H torsion

> <Gold.Protein.ActiveResidues>
 VAL166  LYS551  ARG553  GLY616  TRP617  ASP618  TYR619  PRO620  LYS621  CYS622 
 ASP623  PHE694  ASN695  SER759  ASP760  ASP761  ALA762  ILE779  LEU786  VAL792 
 PHE793  MET794  SER795  GLU796  ALA797  LYS798  CYS799  TRP800  GLU811  SER814 

> <Gold.Protein.RotatedAtoms>
  152.5322  134.2921  159.9046 H   0  0  0  0  0  0  0  0  0  0  0  0  # atno 6907 bound_to 6896
  151.2873  133.4175  159.2638 H   0  0  0  0  0  0  0  0  0  0  0  0  # atno 6908 bound_to 6896
  151.0231  134.9500  159.8127 H   0  0  0  0  0  0  0  0  0  0  0  0  # atno 6909 bound_to 6896
  146.2344  140.2084  142.8335 H   0  0  0  0  0  0  0  0  0  0  0  0  # atno 7974 bound_to 7965
  156.1310  140.3195  155.8349 H   0  0  0  0  0  0  0  0  0  0  0  0  # atno 8008 bound_to 7997
  155.4332  140.0520  157.3034 H   0  0  0  0  0  0  0  0  0  0  0  0  # atno 8009 bound_to 7997
  154.4899  140.2088  155.9584 H   0  0  0  0  0  0  0  0  0  0  0  0  # atno 8010 bound_to 7997
  139.8183  143.7608  152.2665 H   0  0  0  0  0  0  0  0  0  0  0  0  # atno 10167 bound_to 10162
  157.4579  131.1071  150.9955 H   0  0  0  0  0  0  0  0  0  0  0  0  # atno 10718 bound_to 10713
  152.9876  135.5598  154.5592 H   0  0  0  0  0  0  0  0  0  0  0  0  # atno 10763 bound_to 10752
  154.5014  135.2797  155.1419 H   0  0  0  0  0  0  0  0  0  0  0  0  # atno 10764 bound_to 10752
  154.2848  135.6338  153.5414 H   0  0  0  0  0  0  0  0  0  0  0  0  # atno 10765 bound_to 10752
  141.0919  133.6631  156.4009 H   0  0  0  0  0  0  0  0  0  0  0  0  # atno 11005 bound_to 11000
  144.9726  140.8383  143.5446 LP  0  0  0  0  0  0  0  0  0  0  0  0  # atno 17320 bound_to 7965
  145.2067  139.2225  143.5164 LP  0  0  0  0  0  0  0  0  0  0  0  0  # atno 17321 bound_to 7965
  139.7779  144.7455  151.0131 LP  0  0  0  0  0  0  0  0  0  0  0  0  # atno 17342 bound_to 10162
  140.7814  143.4574  151.0326 LP  0  0  0  0  0  0  0  0  0  0  0  0  # atno 17343 bound_to 10162
  157.0762  130.5884  149.5412 LP  0  0  0  0  0  0  0  0  0  0  0  0  # atno 17370 bound_to 10713
  156.0015  130.5095  150.7681 LP  0  0  0  0  0  0  0  0  0  0  0  0  # atno 17371 bound_to 10713
  140.5232  134.6284  157.5325 LP  0  0  0  0  0  0  0  0  0  0  0  0  # atno 17394 bound_to 11000
  139.9746  134.7236  155.9974 LP  0  0  0  0  0  0  0  0  0  0  0  0  # atno 17395 bound_to 11000

$$$$
