AV-unprocessed.smi:2451|AV-procd|sdf|9674|dock7
  -GOLD-   2272013313D 1   1.00000     0.00000
 Structure written by MMmdl.
 38 39  0  0  0  0  0  0  0  0  1 V2000
  151.6504  144.4424  159.0434 C   0  0  0  0  0  0  0  0  0  0  0  0
  152.4410  143.1214  159.0206 C   0  0  1  0  0  0  0  0  0  0  0  0
  153.1212  142.9039  160.3871 C   0  0  0  0  0  0  0  0  0  0  0  0
  153.9550  141.6186  160.4085 C   0  0  0  0  0  0  0  0  0  0  0  0
  153.0794  140.4079  160.0764 C   0  0  0  0  0  0  0  0  0  0  0  0
  152.3804  140.5784  158.7164 C   0  0  1  0  0  0  0  0  0  0  0  0
  151.5007  139.4251  158.5007 N   0  0  0  0  0  0  0  0  0  0  0  0
  152.2095  137.8917  158.1552 S   0  0  0  0  0  0  0  0  0  0  0  0
  153.5174  138.1363  157.5274 O   0  0  0  0  0  0  0  0  0  0  0  0
  152.1222  137.0769  159.3765 O   0  0  0  0  0  0  0  0  0  0  0  0
  151.0672  137.2060  156.8837 C   0  0  0  0  0  0  0  0  0  0  0  0
  150.8485  138.2234  155.8014 C   0  0  0  0  0  0  0  0  0  0  0  0
  149.9653  138.1523  154.6886 C   0  0  0  0  0  0  0  0  0  0  0  0
  150.1743  139.3351  154.0400 C   0  0  0  0  0  0  0  0  0  0  0  0
  151.1081  140.0746  154.6900 O   0  0  0  0  0  0  0  0  0  0  0  0
  151.5345  139.3555  155.8125 N   0  0  0  0  0  0  0  0  0  0  0  0
  151.5678  141.8971  158.6221 C   0  0  2  0  0  0  0  0  0  0  0  0
  150.9676  142.0644  157.2087 C   0  0  0  0  0  0  0  0  0  0  0  0
  150.7833  144.3742  159.7012 H   0  0  0  0  0  0  0  0  0  0  0  0
  151.2993  144.7246  158.0515 H   0  0  0  0  0  0  0  0  0  0  0  0
  152.2717  145.2642  159.4003 H   0  0  0  0  0  0  0  0  0  0  0  0
  153.2323  143.2272  158.2767 H   0  0  0  0  0  0  0  0  0  0  0  0
  153.7643  143.7527  160.6232 H   0  0  0  0  0  0  0  0  0  0  0  0
  152.3664  142.8623  161.1738 H   0  0  0  0  0  0  0  0  0  0  0  0
  154.7715  141.6940  159.6891 H   0  0  0  0  0  0  0  0  0  0  0  0
  154.4144  141.4885  161.3888 H   0  0  0  0  0  0  0  0  0  0  0  0
  153.6892  139.5035  160.0741 H   0  0  0  0  0  0  0  0  0  0  0  0
  152.3346  140.2769  160.8628 H   0  0  0  0  0  0  0  0  0  0  0  0
  153.1465  140.5916  157.9397 H   0  0  0  0  0  0  0  0  0  0  0  0
  150.7984  139.3528  159.2365 H   0  0  0  0  0  0  0  0  0  0  0  0
  151.4974  136.2844  156.4907 H   0  0  0  0  0  0  0  0  0  0  0  0
  150.1264  136.9527  157.3718 H   0  0  0  0  0  0  0  0  0  0  0  0
  149.2840  137.3611  154.4132 H   0  0  0  0  0  0  0  0  0  0  0  0
  149.7570  139.7755  153.1465 H   0  0  0  0  0  0  0  0  0  0  0  0
  150.7407  141.8326  159.3311 H   0  0  0  0  0  0  0  0  0  0  0  0
  151.7498  142.1904  156.4595 H   0  0  0  0  0  0  0  0  0  0  0  0
  150.3025  142.9247  157.1483 H   0  0  0  0  0  0  0  0  0  0  0  0
  150.3722  141.1994  156.9167 H   0  0  0  0  0  0  0  0  0  0  0  0
  1  2  1  0  0  0  0
  1 19  1  0  0  0  0
  1 20  1  0  0  0  0
  1 21  1  0  0  0  0
  2 17  1  0  0  0  0
  2  3  1  0  0  0  0
  2 22  1  0  0  0  0
  3  4  1  0  0  0  0
  3 23  1  0  0  0  0
  3 24  1  0  0  0  0
  4  5  1  0  0  0  0
  4 25  1  0  0  0  0
  4 26  1  0  0  0  0
  5  6  1  0  0  0  0
  5 27  1  0  0  0  0
  5 28  1  0  0  0  0
  6  7  1  0  0  0  0
  6 17  1  0  0  0  0
  6 29  1  0  0  0  0
  7  8  1  0  0  0  0
  7 30  1  0  0  0  0
  8  9  2  0  0  0  0
  8 10  2  0  0  0  0
  8 11  1  0  0  0  0
 11 12  1  0  0  0  0
 11 31  1  0  0  0  0
 11 32  1  0  0  0  0
 12 16  2  0  0  0  0
 12 13  1  0  0  0  0
 13 14  2  0  0  0  0
 13 33  1  0  0  0  0
 14 15  1  0  0  0  0
 14 34  1  0  0  0  0
 15 16  1  0  0  0  0
 17 18  1  0  0  0  0
 17 35  1  0  0  0  0
 18 36  1  0  0  0  0
 18 37  1  0  0  0  0
 18 38  1  0  0  0  0
M  END
> <s_m_source_file>
AV-unprocessed.smi

> <i_m_source_file_index>
2451

> <i_lp_mmshare_version>
43012

> <i_f3d_flags>
0

> <s_epik_input>
W0NIM11bQ0BASF0xW0NIMl1bQ0gyXVtDSDJdW0NASF0oW0NASF0xW0NIM10pW05IXVMoPU8pKD1PKVtDSDJdYzJbY0hdW2NIXW9uMg==

> <s_epik_cmdline>
J2VwaWtfcHl0aG9uJywgJy1waCcsICc3LjAnLCAnLXRuJywgJzgnLCAnLW1hJywgJzIwMCcsICctbWV0YWxfYmluZGluZycsICctaW1hZScsICc8aW5maWxlLm1hZT4nLCAnLW9tYWUnLCAnPG91dGZpbGUubWFlPic=

> <r_lp_tautomer_probability>
1

> <r_epik_Ionization_Penalty>
8.73668e-05

> <r_epik_Ionization_Penalty_Charging>
0

> <r_epik_Ionization_Penalty_Neutral>
8.73668e-05

> <r_epik_State_Penalty>
-0

> <r_epik_Charging_Adjusted_Penalty>
0

> <i_epik_Tot_Q>
0

> <i_epik_Tot_abs_Q>
0

> <r_epik_Metal_State_Penalty>
0.0716439

> <b_epik_Metal_Only>
0

> <s_lp_Force_Field>
OPLS_2005

> <r_lp_Energy>
6.58047

> <b_lp_Chiralities_Consistent>
1

> <s_lp_Variant>
AV-unprocessed.smi:2451-6

> <Gold.Version>
5.8.1

> <Gold.Id.Protein>
6NUR|6NUR_protein|mol2

> <Gold.PLP.Fitness>
43.9402

> <Gold.PLP.PLP>
-34.3055

> <Gold.PLP.part.hbond>
-2.8170

> <Gold.PLP.part.metal>
0.0000

> <Gold.PLP.part.buried>
-4.6443

> <Gold.PLP.part.nonpolar>
-26.9733

> <Gold.PLP.part.repulsive>
0.0728

> <Gold.PLP.ligand.clash>
0.0000

> <Gold.PLP.ligand.torsion>
0.7128

> <Gold.PLP.Chemscore.Hbond>
2.6384

> <Gold.PLP.Chemscore.CHOScore>
1.0000

> <Gold.PLP.Chemscore.Metal>
0.0000

> <Gold.Chemscore.Hbonds>
donor molecule, donor type, donor heavy atom, donor atom, acceptor molecule, acceptor atom, score
      P1  H  6896  6907       L1    10  0.93
      P1  H  7989  7998       L1    15  0.94
      P1  H  7997  8008       L1     9  0.52
      L1  C    14    34       P1  7957  0.94

> <Gold.PLP.Chemscore.Internal.Correction>
0.1452

> <Gold.Rescore>
     Score         DG    S(hbond)    S(metal)    S(lipo)     H(rot)  DE(clash)    DE(int)     intcor
     16.87     -20.48       2.45        0.00      94.46       1.66       0.04       3.58       ----

> <Gold.Chemscore.Fitness>
16.8675

> <Gold.Chemscore.DG>
-20.4840

> <Gold.Chemscore.ZeroCoef>
-5.4800

> <Gold.Chemscore.Hbond>
2.4548

> <Gold.Chemscore.Metal>
0.0000

> <Gold.Chemscore.Lipo>
94.4590

> <Gold.Chemscore.Internal_Hbond>
0.0000

> <Gold.Chemscore.DEClash>
0.0354

> <Gold.Chemscore.DEInternal>
3.5811

> <Gold.Chemscore.Rot>
1.6588

> <Gold.Chemscore.Internal.Correction>
   9.000000E+99

> <Gold.Chemscore.Hbonds>
donor molecule, donor type, donor heavy atom, donor atom, acceptor molecule, acceptor atom, score
      P1  H  6896  6907       L1    10  0.88
      P1  H  7989  7998       L1    15  0.20
      P1  H  7997  8008       L1     9  0.49

> <Gold.Chemscore.Hbond.Weighted>
-8.1989

> <Gold.Chemscore.Metal.Weighted>
-0.0000

> <Gold.Chemscore.Lipo.Weighted>
-11.0517

> <Gold.Chemscore.Internal_Hbond.Weighted>
0.0000

> <Gold.Chemscore.DEClash.Weighted>
0.0354

> <Gold.Chemscore.DEInternal.Weighted>
3.5811

> <Gold.Chemscore.Rot.Weighted>
4.2466

> <Gold.Chemscore.Internal.Correction.Weighted>
   9.000000E+99

> <Gold.Protein.RotatedTorsions>
[ 6907 6896 6895 6894 ] final   11.49 input  -60.11 | X-H torsion
[ 7974 7965 7964 7962 ] final   25.44 input  175.53 | X-H torsion
[ 8008 7997 7996 7995 ] final  -80.69 input   59.86 | X-H torsion
[ 10167 10162 10161 10158 ] final   56.99 input  -65.29 | X-H torsion
[ 10718 10713 10712 10709 ] final  108.30 input   66.30 | X-H torsion
[ 10763 10752 10751 10750 ] final  -42.37 input  -60.55 | X-H torsion
[ 11005 11000 10999 10996 ] final   66.27 input  -57.11 | X-H torsion

> <Gold.Protein.ActiveResidues>
 VAL166  LYS551  ARG553  GLY616  TRP617  ASP618  TYR619  PRO620  LYS621  CYS622 
 ASP623  PHE694  ASN695  SER759  ASP760  ASP761  ALA762  ILE779  LEU786  VAL792 
 PHE793  MET794  SER795  GLU796  ALA797  LYS798  CYS799  TRP800  GLU811  SER814 

> <Gold.Protein.RotatedAtoms>
  151.7551  135.0823  160.0336 H   0  0  0  0  0  0  0  0  0  0  0  0  # atno 6907 bound_to 6896
  152.3391  133.6041  159.5872 H   0  0  0  0  0  0  0  0  0  0  0  0  # atno 6908 bound_to 6896
  150.7468  133.9667  159.3574 H   0  0  0  0  0  0  0  0  0  0  0  0  # atno 6909 bound_to 6896
  146.1888  139.7465  142.8847 H   0  0  0  0  0  0  0  0  0  0  0  0  # atno 7974 bound_to 7965
  154.5908  140.0659  156.9236 H   0  0  0  0  0  0  0  0  0  0  0  0  # atno 8008 bound_to 7997
  155.2298  140.3336  155.4286 H   0  0  0  0  0  0  0  0  0  0  0  0  # atno 8009 bound_to 7997
  156.2255  140.1817  156.7359 H   0  0  0  0  0  0  0  0  0  0  0  0  # atno 8010 bound_to 7997
  140.2028  144.3970  150.6521 H   0  0  0  0  0  0  0  0  0  0  0  0  # atno 10167 bound_to 10162
  157.6592  131.0891  150.6285 H   0  0  0  0  0  0  0  0  0  0  0  0  # atno 10718 bound_to 10713
  153.9780  135.6720  153.4749 H   0  0  0  0  0  0  0  0  0  0  0  0  # atno 10763 bound_to 10752
  153.0762  135.4947  154.8405 H   0  0  0  0  0  0  0  0  0  0  0  0  # atno 10764 bound_to 10752
  154.7181  135.3111  154.9053 H   0  0  0  0  0  0  0  0  0  0  0  0  # atno 10765 bound_to 10752
  139.9842  134.6694  156.0206 H   0  0  0  0  0  0  0  0  0  0  0  0  # atno 11005 bound_to 11000
  145.3856  141.0365  143.3153 LP  0  0  0  0  0  0  0  0  0  0  0  0  # atno 17320 bound_to 7965
  144.8447  139.5415  143.6884 LP  0  0  0  0  0  0  0  0  0  0  0  0  # atno 17321 bound_to 7965
  140.6378  143.2198  151.6356 LP  0  0  0  0  0  0  0  0  0  0  0  0  # atno 17342 bound_to 10162
  139.5210  144.3205  152.0914 LP  0  0  0  0  0  0  0  0  0  0  0  0  # atno 17343 bound_to 10162
  156.6589  130.4506  149.5694 LP  0  0  0  0  0  0  0  0  0  0  0  0  # atno 17370 bound_to 10713
  156.2082  130.6662  151.1241 LP  0  0  0  0  0  0  0  0  0  0  0  0  # atno 17371 bound_to 10713
  141.1510  133.6548  156.4013 LP  0  0  0  0  0  0  0  0  0  0  0  0  # atno 17394 bound_to 11000
  140.5035  134.6463  157.5257 LP  0  0  0  0  0  0  0  0  0  0  0  0  # atno 17395 bound_to 11000

$$$$
