AV-unprocessed.smi:1478|AV-procd|sdf|5982|dock3
  -GOLD-   22720 6 73D 1   1.00000     0.00000
 Structure written by MMmdl.
 46 47  0  0  0  0  0  0  0  0  1 V2000
  152.3561  144.1660  158.3754 C   0  0  0  0  0  0  0  0  0  0  0  0
  153.1271  143.1324  158.9627 O   0  0  0  0  0  0  0  0  0  0  0  0
  152.3236  142.1126  159.5316 C   0  0  0  0  0  0  0  0  0  0  0  0
  151.4959  141.4535  158.4180 C   0  0  0  0  0  0  0  0  0  0  0  0
  151.3976  140.0026  158.6063 N   0  0  0  0  0  0  0  0  0  0  0  0
  150.0983  139.5309  158.6979 N   0  0  0  0  0  0  0  0  0  0  0  0
  149.8758  138.2678  158.8712 C   0  0  0  0  0  0  0  0  0  0  0  0
  148.4946  137.7191  158.9715 C   0  0  0  0  0  0  0  0  0  0  0  0
  147.5156  138.3435  158.5591 O   0  0  0  0  0  0  0  0  0  0  0  0
  148.3996  136.5001  159.5335 N   0  0  0  0  0  0  0  0  0  0  0  0
  147.1634  135.7486  159.7489 C   0  0  0  0  0  0  0  0  0  0  0  0
  146.9007  135.3687  161.2347 C   0  0  0  0  0  0  0  0  0  0  0  0
  147.0434  136.6842  162.0496 C   0  0  0  0  0  0  0  0  0  0  0  0
  145.9881  137.1305  162.7388 N   0  0  0  0  0  0  0  0  0  0  0  0
  148.1016  137.3114  162.0431 O   0  0  0  0  0  0  0  0  0  0  0  0
  145.5062  134.7033  161.4216 C   0  0  0  0  0  0  0  0  0  0  0  0
  145.2984  134.1597  162.8496 C   0  0  0  0  0  0  0  0  0  0  0  0
  146.3254  133.2273  163.1656 O   0  0  0  0  0  0  0  0  0  0  0  0
  147.6271  133.8014  163.1396 C   0  0  0  0  0  0  0  0  0  0  0  0
  147.9403  134.3205  161.7223 C   0  0  0  0  0  0  0  0  0  0  0  0
  150.9778  137.3258  158.9759 C   0  0  0  0  0  0  0  0  0  0  0  0
  152.2392  137.8012  158.8865 C   0  0  0  0  0  0  0  0  0  0  0  0
  152.5186  139.2243  158.6893 C   0  0  0  0  0  0  0  0  0  0  0  0
  153.6584  139.6813  158.6087 O   0  0  0  0  0  0  0  0  0  0  0  0
  153.0177  144.9231  157.9547 H   0  0  0  0  0  0  0  0  0  0  0  0
  151.7167  144.6510  159.1146 H   0  0  0  0  0  0  0  0  0  0  0  0
  151.7301  143.7807  157.5696 H   0  0  0  0  0  0  0  0  0  0  0  0
  152.9573  141.3741  160.0250 H   0  0  0  0  0  0  0  0  0  0  0  0
  151.6619  142.5377  160.2881 H   0  0  0  0  0  0  0  0  0  0  0  0
  150.4978  141.8953  158.4001 H   0  0  0  0  0  0  0  0  0  0  0  0
  151.9311  141.6812  157.4431 H   0  0  0  0  0  0  0  0  0  0  0  0
  149.2554  136.0598  159.8403 H   0  0  0  0  0  0  0  0  0  0  0  0
  146.3510  136.3757  159.3787 H   0  0  0  0  0  0  0  0  0  0  0  0
  147.1502  134.8547  159.1220 H   0  0  0  0  0  0  0  0  0  0  0  0
  146.0606  137.9820  163.2765 H   0  0  0  0  0  0  0  0  0  0  0  0
  145.1218  136.6121  162.7205 H   0  0  0  0  0  0  0  0  0  0  0  0
  144.6991  135.3863  161.1540 H   0  0  0  0  0  0  0  0  0  0  0  0
  145.4046  133.8592  160.7399 H   0  0  0  0  0  0  0  0  0  0  0  0
  145.2783  134.9593  163.5909 H   0  0  0  0  0  0  0  0  0  0  0  0
  144.3366  133.6510  162.9150 H   0  0  0  0  0  0  0  0  0  0  0  0
  147.7045  134.5934  163.8857 H   0  0  0  0  0  0  0  0  0  0  0  0
  148.3499  133.0359  163.4215 H   0  0  0  0  0  0  0  0  0  0  0  0
  147.9505  133.4619  161.0506 H   0  0  0  0  0  0  0  0  0  0  0  0
  148.9527  134.7256  161.6908 H   0  0  0  0  0  0  0  0  0  0  0  0
  150.8015  136.2699  159.1218 H   0  0  0  0  0  0  0  0  0  0  0  0
  153.0676  137.1122  158.9627 H   0  0  0  0  0  0  0  0  0  0  0  0
  1  2  1  0  0  0  0
  1 25  1  0  0  0  0
  1 26  1  0  0  0  0
  1 27  1  0  0  0  0
  2  3  1  0  0  0  0
  3  4  1  0  0  0  0
  3 28  1  0  0  0  0
  3 29  1  0  0  0  0
  4  5  1  0  0  0  0
  4 30  1  0  0  0  0
  4 31  1  0  0  0  0
  5 23  1  0  0  0  0
  5  6  1  0  0  0  0
  6  7  2  0  0  0  0
  7  8  1  0  0  0  0
  7 21  1  0  0  0  0
  8  9  2  0  0  0  0
  8 10  1  0  0  0  0
 10 11  1  0  0  0  0
 10 32  1  0  0  0  0
 11 12  1  0  0  0  0
 11 33  1  0  0  0  0
 11 34  1  0  0  0  0
 12 20  1  0  0  0  0
 12 13  1  0  0  0  0
 12 16  1  0  0  0  0
 13 14  1  0  0  0  0
 13 15  2  0  0  0  0
 14 35  1  0  0  0  0
 14 36  1  0  0  0  0
 16 17  1  0  0  0  0
 16 37  1  0  0  0  0
 16 38  1  0  0  0  0
 17 18  1  0  0  0  0
 17 39  1  0  0  0  0
 17 40  1  0  0  0  0
 18 19  1  0  0  0  0
 19 20  1  0  0  0  0
 19 41  1  0  0  0  0
 19 42  1  0  0  0  0
 20 43  1  0  0  0  0
 20 44  1  0  0  0  0
 21 22  2  0  0  0  0
 21 45  1  0  0  0  0
 22 23  1  0  0  0  0
 22 46  1  0  0  0  0
 23 24  2  0  0  0  0
M  END
> <s_m_source_file>
AV-unprocessed.smi

> <i_m_source_file_index>
1478

> <i_lp_mmshare_version>
43012

> <i_f3d_flags>
0

> <s_epik_input>
W0NIM11PW0NIMl1bQ0gyXW4xbmMoW2NIXVtjSF1jMT1PKUMoPU8pW05IXVtDSDJdQzIoQyg9TylbTkgyXSlbQ0gyXVtDSDJdT1tDSDJdW0NIMl0y

> <s_epik_cmdline>
J2VwaWtfcHl0aG9uJywgJy1waCcsICc3LjAnLCAnLXRuJywgJzgnLCAnLW1hJywgJzIwMCcsICctbWV0YWxfYmluZGluZycsICctaW1hZScsICc8aW5maWxlLm1hZT4nLCAnLW9tYWUnLCAnPG91dGZpbGUubWFlPic=

> <r_lp_tautomer_probability>
1

> <r_epik_Ionization_Penalty>
1.88897e-06

> <r_epik_Ionization_Penalty_Charging>
5.89949e-09

> <r_epik_Ionization_Penalty_Neutral>
1.88307e-06

> <r_epik_State_Penalty>
-0

> <r_epik_Charging_Adjusted_Penalty>
5.89949e-09

> <i_epik_Tot_Q>
0

> <i_epik_Tot_abs_Q>
0

> <r_epik_Metal_State_Penalty>
-0

> <b_epik_Metal_Only>
0

> <s_lp_Force_Field>
OPLS_2005

> <r_lp_Energy>
34.3796

> <b_lp_Chiralities_Consistent>
1

> <s_lp_Variant>
AV-unprocessed.smi:1478-1

> <Gold.Version>
5.8.1

> <Gold.Id.Protein>
6NUR|6NUR_protein|mol2

> <Gold.PLP.Fitness>
40.1278

> <Gold.PLP.PLP>
-32.5622

> <Gold.PLP.part.hbond>
-3.0000

> <Gold.PLP.part.metal>
0.0000

> <Gold.PLP.part.buried>
-5.6957

> <Gold.PLP.part.nonpolar>
-24.2331

> <Gold.PLP.part.repulsive>
0.3162

> <Gold.PLP.ligand.clash>
0.0000

> <Gold.PLP.ligand.torsion>
0.5010

> <Gold.PLP.Chemscore.Hbond>
2.7840

> <Gold.PLP.Chemscore.CHOScore>
0.0000

> <Gold.PLP.Chemscore.Metal>
0.0000

> <Gold.Chemscore.Hbonds>
donor molecule, donor type, donor heavy atom, donor atom, acceptor molecule, acceptor atom, score
      P1  H  6931  6943       L1    15  0.49
      P1  H  6934  6947       L1    15  0.15
      P1  H  7997  8008       L1    24  1.00

> <Gold.PLP.Chemscore.Internal.Correction>
0.2156

> <Gold.Rescore>
     Score         DG    S(hbond)    S(metal)    S(lipo)     H(rot)  DE(clash)    DE(int)     intcor
     13.85     -16.14       2.71        0.00      72.60       2.69       0.20       2.09       ----

> <Gold.Chemscore.Fitness>
13.8461

> <Gold.Chemscore.DG>
-16.1420

> <Gold.Chemscore.ZeroCoef>
-5.4800

> <Gold.Chemscore.Hbond>
2.7143

> <Gold.Chemscore.Metal>
0.0000

> <Gold.Chemscore.Lipo>
72.5981

> <Gold.Chemscore.Internal_Hbond>
0.0000

> <Gold.Chemscore.DEClash>
0.2033

> <Gold.Chemscore.DEInternal>
2.0926

> <Gold.Chemscore.Rot>
2.6944

> <Gold.Chemscore.Internal.Correction>
   9.000000E+99

> <Gold.Chemscore.Hbonds>
donor molecule, donor type, donor heavy atom, donor atom, acceptor molecule, acceptor atom, score
      P1  H  6931  6943       L1    15  0.47
      P1  H  6934  6947       L1    15  0.01
      P1  H  7997  8008       L1    24  0.98

> <Gold.Chemscore.Hbond.Weighted>
-9.0657

> <Gold.Chemscore.Metal.Weighted>
-0.0000

> <Gold.Chemscore.Lipo.Weighted>
-8.4940

> <Gold.Chemscore.Internal_Hbond.Weighted>
0.0000

> <Gold.Chemscore.DEClash.Weighted>
0.2033

> <Gold.Chemscore.DEInternal.Weighted>
2.0926

> <Gold.Chemscore.Rot.Weighted>
6.8976

> <Gold.Chemscore.Internal.Correction.Weighted>
   9.000000E+99

> <Gold.Protein.RotatedTorsions>
[ 6907 6896 6895 6894 ] final  -39.30 input  -60.11 | X-H torsion
[ 7974 7965 7964 7962 ] final -142.44 input  175.53 | X-H torsion
[ 8008 7997 7996 7995 ] final -109.42 input   59.86 | X-H torsion
[ 10167 10162 10161 10158 ] final   47.60 input  -65.29 | X-H torsion
[ 10718 10713 10712 10709 ] final -175.87 input   66.30 | X-H torsion
[ 10763 10752 10751 10750 ] final  128.29 input  -60.55 | X-H torsion
[ 11005 11000 10999 10996 ] final   59.54 input  -57.11 | X-H torsion

> <Gold.Protein.ActiveResidues>
 VAL166  LYS551  ARG553  GLY616  TRP617  ASP618  TYR619  PRO620  LYS621  CYS622 
 ASP623  PHE694  ASN695  SER759  ASP760  ASP761  ALA762  ILE779  LEU786  VAL792 
 PHE793  MET794  SER795  GLU796  ALA797  LYS798  CYS799  TRP800  GLU811  SER814 

> <Gold.Protein.RotatedAtoms>
  150.9920  134.9252  159.7904 H   0  0  0  0  0  0  0  0  0  0  0  0  # atno 6907 bound_to 6896
  152.5253  134.3269  159.9179 H   0  0  0  0  0  0  0  0  0  0  0  0  # atno 6908 bound_to 6896
  151.3275  133.3973  159.2694 H   0  0  0  0  0  0  0  0  0  0  0  0  # atno 6909 bound_to 6896
  144.8443  140.5957  143.5432 H   0  0  0  0  0  0  0  0  0  0  0  0  # atno 7974 bound_to 7965
  154.9591  140.0399  157.2181 H   0  0  0  0  0  0  0  0  0  0  0  0  # atno 8008 bound_to 7997
  154.7906  140.2835  155.5972 H   0  0  0  0  0  0  0  0  0  0  0  0  # atno 8009 bound_to 7997
  156.2949  140.2574  156.2753 H   0  0  0  0  0  0  0  0  0  0  0  0  # atno 8010 bound_to 7997
  140.3019  144.2924  150.6217 H   0  0  0  0  0  0  0  0  0  0  0  0  # atno 10167 bound_to 10162
  156.8063  130.9570  151.3117 H   0  0  0  0  0  0  0  0  0  0  0  0  # atno 10718 bound_to 10713
  153.7232  135.3250  155.3271 H   0  0  0  0  0  0  0  0  0  0  0  0  # atno 10763 bound_to 10752
  154.8349  135.4504  154.1196 H   0  0  0  0  0  0  0  0  0  0  0  0  # atno 10764 bound_to 10752
  153.2322  135.6961  153.7957 H   0  0  0  0  0  0  0  0  0  0  0  0  # atno 10765 bound_to 10752
  140.0296  134.6031  155.9525 H   0  0  0  0  0  0  0  0  0  0  0  0  # atno 11005 bound_to 11000
  145.4630  139.1511  143.3856 LP  0  0  0  0  0  0  0  0  0  0  0  0  # atno 17320 bound_to 7965
  146.2730  140.4760  142.8807 LP  0  0  0  0  0  0  0  0  0  0  0  0  # atno 17321 bound_to 7965
  140.5644  143.2188  151.7710 LP  0  0  0  0  0  0  0  0  0  0  0  0  # atno 17342 bound_to 10162
  139.4913  144.4305  151.9878 LP  0  0  0  0  0  0  0  0  0  0  0  0  # atno 17343 bound_to 10162
  157.6529  130.8899  149.9669 LP  0  0  0  0  0  0  0  0  0  0  0  0  # atno 17370 bound_to 10713
  156.1071  130.3652  150.0114 LP  0  0  0  0  0  0  0  0  0  0  0  0  # atno 17371 bound_to 10713
  141.1823  133.6549  156.5072 LP  0  0  0  0  0  0  0  0  0  0  0  0  # atno 17394 bound_to 11000
  140.4247  134.7155  157.4909 LP  0  0  0  0  0  0  0  0  0  0  0  0  # atno 17395 bound_to 11000

$$$$
