AV-unprocessed.smi:1980|AV-procd|sdf|8018|dock2
  -GOLD-   2272010213D 1   1.00000     0.00000
 Structure written by MMmdl.
 44 45  0  0  0  0  0  0  0  0  1 V2000
  147.7133  136.0725  155.3600 C   0  0  0  0  0  0  0  0  0  0  0  0
  149.0205  135.3422  155.6999 C   0  0  1  0  0  0  0  0  0  0  0  0
  149.1366  134.2354  154.8086 O   0  0  0  0  0  0  0  0  0  0  0  0
  148.0733  133.2889  154.8593 C   0  0  0  0  0  0  0  0  0  0  0  0
  148.2099  132.3083  153.6887 C   0  0  0  0  0  0  0  0  0  0  0  0
  148.4478  132.9916  152.5697 F   0  0  0  0  0  0  0  0  0  0  0  0
  149.2256  131.4723  153.9034 F   0  0  0  0  0  0  0  0  0  0  0  0
  147.0824  131.6146  153.5349 F   0  0  0  0  0  0  0  0  0  0  0  0
  150.2328  136.2755  155.5562 C   0  0  0  0  0  0  0  0  0  0  0  0
  151.0460  136.3826  156.4744 O   0  0  0  0  0  0  0  0  0  0  0  0
  150.3232  136.9649  154.4084 N   0  0  0  0  0  0  0  0  0  0  0  0
  151.3593  137.9463  154.1054 C   0  0  0  0  0  0  0  0  0  0  0  0
  151.5270  139.0105  155.1796 C   0  0  0  0  0  0  0  0  0  0  0  0
  150.6465  140.1071  155.2816 C   0  0  0  0  0  0  0  0  0  0  0  0
  150.8552  141.0595  156.2970 C   0  0  0  0  0  0  0  0  0  0  0  0
  151.9463  140.8963  157.1836 C   0  0  0  0  0  0  0  0  0  0  0  0
  152.1759  141.8399  158.2085 N   0  0  0  0  0  0  0  0  0  0  0  0
  151.3471  143.0443  158.2296 C   0  0  0  0  0  0  0  0  0  0  0  0
  151.9218  144.0732  159.2177 C   0  0  0  0  0  0  0  0  0  0  0  0
  152.0577  143.4778  160.5039 O   0  0  0  0  0  0  0  0  0  0  0  0
  152.9570  142.3742  160.4831 C   0  0  0  0  0  0  0  0  0  0  0  0
  152.4242  141.2845  159.5367 C   0  0  0  0  0  0  0  0  0  0  0  0
  152.7911  139.8404  157.0804 N   0  0  0  0  0  0  0  0  0  0  0  0
  152.5862  138.9301  156.1055 C   0  0  0  0  0  0  0  0  0  0  0  0
  147.5639  136.9390  156.0052 H   0  0  0  0  0  0  0  0  0  0  0  0
  146.8563  135.4120  155.4934 H   0  0  0  0  0  0  0  0  0  0  0  0
  147.7034  136.4182  154.3255 H   0  0  0  0  0  0  0  0  0  0  0  0
  148.9533  134.9741  156.7255 H   0  0  0  0  0  0  0  0  0  0  0  0
  148.0891  132.7335  155.7976 H   0  0  0  0  0  0  0  0  0  0  0  0
  147.1130  133.8032  154.8001 H   0  0  0  0  0  0  0  0  0  0  0  0
  149.6139  136.8150  153.7056 H   0  0  0  0  0  0  0  0  0  0  0  0
  152.3094  137.4391  153.9278 H   0  0  0  0  0  0  0  0  0  0  0  0
  151.0960  138.4424  153.1712 H   0  0  0  0  0  0  0  0  0  0  0  0
  149.8192  140.2210  154.5966 H   0  0  0  0  0  0  0  0  0  0  0  0
  150.1722  141.8904  156.3917 H   0  0  0  0  0  0  0  0  0  0  0  0
  151.2992  143.4875  157.2341 H   0  0  0  0  0  0  0  0  0  0  0  0
  150.3295  142.7777  158.5189 H   0  0  0  0  0  0  0  0  0  0  0  0
  152.8877  144.4468  158.8733 H   0  0  0  0  0  0  0  0  0  0  0  0
  151.2567  144.9333  159.2929 H   0  0  0  0  0  0  0  0  0  0  0  0
  153.9495  142.7063  160.1738 H   0  0  0  0  0  0  0  0  0  0  0  0
  153.0553  141.9777  161.4937 H   0  0  0  0  0  0  0  0  0  0  0  0
  151.4909  140.8762  159.9263 H   0  0  0  0  0  0  0  0  0  0  0  0
  153.1398  140.4642  159.5045 H   0  0  0  0  0  0  0  0  0  0  0  0
  153.2894  138.1111  156.0677 H   0  0  0  0  0  0  0  0  0  0  0  0
  1  2  1  0  0  0  0
  1 25  1  0  0  0  0
  1 26  1  0  0  0  0
  1 27  1  0  0  0  0
  2  3  1  0  0  0  0
  2  9  1  0  0  0  0
  2 28  1  0  0  0  0
  3  4  1  0  0  0  0
  4  5  1  0  0  0  0
  4 29  1  0  0  0  0
  4 30  1  0  0  0  0
  5  6  1  0  0  0  0
  5  7  1  0  0  0  0
  5  8  1  0  0  0  0
  9 10  2  0  0  0  0
  9 11  1  0  0  0  0
 11 12  1  0  0  0  0
 11 31  1  0  0  0  0
 12 13  1  0  0  0  0
 12 32  1  0  0  0  0
 12 33  1  0  0  0  0
 13 24  1  0  0  0  0
 13 14  2  0  0  0  0
 14 15  1  0  0  0  0
 14 34  1  0  0  0  0
 15 16  2  0  0  0  0
 15 35  1  0  0  0  0
 16 17  1  0  0  0  0
 16 23  1  0  0  0  0
 17 22  1  0  0  0  0
 17 18  1  0  0  0  0
 18 19  1  0  0  0  0
 18 36  1  0  0  0  0
 18 37  1  0  0  0  0
 19 20  1  0  0  0  0
 19 38  1  0  0  0  0
 19 39  1  0  0  0  0
 20 21  1  0  0  0  0
 21 22  1  0  0  0  0
 21 40  1  0  0  0  0
 21 41  1  0  0  0  0
 22 42  1  0  0  0  0
 22 43  1  0  0  0  0
 23 24  2  0  0  0  0
 24 44  1  0  0  0  0
M  END
> <s_m_source_file>
AV-unprocessed.smi

> <i_m_source_file_index>
1980

> <i_lp_mmshare_version>
43012

> <i_f3d_flags>
0

> <s_epik_input>
RkMoRikoRilbQ0gyXU9bQ0BASF0oW0NIM10pQyg9TylbTkhdW0NIMl1jMVtjSF1bY0hdYyhuW2NIXTEpTjJbQ0gyXVtDSDJdT1tDSDJdW0NIMl0y

> <s_epik_cmdline>
J2VwaWtfcHl0aG9uJywgJy1waCcsICc3LjAnLCAnLXRuJywgJzgnLCAnLW1hJywgJzIwMCcsICctbWV0YWxfYmluZGluZycsICctaW1hZScsICc8aW5maWxlLm1hZT4nLCAnLW9tYWUnLCAnPG91dGZpbGUubWFlPic=

> <r_lp_tautomer_probability>
1

> <r_epik_Ionization_Penalty>
0.00436425

> <r_epik_Ionization_Penalty_Charging>
0

> <r_epik_Ionization_Penalty_Neutral>
0.00436425

> <r_epik_State_Penalty>
0.00314317

> <r_epik_Charging_Adjusted_Penalty>
0.00314317

> <i_epik_Tot_Q>
0

> <i_epik_Tot_abs_Q>
0

> <r_epik_Metal_State_Penalty>
-0

> <b_epik_Metal_Only>
0

> <s_lp_Force_Field>
OPLS_2005

> <r_lp_Energy>
18.0454

> <b_lp_Chiralities_Consistent>
1

> <s_lp_Variant>
AV-unprocessed.smi:1980-2

> <Gold.Version>
5.8.1

> <Gold.Id.Protein>
6NUR|6NUR_protein|mol2

> <Gold.PLP.Fitness>
46.8724

> <Gold.PLP.PLP>
-42.1514

> <Gold.PLP.part.hbond>
-2.4074

> <Gold.PLP.part.metal>
0.0000

> <Gold.PLP.part.buried>
-2.4469

> <Gold.PLP.part.nonpolar>
-35.7991

> <Gold.PLP.part.repulsive>
0.2342

> <Gold.PLP.ligand.clash>
0.0000

> <Gold.PLP.ligand.torsion>
0.7921

> <Gold.PLP.Chemscore.Hbond>
1.9440

> <Gold.PLP.Chemscore.CHOScore>
0.0000

> <Gold.PLP.Chemscore.Metal>
0.0000

> <Gold.Chemscore.Hbonds>
donor molecule, donor type, donor heavy atom, donor atom, acceptor molecule, acceptor atom, score
      L1  H    11    31       P1  7948  1.00
      P1  H  7997  8008       L1    23  0.91

> <Gold.PLP.Chemscore.Internal.Correction>
0.4733

> <Gold.Rescore>
     Score         DG    S(hbond)    S(metal)    S(lipo)     H(rot)  DE(clash)    DE(int)     intcor
     13.64     -16.80       2.05        0.00      92.66       2.49       0.51       2.65       ----

> <Gold.Chemscore.Fitness>
13.6413

> <Gold.Chemscore.DG>
-16.7994

> <Gold.Chemscore.ZeroCoef>
-5.4800

> <Gold.Chemscore.Hbond>
2.0517

> <Gold.Chemscore.Metal>
0.0000

> <Gold.Chemscore.Lipo>
92.6584

> <Gold.Chemscore.Internal_Hbond>
0.0000

> <Gold.Chemscore.DEClash>
0.5092

> <Gold.Chemscore.DEInternal>
2.6490

> <Gold.Chemscore.Rot>
2.4899

> <Gold.Chemscore.Internal.Correction>
   9.000000E+99

> <Gold.Chemscore.Hbonds>
donor molecule, donor type, donor heavy atom, donor atom, acceptor molecule, acceptor atom, score
      L1  H    11    31       P1  7948  0.68
      P1  H  7997  8008       L1    23  0.20

> <Gold.Chemscore.Hbond.Weighted>
-6.8526

> <Gold.Chemscore.Metal.Weighted>
-0.0000

> <Gold.Chemscore.Lipo.Weighted>
-10.8410

> <Gold.Chemscore.Internal_Hbond.Weighted>
0.0000

> <Gold.Chemscore.DEClash.Weighted>
0.5092

> <Gold.Chemscore.DEInternal.Weighted>
2.6490

> <Gold.Chemscore.Rot.Weighted>
6.3741

> <Gold.Chemscore.Internal.Correction.Weighted>
   9.000000E+99

> <Gold.Protein.RotatedTorsions>
[ 6907 6896 6895 6894 ] final -111.93 input  -60.11 | X-H torsion
[ 7974 7965 7964 7962 ] final  119.54 input  175.53 | X-H torsion
[ 8008 7997 7996 7995 ] final  -78.97 input   59.86 | X-H torsion
[ 10167 10162 10161 10158 ] final -163.82 input  -65.29 | X-H torsion
[ 10718 10713 10712 10709 ] final  -69.01 input   66.30 | X-H torsion
[ 10763 10752 10751 10750 ] final  -13.22 input  -60.55 | X-H torsion
[ 11005 11000 10999 10996 ] final  135.11 input  -57.11 | X-H torsion

> <Gold.Protein.ActiveResidues>
 VAL166  LYS551  ARG553  GLY616  TRP617  ASP618  TYR619  PRO620  LYS621  CYS622 
 ASP623  PHE694  ASN695  SER759  ASP760  ASP761  ALA762  ILE779  LEU786  VAL792 
 PHE793  MET794  SER795  GLU796  ALA797  LYS798  CYS799  TRP800  GLU811  SER814 

> <Gold.Protein.RotatedAtoms>
  150.7723  133.9164  159.3384 H   0  0  0  0  0  0  0  0  0  0  0  0  # atno 6907 bound_to 6896
  151.7047  135.0922  160.0266 H   0  0  0  0  0  0  0  0  0  0  0  0  # atno 6908 bound_to 6896
  152.3746  133.6426  159.6149 H   0  0  0  0  0  0  0  0  0  0  0  0  # atno 6909 bound_to 6896
  145.1419  139.3263  143.4611 H   0  0  0  0  0  0  0  0  0  0  0  0  # atno 7974 bound_to 7965
  154.5740  140.0686  156.9006 H   0  0  0  0  0  0  0  0  0  0  0  0  # atno 8008 bound_to 7997
  155.2583  140.3356  155.4257 H   0  0  0  0  0  0  0  0  0  0  0  0  # atno 8009 bound_to 7997
  156.2140  140.1770  156.7617 H   0  0  0  0  0  0  0  0  0  0  0  0  # atno 8010 bound_to 7997
  139.6293  144.0470  152.2002 H   0  0  0  0  0  0  0  0  0  0  0  0  # atno 10167 bound_to 10162
  156.0476  130.4305  150.2085 H   0  0  0  0  0  0  0  0  0  0  0  0  # atno 10718 bound_to 10713
  153.5100  135.7016  153.5786 H   0  0  0  0  0  0  0  0  0  0  0  0  # atno 10763 bound_to 10752
  153.3880  135.3903  155.1903 H   0  0  0  0  0  0  0  0  0  0  0  0  # atno 10764 bound_to 10752
  154.8704  135.3851  154.4579 H   0  0  0  0  0  0  0  0  0  0  0  0  # atno 10765 bound_to 10752
  139.9958  134.9498  156.9961 H   0  0  0  0  0  0  0  0  0  0  0  0  # atno 11005 bound_to 11000
  146.3504  140.1460  142.8593 LP  0  0  0  0  0  0  0  0  0  0  0  0  # atno 17320 bound_to 7965
  145.0523  140.9027  143.4988 LP  0  0  0  0  0  0  0  0  0  0  0  0  # atno 17321 bound_to 7965
  140.0131  144.6209  150.7630 LP  0  0  0  0  0  0  0  0  0  0  0  0  # atno 17342 bound_to 10162
  140.7430  143.2840  151.3517 LP  0  0  0  0  0  0  0  0  0  0  0  0  # atno 17343 bound_to 10162
  157.0173  130.9969  151.3349 LP  0  0  0  0  0  0  0  0  0  0  0  0  # atno 17370 bound_to 10713
  157.5369  130.8094  149.7982 LP  0  0  0  0  0  0  0  0  0  0  0  0  # atno 17371 bound_to 10713
  140.4821  134.1279  155.7218 LP  0  0  0  0  0  0  0  0  0  0  0  0  # atno 17394 bound_to 11000
  141.1603  133.8805  157.1866 LP  0  0  0  0  0  0  0  0  0  0  0  0  # atno 17395 bound_to 11000

$$$$
