AV-unprocessed.smi:431|AV-procd|sdf|2548|dock2
  -GOLD-   2262022513D 1   1.00000     0.00000
 Structure written by MMmdl.
 43 44  0  0  0  0  0  0  0  0  1 V2000
  154.6430  134.0875  165.0872 C   0  0  0  0  0  0  0  0  0  0  0  0
  154.5540  134.9557  163.8224 C   0  0  0  0  0  0  0  0  0  0  0  0
  155.4000  134.4390  162.6376 C   0  0  1  0  0  0  0  0  0  0  0  0
  154.9658  133.0213  162.2279 C   0  0  0  0  0  0  0  0  0  0  0  0
  155.3268  135.3788  161.4246 C   0  0  0  0  0  0  0  0  0  0  0  0
  154.2569  135.5542  160.8407 O   0  0  0  0  0  0  0  0  0  0  0  0
  156.4743  135.9686  161.0548 N   0  0  0  0  0  0  0  0  0  0  0  0
  156.6428  136.8623  159.9132 C   0  0  0  0  0  0  0  0  0  0  0  0
  155.8774  138.1659  160.0676 C   0  0  0  0  0  0  0  0  0  0  0  0
  156.1452  139.0370  161.1414 C   0  0  0  0  0  0  0  0  0  0  0  0
  155.4192  140.2389  161.2446 C   0  0  0  0  0  0  0  0  0  0  0  0
  154.4348  140.5383  160.2721 C   0  0  0  0  0  0  0  0  0  0  0  0
  153.6957  141.7391  160.3517 N   0  0  0  0  0  0  0  0  0  0  0  0
  152.8157  142.0795  159.2347 C   0  0  0  0  0  0  0  0  0  0  0  0
  152.3365  143.5360  159.3536 C   0  0  0  0  0  0  0  0  0  0  0  0
  151.7186  143.7357  160.6204 O   0  0  0  0  0  0  0  0  0  0  0  0
  152.6259  143.5069  161.6933 C   0  0  0  0  0  0  0  0  0  0  0  0
  153.1194  142.0502  161.6580 C   0  0  0  0  0  0  0  0  0  0  0  0
  154.1807  139.6954  159.2404 N   0  0  0  0  0  0  0  0  0  0  0  0
  154.8795  138.5448  159.1459 C   0  0  0  0  0  0  0  0  0  0  0  0
  153.9801  134.4693  165.8638 H   0  0  0  0  0  0  0  0  0  0  0  0
  155.6528  134.0732  165.4976 H   0  0  0  0  0  0  0  0  0  0  0  0
  154.3499  133.0585  164.8784 H   0  0  0  0  0  0  0  0  0  0  0  0
  153.5087  135.0036  163.5154 H   0  0  0  0  0  0  0  0  0  0  0  0
  154.8376  135.9804  164.0673 H   0  0  0  0  0  0  0  0  0  0  0  0
  156.4392  134.3799  162.9660 H   0  0  0  0  0  0  0  0  0  0  0  0
  155.5565  132.6514  161.3886 H   0  0  0  0  0  0  0  0  0  0  0  0
  153.9155  132.9920  161.9346 H   0  0  0  0  0  0  0  0  0  0  0  0
  155.0974  132.3193  163.0517 H   0  0  0  0  0  0  0  0  0  0  0  0
  157.3019  135.7671  161.5970 H   0  0  0  0  0  0  0  0  0  0  0  0
  157.6964  137.0877  159.7399 H   0  0  0  0  0  0  0  0  0  0  0  0
  156.2962  136.3369  159.0228 H   0  0  0  0  0  0  0  0  0  0  0  0
  156.9017  138.7962  161.8738 H   0  0  0  0  0  0  0  0  0  0  0  0
  155.6376  140.9191  162.0539 H   0  0  0  0  0  0  0  0  0  0  0  0
  153.3386  141.9496  158.2862 H   0  0  0  0  0  0  0  0  0  0  0  0
  151.9597  141.4034  159.2315 H   0  0  0  0  0  0  0  0  0  0  0  0
  153.1690  144.2306  159.2289 H   0  0  0  0  0  0  0  0  0  0  0  0
  151.6153  143.7595  158.5674 H   0  0  0  0  0  0  0  0  0  0  0  0
  153.4643  144.2026  161.6299 H   0  0  0  0  0  0  0  0  0  0  0  0
  152.1173  143.7077  162.6362 H   0  0  0  0  0  0  0  0  0  0  0  0
  152.2871  141.3705  161.8450 H   0  0  0  0  0  0  0  0  0  0  0  0
  153.8360  141.9021  162.4642 H   0  0  0  0  0  0  0  0  0  0  0  0
  154.6320  137.9110  158.3076 H   0  0  0  0  0  0  0  0  0  0  0  0
  1  2  1  0  0  0  0
  1 21  1  0  0  0  0
  1 22  1  0  0  0  0
  1 23  1  0  0  0  0
  2  3  1  0  0  0  0
  2 24  1  0  0  0  0
  2 25  1  0  0  0  0
  3  4  1  0  0  0  0
  3  5  1  0  0  0  0
  3 26  1  0  0  0  0
  4 27  1  0  0  0  0
  4 28  1  0  0  0  0
  4 29  1  0  0  0  0
  5  6  2  0  0  0  0
  5  7  1  0  0  0  0
  7  8  1  0  0  0  0
  7 30  1  0  0  0  0
  8  9  1  0  0  0  0
  8 31  1  0  0  0  0
  8 32  1  0  0  0  0
  9 20  1  0  0  0  0
  9 10  2  0  0  0  0
 10 11  1  0  0  0  0
 10 33  1  0  0  0  0
 11 12  2  0  0  0  0
 11 34  1  0  0  0  0
 12 13  1  0  0  0  0
 12 19  1  0  0  0  0
 13 18  1  0  0  0  0
 13 14  1  0  0  0  0
 14 15  1  0  0  0  0
 14 35  1  0  0  0  0
 14 36  1  0  0  0  0
 15 16  1  0  0  0  0
 15 37  1  0  0  0  0
 15 38  1  0  0  0  0
 16 17  1  0  0  0  0
 17 18  1  0  0  0  0
 17 39  1  0  0  0  0
 17 40  1  0  0  0  0
 18 41  1  0  0  0  0
 18 42  1  0  0  0  0
 19 20  2  0  0  0  0
 20 43  1  0  0  0  0
M  END
> <s_m_source_file>
AV-unprocessed.smi

> <i_m_source_file_index>
431

> <i_lp_mmshare_version>
43012

> <i_f3d_flags>
0

> <s_epik_input>
W0NIM11bQ0gyXVtDQEhdKFtDSDNdKUMoPU8pW05IXVtDSDJdYzFbY0hdW2NIXWMobltjSF0xKU4yW0NIMl1bQ0gyXU9bQ0gyXVtDSDJdMg==

> <s_epik_cmdline>
J2VwaWtfcHl0aG9uJywgJy1waCcsICc3LjAnLCAnLXRuJywgJzgnLCAnLW1hJywgJzIwMCcsICctbWV0YWxfYmluZGluZycsICctaW1hZScsICc8aW5maWxlLm1hZT4nLCAnLW9tYWUnLCAnPG91dGZpbGUubWFlPic=

> <r_lp_tautomer_probability>
1

> <r_epik_Ionization_Penalty>
0.00513882

> <r_epik_Ionization_Penalty_Charging>
0

> <r_epik_Ionization_Penalty_Neutral>
0.00513882

> <r_epik_State_Penalty>
0.00374265

> <r_epik_Charging_Adjusted_Penalty>
0.00374265

> <i_epik_Tot_Q>
0

> <i_epik_Tot_abs_Q>
0

> <r_epik_Metal_State_Penalty>
-0

> <b_epik_Metal_Only>
0

> <s_lp_Force_Field>
OPLS_2005

> <r_lp_Energy>
17.352

> <b_lp_Chiralities_Consistent>
1

> <s_lp_Variant>
AV-unprocessed.smi:431-2

> <Gold.Version>
5.8.1

> <Gold.Id.Protein>
6NUR|6NUR_protein|mol2

> <Gold.PLP.Fitness>
36.1999

> <Gold.PLP.PLP>
-32.5755

> <Gold.PLP.part.hbond>
-2.0000

> <Gold.PLP.part.metal>
0.0000

> <Gold.PLP.part.buried>
-4.2082

> <Gold.PLP.part.nonpolar>
-26.8277

> <Gold.PLP.part.repulsive>
0.0936

> <Gold.PLP.ligand.clash>
0.0000

> <Gold.PLP.ligand.torsion>
0.2164

> <Gold.PLP.Chemscore.Hbond>
1.2216

> <Gold.PLP.Chemscore.CHOScore>
0.0000

> <Gold.PLP.Chemscore.Metal>
0.0000

> <Gold.Chemscore.Hbonds>
donor molecule, donor type, donor heavy atom, donor atom, acceptor molecule, acceptor atom, score
      P1  H  6896  6908       L1     6  0.67
      P1  H  7997  8010       L1    19  0.20

> <Gold.PLP.Chemscore.Internal.Correction>
0.3922

> <Gold.Rescore>
     Score         DG    S(hbond)    S(metal)    S(lipo)     H(rot)  DE(clash)    DE(int)     intcor
     15.54     -15.80       1.02        0.00      94.87       1.64       0.01       0.25       ----

> <Gold.Chemscore.Fitness>
15.5358

> <Gold.Chemscore.DG>
-15.8001

> <Gold.Chemscore.ZeroCoef>
-5.4800

> <Gold.Chemscore.Hbond>
1.0242

> <Gold.Chemscore.Metal>
0.0000

> <Gold.Chemscore.Lipo>
94.8664

> <Gold.Chemscore.Internal_Hbond>
0.0000

> <Gold.Chemscore.DEClash>
0.0098

> <Gold.Chemscore.DEInternal>
0.2546

> <Gold.Chemscore.Rot>
1.6407

> <Gold.Chemscore.Internal.Correction>
   9.000000E+99

> <Gold.Chemscore.Hbonds>
donor molecule, donor type, donor heavy atom, donor atom, acceptor molecule, acceptor atom, score
      P1  H  6896  6908       L1     6  0.66

> <Gold.Chemscore.Hbond.Weighted>
-3.4209

> <Gold.Chemscore.Metal.Weighted>
-0.0000

> <Gold.Chemscore.Lipo.Weighted>
-11.0994

> <Gold.Chemscore.Internal_Hbond.Weighted>
0.0000

> <Gold.Chemscore.DEClash.Weighted>
0.0098

> <Gold.Chemscore.DEInternal.Weighted>
0.2546

> <Gold.Chemscore.Rot.Weighted>
4.2001

> <Gold.Chemscore.Internal.Correction.Weighted>
   9.000000E+99

> <Gold.Protein.RotatedTorsions>
[ 6907 6896 6895 6894 ] final  -58.51 input  -60.11 | X-H torsion
[ 7974 7965 7964 7962 ] final  -29.18 input  175.53 | X-H torsion
[ 8008 7997 7996 7995 ] final   23.05 input   59.86 | X-H torsion
[ 10167 10162 10161 10158 ] final   29.66 input  -65.29 | X-H torsion
[ 10718 10713 10712 10709 ] final -171.71 input   66.30 | X-H torsion
[ 10763 10752 10751 10750 ] final   84.57 input  -60.55 | X-H torsion
[ 11005 11000 10999 10996 ] final   72.32 input  -57.11 | X-H torsion

> <Gold.Protein.ActiveResidues>
 VAL166  LYS551  ARG553  GLY616  TRP617  ASP618  TYR619  PRO620  LYS621  CYS622 
 ASP623  PHE694  ASN695  SER759  ASP760  ASP761  ALA762  ILE779  LEU786  VAL792 
 PHE793  MET794  SER795  GLU796  ALA797  LYS798  CYS799  TRP800  GLU811  SER814 

> <Gold.Protein.RotatedAtoms>
  150.8002  134.7090  159.6592 H   0  0  0  0  0  0  0  0  0  0  0  0  # atno 6907 bound_to 6896
  152.4118  134.6108  160.0035 H   0  0  0  0  0  0  0  0  0  0  0  0  # atno 6908 bound_to 6896
  151.6349  133.3292  159.3153 H   0  0  0  0  0  0  0  0  0  0  0  0  # atno 6909 bound_to 6896
  146.1235  140.5379  142.8725 H   0  0  0  0  0  0  0  0  0  0  0  0  # atno 7974 bound_to 7965
  154.9750  140.3095  155.4971 H   0  0  0  0  0  0  0  0  0  0  0  0  # atno 8008 bound_to 7997
  156.2961  140.2277  156.4785 H   0  0  0  0  0  0  0  0  0  0  0  0  # atno 8009 bound_to 7997
  154.7841  140.0444  157.1139 H   0  0  0  0  0  0  0  0  0  0  0  0  # atno 8010 bound_to 7997
  140.4746  144.0710  150.6247 H   0  0  0  0  0  0  0  0  0  0  0  0  # atno 10167 bound_to 10162
  156.7448  130.9356  151.3112 H   0  0  0  0  0  0  0  0  0  0  0  0  # atno 10718 bound_to 10713
  153.1394  135.4649  154.9472 H   0  0  0  0  0  0  0  0  0  0  0  0  # atno 10763 bound_to 10752
  154.7734  135.3166  154.8145 H   0  0  0  0  0  0  0  0  0  0  0  0  # atno 10764 bound_to 10752
  153.8670  135.6907  153.4831 H   0  0  0  0  0  0  0  0  0  0  0  0  # atno 10765 bound_to 10752
  139.9497  134.7249  156.0893 H   0  0  0  0  0  0  0  0  0  0  0  0  # atno 11005 bound_to 11000
  144.7620  140.5443  143.6729 LP  0  0  0  0  0  0  0  0  0  0  0  0  # atno 17320 bound_to 7965
  145.5415  139.1475  143.3444 LP  0  0  0  0  0  0  0  0  0  0  0  0  # atno 17321 bound_to 7965
  140.3935  143.2740  152.0033 LP  0  0  0  0  0  0  0  0  0  0  0  0  # atno 17342 bound_to 10162
  139.4823  144.6058  151.7524 LP  0  0  0  0  0  0  0  0  0  0  0  0  # atno 17343 bound_to 10162
  157.6803  130.9133  150.0250 LP  0  0  0  0  0  0  0  0  0  0  0  0  # atno 17370 bound_to 10713
  156.1440  130.3642  149.9539 LP  0  0  0  0  0  0  0  0  0  0  0  0  # atno 17371 bound_to 10713
  141.1156  133.6629  156.3087 LP  0  0  0  0  0  0  0  0  0  0  0  0  # atno 17394 bound_to 11000
  140.5749  134.5803  157.5466 LP  0  0  0  0  0  0  0  0  0  0  0  0  # atno 17395 bound_to 11000

$$$$
