AV-unprocessed.smi:3172|AV-procd|sdf|12113|dock2
  -GOLD-   2272017553D 1   1.00000     0.00000
 Structure written by MMmdl.
 44 45  0  0  0  0  0  0  0  0  3 V2000
  146.3172  138.4923  152.5535 C   0  0  0  0  0  0  0  0  0  0  0  0
  147.4654  139.1988  153.1927 C   0  0  0  0  0  0  0  0  0  0  0  0
  148.6632  138.5780  153.4282 N   0  3  0  0  0  0  0  0  0  0  0  0
  149.5215  139.4191  154.0063 C   0  0  0  0  0  0  0  0  0  0  0  0
  148.8810  140.5844  154.1568 N   0  0  0  0  0  0  0  0  0  0  0  0
  149.5360  141.7507  154.7713 C   0  0  0  0  0  0  0  0  0  0  0  0
  149.9385  141.5068  156.2395 C   0  0  2  0  0  0  0  0  0  0  0  0
  148.7047  141.2314  157.1115 C   0  0  0  0  0  0  0  0  0  0  0  0
  150.6911  142.6681  156.7694 N   0  3  0  0  0  0  0  0  0  0  0  0
  151.1356  142.5575  158.1767 C   0  0  0  0  0  0  0  0  0  0  0  0
  151.8862  143.8381  158.5884 C   0  0  0  0  0  0  0  0  0  0  0  0
  152.4004  143.7510  160.0346 C   0  0  0  0  0  0  0  0  0  0  0  0
  153.2909  142.5152  160.2345 C   0  0  0  0  0  0  0  0  0  0  0  0
  152.5556  141.2306  159.8228 C   0  0  0  0  0  0  0  0  0  0  0  0
  152.0395  141.3210  158.3777 C   0  0  0  0  0  0  0  0  0  0  0  0
  147.6014  140.4888  153.6524 C   0  0  0  0  0  0  0  0  0  0  0  0
  146.6230  141.6194  153.6540 C   0  0  0  0  0  0  0  0  0  0  0  0
  145.7538  139.1777  151.9201 H   0  0  0  0  0  0  0  0  0  0  0  0
  145.6487  138.0958  153.3178 H   0  0  0  0  0  0  0  0  0  0  0  0
  146.6700  137.6659  151.9357 H   0  0  0  0  0  0  0  0  0  0  0  0
  150.5332  139.1961  154.2955 H   0  0  0  0  0  0  0  0  0  0  0  0
  150.4084  142.0177  154.1722 H   0  0  0  0  0  0  0  0  0  0  0  0
  148.8440  142.5902  154.6974 H   0  0  0  0  0  0  0  0  0  0  0  0
  150.5709  140.6207  156.2723 H   0  0  0  0  0  0  0  0  0  0  0  0
  148.1491  140.3690  156.7417 H   0  0  0  0  0  0  0  0  0  0  0  0
  148.0250  142.0842  157.1198 H   0  0  0  0  0  0  0  0  0  0  0  0
  148.9846  141.0194  158.1438 H   0  0  0  0  0  0  0  0  0  0  0  0
  151.5161  142.8085  156.2043 H   0  0  0  0  0  0  0  0  0  0  0  0
  150.2548  142.4656  158.8142 H   0  0  0  0  0  0  0  0  0  0  0  0
  152.7282  144.0083  157.9156 H   0  0  0  0  0  0  0  0  0  0  0  0
  151.2309  144.7042  158.4874 H   0  0  0  0  0  0  0  0  0  0  0  0
  152.9571  144.6541  160.2871 H   0  0  0  0  0  0  0  0  0  0  0  0
  151.5547  143.7076  160.7222 H   0  0  0  0  0  0  0  0  0  0  0  0
  154.2023  142.6211  159.6443 H   0  0  0  0  0  0  0  0  0  0  0  0
  153.6045  142.4465  161.2768 H   0  0  0  0  0  0  0  0  0  0  0  0
  153.2206  140.3729  159.9277 H   0  0  0  0  0  0  0  0  0  0  0  0
  151.7180  141.0565  160.4996 H   0  0  0  0  0  0  0  0  0  0  0  0
  151.5025  140.4041  158.1363 H   0  0  0  0  0  0  0  0  0  0  0  0
  152.8876  141.3672  157.6929 H   0  0  0  0  0  0  0  0  0  0  0  0
  145.8718  141.4711  152.8783 H   0  0  0  0  0  0  0  0  0  0  0  0
  147.1208  142.5700  153.4625 H   0  0  0  0  0  0  0  0  0  0  0  0
  146.1137  141.6760  154.6157 H   0  0  0  0  0  0  0  0  0  0  0  0
  150.1013  143.4834  156.6796 H   0  0  0  0  0  0  0  0  0  0  0  0
  148.8726  137.6162  153.1902 H   0  0  0  0  0  0  0  0  0  0  0  0
  1  2  1  0  0  0  0
  1 18  1  0  0  0  0
  1 19  1  0  0  0  0
  1 20  1  0  0  0  0
  2 16  2  0  0  0  0
  2  3  1  0  0  0  0
  3  4  2  0  0  0  0
  3 44  1  0  0  0  0
  4  5  1  0  0  0  0
  4 21  1  0  0  0  0
  5  6  1  0  0  0  0
  5 16  1  0  0  0  0
  6  7  1  0  0  0  0
  6 22  1  0  0  0  0
  6 23  1  0  0  0  0
  7  8  1  0  0  0  0
  7  9  1  0  0  0  0
  7 24  1  0  0  0  0
  8 25  1  0  0  0  0
  8 26  1  0  0  0  0
  8 27  1  0  0  0  0
  9 10  1  0  0  0  0
  9 28  1  0  0  0  0
  9 43  1  0  0  0  0
 10 15  1  0  0  0  0
 10 11  1  0  0  0  0
 10 29  1  0  0  0  0
 11 12  1  0  0  0  0
 11 30  1  0  0  0  0
 11 31  1  0  0  0  0
 12 13  1  0  0  0  0
 12 32  1  0  0  0  0
 12 33  1  0  0  0  0
 13 14  1  0  0  0  0
 13 34  1  0  0  0  0
 13 35  1  0  0  0  0
 14 15  1  0  0  0  0
 14 36  1  0  0  0  0
 14 37  1  0  0  0  0
 15 38  1  0  0  0  0
 15 39  1  0  0  0  0
 16 17  1  0  0  0  0
 17 40  1  0  0  0  0
 17 41  1  0  0  0  0
 17 42  1  0  0  0  0
M  CHG  1   3   1
M  CHG  1   9   1
M  END
> <s_m_source_file>
AV-unprocessed.smi

> <i_m_source_file_index>
3172

> <i_lp_mmshare_version>
43012

> <i_f3d_flags>
0

> <s_epik_input>
W0NIM11jMW5bY0hdbihjMVtDSDNdKVtDSDJdW0NASF0oW0NIM10pW05IXVtDSF0yW0NIMl1bQ0gyXVtDSDJdW0NIMl1bQ0gyXTI=

> <s_epik_cmdline>
J2VwaWtfcHl0aG9uJywgJy1waCcsICc3LjAnLCAnLXRuJywgJzgnLCAnLW1hJywgJzIwMCcsICctbWV0YWxfYmluZGluZycsICctaW1hZScsICc8aW5maWxlLm1hZT4nLCAnLW9tYWUnLCAnPG91dGZpbGUubWFlPic=

> <r_lp_tautomer_probability>
1

> <r_epik_Ionization_Penalty>
0.509043

> <r_epik_Ionization_Penalty_Charging>
0.00159961

> <r_epik_Ionization_Penalty_Neutral>
0.507444

> <r_epik_State_Penalty>
0.272352

> <r_epik_Charging_Adjusted_Penalty>
0.273952

> <i_epik_Tot_Q>
2

> <i_epik_Tot_abs_Q>
2

> <r_epik_Metal_State_Penalty>
3.76994

> <b_epik_Metal_Only>
0

> <s_lp_Force_Field>
OPLS_2005

> <r_lp_Energy>
25.5447

> <b_lp_Chiralities_Consistent>
1

> <s_lp_Variant>
AV-unprocessed.smi:3172-1

> <Gold.Version>
5.8.1

> <Gold.Id.Protein>
6NUR|6NUR_protein|mol2

> <Gold.PLP.Fitness>
50.8278

> <Gold.PLP.PLP>
-39.1812

> <Gold.PLP.part.hbond>
-3.0000

> <Gold.PLP.part.metal>
0.0000

> <Gold.PLP.part.buried>
0.0421

> <Gold.PLP.part.nonpolar>
-36.7548

> <Gold.PLP.part.repulsive>
0.0935

> <Gold.PLP.ligand.clash>
0.0000

> <Gold.PLP.ligand.torsion>
0.0157

> <Gold.PLP.Chemscore.Hbond>
3.8880

> <Gold.PLP.Chemscore.CHOScore>
0.0000

> <Gold.PLP.Chemscore.Metal>
0.0000

> <Gold.Chemscore.Hbonds>
donor molecule, donor type, donor heavy atom, donor atom, acceptor molecule, acceptor atom, score
      L1  H     3    44       P1  7948  1.95
      L1  H     9    43       P1  8028  2.00

> <Gold.PLP.Chemscore.Internal.Correction>
0.0141

> <Gold.Rescore>
     Score         DG    S(hbond)    S(metal)    S(lipo)     H(rot)  DE(clash)    DE(int)     intcor
     19.83     -19.90       1.77        0.00     106.75       1.56       0.05       0.02       ----

> <Gold.Chemscore.Fitness>
19.8316

> <Gold.Chemscore.DG>
-19.9044

> <Gold.Chemscore.ZeroCoef>
-5.4800

> <Gold.Chemscore.Hbond>
1.7723

> <Gold.Chemscore.Metal>
0.0000

> <Gold.Chemscore.Lipo>
106.7533

> <Gold.Chemscore.Internal_Hbond>
0.0000

> <Gold.Chemscore.DEClash>
0.0544

> <Gold.Chemscore.DEInternal>
0.0185

> <Gold.Chemscore.Rot>
1.5567

> <Gold.Chemscore.Internal.Correction>
   9.000000E+99

> <Gold.Chemscore.Hbonds>
donor molecule, donor type, donor heavy atom, donor atom, acceptor molecule, acceptor atom, score
      L1  H     3    44       P1  7948  0.92
      L1  H     9    43       P1  8028  0.94

> <Gold.Chemscore.Hbond.Weighted>
-5.9195

> <Gold.Chemscore.Metal.Weighted>
-0.0000

> <Gold.Chemscore.Lipo.Weighted>
-12.4901

> <Gold.Chemscore.Internal_Hbond.Weighted>
0.0000

> <Gold.Chemscore.DEClash.Weighted>
0.0544

> <Gold.Chemscore.DEInternal.Weighted>
0.0185

> <Gold.Chemscore.Rot.Weighted>
3.9852

> <Gold.Chemscore.Internal.Correction.Weighted>
   9.000000E+99

> <Gold.Protein.RotatedTorsions>
[ 6907 6896 6895 6894 ] final -150.15 input  -60.11 | X-H torsion
[ 7974 7965 7964 7962 ] final  117.51 input  175.53 | X-H torsion
[ 8008 7997 7996 7995 ] final -143.59 input   59.86 | X-H torsion
[ 10167 10162 10161 10158 ] final  -41.31 input  -65.29 | X-H torsion
[ 10718 10713 10712 10709 ] final  167.78 input   66.30 | X-H torsion
[ 10763 10752 10751 10750 ] final  -60.61 input  -60.55 | X-H torsion
[ 11005 11000 10999 10996 ] final -145.00 input  -57.11 | X-H torsion

> <Gold.Protein.ActiveResidues>
 VAL166  LYS551  ARG553  GLY616  TRP617  ASP618  TYR619  PRO620  LYS621  CYS622 
 ASP623  PHE694  ASN695  SER759  ASP760  ASP761  ALA762  ILE779  LEU786  VAL792 
 PHE793  MET794  SER795  GLU796  ALA797  LYS798  CYS799  TRP800  GLU811  SER814 

> <Gold.Protein.RotatedAtoms>
  151.1944  133.4648  159.2595 H   0  0  0  0  0  0  0  0  0  0  0  0  # atno 6907 bound_to 6896
  151.1132  135.0038  159.8513 H   0  0  0  0  0  0  0  0  0  0  0  0  # atno 6908 bound_to 6896
  152.5451  134.1861  159.8708 H   0  0  0  0  0  0  0  0  0  0  0  0  # atno 6909 bound_to 6896
  145.1665  139.3126  143.4490 H   0  0  0  0  0  0  0  0  0  0  0  0  # atno 7974 bound_to 7965
  155.5131  140.0585  157.2920 H   0  0  0  0  0  0  0  0  0  0  0  0  # atno 8008 bound_to 7997
  154.4545  140.1965  156.0369 H   0  0  0  0  0  0  0  0  0  0  0  0  # atno 8009 bound_to 7997
  156.0771  140.3252  155.7651 H   0  0  0  0  0  0  0  0  0  0  0  0  # atno 8010 bound_to 7997
  140.7007  143.3102  151.3048 H   0  0  0  0  0  0  0  0  0  0  0  0  # atno 10167 bound_to 10162
  157.0465  131.0301  151.2695 H   0  0  0  0  0  0  0  0  0  0  0  0  # atno 10718 bound_to 10713
  154.2718  135.6289  153.5313 H   0  0  0  0  0  0  0  0  0  0  0  0  # atno 10763 bound_to 10752
  152.9879  135.5612  154.5592 H   0  0  0  0  0  0  0  0  0  0  0  0  # atno 10764 bound_to 10752
  154.5163  135.2880  155.1275 H   0  0  0  0  0  0  0  0  0  0  0  0  # atno 10765 bound_to 10752
  140.7967  134.2905  157.4994 H   0  0  0  0  0  0  0  0  0  0  0  0  # atno 11005 bound_to 11000
  146.3475  140.1794  142.8589 LP  0  0  0  0  0  0  0  0  0  0  0  0  # atno 17320 bound_to 7965
  145.0277  140.8846  143.5128 LP  0  0  0  0  0  0  0  0  0  0  0  0  # atno 17321 bound_to 7965
  139.6522  144.0341  152.2634 LP  0  0  0  0  0  0  0  0  0  0  0  0  # atno 17342 bound_to 10162
  139.9881  144.6381  150.7839 LP  0  0  0  0  0  0  0  0  0  0  0  0  # atno 17343 bound_to 10162
  157.5063  130.7911  149.7658 LP  0  0  0  0  0  0  0  0  0  0  0  0  # atno 17370 bound_to 10713
  156.0021  130.3874  150.2566 LP  0  0  0  0  0  0  0  0  0  0  0  0  # atno 17371 bound_to 10713
  139.8725  134.9406  156.3773 LP  0  0  0  0  0  0  0  0  0  0  0  0  # atno 17394 bound_to 11000
  140.9336  133.7562  156.0056 LP  0  0  0  0  0  0  0  0  0  0  0  0  # atno 17395 bound_to 11000

$$$$
