AV-unprocessed.smi:2047|AV-procd|sdf|8318|dock6
  -GOLD-   2272010583D 1   1.00000     0.00000
 Structure written by MMmdl.
 43 45  0  0  0  0  0  0  0  0  2 V2000
  149.9566  134.4144  155.9228 O   0  0  0  0  0  0  0  0  0  0  0  0
  149.4974  134.9047  154.8917 C   0  0  0  0  0  0  0  0  0  0  0  0
  148.9022  134.2162  153.9031 N   0  0  0  0  0  0  0  0  0  0  0  0
  148.6456  132.8166  153.8231 C   0  0  0  0  0  0  0  0  0  0  0  0
  149.4512  131.8462  154.4734 C   0  0  0  0  0  0  0  0  0  0  0  0
  149.1233  130.4802  154.3668 C   0  0  0  0  0  0  0  0  0  0  0  0
  147.9906  130.1033  153.6224 C   0  0  0  0  0  0  0  0  0  0  0  0
  147.2354  131.0505  153.0282 N   0  3  0  0  0  0  0  0  0  0  0  0
  147.5074  132.3768  153.0990 C   0  0  0  0  0  0  0  0  0  0  0  0
  146.6580  133.2816  152.4388 N   0  0  0  0  0  0  0  0  0  0  0  0
  145.3141  133.3995  152.9799 C   0  0  0  0  0  0  0  0  0  0  0  0
  144.5000  134.1095  151.8954 C   0  0  0  0  0  0  0  0  0  0  0  0
  145.2760  133.8637  150.5954 C   0  0  0  0  0  0  0  0  0  0  0  0
  146.4990  133.0432  151.0142 C   0  0  0  0  0  0  0  0  0  0  0  0
  149.5467  136.2143  154.6102 N   0  0  0  0  0  0  0  0  0  0  0  0
  150.1237  137.2358  155.4794 C   0  0  1  0  0  0  0  0  0  0  0  0
  151.4403  136.7484  156.1123 C   0  0  0  0  0  0  0  0  0  0  0  0
  152.1743  137.9551  156.7094 C   0  0  0  0  0  0  0  0  0  0  0  0
  151.7336  139.3901  155.6572 S   0  0  0  0  0  0  0  0  0  0  0  0
  151.1307  140.4327  156.5011 O   0  0  0  0  0  0  0  0  0  0  0  0
  152.8512  139.6998  154.7526 O   0  0  0  0  0  0  0  0  0  0  0  0
  150.4192  138.5335  154.7101 C   0  0  0  0  0  0  0  0  0  0  0  0
  148.6554  134.7479  153.0810 H   0  0  0  0  0  0  0  0  0  0  0  0
  150.3089  132.1227  155.0668 H   0  0  0  0  0  0  0  0  0  0  0  0
  149.7312  129.7322  154.8551 H   0  0  0  0  0  0  0  0  0  0  0  0
  147.6645  129.0819  153.4896 H   0  0  0  0  0  0  0  0  0  0  0  0
  144.8901  132.4148  153.1807 H   0  0  0  0  0  0  0  0  0  0  0  0
  145.3157  133.9631  153.9135 H   0  0  0  0  0  0  0  0  0  0  0  0
  143.4784  133.7314  151.8481 H   0  0  0  0  0  0  0  0  0  0  0  0
  144.4488  135.1798  152.0995 H   0  0  0  0  0  0  0  0  0  0  0  0
  144.6789  133.3387  149.8494 H   0  0  0  0  0  0  0  0  0  0  0  0
  145.5865  134.8150  150.1616 H   0  0  0  0  0  0  0  0  0  0  0  0
  147.3913  133.3427  150.4634 H   0  0  0  0  0  0  0  0  0  0  0  0
  146.3237  131.9837  150.8216 H   0  0  0  0  0  0  0  0  0  0  0  0
  149.1537  136.5315  153.7358 H   0  0  0  0  0  0  0  0  0  0  0  0
  149.4292  137.4619  156.2910 H   0  0  0  0  0  0  0  0  0  0  0  0
  151.2690  135.9749  156.8617 H   0  0  0  0  0  0  0  0  0  0  0  0
  152.0699  136.3076  155.3380 H   0  0  0  0  0  0  0  0  0  0  0  0
  151.8218  138.1600  157.7207 H   0  0  0  0  0  0  0  0  0  0  0  0
  153.2563  137.8254  156.7378 H   0  0  0  0  0  0  0  0  0  0  0  0
  150.8120  138.3231  153.7147 H   0  0  0  0  0  0  0  0  0  0  0  0
  149.5463  139.1792  154.6104 H   0  0  0  0  0  0  0  0  0  0  0  0
  146.4169  130.7511  152.4979 H   0  0  0  0  0  0  0  0  0  0  0  0
  1  2  2  0  0  0  0
  2  3  1  0  0  0  0
  2 15  1  0  0  0  0
  3  4  1  0  0  0  0
  3 23  1  0  0  0  0
  4  9  1  0  0  0  0
  4  5  2  0  0  0  0
  5  6  1  0  0  0  0
  5 24  1  0  0  0  0
  6  7  2  0  0  0  0
  6 25  1  0  0  0  0
  7  8  1  0  0  0  0
  7 26  1  0  0  0  0
  8  9  2  0  0  0  0
  8 43  1  0  0  0  0
  9 10  1  0  0  0  0
 10 14  1  0  0  0  0
 10 11  1  0  0  0  0
 11 12  1  0  0  0  0
 11 27  1  0  0  0  0
 11 28  1  0  0  0  0
 12 13  1  0  0  0  0
 12 29  1  0  0  0  0
 12 30  1  0  0  0  0
 13 14  1  0  0  0  0
 13 31  1  0  0  0  0
 13 32  1  0  0  0  0
 14 33  1  0  0  0  0
 14 34  1  0  0  0  0
 15 16  1  0  0  0  0
 15 35  1  0  0  0  0
 16 22  1  0  0  0  0
 16 17  1  0  0  0  0
 16 36  1  0  0  0  0
 17 18  1  0  0  0  0
 17 37  1  0  0  0  0
 17 38  1  0  0  0  0
 18 19  1  0  0  0  0
 18 39  1  0  0  0  0
 18 40  1  0  0  0  0
 19 20  2  0  0  0  0
 19 21  2  0  0  0  0
 19 22  1  0  0  0  0
 22 41  1  0  0  0  0
 22 42  1  0  0  0  0
M  CHG  1   8   1
M  END
> <s_m_source_file>
AV-unprocessed.smi

> <i_m_source_file_index>
2047

> <i_lp_mmshare_version>
43012

> <i_f3d_flags>
0

> <s_epik_input>
Tz1TMSg9TylbQ0gyXVtDSDJdW0NASF0oW0NIMl0xKVtOSF1DKD1PKVtOSF1jMltjSF1bY0hdW2NIXW5jMk4zW0NIMl1bQ0gyXVtDSDJdW0NIMl0z

> <s_epik_cmdline>
J2VwaWtfcHl0aG9uJywgJy1waCcsICc3LjAnLCAnLXRuJywgJzgnLCAnLW1hJywgJzIwMCcsICctbWV0YWxfYmluZGluZycsICctaW1hZScsICc8aW5maWxlLm1hZT4nLCAnLW9tYWUnLCAnPG91dGZpbGUubWFlPic=

> <r_lp_tautomer_probability>
0.999994

> <r_epik_Ionization_Penalty>
1.20225

> <r_epik_Ionization_Penalty_Charging>
1.20223

> <r_epik_Ionization_Penalty_Neutral>
2.10783e-05

> <r_epik_State_Penalty>
1.26794

> <r_epik_Charging_Adjusted_Penalty>
2.47017

> <i_epik_Tot_Q>
1

> <i_epik_Tot_abs_Q>
1

> <r_epik_Metal_State_Penalty>
1.34322

> <b_epik_Metal_Only>
0

> <s_lp_Force_Field>
OPLS_2005

> <r_lp_Energy>
42.594

> <b_lp_Chiralities_Consistent>
1

> <s_lp_Variant>
AV-unprocessed.smi:2047-4

> <Gold.Version>
5.8.1

> <Gold.Id.Protein>
6NUR|6NUR_protein|mol2

> <Gold.PLP.Fitness>
43.1788

> <Gold.PLP.PLP>
-34.3219

> <Gold.PLP.part.hbond>
-4.8743

> <Gold.PLP.part.metal>
0.0000

> <Gold.PLP.part.buried>
-4.3417

> <Gold.PLP.part.nonpolar>
-26.4172

> <Gold.PLP.part.repulsive>
0.2256

> <Gold.PLP.ligand.clash>
0.0000

> <Gold.PLP.ligand.torsion>
0.4894

> <Gold.PLP.Chemscore.Hbond>
3.2715

> <Gold.PLP.Chemscore.CHOScore>
0.0000

> <Gold.PLP.Chemscore.Metal>
0.0000

> <Gold.Chemscore.Hbonds>
donor molecule, donor type, donor heavy atom, donor atom, acceptor molecule, acceptor atom, score
      L1  H     3    23       P1  7948  1.00
      L1  H    15    35       P1  7948  0.93
      P1  H  7989  7998       L1    21  0.29
      P1  H  7997  8009       L1    21  1.00

> <Gold.PLP.Chemscore.Internal.Correction>
0.0211

> <Gold.Rescore>
     Score         DG    S(hbond)    S(metal)    S(lipo)     H(rot)  DE(clash)    DE(int)     intcor
     14.45     -17.56       2.51        0.00      59.09       1.26       0.02       3.09       ----

> <Gold.Chemscore.Fitness>
14.4502

> <Gold.Chemscore.DG>
-17.5618

> <Gold.Chemscore.ZeroCoef>
-5.4800

> <Gold.Chemscore.Hbond>
2.5124

> <Gold.Chemscore.Metal>
0.0000

> <Gold.Chemscore.Lipo>
59.0886

> <Gold.Chemscore.Internal_Hbond>
0.0000

> <Gold.Chemscore.DEClash>
0.0202

> <Gold.Chemscore.DEInternal>
3.0913

> <Gold.Chemscore.Rot>
1.2590

> <Gold.Chemscore.Internal.Correction>
   9.000000E+99

> <Gold.Chemscore.Hbonds>
donor molecule, donor type, donor heavy atom, donor atom, acceptor molecule, acceptor atom, score
      L1  H     3    23       P1  7948  0.29
      L1  H    15    35       P1  7948  0.87
      P1  H  7989  7998       L1    21  0.03
      P1  H  7997  8009       L1    21  0.52

> <Gold.Chemscore.Hbond.Weighted>
-8.3915

> <Gold.Chemscore.Metal.Weighted>
-0.0000

> <Gold.Chemscore.Lipo.Weighted>
-6.9134

> <Gold.Chemscore.Internal_Hbond.Weighted>
0.0000

> <Gold.Chemscore.DEClash.Weighted>
0.0202

> <Gold.Chemscore.DEInternal.Weighted>
3.0913

> <Gold.Chemscore.Rot.Weighted>
3.2231

> <Gold.Chemscore.Internal.Correction.Weighted>
   9.000000E+99

> <Gold.Protein.RotatedTorsions>
[ 6907 6896 6895 6894 ] final -157.23 input  -60.11 | X-H torsion
[ 7974 7965 7964 7962 ] final  -43.11 input  175.53 | X-H torsion
[ 8008 7997 7996 7995 ] final -139.75 input   59.86 | X-H torsion
[ 10167 10162 10161 10158 ] final   14.94 input  -65.29 | X-H torsion
[ 10718 10713 10712 10709 ] final  -55.05 input   66.30 | X-H torsion
[ 10763 10752 10751 10750 ] final  -75.91 input  -60.55 | X-H torsion
[ 11005 11000 10999 10996 ] final -150.86 input  -57.11 | X-H torsion

> <Gold.Protein.ActiveResidues>
 VAL166  LYS551  ARG553  GLY616  TRP617  ASP618  TYR619  PRO620  LYS621  CYS622 
 ASP623  PHE694  ASN695  SER759  ASP760  ASP761  ALA762  ILE779  LEU786  VAL792 
 PHE793  MET794  SER795  GLU796  ALA797  LYS798  CYS799  TRP800  GLU811  SER814 

> <Gold.Protein.RotatedAtoms>
  151.2998  133.4128  159.2638 H   0  0  0  0  0  0  0  0  0  0  0  0  # atno 6907 bound_to 6896
  151.0205  134.9466  159.8067 H   0  0  0  0  0  0  0  0  0  0  0  0  # atno 6908 bound_to 6896
  152.5323  134.2961  159.9113 H   0  0  0  0  0  0  0  0  0  0  0  0  # atno 6909 bound_to 6896
  146.0051  140.7030  142.9252 H   0  0  0  0  0  0  0  0  0  0  0  0  # atno 7974 bound_to 7965
  155.4500  140.0538  157.3002 H   0  0  0  0  0  0  0  0  0  0  0  0  # atno 8008 bound_to 7997
  154.4781  140.2070  155.9785 H   0  0  0  0  0  0  0  0  0  0  0  0  # atno 8009 bound_to 7997
  156.1164  140.3195  155.8150 H   0  0  0  0  0  0  0  0  0  0  0  0  # atno 8010 bound_to 7997
  140.5902  143.8811  150.6866 H   0  0  0  0  0  0  0  0  0  0  0  0  # atno 10167 bound_to 10162
  156.1400  130.4155  150.0119 H   0  0  0  0  0  0  0  0  0  0  0  0  # atno 10718 bound_to 10713
  154.4929  135.5815  153.6473 H   0  0  0  0  0  0  0  0  0  0  0  0  # atno 10763 bound_to 10752
  152.9865  135.6117  154.3102 H   0  0  0  0  0  0  0  0  0  0  0  0  # atno 10764 bound_to 10752
  154.3003  135.2847  155.2593 H   0  0  0  0  0  0  0  0  0  0  0  0  # atno 10765 bound_to 10752
  140.7357  134.3571  157.5158 H   0  0  0  0  0  0  0  0  0  0  0  0  # atno 11005 bound_to 11000
  144.6933  140.3300  143.7217 LP  0  0  0  0  0  0  0  0  0  0  0  0  # atno 17320 bound_to 7965
  145.7429  139.1769  143.2366 LP  0  0  0  0  0  0  0  0  0  0  0  0  # atno 17321 bound_to 7965
  140.2332  143.3720  152.1548 LP  0  0  0  0  0  0  0  0  0  0  0  0  # atno 17342 bound_to 10162
  139.5222  144.7056  151.5363 LP  0  0  0  0  0  0  0  0  0  0  0  0  # atno 17343 bound_to 10162
  156.8007  130.9289  151.3646 LP  0  0  0  0  0  0  0  0  0  0  0  0  # atno 17370 bound_to 10713
  157.6567  130.8931  149.9744 LP  0  0  0  0  0  0  0  0  0  0  0  0  # atno 17371 bound_to 10713
  139.8816  134.9048  156.2885 LP  0  0  0  0  0  0  0  0  0  0  0  0  # atno 17394 bound_to 11000
  140.9881  133.7225  156.0773 LP  0  0  0  0  0  0  0  0  0  0  0  0  # atno 17395 bound_to 11000

$$$$
