AV-unprocessed.smi:454|AV-procd|sdf|2613|dock1
  -GOLD-   2262023 13D 1   1.00000     0.00000
 Structure written by MMmdl.
 44 45  0  0  0  0  0  0  0  0  2 V2000
  151.7313  145.0053  160.4082 C   0  0  0  0  0  0  0  0  0  0  0  0
  152.1679  144.3601  159.2255 O   0  0  0  0  0  0  0  0  0  0  0  0
  153.2549  143.4779  159.4524 C   0  0  0  0  0  0  0  0  0  0  0  0
  152.7660  142.2165  160.1812 C   0  0  0  0  0  0  0  0  0  0  0  0
  153.2893  140.9908  159.5880 N   0  0  0  0  0  0  0  0  0  0  0  0
  152.4291  139.9534  159.1999 C   0  0  0  0  0  0  0  0  0  0  0  0
  152.8179  138.6216  159.4642 C   0  0  0  0  0  0  0  0  0  0  0  0
  151.9524  137.5729  159.0962 C   0  0  0  0  0  0  0  0  0  0  0  0
  150.7332  137.9028  158.4746 C   0  0  0  0  0  0  0  0  0  0  0  0
  149.5565  136.6357  158.0305 S   0  0  0  0  0  0  0  0  0  0  0  0
  150.2123  135.3344  158.2312 O   0  0  0  0  0  0  0  0  0  0  0  0
  148.2635  136.9198  158.6718 O   0  0  0  0  0  0  0  0  0  0  0  0
  149.3767  136.8829  156.3203 N   0  0  0  0  0  0  0  0  0  0  0  0
  150.5734  136.7614  155.4701 C   0  0  0  0  0  0  0  0  0  0  0  0
  150.7949  135.2917  155.0723 C   0  0  0  0  0  0  0  0  0  0  0  0
  149.6030  134.7617  154.3679 N   0  3  0  0  0  0  0  0  0  0  0  0
  149.8067  133.3885  153.8593 C   0  0  0  0  0  0  0  0  0  0  0  0
  148.3959  134.8798  155.2203 C   0  0  0  0  0  0  0  0  0  0  0  0
  148.1738  136.3409  155.6607 C   0  0  0  0  0  0  0  0  0  0  0  0
  150.4312  139.2570  158.2363 C   0  0  0  0  0  0  0  0  0  0  0  0
  151.2602  140.2623  158.5874 N   0  0  0  0  0  0  0  0  0  0  0  0
  150.8988  145.6693  160.1761 H   0  0  0  0  0  0  0  0  0  0  0  0
  152.5288  145.6060  160.8474 H   0  0  0  0  0  0  0  0  0  0  0  0
  151.3882  144.2813  161.1485 H   0  0  0  0  0  0  0  0  0  0  0  0
  153.6824  143.1915  158.4905 H   0  0  0  0  0  0  0  0  0  0  0  0
  154.0444  143.9700  160.0233 H   0  0  0  0  0  0  0  0  0  0  0  0
  152.9847  142.2712  161.2481 H   0  0  0  0  0  0  0  0  0  0  0  0
  151.6802  142.1647  160.1005 H   0  0  0  0  0  0  0  0  0  0  0  0
  154.2589  140.7671  159.7586 H   0  0  0  0  0  0  0  0  0  0  0  0
  153.7583  138.4045  159.9495 H   0  0  0  0  0  0  0  0  0  0  0  0
  152.2195  136.5464  159.2978 H   0  0  0  0  0  0  0  0  0  0  0  0
  150.4370  137.3735  154.5775 H   0  0  0  0  0  0  0  0  0  0  0  0
  151.4474  137.1595  155.9850 H   0  0  0  0  0  0  0  0  0  0  0  0
  151.6653  135.2195  154.4194 H   0  0  0  0  0  0  0  0  0  0  0  0
  151.0077  134.6853  155.9545 H   0  0  0  0  0  0  0  0  0  0  0  0
  149.9868  132.6901  154.6779 H   0  0  0  0  0  0  0  0  0  0  0  0
  150.6617  133.3519  153.1835 H   0  0  0  0  0  0  0  0  0  0  0  0
  148.9303  133.0491  153.3062 H   0  0  0  0  0  0  0  0  0  0  0  0
  147.5243  134.5342  154.6632 H   0  0  0  0  0  0  0  0  0  0  0  0
  148.4914  134.2235  156.0858 H   0  0  0  0  0  0  0  0  0  0  0  0
  147.3166  136.4125  156.3305 H   0  0  0  0  0  0  0  0  0  0  0  0
  147.9412  136.9593  154.7928 H   0  0  0  0  0  0  0  0  0  0  0  0
  149.5020  139.5422  157.7654 H   0  0  0  0  0  0  0  0  0  0  0  0
  149.4517  135.3523  153.5625 H   0  0  0  0  0  0  0  0  0  0  0  0
  1  2  1  0  0  0  0
  1 22  1  0  0  0  0
  1 23  1  0  0  0  0
  1 24  1  0  0  0  0
  2  3  1  0  0  0  0
  3  4  1  0  0  0  0
  3 25  1  0  0  0  0
  3 26  1  0  0  0  0
  4  5  1  0  0  0  0
  4 27  1  0  0  0  0
  4 28  1  0  0  0  0
  5  6  1  0  0  0  0
  5 29  1  0  0  0  0
  6 21  1  0  0  0  0
  6  7  2  0  0  0  0
  7  8  1  0  0  0  0
  7 30  1  0  0  0  0
  8  9  2  0  0  0  0
  8 31  1  0  0  0  0
  9 10  1  0  0  0  0
  9 20  1  0  0  0  0
 10 11  2  0  0  0  0
 10 12  2  0  0  0  0
 10 13  1  0  0  0  0
 13 19  1  0  0  0  0
 13 14  1  0  0  0  0
 14 15  1  0  0  0  0
 14 32  1  0  0  0  0
 14 33  1  0  0  0  0
 15 16  1  0  0  0  0
 15 34  1  0  0  0  0
 15 35  1  0  0  0  0
 16 17  1  0  0  0  0
 16 18  1  0  0  0  0
 16 44  1  0  0  0  0
 17 36  1  0  0  0  0
 17 37  1  0  0  0  0
 17 38  1  0  0  0  0
 18 19  1  0  0  0  0
 18 39  1  0  0  0  0
 18 40  1  0  0  0  0
 19 41  1  0  0  0  0
 19 42  1  0  0  0  0
 20 21  2  0  0  0  0
 20 43  1  0  0  0  0
M  CHG  1  16   1
M  END
> <s_m_source_file>
AV-unprocessed.smi

> <i_m_source_file_index>
454

> <i_lp_mmshare_version>
43012

> <i_f3d_flags>
0

> <s_epik_input>
W0NIM11PW0NIMl1bQ0gyXVtOSF1jMVtjSF1bY0hdYyhbY0hdbjEpUyg9TykoPU8pTjJbQ0gyXVtDSDJdTihbQ0gzXSlbQ0gyXVtDSDJdMg==

> <s_epik_cmdline>
J2VwaWtfcHl0aG9uJywgJy1waCcsICc3LjAnLCAnLXRuJywgJzgnLCAnLW1hJywgJzIwMCcsICctbWV0YWxfYmluZGluZycsICctaW1hZScsICc8aW5maWxlLm1hZT4nLCAnLW9tYWUnLCAnPG91dGZpbGUubWFlPic=

> <r_lp_tautomer_probability>
1

> <r_epik_Ionization_Penalty>
1.23801

> <r_epik_Ionization_Penalty_Charging>
1.23786

> <r_epik_Ionization_Penalty_Neutral>
0.00015121

> <r_epik_State_Penalty>
1.30655

> <r_epik_Charging_Adjusted_Penalty>
2.54442

> <i_epik_Tot_Q>
1

> <i_epik_Tot_abs_Q>
1

> <r_epik_Metal_State_Penalty>
1.30672

> <b_epik_Metal_Only>
0

> <s_lp_Force_Field>
OPLS_2005

> <r_lp_Energy>
1.84277

> <b_lp_Chiralities_Consistent>
1

> <s_lp_Variant>
AV-unprocessed.smi:454-2

> <Gold.Version>
5.8.1

> <Gold.Id.Protein>
6NUR|6NUR_protein|mol2

> <Gold.PLP.Fitness>
40.1169

> <Gold.PLP.PLP>
-32.8376

> <Gold.PLP.part.hbond>
-2.0000

> <Gold.PLP.part.metal>
0.0000

> <Gold.PLP.part.buried>
-7.1817

> <Gold.PLP.part.nonpolar>
-23.7069

> <Gold.PLP.part.repulsive>
0.1595

> <Gold.PLP.ligand.clash>
0.0000

> <Gold.PLP.ligand.torsion>
2.2437

> <Gold.PLP.Chemscore.Hbond>
3.0000

> <Gold.PLP.Chemscore.CHOScore>
0.0000

> <Gold.PLP.Chemscore.Metal>
0.0000

> <Gold.Chemscore.Hbonds>
donor molecule, donor type, donor heavy atom, donor atom, acceptor molecule, acceptor atom, score
      L1  H    16    44       P1  7948  1.70
      P1  H  6896  6909       L1    11  0.78

> <Gold.PLP.Chemscore.Internal.Correction>
2.7668

> <Gold.Rescore>
     Score         DG    S(hbond)    S(metal)    S(lipo)     H(rot)  DE(clash)    DE(int)     intcor
     13.66     -15.89       1.94        0.00      69.73       1.65       0.01       2.23       ----

> <Gold.Chemscore.Fitness>
13.6556

> <Gold.Chemscore.DG>
-15.8932

> <Gold.Chemscore.ZeroCoef>
-5.4800

> <Gold.Chemscore.Hbond>
1.9393

> <Gold.Chemscore.Metal>
0.0000

> <Gold.Chemscore.Lipo>
69.7255

> <Gold.Chemscore.Internal_Hbond>
0.0000

> <Gold.Chemscore.DEClash>
0.0067

> <Gold.Chemscore.DEInternal>
2.2309

> <Gold.Chemscore.Rot>
1.6491

> <Gold.Chemscore.Internal.Correction>
   9.000000E+99

> <Gold.Chemscore.Hbonds>
donor molecule, donor type, donor heavy atom, donor atom, acceptor molecule, acceptor atom, score
      L1  H    16    44       P1  7948  0.15
      P1  H  6896  6909       L1    11  0.76

> <Gold.Chemscore.Hbond.Weighted>
-6.4771

> <Gold.Chemscore.Metal.Weighted>
-0.0000

> <Gold.Chemscore.Lipo.Weighted>
-8.1579

> <Gold.Chemscore.Internal_Hbond.Weighted>
0.0000

> <Gold.Chemscore.DEClash.Weighted>
0.0067

> <Gold.Chemscore.DEInternal.Weighted>
2.2309

> <Gold.Chemscore.Rot.Weighted>
4.2218

> <Gold.Chemscore.Internal.Correction.Weighted>
   9.000000E+99

> <Gold.Protein.RotatedTorsions>
[ 6907 6896 6895 6894 ] final   40.49 input  -60.11 | X-H torsion
[ 7974 7965 7964 7962 ] final   78.28 input  175.53 | X-H torsion
[ 8008 7997 7996 7995 ] final  149.17 input   59.86 | X-H torsion
[ 10167 10162 10161 10158 ] final  119.17 input  -65.29 | X-H torsion
[ 10718 10713 10712 10709 ] final -149.89 input   66.30 | X-H torsion
[ 10763 10752 10751 10750 ] final  -45.98 input  -60.55 | X-H torsion
[ 11005 11000 10999 10996 ] final  -52.33 input  -57.11 | X-H torsion

> <Gold.Protein.ActiveResidues>
 VAL166  LYS551  ARG553  GLY616  TRP617  ASP618  TYR619  PRO620  LYS621  CYS622 
 ASP623  PHE694  ASN695  SER759  ASP760  ASP761  ALA762  ILE779  LEU786  VAL792 
 PHE793  MET794  SER795  GLU796  ALA797  LYS798  CYS799  TRP800  GLU811  SER814 

> <Gold.Protein.RotatedAtoms>
  152.1831  134.8737  160.0524 H   0  0  0  0  0  0  0  0  0  0  0  0  # atno 6907 bound_to 6896
  151.9653  133.3703  159.4059 H   0  0  0  0  0  0  0  0  0  0  0  0  # atno 6908 bound_to 6896
  150.6921  134.4120  159.5210 H   0  0  0  0  0  0  0  0  0  0  0  0  # atno 6909 bound_to 6896
  145.6792  139.2519  143.1824 H   0  0  0  0  0  0  0  0  0  0  0  0  # atno 7974 bound_to 7965
  156.2765  140.2109  156.5815 H   0  0  0  0  0  0  0  0  0  0  0  0  # atno 8008 bound_to 7997
  154.7055  140.0517  157.0523 H   0  0  0  0  0  0  0  0  0  0  0  0  # atno 8009 bound_to 7997
  155.0676  140.3173  155.4643 H   0  0  0  0  0  0  0  0  0  0  0  0  # atno 8010 bound_to 7997
  139.6064  144.7071  151.2944 H   0  0  0  0  0  0  0  0  0  0  0  0  # atno 10167 bound_to 10162
  156.4389  130.8112  151.2341 H   0  0  0  0  0  0  0  0  0  0  0  0  # atno 10718 bound_to 10713
  154.0375  135.6648  153.4786 H   0  0  0  0  0  0  0  0  0  0  0  0  # atno 10763 bound_to 10752
  153.0515  135.5081  154.7874 H   0  0  0  0  0  0  0  0  0  0  0  0  # atno 10764 bound_to 10752
  154.6839  135.3049  154.9540 H   0  0  0  0  0  0  0  0  0  0  0  0  # atno 10765 bound_to 10752
  141.0918  133.6631  156.4008 H   0  0  0  0  0  0  0  0  0  0  0  0  # atno 11005 bound_to 11000
  146.0979  140.7579  142.9563 LP  0  0  0  0  0  0  0  0  0  0  0  0  # atno 17320 bound_to 7965
  144.7031  140.3740  143.7139 LP  0  0  0  0  0  0  0  0  0  0  0  0  # atno 17321 bound_to 7965
  140.7287  143.6927  150.7909 LP  0  0  0  0  0  0  0  0  0  0  0  0  # atno 17342 bound_to 10162
  140.0513  143.5247  152.2672 LP  0  0  0  0  0  0  0  0  0  0  0  0  # atno 17343 bound_to 10162
  157.7507  131.0174  150.3585 LP  0  0  0  0  0  0  0  0  0  0  0  0  # atno 17370 bound_to 10713
  156.3938  130.3903  149.7010 LP  0  0  0  0  0  0  0  0  0  0  0  0  # atno 17371 bound_to 10713
  140.5233  134.6283  157.5325 LP  0  0  0  0  0  0  0  0  0  0  0  0  # atno 17394 bound_to 11000
  139.9746  134.7236  155.9974 LP  0  0  0  0  0  0  0  0  0  0  0  0  # atno 17395 bound_to 11000

$$$$
