AV-unprocessed.smi:3321|AV-procd|sdf|12769|dock4
  -GOLD-   2272019113D 1   1.00000     0.00000
 Structure written by MMmdl.
 41 42  0  0  0  0  0  0  0  0  2 V2000
  146.9142  139.2552  155.2189 C   0  0  0  0  0  0  0  0  0  0  0  0
  147.7184  138.5608  154.1078 C   0  0  2  0  0  0  0  0  0  0  0  0
  147.0492  137.2921  153.7349 N   0  3  0  0  0  0  0  0  0  0  0  0
  145.7705  137.4507  153.0092 C   0  0  0  0  0  0  0  0  0  0  0  0
  145.9358  137.1121  151.5208 C   0  0  0  0  0  0  0  0  0  0  0  0
  145.5244  135.7523  151.2291 N   0  0  0  0  0  0  0  0  0  0  0  0
  146.1840  134.5753  151.5151 C   0  0  0  0  0  0  0  0  0  0  0  0
  145.4107  133.5524  151.0459 C   0  0  0  0  0  0  0  0  0  0  0  0
  144.2856  134.2120  150.4769 C   0  0  0  0  0  0  0  0  0  0  0  0
  144.3580  135.5290  150.5863 N   0  0  0  0  0  0  0  0  0  0  0  0
  149.1714  138.3247  154.5728 C   0  0  0  0  0  0  0  0  0  0  0  0
  149.5302  137.1637  154.7785 O   0  0  0  0  0  0  0  0  0  0  0  0
  150.0108  139.3768  154.7453 N   0  0  0  0  0  0  0  0  0  0  0  0
  151.4035  139.3113  155.2089 C   0  0  0  0  0  0  0  0  0  0  0  0
  151.4596  139.8329  156.6559 C   0  0  0  0  0  0  0  0  0  0  0  0
  150.8943  141.2645  156.7403 C   0  0  0  0  0  0  0  0  0  0  0  0
  149.5212  141.3827  156.0498 C   0  0  0  0  0  0  0  0  0  0  0  0
  149.5568  140.7698  154.6371 C   0  0  0  0  0  0  0  0  0  0  0  0
  147.3681  140.2022  155.5135 H   0  0  0  0  0  0  0  0  0  0  0  0
  146.8451  138.6315  156.1114 H   0  0  0  0  0  0  0  0  0  0  0  0
  145.8982  139.4715  154.8876 H   0  0  0  0  0  0  0  0  0  0  0  0
  147.6998  139.1856  153.2158 H   0  0  0  0  0  0  0  0  0  0  0  0
  147.6864  136.7514  153.1672 H   0  0  0  0  0  0  0  0  0  0  0  0
  145.0198  136.7979  153.4569 H   0  0  0  0  0  0  0  0  0  0  0  0
  145.4120  138.4750  153.1192 H   0  0  0  0  0  0  0  0  0  0  0  0
  145.3448  137.7919  150.9051 H   0  0  0  0  0  0  0  0  0  0  0  0
  146.9768  137.2315  151.2173 H   0  0  0  0  0  0  0  0  0  0  0  0
  147.1368  134.5624  152.0239 H   0  0  0  0  0  0  0  0  0  0  0  0
  145.6170  132.4938  151.0996 H   0  0  0  0  0  0  0  0  0  0  0  0
  143.4250  133.7758  149.9911 H   0  0  0  0  0  0  0  0  0  0  0  0
  151.8497  138.3215  155.1403 H   0  0  0  0  0  0  0  0  0  0  0  0
  152.0235  139.9403  154.5682 H   0  0  0  0  0  0  0  0  0  0  0  0
  150.8852  139.1716  157.3062 H   0  0  0  0  0  0  0  0  0  0  0  0
  152.4859  139.8155  157.0236 H   0  0  0  0  0  0  0  0  0  0  0  0
  150.8222  141.5812  157.7810 H   0  0  0  0  0  0  0  0  0  0  0  0
  151.5926  141.9498  156.2580 H   0  0  0  0  0  0  0  0  0  0  0  0
  148.7667  140.8707  156.6485 H   0  0  0  0  0  0  0  0  0  0  0  0
  149.2178  142.4287  155.9983 H   0  0  0  0  0  0  0  0  0  0  0  0
  150.2438  141.3298  154.0010 H   0  0  0  0  0  0  0  0  0  0  0  0
  148.5774  140.8651  154.1666 H   0  0  0  0  0  0  0  0  0  0  0  0
  146.8571  136.7793  154.5834 H   0  0  0  0  0  0  0  0  0  0  0  0
  1  2  1  0  0  0  0
  1 19  1  0  0  0  0
  1 20  1  0  0  0  0
  1 21  1  0  0  0  0
  2  3  1  0  0  0  0
  2 11  1  0  0  0  0
  2 22  1  0  0  0  0
  3  4  1  0  0  0  0
  3 23  1  0  0  0  0
  3 41  1  0  0  0  0
  4  5  1  0  0  0  0
  4 24  1  0  0  0  0
  4 25  1  0  0  0  0
  5  6  1  0  0  0  0
  5 26  1  0  0  0  0
  5 27  1  0  0  0  0
  6 10  1  0  0  0  0
  6  7  1  0  0  0  0
  7  8  2  0  0  0  0
  7 28  1  0  0  0  0
  8  9  1  0  0  0  0
  8 29  1  0  0  0  0
  9 10  2  0  0  0  0
  9 30  1  0  0  0  0
 11 12  2  0  0  0  0
 11 13  1  0  0  0  0
 13 18  1  0  0  0  0
 13 14  1  0  0  0  0
 14 15  1  0  0  0  0
 14 31  1  0  0  0  0
 14 32  1  0  0  0  0
 15 16  1  0  0  0  0
 15 33  1  0  0  0  0
 15 34  1  0  0  0  0
 16 17  1  0  0  0  0
 16 35  1  0  0  0  0
 16 36  1  0  0  0  0
 17 18  1  0  0  0  0
 17 37  1  0  0  0  0
 17 38  1  0  0  0  0
 18 39  1  0  0  0  0
 18 40  1  0  0  0  0
M  CHG  1   3   1
M  END
> <s_m_source_file>
AV-unprocessed.smi

> <i_m_source_file_index>
3321

> <i_lp_mmshare_version>
43012

> <i_f3d_flags>
0

> <s_epik_input>
W0NIMl0xW0NIMl1bQ0gyXVtDSDJdW0NIMl1OMUMoPU8pW0NASF0oW0NIM10pW05IXVtDSDJdW0NIMl1uMltjSF1bY0hdW2NIXW4y

> <s_epik_cmdline>
J2VwaWtfcHl0aG9uJywgJy1waCcsICc3LjAnLCAnLXRuJywgJzgnLCAnLW1hJywgJzIwMCcsICctbWV0YWxfYmluZGluZycsICctaW1hZScsICc8aW5maWxlLm1hZT4nLCAnLW9tYWUnLCAnPG91dGZpbGUubWFlPic=

> <r_lp_tautomer_probability>
1

> <r_epik_Ionization_Penalty>
0.202061

> <r_epik_Ionization_Penalty_Charging>
0.202058

> <r_epik_Ionization_Penalty_Neutral>
2.46932e-06

> <r_epik_State_Penalty>
0.191938

> <r_epik_Charging_Adjusted_Penalty>
0.393996

> <i_epik_Tot_Q>
1

> <i_epik_Tot_abs_Q>
1

> <r_epik_Metal_State_Penalty>
0.192188

> <b_epik_Metal_Only>
0

> <s_lp_Force_Field>
OPLS_2005

> <r_lp_Energy>
26.3396

> <b_lp_Chiralities_Consistent>
1

> <s_lp_Variant>
AV-unprocessed.smi:3321-1

> <Gold.Version>
5.8.1

> <Gold.Id.Protein>
6NUR|6NUR_protein|mol2

> <Gold.PLP.Fitness>
39.5448

> <Gold.PLP.PLP>
-29.5516

> <Gold.PLP.part.hbond>
-1.0000

> <Gold.PLP.part.metal>
0.0000

> <Gold.PLP.part.buried>
1.5172

> <Gold.PLP.part.nonpolar>
-31.4919

> <Gold.PLP.part.repulsive>
1.3393

> <Gold.PLP.ligand.clash>
0.0000

> <Gold.PLP.ligand.torsion>
1.0227

> <Gold.PLP.Chemscore.Hbond>
2.0000

> <Gold.PLP.Chemscore.CHOScore>
1.9845

> <Gold.PLP.Chemscore.Metal>
0.0000

> <Gold.Chemscore.Hbonds>
donor molecule, donor type, donor heavy atom, donor atom, acceptor molecule, acceptor atom, score
      L1  H     3    23       P1  7948  2.00
      L1  C     7    28       P1  7948  0.95
      L1  C     9    30       P1 10186  0.98

> <Gold.PLP.Chemscore.Internal.Correction>
0.0850

> <Gold.Rescore>
     Score         DG    S(hbond)    S(metal)    S(lipo)     H(rot)  DE(clash)    DE(int)     intcor
      9.98     -12.15       0.98        0.00      68.09       1.79       0.53       1.64       ----

> <Gold.Chemscore.Fitness>
9.9809

> <Gold.Chemscore.DG>
-12.1465

> <Gold.Chemscore.ZeroCoef>
-5.4800

> <Gold.Chemscore.Hbond>
0.9849

> <Gold.Chemscore.Metal>
0.0000

> <Gold.Chemscore.Lipo>
68.0884

> <Gold.Chemscore.Internal_Hbond>
0.0000

> <Gold.Chemscore.DEClash>
0.5260

> <Gold.Chemscore.DEInternal>
1.6396

> <Gold.Chemscore.Rot>
1.7928

> <Gold.Chemscore.Internal.Correction>
   9.000000E+99

> <Gold.Chemscore.Hbonds>
donor molecule, donor type, donor heavy atom, donor atom, acceptor molecule, acceptor atom, score
      L1  H     3    23       P1  7948  1.00

> <Gold.Chemscore.Hbond.Weighted>
-3.2896

> <Gold.Chemscore.Metal.Weighted>
-0.0000

> <Gold.Chemscore.Lipo.Weighted>
-7.9663

> <Gold.Chemscore.Internal_Hbond.Weighted>
0.0000

> <Gold.Chemscore.DEClash.Weighted>
0.5260

> <Gold.Chemscore.DEInternal.Weighted>
1.6396

> <Gold.Chemscore.Rot.Weighted>
4.5895

> <Gold.Chemscore.Internal.Correction.Weighted>
   9.000000E+99

> <Gold.Protein.RotatedTorsions>
[ 6907 6896 6895 6894 ] final   76.48 input  -60.11 | X-H torsion
[ 7974 7965 7964 7962 ] final  133.60 input  175.53 | X-H torsion
[ 8008 7997 7996 7995 ] final  -16.18 input   59.86 | X-H torsion
[ 10167 10162 10161 10158 ] final  144.72 input  -65.29 | X-H torsion
[ 10718 10713 10712 10709 ] final   92.38 input   66.30 | X-H torsion
[ 10763 10752 10751 10750 ] final   14.32 input  -60.55 | X-H torsion
[ 11005 11000 10999 10996 ] final   42.17 input  -57.11 | X-H torsion

> <Gold.Protein.ActiveResidues>
 VAL166  LYS551  ARG553  GLY616  TRP617  ASP618  TYR619  PRO620  LYS621  CYS622 
 ASP623  PHE694  ASN695  SER759  ASP760  ASP761  ALA762  ILE779  LEU786  VAL792 
 PHE793  MET794  SER795  GLU796  ALA797  LYS798  CYS799  TRP800  GLU811  SER814 

> <Gold.Protein.RotatedAtoms>
  152.5075  134.3963  159.9400 H   0  0  0  0  0  0  0  0  0  0  0  0  # atno 6907 bound_to 6896
  151.3925  133.3778  159.2730 H   0  0  0  0  0  0  0  0  0  0  0  0  # atno 6908 bound_to 6896
  150.9422  134.8851  159.7678 H   0  0  0  0  0  0  0  0  0  0  0  0  # atno 6909 bound_to 6896
  144.9849  139.4466  143.5368 H   0  0  0  0  0  0  0  0  0  0  0  0  # atno 7974 bound_to 7965
  154.5073  140.2176  155.9226 H   0  0  0  0  0  0  0  0  0  0  0  0  # atno 8008 bound_to 7997
  156.1509  140.3161  155.8613 H   0  0  0  0  0  0  0  0  0  0  0  0  # atno 8009 bound_to 7997
  155.3941  140.0480  157.3030 H   0  0  0  0  0  0  0  0  0  0  0  0  # atno 8010 bound_to 7997
  139.4941  144.5952  151.6597 H   0  0  0  0  0  0  0  0  0  0  0  0  # atno 10167 bound_to 10162
  157.6958  131.0441  150.3872 H   0  0  0  0  0  0  0  0  0  0  0  0  # atno 10718 bound_to 10713
  153.1633  135.6800  153.8711 H   0  0  0  0  0  0  0  0  0  0  0  0  # atno 10763 bound_to 10752
  153.8099  135.3144  155.3400 H   0  0  0  0  0  0  0  0  0  0  0  0  # atno 10764 bound_to 10752
  154.7948  135.4813  154.0225 H   0  0  0  0  0  0  0  0  0  0  0  0  # atno 10765 bound_to 10752
  140.1764  134.4158  155.8226 H   0  0  0  0  0  0  0  0  0  0  0  0  # atno 11005 bound_to 11000
  146.3417  139.9145  142.8775 LP  0  0  0  0  0  0  0  0  0  0  0  0  # atno 17320 bound_to 7965
  145.2368  140.9994  143.3959 LP  0  0  0  0  0  0  0  0  0  0  0  0  # atno 17321 bound_to 7965
  140.5589  144.0302  150.6160 LP  0  0  0  0  0  0  0  0  0  0  0  0  # atno 17342 bound_to 10162
  140.3381  143.3036  152.0617 LP  0  0  0  0  0  0  0  0  0  0  0  0  # atno 17343 bound_to 10162
  156.4280  130.3966  149.6780 LP  0  0  0  0  0  0  0  0  0  0  0  0  # atno 17370 bound_to 10713
  156.4007  130.7673  151.2681 LP  0  0  0  0  0  0  0  0  0  0  0  0  # atno 17371 bound_to 10713
  141.2220  133.6980  156.7854 LP  0  0  0  0  0  0  0  0  0  0  0  0  # atno 17394 bound_to 11000
  140.2317  134.8680  157.3484 LP  0  0  0  0  0  0  0  0  0  0  0  0  # atno 17395 bound_to 11000

$$$$
