AV-unprocessed.smi:1860|AV-procd|sdf|7547|dock1
  -GOLD-   22720 9263D 1   1.00000     0.00000
 Structure written by MMmdl.
 31 32  0  0  0  0  0  0  0  0  1 V2000
  152.0176  141.7577  160.3790 C   0  0  0  0  0  0  0  0  0  0  0  0
  153.5368  141.6985  160.5859 C   0  0  0  0  0  0  0  0  0  0  0  0
  153.9810  140.3449  160.8952 N   0  0  0  0  0  0  0  0  0  0  0  0
  154.8532  139.6324  160.1648 C   0  0  0  0  0  0  0  0  0  0  0  0
  155.3673  140.0478  159.1263 O   0  0  0  0  0  0  0  0  0  0  0  0
  155.2032  138.2385  160.6875 C   0  0  0  0  0  0  0  0  0  0  0  0
  155.8056  138.3377  162.0588 C   0  0  0  0  0  0  0  0  0  0  0  0
  156.0381  137.3044  162.9339 C   0  0  0  0  0  0  0  0  0  0  0  0
  156.7498  137.8573  164.4247 S   0  0  0  0  0  0  0  0  0  0  0  0
  156.7142  139.5053  163.7909 C   0  0  0  0  0  0  0  0  0  0  0  0
  157.1683  140.6799  164.4610 N   0  0  0  0  0  0  0  0  0  0  0  0
  157.6374  140.6419  165.8426 C   0  0  0  0  0  0  0  0  0  0  0  0
  158.0124  142.0898  166.1419 C   0  0  0  0  0  0  0  0  0  0  0  0
  157.7066  142.7471  164.8934 N   0  0  0  0  0  0  0  0  0  0  0  0
  157.2285  141.9276  163.9543 C   0  0  0  0  0  0  0  0  0  0  0  0
  156.9072  142.2909  162.8245 O   0  0  0  0  0  0  0  0  0  0  0  0
  156.2002  139.5833  162.5587 N   0  0  0  0  0  0  0  0  0  0  0  0
  151.7022  142.7675  160.1161 H   0  0  0  0  0  0  0  0  0  0  0  0
  151.4817  141.4689  161.2836 H   0  0  0  0  0  0  0  0  0  0  0  0
  151.7025  141.0913  159.5756 H   0  0  0  0  0  0  0  0  0  0  0  0
  154.0443  142.0236  159.6776 H   0  0  0  0  0  0  0  0  0  0  0  0
  153.8407  142.3878  161.3751 H   0  0  0  0  0  0  0  0  0  0  0  0
  153.6090  139.9232  161.7337 H   0  0  0  0  0  0  0  0  0  0  0  0
  154.3066  137.6177  160.7044 H   0  0  0  0  0  0  0  0  0  0  0  0
  155.8943  137.7594  159.9926 H   0  0  0  0  0  0  0  0  0  0  0  0
  155.8296  136.2542  162.7938 H   0  0  0  0  0  0  0  0  0  0  0  0
  156.8486  140.2888  166.5084 H   0  0  0  0  0  0  0  0  0  0  0  0
  158.4984  139.9789  165.9395 H   0  0  0  0  0  0  0  0  0  0  0  0
  157.4158  142.5091  166.9528 H   0  0  0  0  0  0  0  0  0  0  0  0
  159.0701  142.1984  166.3843 H   0  0  0  0  0  0  0  0  0  0  0  0
  157.8453  143.7377  164.7557 H   0  0  0  0  0  0  0  0  0  0  0  0
  1  2  1  0  0  0  0
  1 18  1  0  0  0  0
  1 19  1  0  0  0  0
  1 20  1  0  0  0  0
  2  3  1  0  0  0  0
  2 21  1  0  0  0  0
  2 22  1  0  0  0  0
  3  4  1  0  0  0  0
  3 23  1  0  0  0  0
  4  5  2  0  0  0  0
  4  6  1  0  0  0  0
  6  7  1  0  0  0  0
  6 24  1  0  0  0  0
  6 25  1  0  0  0  0
  7 17  1  0  0  0  0
  7  8  2  0  0  0  0
  8  9  1  0  0  0  0
  8 26  1  0  0  0  0
  9 10  1  0  0  0  0
 10 11  1  0  0  0  0
 10 17  2  0  0  0  0
 11 15  1  0  0  0  0
 11 12  1  0  0  0  0
 12 13  1  0  0  0  0
 12 27  1  0  0  0  0
 12 28  1  0  0  0  0
 13 14  1  0  0  0  0
 13 29  1  0  0  0  0
 13 30  1  0  0  0  0
 14 15  1  0  0  0  0
 14 31  1  0  0  0  0
 15 16  2  0  0  0  0
M  END
> <s_m_source_file>
AV-unprocessed.smi

> <i_m_source_file_index>
1860

> <i_lp_mmshare_version>
43012

> <i_f3d_flags>
0

> <s_epik_input>
W0NIM11bQ0gyXVtOSF1DKD1PKVtDSDJdYzFbY0hdc2MobjEpTjJbQ0gyXVtDSDJdW05IXUMyPU8=

> <s_epik_cmdline>
J2VwaWtfcHl0aG9uJywgJy1waCcsICc3LjAnLCAnLXRuJywgJzgnLCAnLW1hJywgJzIwMCcsICctbWV0YWxfYmluZGluZycsICctaW1hZScsICc8aW5maWxlLm1hZT4nLCAnLW9tYWUnLCAnPG91dGZpbGUubWFlPic=

> <r_lp_tautomer_probability>
1

> <r_epik_Ionization_Penalty>
0.000119829

> <r_epik_Ionization_Penalty_Charging>
0

> <r_epik_Ionization_Penalty_Neutral>
0.000119829

> <r_epik_State_Penalty>
-0

> <r_epik_Charging_Adjusted_Penalty>
0

> <i_epik_Tot_Q>
0

> <i_epik_Tot_abs_Q>
0

> <r_epik_Metal_State_Penalty>
-0

> <b_epik_Metal_Only>
0

> <s_lp_Force_Field>
OPLS_2005

> <r_lp_Energy>
29.5586

> <b_lp_Chiralities_Consistent>
1

> <s_lp_Variant>
AV-unprocessed.smi:1860-1

> <Gold.Version>
5.8.1

> <Gold.Id.Protein>
6NUR|6NUR_protein|mol2

> <Gold.PLP.Fitness>
33.4601

> <Gold.PLP.PLP>
-30.6901

> <Gold.PLP.part.hbond>
-1.6024

> <Gold.PLP.part.metal>
0.0000

> <Gold.PLP.part.buried>
-4.4430

> <Gold.PLP.part.nonpolar>
-24.2614

> <Gold.PLP.part.repulsive>
0.0472

> <Gold.PLP.ligand.clash>
0.0000

> <Gold.PLP.ligand.torsion>
0.1354

> <Gold.PLP.Chemscore.Hbond>
1.0000

> <Gold.PLP.Chemscore.CHOScore>
0.0000

> <Gold.PLP.Chemscore.Metal>
0.0000

> <Gold.Chemscore.Hbonds>
donor molecule, donor type, donor heavy atom, donor atom, acceptor molecule, acceptor atom, score
      P1  H  7997  8009       L1     5  0.80

> <Gold.PLP.Chemscore.Internal.Correction>
0.0409

> <Gold.Rescore>
     Score         DG    S(hbond)    S(metal)    S(lipo)     H(rot)  DE(clash)    DE(int)     intcor
      8.02     -11.18       0.91        0.00      58.30       1.62       1.28       1.88       ----

> <Gold.Chemscore.Fitness>
8.0156

> <Gold.Chemscore.DG>
-11.1804

> <Gold.Chemscore.ZeroCoef>
-5.4800

> <Gold.Chemscore.Hbond>
0.9084

> <Gold.Chemscore.Metal>
0.0000

> <Gold.Chemscore.Lipo>
58.3037

> <Gold.Chemscore.Internal_Hbond>
0.0000

> <Gold.Chemscore.DEClash>
1.2834

> <Gold.Chemscore.DEInternal>
1.8814

> <Gold.Chemscore.Rot>
1.6231

> <Gold.Chemscore.Internal.Correction>
   9.000000E+99

> <Gold.Chemscore.Hbonds>
donor molecule, donor type, donor heavy atom, donor atom, acceptor molecule, acceptor atom, score
      P1  H  7997  8009       L1     5  0.80

> <Gold.Chemscore.Hbond.Weighted>
-3.0341

> <Gold.Chemscore.Metal.Weighted>
-0.0000

> <Gold.Chemscore.Lipo.Weighted>
-6.8215

> <Gold.Chemscore.Internal_Hbond.Weighted>
0.0000

> <Gold.Chemscore.DEClash.Weighted>
1.2834

> <Gold.Chemscore.DEInternal.Weighted>
1.8814

> <Gold.Chemscore.Rot.Weighted>
4.1553

> <Gold.Chemscore.Internal.Correction.Weighted>
   9.000000E+99

> <Gold.Protein.RotatedTorsions>
[ 6907 6896 6895 6894 ] final -115.52 input  -60.11 | X-H torsion
[ 7974 7965 7964 7962 ] final  127.42 input  175.53 | X-H torsion
[ 8008 7997 7996 7995 ] final   86.74 input   59.86 | X-H torsion
[ 10167 10162 10161 10158 ] final   75.59 input  -65.29 | X-H torsion
[ 10718 10713 10712 10709 ] final -103.56 input   66.30 | X-H torsion
[ 10763 10752 10751 10750 ] final  157.82 input  -60.55 | X-H torsion
[ 11005 11000 10999 10996 ] final    4.93 input  -57.11 | X-H torsion

> <Gold.Protein.ActiveResidues>
 VAL166  LYS551  ARG553  GLY616  TRP617  ASP618  TYR619  PRO620  LYS621  CYS622 
 ASP623  PHE694  ASN695  SER759  ASP760  ASP761  ALA762  ILE779  LEU786  VAL792 
 PHE793  MET794  SER795  GLU796  ALA797  LYS798  CYS799  TRP800  GLU811  SER814 

> <Gold.Protein.RotatedAtoms>
  150.7984  133.8647  159.3241 H   0  0  0  0  0  0  0  0  0  0  0  0  # atno 6907 bound_to 6896
  151.6466  135.1005  160.0162 H   0  0  0  0  0  0  0  0  0  0  0  0  # atno 6908 bound_to 6896
  152.4068  133.6862  159.6398 H   0  0  0  0  0  0  0  0  0  0  0  0  # atno 6909 bound_to 6896
  145.0507  139.3885  143.5055 H   0  0  0  0  0  0  0  0  0  0  0  0  # atno 7974 bound_to 7965
  155.9666  140.3389  155.6538 H   0  0  0  0  0  0  0  0  0  0  0  0  # atno 8008 bound_to 7997
  155.6729  140.0729  157.2531 H   0  0  0  0  0  0  0  0  0  0  0  0  # atno 8009 bound_to 7997
  154.4156  140.1688  156.1886 H   0  0  0  0  0  0  0  0  0  0  0  0  # atno 8010 bound_to 7997
  140.0013  144.5684  150.7735 H   0  0  0  0  0  0  0  0  0  0  0  0  # atno 10167 bound_to 10162
  156.0270  130.5473  150.7270 H   0  0  0  0  0  0  0  0  0  0  0  0  # atno 10718 bound_to 10713
  154.2063  135.2788  155.2973 H   0  0  0  0  0  0  0  0  0  0  0  0  # atno 10763 bound_to 10752
  154.5814  135.5588  153.7192 H   0  0  0  0  0  0  0  0  0  0  0  0  # atno 10764 bound_to 10752
  153.0075  135.6345  154.2202 H   0  0  0  0  0  0  0  0  0  0  0  0  # atno 10765 bound_to 10752
  140.5764  134.0054  155.8029 H   0  0  0  0  0  0  0  0  0  0  0  0  # atno 11005 bound_to 11000
  146.3517  140.0156  142.8663 LP  0  0  0  0  0  0  0  0  0  0  0  0  # atno 17320 bound_to 7965
  145.1530  140.9633  143.4421 LP  0  0  0  0  0  0  0  0  0  0  0  0  # atno 17321 bound_to 7965
  140.7417  143.2822  151.3565 LP  0  0  0  0  0  0  0  0  0  0  0  0  # atno 17342 bound_to 10162
  139.6270  144.0795  152.2442 LP  0  0  0  0  0  0  0  0  0  0  0  0  # atno 17343 bound_to 10162
  157.4872  131.0907  151.0469 LP  0  0  0  0  0  0  0  0  0  0  0  0  # atno 17370 bound_to 10713
  157.0885  130.5932  149.5435 LP  0  0  0  0  0  0  0  0  0  0  0  0  # atno 17371 bound_to 10713
  141.1024  133.9747  157.3056 LP  0  0  0  0  0  0  0  0  0  0  0  0  # atno 17394 bound_to 11000
  139.9337  135.0198  156.8487 LP  0  0  0  0  0  0  0  0  0  0  0  0  # atno 17395 bound_to 11000

$$$$
