AV-unprocessed.smi:807|AV-procd|sdf|3803|dock1
  -GOLD-   22720 1243D 1   1.00000     0.00000
 Structure written by MMmdl.
 35 37  0  0  0  0  0  0  0  0  1 V2000
  152.9572  138.4034  159.4659 C   0  0  0  0  0  0  0  0  0  0  0  0
  152.0734  139.2396  158.6698 N   0  0  0  0  0  0  0  0  0  0  0  0
  151.9071  139.0005  157.2982 C   0  0  0  0  0  0  0  0  0  0  0  0
  152.4847  137.9194  156.7249 N   0  0  0  0  0  0  0  0  0  0  0  0
  152.2961  137.7315  155.4120 C   0  0  0  0  0  0  0  0  0  0  0  0
  151.5965  138.4773  154.5424 N   0  0  0  0  0  0  0  0  0  0  0  0
  151.0220  139.5517  155.1005 C   0  0  0  0  0  0  0  0  0  0  0  0
  150.2470  140.4929  154.4446 N   0  0  0  0  0  0  0  0  0  0  0  0
  149.9383  141.3267  155.4352 C   0  0  0  0  0  0  0  0  0  0  0  0
  150.4195  141.0407  156.6609 N   0  0  0  0  0  0  0  0  0  0  0  0
  150.2138  141.8089  157.8762 C   0  0  0  0  0  0  0  0  0  0  0  0
  151.1897  142.9984  157.9916 C   0  0  1  0  0  0  0  0  0  0  0  0
  150.5543  144.2074  157.6233 O   0  0  0  0  0  0  0  0  0  0  0  0
  151.8584  143.0652  159.3626 C   0  0  0  0  0  0  0  0  0  0  0  0
  152.7413  142.0230  159.7254 C   0  0  0  0  0  0  0  0  0  0  0  0
  153.3843  142.0258  160.9772 C   0  0  0  0  0  0  0  0  0  0  0  0
  153.1483  143.0732  161.8850 C   0  0  0  0  0  0  0  0  0  0  0  0
  152.2673  144.1138  161.5387 C   0  0  0  0  0  0  0  0  0  0  0  0
  151.6195  144.1178  160.2866 C   0  0  0  0  0  0  0  0  0  0  0  0
  150.5418  145.4252  159.9381 Cl  0  0  0  0  0  0  0  0  0  0  0  0
  151.1458  139.8653  156.4872 C   0  0  0  0  0  0  0  0  0  0  0  0
  152.9526  138.7389  160.5028 H   0  0  0  0  0  0  0  0  0  0  0  0
  153.9807  138.4587  159.0937 H   0  0  0  0  0  0  0  0  0  0  0  0
  152.6310  137.3629  159.4422 H   0  0  0  0  0  0  0  0  0  0  0  0
  151.5855  140.0041  159.1136 H   0  0  0  0  0  0  0  0  0  0  0  0
  152.7740  136.8574  154.9951 H   0  0  0  0  0  0  0  0  0  0  0  0
  149.3284  142.2009  155.2591 H   0  0  0  0  0  0  0  0  0  0  0  0
  149.1782  142.1478  157.9000 H   0  0  0  0  0  0  0  0  0  0  0  0
  150.3331  141.1374  158.7268 H   0  0  0  0  0  0  0  0  0  0  0  0
  151.9762  142.8568  157.2496 H   0  0  0  0  0  0  0  0  0  0  0  0
  149.9193  144.0194  156.9491 H   0  0  0  0  0  0  0  0  0  0  0  0
  152.9316  141.2087  159.0413 H   0  0  0  0  0  0  0  0  0  0  0  0
  154.0580  141.2238  161.2409 H   0  0  0  0  0  0  0  0  0  0  0  0
  153.6404  143.0778  162.8465 H   0  0  0  0  0  0  0  0  0  0  0  0
  152.0863  144.9148  162.2404 H   0  0  0  0  0  0  0  0  0  0  0  0
  1  2  1  0  0  0  0
  1 22  1  0  0  0  0
  1 23  1  0  0  0  0
  1 24  1  0  0  0  0
  2  3  1  0  0  0  0
  2 25  1  0  0  0  0
  3 21  1  0  0  0  0
  3  4  2  0  0  0  0
  4  5  1  0  0  0  0
  5  6  2  0  0  0  0
  5 26  1  0  0  0  0
  6  7  1  0  0  0  0
  7 21  2  0  0  0  0
  7  8  1  0  0  0  0
  8  9  2  0  0  0  0
  9 10  1  0  0  0  0
  9 27  1  0  0  0  0
 10 11  1  0  0  0  0
 10 21  1  0  0  0  0
 11 12  1  0  0  0  0
 11 28  1  0  0  0  0
 11 29  1  0  0  0  0
 12 13  1  0  0  0  0
 12 14  1  0  0  0  0
 12 30  1  0  0  0  0
 13 31  1  0  0  0  0
 14 19  1  0  0  0  0
 14 15  2  0  0  0  0
 15 16  1  0  0  0  0
 15 32  1  0  0  0  0
 16 17  2  0  0  0  0
 16 33  1  0  0  0  0
 17 18  1  0  0  0  0
 17 34  1  0  0  0  0
 18 19  2  0  0  0  0
 18 35  1  0  0  0  0
 19 20  1  0  0  0  0
M  END
> <s_m_source_file>
AV-unprocessed.smi

> <i_m_source_file_index>
807

> <i_lp_mmshare_version>
43012

> <i_f3d_flags>
0

> <s_epik_input>
bjFbY0hdbmMoW05IXVtDSDNdKWMoYzEyKW4oW2NIXW4yKVtDSDJdW0NASF0oW09IXSljM1tjSF1bY0hdW2NIXVtjSF1jM0Ns

> <s_epik_cmdline>
J2VwaWtfcHl0aG9uJywgJy1waCcsICc3LjAnLCAnLXRuJywgJzgnLCAnLW1hJywgJzIwMCcsICctbWV0YWxfYmluZGluZycsICctaW1hZScsICc8aW5maWxlLm1hZT4nLCAnLW9tYWUnLCAnPG91dGZpbGUubWFlPic=

> <r_lp_tautomer_probability>
1

> <r_epik_Ionization_Penalty>
0.00695285

> <r_epik_Ionization_Penalty_Charging>
0

> <r_epik_Ionization_Penalty_Neutral>
0.00695285

> <r_epik_State_Penalty>
-0

> <r_epik_Charging_Adjusted_Penalty>
0

> <i_epik_Tot_Q>
0

> <i_epik_Tot_abs_Q>
0

> <r_epik_Metal_State_Penalty>
-0

> <b_epik_Metal_Only>
0

> <s_lp_Force_Field>
OPLS_2005

> <r_lp_Energy>
12.6911

> <b_lp_Chiralities_Consistent>
1

> <s_lp_Variant>
AV-unprocessed.smi:807-2

> <Gold.Version>
5.8.1

> <Gold.Id.Protein>
6NUR|6NUR_protein|mol2

> <Gold.PLP.Fitness>
51.0312

> <Gold.PLP.PLP>
-45.2466

> <Gold.PLP.part.hbond>
-1.9577

> <Gold.PLP.part.metal>
0.0000

> <Gold.PLP.part.buried>
-5.0784

> <Gold.PLP.part.nonpolar>
-37.3862

> <Gold.PLP.part.repulsive>
0.3553

> <Gold.PLP.ligand.clash>
0.0000

> <Gold.PLP.ligand.torsion>
1.1369

> <Gold.PLP.Chemscore.Hbond>
1.6297

> <Gold.PLP.Chemscore.CHOScore>
1.0000

> <Gold.PLP.Chemscore.Metal>
0.0000

> <Gold.Chemscore.Hbonds>
donor molecule, donor type, donor heavy atom, donor atom, acceptor molecule, acceptor atom, score
      L1  H    13    31       P1  8028  0.88
      P1  H  7989  7998       L1     8  0.42
      L1  C     9    27       P1  8028  0.87

> <Gold.PLP.Chemscore.Internal.Correction>
0.1695

> <Gold.Rescore>
     Score         DG    S(hbond)    S(metal)    S(lipo)     H(rot)  DE(clash)    DE(int)     intcor
     11.89     -14.73       0.96        0.00     102.18       2.31       0.07       2.77       ----

> <Gold.Chemscore.Fitness>
11.8855

> <Gold.Chemscore.DG>
-14.7251

> <Gold.Chemscore.ZeroCoef>
-5.4800

> <Gold.Chemscore.Hbond>
0.9602

> <Gold.Chemscore.Metal>
0.0000

> <Gold.Chemscore.Lipo>
102.1835

> <Gold.Chemscore.Internal_Hbond>
0.0000

> <Gold.Chemscore.DEClash>
0.0703

> <Gold.Chemscore.DEInternal>
2.7694

> <Gold.Chemscore.Rot>
2.3115

> <Gold.Chemscore.Internal.Correction>
   9.000000E+99

> <Gold.Chemscore.Hbonds>
donor molecule, donor type, donor heavy atom, donor atom, acceptor molecule, acceptor atom, score
      L1  H    13    31       P1  8028  0.80
      P1  H  7989  7998       L1     8  0.01

> <Gold.Chemscore.Hbond.Weighted>
-3.2071

> <Gold.Chemscore.Metal.Weighted>
-0.0000

> <Gold.Chemscore.Lipo.Weighted>
-11.9555

> <Gold.Chemscore.Internal_Hbond.Weighted>
0.0000

> <Gold.Chemscore.DEClash.Weighted>
0.0703

> <Gold.Chemscore.DEInternal.Weighted>
2.7694

> <Gold.Chemscore.Rot.Weighted>
5.9174

> <Gold.Chemscore.Internal.Correction.Weighted>
   9.000000E+99

> <Gold.Protein.RotatedTorsions>
[ 6907 6896 6895 6894 ] final  168.15 input  -60.11 | X-H torsion
[ 7974 7965 7964 7962 ] final  106.81 input  175.53 | X-H torsion
[ 8008 7997 7996 7995 ] final  110.40 input   59.86 | X-H torsion
[ 10167 10162 10161 10158 ] final  -92.93 input  -65.29 | X-H torsion
[ 10718 10713 10712 10709 ] final  -96.25 input   66.30 | X-H torsion
[ 10763 10752 10751 10750 ] final  131.72 input  -60.55 | X-H torsion
[ 11005 11000 10999 10996 ] final -106.17 input  -57.11 | X-H torsion

> <Gold.Protein.ActiveResidues>
 VAL166  LYS551  ARG553  GLY616  TRP617  ASP618  TYR619  PRO620  LYS621  CYS622 
 ASP623  PHE694  ASN695  SER759  ASP760  ASP761  ALA762  ILE779  LEU786  VAL792 
 PHE793  MET794  SER795  GLU796  ALA797  LYS798  CYS799  TRP800  GLU811  SER814 

> <Gold.Protein.RotatedAtoms>
  151.8522  133.3442  159.3676 H   0  0  0  0  0  0  0  0  0  0  0  0  # atno 6907 bound_to 6896
  150.7203  134.5288  159.5699 H   0  0  0  0  0  0  0  0  0  0  0  0  # atno 6908 bound_to 6896
  152.2784  134.7856  160.0452 H   0  0  0  0  0  0  0  0  0  0  0  0  # atno 6909 bound_to 6896
  145.3018  139.2567  143.3810 H   0  0  0  0  0  0  0  0  0  0  0  0  # atno 7974 bound_to 7965
  156.2050  140.3039  155.9607 H   0  0  0  0  0  0  0  0  0  0  0  0  # atno 8008 bound_to 7997
  155.2863  140.0440  157.3036 H   0  0  0  0  0  0  0  0  0  0  0  0  # atno 8009 bound_to 7997
  154.5621  140.2323  155.8328 H   0  0  0  0  0  0  0  0  0  0  0  0  # atno 8010 bound_to 7997
  140.3298  143.3001  151.9954 H   0  0  0  0  0  0  0  0  0  0  0  0  # atno 10167 bound_to 10162
  156.0058  130.5143  150.6198 H   0  0  0  0  0  0  0  0  0  0  0  0  # atno 10718 bound_to 10713
  153.7789  135.3171  155.3363 H   0  0  0  0  0  0  0  0  0  0  0  0  # atno 10763 bound_to 10752
  154.8169  135.4630  154.0670 H   0  0  0  0  0  0  0  0  0  0  0  0  # atno 10764 bound_to 10752
  153.1953  135.6914  153.8385 H   0  0  0  0  0  0  0  0  0  0  0  0  # atno 10765 bound_to 10752
  141.1018  133.8871  157.1823 H   0  0  0  0  0  0  0  0  0  0  0  0  # atno 11005 bound_to 11000
  146.3149  140.3534  142.8658 LP  0  0  0  0  0  0  0  0  0  0  0  0  # atno 17320 bound_to 7965
  144.9087  140.7731  143.5821 LP  0  0  0  0  0  0  0  0  0  0  0  0  # atno 17321 bound_to 7965
  139.4858  144.6244  151.7193 LP  0  0  0  0  0  0  0  0  0  0  0  0  # atno 17342 bound_to 10162
  140.5408  144.0583  150.6087 LP  0  0  0  0  0  0  0  0  0  0  0  0  # atno 17343 bound_to 10162
  157.4016  131.0810  151.1303 LP  0  0  0  0  0  0  0  0  0  0  0  0  # atno 17370 bound_to 10713
  157.1963  130.6374  149.5722 LP  0  0  0  0  0  0  0  0  0  0  0  0  # atno 17371 bound_to 10713
  139.9872  135.0078  156.9890 LP  0  0  0  0  0  0  0  0  0  0  0  0  # atno 17394 bound_to 11000
  140.5004  134.1103  155.7249 LP  0  0  0  0  0  0  0  0  0  0  0  0  # atno 17395 bound_to 11000

$$$$
