AV-unprocessed.smi:1484|AV-procd|sdf|5998|dock2
  -GOLD-   22720 6 93D 1   1.00000     0.00000
 Structure written by MMmdl.
 38 39  0  0  0  0  0  0  0  0  1 V2000
  151.6407  144.9091  158.6992 C   0  0  0  0  0  0  0  0  0  0  0  0
  152.3112  143.5313  158.6064 C   0  0  1  0  0  0  0  0  0  0  0  0
  152.6035  142.9520  160.0036 C   0  0  0  0  0  0  0  0  0  0  0  0
  153.2750  141.5730  159.9116 C   0  0  0  0  0  0  0  0  0  0  0  0
  152.4280  140.5939  159.0847 C   0  0  0  0  0  0  0  0  0  0  0  0
  152.1252  141.1591  157.6825 C   0  0  1  0  0  0  0  0  0  0  0  0
  151.2485  140.2568  156.9452 N   0  0  0  0  0  0  0  0  0  0  0  0
  151.5132  139.7055  155.7484 C   0  0  0  0  0  0  0  0  0  0  0  0
  152.5612  139.9108  155.1371 O   0  0  0  0  0  0  0  0  0  0  0  0
  150.4553  138.7757  155.1278 C   0  0  0  0  0  0  0  0  0  0  0  0
  149.2601  139.4580  154.6047 N   0  0  0  0  0  0  0  0  0  0  0  0
  149.3678  140.8402  154.5710 N   0  0  0  0  0  0  0  0  0  0  0  0
  148.3924  141.5522  154.1171 C   0  0  0  0  0  0  0  0  0  0  0  0
  148.5431  142.9169  154.0989 O   0  0  0  0  0  0  0  0  0  0  0  0
  147.1742  140.9354  153.6401 C   0  0  0  0  0  0  0  0  0  0  0  0
  147.0775  139.5885  153.6786 C   0  0  0  0  0  0  0  0  0  0  0  0
  148.1662  138.7505  154.1844 C   0  0  0  0  0  0  0  0  0  0  0  0
  148.1101  137.5217  154.2200 O   0  0  0  0  0  0  0  0  0  0  0  0
  151.4607  142.5452  157.7825 C   0  0  0  0  0  0  0  0  0  0  0  0
  148.6620  143.1681  155.0021 H   0  0  0  0  0  0  0  0  0  0  0  0
  150.6799  144.8493  159.2117 H   0  0  0  0  0  0  0  0  0  0  0  0
  151.4640  145.3277  157.7080 H   0  0  0  0  0  0  0  0  0  0  0  0
  152.2669  145.6142  159.2467 H   0  0  0  0  0  0  0  0  0  0  0  0
  153.2637  143.6645  158.0910 H   0  0  0  0  0  0  0  0  0  0  0  0
  153.2447  143.6331  160.5642 H   0  0  0  0  0  0  0  0  0  0  0  0
  151.6749  142.8663  160.5698 H   0  0  0  0  0  0  0  0  0  0  0  0
  154.2613  141.6761  159.4574 H   0  0  0  0  0  0  0  0  0  0  0  0
  153.4359  141.1706  160.9121 H   0  0  0  0  0  0  0  0  0  0  0  0
  152.9499  139.6397  159.0028 H   0  0  0  0  0  0  0  0  0  0  0  0
  151.4942  140.3908  159.6111 H   0  0  0  0  0  0  0  0  0  0  0  0
  153.0633  141.2710  157.1351 H   0  0  0  0  0  0  0  0  0  0  0  0
  150.3628  140.0344  157.3762 H   0  0  0  0  0  0  0  0  0  0  0  0
  150.9288  138.1851  154.3417 H   0  0  0  0  0  0  0  0  0  0  0  0
  150.1604  138.0518  155.8896 H   0  0  0  0  0  0  0  0  0  0  0  0
  146.3663  141.5460  153.2646 H   0  0  0  0  0  0  0  0  0  0  0  0
  146.1731  139.1148  153.3256 H   0  0  0  0  0  0  0  0  0  0  0  0
  150.4738  142.4475  158.2379 H   0  0  0  0  0  0  0  0  0  0  0  0
  151.2988  142.9466  156.7810 H   0  0  0  0  0  0  0  0  0  0  0  0
  1  2  1  0  0  0  0
  1 21  1  0  0  0  0
  1 22  1  0  0  0  0
  1 23  1  0  0  0  0
  2 19  1  0  0  0  0
  2  3  1  0  0  0  0
  2 24  1  0  0  0  0
  3  4  1  0  0  0  0
  3 25  1  0  0  0  0
  3 26  1  0  0  0  0
  4  5  1  0  0  0  0
  4 27  1  0  0  0  0
  4 28  1  0  0  0  0
  5  6  1  0  0  0  0
  5 29  1  0  0  0  0
  5 30  1  0  0  0  0
  6  7  1  0  0  0  0
  6 19  1  0  0  0  0
  6 31  1  0  0  0  0
  7  8  1  0  0  0  0
  7 32  1  0  0  0  0
  8  9  2  0  0  0  0
  8 10  1  0  0  0  0
 10 33  1  0  0  0  0
 10 34  1  0  0  0  0
 10 11  1  0  0  0  0
 11 12  1  0  0  0  0
 11 17  1  0  0  0  0
 12 13  2  0  0  0  0
 13 14  1  0  0  0  0
 13 15  1  0  0  0  0
 14 20  1  0  0  0  0
 15 35  1  0  0  0  0
 15 16  2  0  0  0  0
 16 36  1  0  0  0  0
 16 17  1  0  0  0  0
 17 18  2  0  0  0  0
 19 37  1  0  0  0  0
 19 38  1  0  0  0  0
M  END
> <s_m_source_file>
AV-unprocessed.smi

> <i_m_source_file_index>
1484

> <i_lp_mmshare_version>
43012

> <i_f3d_flags>
0

> <s_epik_input>
W0NIM11bQ0BASF0xW0NIMl1bQ0gyXVtDSDJdW0NASF0oW0NIMl0xKVtOSF1DKD1PKVtDSDJdbjJbbkhdYyg9TylbY0hdW2NIXWMyPU8=

> <s_epik_cmdline>
J2VwaWtfcHl0aG9uJywgJy1waCcsICc3LjAnLCAnLXRuJywgJzgnLCAnLW1hJywgJzIwMCcsICctbWV0YWxfYmluZGluZycsICctaW1hZScsICc8aW5maWxlLm1hZT4nLCAnLW9tYWUnLCAnPG91dGZpbGUubWFlPic=

> <r_lp_tautomer_probability>
0.9996

> <r_epik_Ionization_Penalty>
2.10343

> <r_epik_Ionization_Penalty_Charging>
3.97871e-08

> <r_epik_Ionization_Penalty_Neutral>
2.10343

> <r_epik_State_Penalty>
1.67966

> <r_epik_Charging_Adjusted_Penalty>
1.67966

> <i_epik_Tot_Q>
0

> <i_epik_Tot_abs_Q>
0

> <r_epik_Metal_State_Penalty>
1.67966

> <b_epik_Metal_Only>
0

> <s_lp_Force_Field>
OPLS_2005

> <r_lp_Energy>
20.3723

> <b_lp_Chiralities_Consistent>
1

> <s_lp_Variant>
AV-unprocessed.smi:1484-6

> <Gold.Version>
5.8.1

> <Gold.Id.Protein>
6NUR|6NUR_protein|mol2

> <Gold.PLP.Fitness>
46.8371

> <Gold.PLP.PLP>
-40.1457

> <Gold.PLP.part.hbond>
-4.5326

> <Gold.PLP.part.metal>
0.0000

> <Gold.PLP.part.buried>
-3.7637

> <Gold.PLP.part.nonpolar>
-31.9277

> <Gold.PLP.part.repulsive>
1.8778

> <Gold.PLP.ligand.clash>
0.0000

> <Gold.PLP.ligand.torsion>
0.2435

> <Gold.PLP.Chemscore.Hbond>
2.3910

> <Gold.PLP.Chemscore.CHOScore>
0.0000

> <Gold.PLP.Chemscore.Metal>
0.0000

> <Gold.Chemscore.Hbonds>
donor molecule, donor type, donor heavy atom, donor atom, acceptor molecule, acceptor atom, score
      L1  H    14    20       P1  8028  0.54
      P1  H  7989  7998       L1     9  0.40
      P1  H  7997  8009       L1     9  0.96
      P1  H  8022  8030       L1    14  0.45

> <Gold.PLP.Chemscore.Internal.Correction>
0.0054

> <Gold.Rescore>
     Score         DG    S(hbond)    S(metal)    S(lipo)     H(rot)  DE(clash)    DE(int)     intcor
     15.82     -16.55       1.86        0.00      90.49       2.24       0.39       0.33       ----

> <Gold.Chemscore.Fitness>
15.8236

> <Gold.Chemscore.DG>
-16.5466

> <Gold.Chemscore.ZeroCoef>
-5.4800

> <Gold.Chemscore.Hbond>
1.8621

> <Gold.Chemscore.Metal>
0.0000

> <Gold.Chemscore.Lipo>
90.4854

> <Gold.Chemscore.Internal_Hbond>
0.0000

> <Gold.Chemscore.DEClash>
0.3942

> <Gold.Chemscore.DEInternal>
0.3287

> <Gold.Chemscore.Rot>
2.2421

> <Gold.Chemscore.Internal.Correction>
   9.000000E+99

> <Gold.Chemscore.Hbonds>
donor molecule, donor type, donor heavy atom, donor atom, acceptor molecule, acceptor atom, score
      L1  H    14    20       P1  8028  0.56
      P1  H  7989  7998       L1     9  0.06
      P1  H  7997  8009       L1     9  0.91
      P1  H  8022  8030       L1    14  0.02

> <Gold.Chemscore.Hbond.Weighted>
-6.2196

> <Gold.Chemscore.Metal.Weighted>
-0.0000

> <Gold.Chemscore.Lipo.Weighted>
-10.5868

> <Gold.Chemscore.Internal_Hbond.Weighted>
0.0000

> <Gold.Chemscore.DEClash.Weighted>
0.3942

> <Gold.Chemscore.DEInternal.Weighted>
0.3287

> <Gold.Chemscore.Rot.Weighted>
5.7398

> <Gold.Chemscore.Internal.Correction.Weighted>
   9.000000E+99

> <Gold.Protein.RotatedTorsions>
[ 6907 6896 6895 6894 ] final   79.43 input  -60.11 | X-H torsion
[ 7974 7965 7964 7962 ] final  -74.86 input  175.53 | X-H torsion
[ 8008 7997 7996 7995 ] final -137.20 input   59.86 | X-H torsion
[ 10167 10162 10161 10158 ] final    4.45 input  -65.29 | X-H torsion
[ 10718 10713 10712 10709 ] final  -64.00 input   66.30 | X-H torsion
[ 10763 10752 10751 10750 ] final -159.41 input  -60.55 | X-H torsion
[ 11005 11000 10999 10996 ] final  -93.05 input  -57.11 | X-H torsion

> <Gold.Protein.ActiveResidues>
 VAL166  LYS551  ARG553  GLY616  TRP617  ASP618  TYR619  PRO620  LYS621  CYS622 
 ASP623  PHE694  ASN695  SER759  ASP760  ASP761  ALA762  ILE779  LEU786  VAL792 
 PHE793  MET794  SER795  GLU796  ALA797  LYS798  CYS799  TRP800  GLU811  SER814 

> <Gold.Protein.RotatedAtoms>
  152.5198  134.3513  159.9251 H   0  0  0  0  0  0  0  0  0  0  0  0  # atno 6907 bound_to 6896
  151.3463  133.3936  159.2683 H   0  0  0  0  0  0  0  0  0  0  0  0  # atno 6908 bound_to 6896
  150.9762  134.9145  159.7875 H   0  0  0  0  0  0  0  0  0  0  0  0  # atno 6909 bound_to 6896
  145.6336  140.9331  143.1073 H   0  0  0  0  0  0  0  0  0  0  0  0  # atno 7974 bound_to 7965
  155.4079  140.0510  157.3033 H   0  0  0  0  0  0  0  0  0  0  0  0  # atno 8008 bound_to 7997
  154.4960  140.2138  155.9407 H   0  0  0  0  0  0  0  0  0  0  0  0  # atno 8009 bound_to 7997
  156.1405  140.3155  155.8494 H   0  0  0  0  0  0  0  0  0  0  0  0  # atno 8010 bound_to 7997
  140.6534  143.7488  150.7612 H   0  0  0  0  0  0  0  0  0  0  0  0  # atno 10167 bound_to 10162
  156.0756  130.4228  150.1357 H   0  0  0  0  0  0  0  0  0  0  0  0  # atno 10718 bound_to 10713
  154.7477  135.3084  154.8614 H   0  0  0  0  0  0  0  0  0  0  0  0  # atno 10763 bound_to 10752
  153.9410  135.6774  153.4748 H   0  0  0  0  0  0  0  0  0  0  0  0  # atno 10764 bound_to 10752
  153.1073  135.4883  154.8901 H   0  0  0  0  0  0  0  0  0  0  0  0  # atno 10765 bound_to 10752
  141.1507  133.7861  157.0105 H   0  0  0  0  0  0  0  0  0  0  0  0  # atno 11005 bound_to 11000
  144.7184  139.8116  143.7390 LP  0  0  0  0  0  0  0  0  0  0  0  0  # atno 17320 bound_to 7965
  146.1337  139.4377  143.0153 LP  0  0  0  0  0  0  0  0  0  0  0  0  # atno 17321 bound_to 7965
  140.1143  143.4670  152.2351 LP  0  0  0  0  0  0  0  0  0  0  0  0  # atno 17342 bound_to 10162
  139.5752  144.7484  151.3783 LP  0  0  0  0  0  0  0  0  0  0  0  0  # atno 17343 bound_to 10162
  156.9399  130.9741  151.3518 LP  0  0  0  0  0  0  0  0  0  0  0  0  # atno 17370 bound_to 10713
  157.5849  130.8403  149.8575 LP  0  0  0  0  0  0  0  0  0  0  0  0  # atno 17371 bound_to 10713
  140.0880  134.9609  157.1732 LP  0  0  0  0  0  0  0  0  0  0  0  0  # atno 17394 bound_to 11000
  140.3484  134.2626  155.7202 LP  0  0  0  0  0  0  0  0  0  0  0  0  # atno 17395 bound_to 11000

$$$$
