AV-unprocessed.smi:49|AV-procd|sdf|480|dock4
  -GOLD-   2262016343D 1   1.00000     0.00000
 Structure written by MMmdl.
 28 29  0  0  0  0  0  0  0  0  2 V2000
  150.7236  144.4951  158.6339 C   0  0  0  0  0  0  0  0  0  0  0  0
  151.8079  143.6583  157.9466 C   0  0  0  0  0  0  0  0  0  0  0  0
  151.2453  142.5061  157.1808 C   0  0  0  0  0  0  0  0  0  0  0  0
  150.3774  142.6781  156.1732 N   0  0  0  0  0  0  0  0  0  0  0  0
  150.1140  141.4223  155.7832 C   0  0  0  0  0  0  0  0  0  0  0  0
  149.1773  141.1358  154.6476 C   0  0  1  0  0  0  0  0  0  0  0  0
  148.0088  140.2090  154.9904 C   0  0  0  0  0  0  0  0  0  0  0  0
  146.9084  140.7228  154.0669 C   0  0  1  0  0  0  0  0  0  0  0  0
  145.6205  140.3769  154.5301 O   0  0  0  0  0  0  0  0  0  0  0  0
  147.1341  142.2392  154.0624 C   0  0  0  0  0  0  0  0  0  0  0  0
  148.5796  142.4400  154.2902 N   0  3  0  0  0  0  0  0  0  0  0  0
  150.7772  140.5057  156.4994 N   0  0  0  0  0  0  0  0  0  0  0  0
  151.5162  141.2209  157.4251 N   0  0  0  0  0  0  0  0  0  0  0  0
  149.7270  140.7560  153.7849 H   0  0  0  0  0  0  0  0  0  0  0  0
  147.0548  140.3235  153.0623 H   0  0  0  0  0  0  0  0  0  0  0  0
  150.0151  143.5441  155.8007 H   0  0  0  0  0  0  0  0  0  0  0  0
  151.1655  145.3250  159.1855 H   0  0  0  0  0  0  0  0  0  0  0  0
  150.1515  143.8931  159.3406 H   0  0  0  0  0  0  0  0  0  0  0  0
  150.0262  144.9113  157.9066 H   0  0  0  0  0  0  0  0  0  0  0  0
  152.3895  144.2865  157.2706 H   0  0  0  0  0  0  0  0  0  0  0  0
  152.5066  143.2748  158.6911 H   0  0  0  0  0  0  0  0  0  0  0  0
  148.2430  139.1531  154.8523 H   0  0  0  0  0  0  0  0  0  0  0  0
  147.7080  140.3540  156.0299 H   0  0  0  0  0  0  0  0  0  0  0  0
  145.0378  140.3085  153.7886 H   0  0  0  0  0  0  0  0  0  0  0  0
  146.8024  142.7087  153.1362 H   0  0  0  0  0  0  0  0  0  0  0  0
  146.6000  142.7113  154.8885 H   0  0  0  0  0  0  0  0  0  0  0  0
  148.7036  143.0858  155.0577 H   0  0  0  0  0  0  0  0  0  0  0  0
  149.0257  142.8056  153.4613 H   0  0  0  0  0  0  0  0  0  0  0  0
  1  2  1  0  0  0  0
  1 17  1  0  0  0  0
  1 18  1  0  0  0  0
  1 19  1  0  0  0  0
  2 20  1  0  0  0  0
  2 21  1  0  0  0  0
  2  3  1  0  0  0  0
  3  4  1  0  0  0  0
  3 13  2  0  0  0  0
  4 16  1  0  0  0  0
  4  5  1  0  0  0  0
  5 12  2  0  0  0  0
  5  6  1  0  0  0  0
  6 14  1  0  0  0  0
  6 11  1  0  0  0  0
  6  7  1  0  0  0  0
  7  8  1  0  0  0  0
  7 22  1  0  0  0  0
  7 23  1  0  0  0  0
  8 15  1  0  0  0  0
  8  9  1  0  0  0  0
  8 10  1  0  0  0  0
  9 24  1  0  0  0  0
 10 11  1  0  0  0  0
 10 25  1  0  0  0  0
 10 26  1  0  0  0  0
 11 27  1  0  0  0  0
 11 28  1  0  0  0  0
 12 13  1  0  0  0  0
M  CHG  1  11   1
M  END
> <s_m_source_file>
AV-unprocessed.smi

> <i_m_source_file_index>
49

> <i_lp_mmshare_version>
43012

> <i_f3d_flags>
0

> <s_epik_input>
W0NIM11bQ0gyXWMxbmMobltuSF0xKVtDQEBIXTJbQ0gyXVtDQEBIXShbT0hdKVtDSDJdW05IXTI=

> <s_epik_cmdline>
J2VwaWtfcHl0aG9uJywgJy1waCcsICc3LjAnLCAnLXRuJywgJzgnLCAnLW1hJywgJzIwMCcsICctbWV0YWxfYmluZGluZycsICctaW1hZScsICc8aW5maWxlLm1hZT4nLCAnLW9tYWUnLCAnPG91dGZpbGUubWFlPic=

> <r_lp_tautomer_probability>
0.0517155

> <r_epik_Ionization_Penalty>
0.939819

> <r_epik_Ionization_Penalty_Charging>
0.0688988

> <r_epik_Ionization_Penalty_Neutral>
0.87092

> <r_epik_State_Penalty>
2.1224

> <r_epik_Charging_Adjusted_Penalty>
2.1913

> <i_epik_Tot_Q>
1

> <i_epik_Tot_abs_Q>
1

> <r_epik_Metal_State_Penalty>
2.39725

> <b_epik_Metal_Only>
0

> <s_lp_Force_Field>
OPLS_2005

> <r_lp_Energy>
21.0642

> <b_lp_Chiralities_Consistent>
1

> <s_lp_Variant>
AV-unprocessed.smi:49-18

> <Gold.Version>
5.8.1

> <Gold.Id.Protein>
6NUR|6NUR_protein|mol2

> <Gold.PLP.Fitness>
35.6793

> <Gold.PLP.PLP>
-23.9275

> <Gold.PLP.part.hbond>
-3.0000

> <Gold.PLP.part.metal>
0.0000

> <Gold.PLP.part.buried>
-6.1079

> <Gold.PLP.part.nonpolar>
-17.7055

> <Gold.PLP.part.repulsive>
2.5187

> <Gold.PLP.ligand.clash>
0.0000

> <Gold.PLP.ligand.torsion>
0.0584

> <Gold.PLP.Chemscore.Hbond>
3.9520

> <Gold.PLP.Chemscore.CHOScore>
0.0000

> <Gold.PLP.Chemscore.Metal>
0.0000

> <Gold.Chemscore.Hbonds>
donor molecule, donor type, donor heavy atom, donor atom, acceptor molecule, acceptor atom, score
      L1  H     4    16       P1  8028  1.00
      L1  H     9    24       P1 10175  1.00
      L1  H    11    27       P1  8028  1.98

> <Gold.PLP.Chemscore.Internal.Correction>
0.0125

> <Gold.Rescore>
     Score         DG    S(hbond)    S(metal)    S(lipo)     H(rot)  DE(clash)    DE(int)     intcor
     14.74     -15.79       2.93        0.00      45.92       1.89       1.01       0.05       ----

> <Gold.Chemscore.Fitness>
14.7378

> <Gold.Chemscore.DG>
-15.7917

> <Gold.Chemscore.ZeroCoef>
-5.4800

> <Gold.Chemscore.Hbond>
2.9261

> <Gold.Chemscore.Metal>
0.0000

> <Gold.Chemscore.Lipo>
45.9198

> <Gold.Chemscore.Internal_Hbond>
0.0000

> <Gold.Chemscore.DEClash>
1.0050

> <Gold.Chemscore.DEInternal>
0.0489

> <Gold.Chemscore.Rot>
1.8883

> <Gold.Chemscore.Internal.Correction>
   9.000000E+99

> <Gold.Chemscore.Hbonds>
donor molecule, donor type, donor heavy atom, donor atom, acceptor molecule, acceptor atom, score
      L1  H     4    16       P1  8028  0.97
      L1  H     9    24       P1 10175  1.00
      L1  H    11    27       P1  8028  0.93

> <Gold.Chemscore.Hbond.Weighted>
-9.7731

> <Gold.Chemscore.Metal.Weighted>
-0.0000

> <Gold.Chemscore.Lipo.Weighted>
-5.3726

> <Gold.Chemscore.Internal_Hbond.Weighted>
0.0000

> <Gold.Chemscore.DEClash.Weighted>
1.0050

> <Gold.Chemscore.DEInternal.Weighted>
0.0489

> <Gold.Chemscore.Rot.Weighted>
4.8340

> <Gold.Chemscore.Internal.Correction.Weighted>
   9.000000E+99

> <Gold.Protein.RotatedTorsions>
[ 6907 6896 6895 6894 ] final  175.01 input  -60.11 | X-H torsion
[ 7974 7965 7964 7962 ] final  121.57 input  175.53 | X-H torsion
[ 8008 7997 7996 7995 ] final  -12.16 input   59.86 | X-H torsion
[ 10167 10162 10161 10158 ] final  -30.10 input  -65.29 | X-H torsion
[ 10718 10713 10712 10709 ] final   26.80 input   66.30 | X-H torsion
[ 10763 10752 10751 10750 ] final -173.53 input  -60.55 | X-H torsion
[ 11005 11000 10999 10996 ] final -159.96 input  -57.11 | X-H torsion

> <Gold.Protein.ActiveResidues>
 VAL166  LYS551  ARG553  GLY616  TRP617  ASP618  TYR619  PRO620  LYS621  CYS622 
 ASP623  PHE694  ASN695  SER759  ASP760  ASP761  ALA762  ILE779  LEU786  VAL792 
 PHE793  MET794  SER795  GLU796  ALA797  LYS798  CYS799  TRP800  GLU811  SER814 

> <Gold.Protein.RotatedAtoms>
  151.7431  133.3323  159.3370 H   0  0  0  0  0  0  0  0  0  0  0  0  # atno 6907 bound_to 6896
  150.7565  134.6260  159.6171 H   0  0  0  0  0  0  0  0  0  0  0  0  # atno 6908 bound_to 6896
  152.3518  134.6997  160.0285 H   0  0  0  0  0  0  0  0  0  0  0  0  # atno 6909 bound_to 6896
  145.1177  139.3410  143.4730 H   0  0  0  0  0  0  0  0  0  0  0  0  # atno 7974 bound_to 7965
  154.5401  140.2283  155.8655 H   0  0  0  0  0  0  0  0  0  0  0  0  # atno 8008 bound_to 7997
  156.1850  140.3091  155.9184 H   0  0  0  0  0  0  0  0  0  0  0  0  # atno 8009 bound_to 7997
  155.3275  140.0443  157.3032 H   0  0  0  0  0  0  0  0  0  0  0  0  # atno 8010 bound_to 7997
  140.7253  143.3876  151.1488 H   0  0  0  0  0  0  0  0  0  0  0  0  # atno 10167 bound_to 10162
  157.2117  130.6937  149.6231 H   0  0  0  0  0  0  0  0  0  0  0  0  # atno 10718 bound_to 10713
  154.6068  135.2860  155.0476 H   0  0  0  0  0  0  0  0  0  0  0  0  # atno 10763 bound_to 10752
  154.1721  135.6471  153.5016 H   0  0  0  0  0  0  0  0  0  0  0  0  # atno 10764 bound_to 10752
  153.0178  135.5403  154.6806 H   0  0  0  0  0  0  0  0  0  0  0  0  # atno 10765 bound_to 10752
  140.6368  134.4593  157.5232 H   0  0  0  0  0  0  0  0  0  0  0  0  # atno 11005 bound_to 11000
  146.3523  140.1123  142.8603 LP  0  0  0  0  0  0  0  0  0  0  0  0  # atno 17320 bound_to 7965
  145.0775  140.9198  143.4845 LP  0  0  0  0  0  0  0  0  0  0  0  0  # atno 17321 bound_to 7965
  139.7475  143.8829  152.3067 LP  0  0  0  0  0  0  0  0  0  0  0  0  # atno 17342 bound_to 10162
  139.8671  144.7087  150.9031 LP  0  0  0  0  0  0  0  0  0  0  0  0  # atno 17343 bound_to 10162
  155.9690  130.4549  150.5867 LP  0  0  0  0  0  0  0  0  0  0  0  0  # atno 17370 bound_to 10713
  157.3666  131.0758  151.1593 LP  0  0  0  0  0  0  0  0  0  0  0  0  # atno 17371 bound_to 10713
  139.9095  134.8375  156.1580 LP  0  0  0  0  0  0  0  0  0  0  0  0  # atno 17394 bound_to 11000
  141.0636  133.6830  156.2000 LP  0  0  0  0  0  0  0  0  0  0  0  0  # atno 17395 bound_to 11000

$$$$
