AV-unprocessed.smi:1840|AV-procd|sdf|7494|dock1
  -GOLD-   22720 9193D 1   1.00000     0.00000
 Structure written by MMmdl.
 43 44  0  0  0  0  0  0  0  0  1 V2000
  144.0247  135.3669  153.1115 C   0  0  0  0  0  0  0  0  0  0  0  0
  144.1103  136.3343  151.9232 C   0  0  2  0  0  0  0  0  0  0  0  0
  145.0072  135.7704  150.8013 C   0  0  0  0  0  0  0  0  0  0  0  0
  145.0763  134.3193  150.8183 N   0  0  0  0  0  0  0  0  0  0  0  0
  144.0599  133.4112  150.6095 C   0  0  0  0  0  0  0  0  0  0  0  0
  144.6040  132.1627  150.7073 C   0  0  0  0  0  0  0  0  0  0  0  0
  145.9758  132.4137  150.9895 C   0  0  0  0  0  0  0  0  0  0  0  0
  146.2555  133.7052  151.0567 N   0  0  0  0  0  0  0  0  0  0  0  0
  144.6166  137.6242  152.3919 N   0  0  0  0  0  0  0  0  0  0  0  0
  145.7360  137.8105  153.1066 C   0  0  0  0  0  0  0  0  0  0  0  0
  146.5065  136.9071  153.4328 O   0  0  0  0  0  0  0  0  0  0  0  0
  145.9026  139.0993  153.4377 N   0  0  0  0  0  0  0  0  0  0  0  0
  147.0139  139.6460  154.2159 C   0  0  1  0  0  0  0  0  0  0  0  0
  148.3254  139.0007  153.7256 C   0  0  0  0  0  0  0  0  0  0  0  0
  149.5464  139.5616  154.4686 C   0  0  0  0  0  0  0  0  0  0  0  0
  149.6118  141.0896  154.3426 C   0  0  0  0  0  0  0  0  0  0  0  0
  148.3120  141.7399  154.8401 C   0  0  0  0  0  0  0  0  0  0  0  0
  147.0741  141.1920  154.1008 C   0  0  2  0  0  0  0  0  0  0  0  0
  145.7954  141.8819  154.6085 C   0  0  0  0  0  0  0  0  0  0  0  0
  143.6234  134.4011  152.8028 H   0  0  0  0  0  0  0  0  0  0  0  0
  143.3717  135.7598  153.8916 H   0  0  0  0  0  0  0  0  0  0  0  0
  145.0060  135.1927  153.5545 H   0  0  0  0  0  0  0  0  0  0  0  0
  143.0981  136.4510  151.5312 H   0  0  0  0  0  0  0  0  0  0  0  0
  144.6532  136.1028  149.8240 H   0  0  0  0  0  0  0  0  0  0  0  0
  146.0234  136.1516  150.9089 H   0  0  0  0  0  0  0  0  0  0  0  0
  143.0477  133.7263  150.4031 H   0  0  0  0  0  0  0  0  0  0  0  0
  144.0992  131.2152  150.5933 H   0  0  0  0  0  0  0  0  0  0  0  0
  146.7726  131.7009  151.1435 H   0  0  0  0  0  0  0  0  0  0  0  0
  144.0522  138.4339  152.1804 H   0  0  0  0  0  0  0  0  0  0  0  0
  145.2034  139.7586  153.1287 H   0  0  0  0  0  0  0  0  0  0  0  0
  146.8925  139.3845  155.2690 H   0  0  0  0  0  0  0  0  0  0  0  0
  148.2827  137.9191  153.8599 H   0  0  0  0  0  0  0  0  0  0  0  0
  148.4455  139.1733  152.6549 H   0  0  0  0  0  0  0  0  0  0  0  0
  149.4953  139.2817  155.5216 H   0  0  0  0  0  0  0  0  0  0  0  0
  150.4596  139.1161  154.0732 H   0  0  0  0  0  0  0  0  0  0  0  0
  150.4606  141.4732  154.9094 H   0  0  0  0  0  0  0  0  0  0  0  0
  149.7845  141.3655  153.3015 H   0  0  0  0  0  0  0  0  0  0  0  0
  148.2070  141.5656  155.9119 H   0  0  0  0  0  0  0  0  0  0  0  0
  148.3762  142.8207  154.7102 H   0  0  0  0  0  0  0  0  0  0  0  0
  147.1824  141.4485  153.0455 H   0  0  0  0  0  0  0  0  0  0  0  0
  145.5858  141.6157  155.6450 H   0  0  0  0  0  0  0  0  0  0  0  0
  144.9279  141.6039  154.0109 H   0  0  0  0  0  0  0  0  0  0  0  0
  145.8858  142.9670  154.5548 H   0  0  0  0  0  0  0  0  0  0  0  0
  1  2  1  0  0  0  0
  1 20  1  0  0  0  0
  1 21  1  0  0  0  0
  1 22  1  0  0  0  0
  2  3  1  0  0  0  0
  2  9  1  0  0  0  0
  2 23  1  0  0  0  0
  3  4  1  0  0  0  0
  3 24  1  0  0  0  0
  3 25  1  0  0  0  0
  4  8  1  0  0  0  0
  4  5  1  0  0  0  0
  5  6  2  0  0  0  0
  5 26  1  0  0  0  0
  6  7  1  0  0  0  0
  6 27  1  0  0  0  0
  7  8  2  0  0  0  0
  7 28  1  0  0  0  0
  9 10  1  0  0  0  0
  9 29  1  0  0  0  0
 10 11  2  0  0  0  0
 10 12  1  0  0  0  0
 12 13  1  0  0  0  0
 12 30  1  0  0  0  0
 13 18  1  0  0  0  0
 13 14  1  0  0  0  0
 13 31  1  0  0  0  0
 14 15  1  0  0  0  0
 14 32  1  0  0  0  0
 14 33  1  0  0  0  0
 15 16  1  0  0  0  0
 15 34  1  0  0  0  0
 15 35  1  0  0  0  0
 16 17  1  0  0  0  0
 16 36  1  0  0  0  0
 16 37  1  0  0  0  0
 17 18  1  0  0  0  0
 17 38  1  0  0  0  0
 17 39  1  0  0  0  0
 18 19  1  0  0  0  0
 18 40  1  0  0  0  0
 19 41  1  0  0  0  0
 19 42  1  0  0  0  0
 19 43  1  0  0  0  0
M  END
> <s_m_source_file>
AV-unprocessed.smi

> <i_m_source_file_index>
1840

> <i_lp_mmshare_version>
43012

> <i_f3d_flags>
0

> <s_epik_input>
bjFbY0hdW2NIXVtjSF1uMVtDSDJdW0NAQEhdKFtDSDNdKVtOSF1DKD1PKVtOSF1bQ0BASF0yW0NIMl1bQ0gyXVtDSDJdW0NIMl1bQ0BIXTJbQ0gzXQ==

> <s_epik_cmdline>
J2VwaWtfcHl0aG9uJywgJy1waCcsICc3LjAnLCAnLXRuJywgJzgnLCAnLW1hJywgJzIwMCcsICctbWV0YWxfYmluZGluZycsICctaW1hZScsICc8aW5maWxlLm1hZT4nLCAnLW9tYWUnLCAnPG91dGZpbGUubWFlPic=

> <r_lp_tautomer_probability>
1

> <r_epik_Ionization_Penalty>
7.38659e-05

> <r_epik_Ionization_Penalty_Charging>
0

> <r_epik_Ionization_Penalty_Neutral>
7.38659e-05

> <r_epik_State_Penalty>
-0

> <r_epik_Charging_Adjusted_Penalty>
0

> <i_epik_Tot_Q>
0

> <i_epik_Tot_abs_Q>
0

> <r_epik_Metal_State_Penalty>
-0

> <b_epik_Metal_Only>
0

> <s_lp_Force_Field>
OPLS_2005

> <r_lp_Energy>
7.66905

> <b_lp_Chiralities_Consistent>
1

> <s_lp_Variant>
AV-unprocessed.smi:1840-7

> <Gold.Version>
5.8.1

> <Gold.Id.Protein>
6NUR|6NUR_protein|mol2

> <Gold.PLP.Fitness>
43.9086

> <Gold.PLP.PLP>
-33.6043

> <Gold.PLP.part.hbond>
-3.0000

> <Gold.PLP.part.metal>
0.0000

> <Gold.PLP.part.buried>
-0.8831

> <Gold.PLP.part.nonpolar>
-29.6773

> <Gold.PLP.part.repulsive>
0.9260

> <Gold.PLP.ligand.clash>
0.0000

> <Gold.PLP.ligand.torsion>
0.7464

> <Gold.PLP.Chemscore.Hbond>
1.9188

> <Gold.PLP.Chemscore.CHOScore>
2.0000

> <Gold.PLP.Chemscore.Metal>
0.0000

> <Gold.Chemscore.Hbonds>
donor molecule, donor type, donor heavy atom, donor atom, acceptor molecule, acceptor atom, score
      L1  H     9    29       P1 10175  0.93
      L1  H    12    30       P1 10175  1.00
      L1  C     5    26       P1 10186  1.00
      L1  C     7    28       P1 10747  1.00

> <Gold.PLP.Chemscore.Internal.Correction>
0.0405

> <Gold.Rescore>
     Score         DG    S(hbond)    S(metal)    S(lipo)     H(rot)  DE(clash)    DE(int)     intcor
     13.92     -17.04       1.94        0.00      77.52       1.56       0.18       2.94       ----

> <Gold.Chemscore.Fitness>
13.9212

> <Gold.Chemscore.DG>
-17.0418

> <Gold.Chemscore.ZeroCoef>
-5.4800

> <Gold.Chemscore.Hbond>
1.9400

> <Gold.Chemscore.Metal>
0.0000

> <Gold.Chemscore.Lipo>
77.5198

> <Gold.Chemscore.Internal_Hbond>
0.0000

> <Gold.Chemscore.DEClash>
0.1835

> <Gold.Chemscore.DEInternal>
2.9371

> <Gold.Chemscore.Rot>
1.5576

> <Gold.Chemscore.Internal.Correction>
   9.000000E+99

> <Gold.Chemscore.Hbonds>
donor molecule, donor type, donor heavy atom, donor atom, acceptor molecule, acceptor atom, score
      L1  H     9    29       P1 10175  0.84
      L1  H    12    30       P1 10175  1.00

> <Gold.Chemscore.Hbond.Weighted>
-6.4794

> <Gold.Chemscore.Metal.Weighted>
-0.0000

> <Gold.Chemscore.Lipo.Weighted>
-9.0698

> <Gold.Chemscore.Internal_Hbond.Weighted>
0.0000

> <Gold.Chemscore.DEClash.Weighted>
0.1835

> <Gold.Chemscore.DEInternal.Weighted>
2.9371

> <Gold.Chemscore.Rot.Weighted>
3.9875

> <Gold.Chemscore.Internal.Correction.Weighted>
   9.000000E+99

> <Gold.Protein.RotatedTorsions>
[ 6907 6896 6895 6894 ] final   99.99 input  -60.11 | X-H torsion
[ 7974 7965 7964 7962 ] final    7.46 input  175.53 | X-H torsion
[ 8008 7997 7996 7995 ] final  163.25 input   59.86 | X-H torsion
[ 10167 10162 10161 10158 ] final   35.97 input  -65.29 | X-H torsion
[ 10718 10713 10712 10709 ] final -155.21 input   66.30 | X-H torsion
[ 10763 10752 10751 10750 ] final  -41.37 input  -60.55 | X-H torsion
[ 11005 11000 10999 10996 ] final   99.50 input  -57.11 | X-H torsion

> <Gold.Protein.ActiveResidues>
 VAL166  LYS551  ARG553  GLY616  TRP617  ASP618  TYR619  PRO620  LYS621  CYS622 
 ASP623  PHE694  ASN695  SER759  ASP760  ASP761  ALA762  ILE779  LEU786  VAL792 
 PHE793  MET794  SER795  GLU796  ALA797  LYS798  CYS799  TRP800  GLU811  SER814 

> <Gold.Protein.RotatedAtoms>
  152.5381  134.0345  159.8039 H   0  0  0  0  0  0  0  0  0  0  0  0  # atno 6907 bound_to 6896
  151.0511  133.5616  159.2649 H   0  0  0  0  0  0  0  0  0  0  0  0  # atno 6908 bound_to 6896
  151.2550  135.0642  159.9130 H   0  0  0  0  0  0  0  0  0  0  0  0  # atno 6909 bound_to 6896
  146.2426  140.0080  142.8409 H   0  0  0  0  0  0  0  0  0  0  0  0  # atno 7974 bound_to 7965
  156.1971  140.1728  156.7976 H   0  0  0  0  0  0  0  0  0  0  0  0  # atno 8008 bound_to 7997
  154.5543  140.0711  156.8749 H   0  0  0  0  0  0  0  0  0  0  0  0  # atno 8009 bound_to 7997
  155.2968  140.3359  155.4252 H   0  0  0  0  0  0  0  0  0  0  0  0  # atno 8010 bound_to 7997
  140.4171  144.1511  150.6144 H   0  0  0  0  0  0  0  0  0  0  0  0  # atno 10167 bound_to 10162
  156.5097  130.8429  151.2641 H   0  0  0  0  0  0  0  0  0  0  0  0  # atno 10718 bound_to 10713
  153.9613  135.6739  153.4745 H   0  0  0  0  0  0  0  0  0  0  0  0  # atno 10763 bound_to 10752
  153.0836  135.4910  154.8550 H   0  0  0  0  0  0  0  0  0  0  0  0  # atno 10764 bound_to 10752
  154.7271  135.3130  154.8913 H   0  0  0  0  0  0  0  0  0  0  0  0  # atno 10765 bound_to 10752
  139.8771  134.9098  156.4616 H   0  0  0  0  0  0  0  0  0  0  0  0  # atno 11005 bound_to 11000
  145.1354  140.9541  143.4520 LP  0  0  0  0  0  0  0  0  0  0  0  0  # atno 17320 bound_to 7965
  145.0347  139.3310  143.6007 LP  0  0  0  0  0  0  0  0  0  0  0  0  # atno 17321 bound_to 7965
  140.4574  143.2462  151.9266 LP  0  0  0  0  0  0  0  0  0  0  0  0  # atno 17342 bound_to 10162
  139.4782  144.5502  151.8398 LP  0  0  0  0  0  0  0  0  0  0  0  0  # atno 17343 bound_to 10162
  157.7452  130.9954  150.2741 LP  0  0  0  0  0  0  0  0  0  0  0  0  # atno 17370 bound_to 10713
  156.3252  130.3792  149.7539 LP  0  0  0  0  0  0  0  0  0  0  0  0  # atno 17371 bound_to 10713
  140.8860  133.7883  155.9519 LP  0  0  0  0  0  0  0  0  0  0  0  0  # atno 17394 bound_to 11000
  140.8804  134.2618  157.5147 LP  0  0  0  0  0  0  0  0  0  0  0  0  # atno 17395 bound_to 11000

$$$$
