AV-unprocessed.smi:2339|AV-procd|sdf|9337|dock4
  -GOLD-   2272012553D 1   1.00000     0.00000
 Structure written by MMmdl.
 49 52  0  0  0  0  0  0  0  0  1 V2000
  151.5228  145.1468  159.9930 C   0  0  0  0  0  0  0  0  0  0  0  0
  152.2289  144.5272  161.2039 C   0  0  0  0  0  0  0  0  0  0  0  0
  152.6364  143.1529  160.9490 N   0  0  0  0  0  0  0  0  0  0  0  0
  153.5131  142.4903  161.8022 C   0  0  0  0  0  0  0  0  0  0  0  0
  153.9948  141.2524  161.5777 C   0  0  0  0  0  0  0  0  0  0  0  0
  153.5882  140.5280  160.3565 C   0  0  0  0  0  0  0  0  0  0  0  0
  154.0130  139.3980  160.1154 O   0  0  0  0  0  0  0  0  0  0  0  0
  152.6477  141.2345  159.4482 C   0  0  0  0  0  0  0  0  0  0  0  0
  152.2740  140.5473  158.2837 N   0  0  0  0  0  0  0  0  0  0  0  0
  151.5538  140.9829  157.2305 C   0  0  0  0  0  0  0  0  0  0  0  0
  151.0371  142.0941  157.1351 O   0  0  0  0  0  0  0  0  0  0  0  0
  151.3858  140.0546  156.2731 N   0  0  0  0  0  0  0  0  0  0  0  0
  150.6583  140.2002  155.0058 C   0  0  1  0  0  0  0  0  0  0  0  0
  150.3588  138.8576  154.2953 C   0  0  1  0  0  0  0  0  0  0  0  0
  150.9836  137.5444  154.7024 C   0  0  0  0  0  0  0  0  0  0  0  0
  149.9078  136.9162  155.5927 C   0  0  0  0  0  0  0  0  0  0  0  0
  149.1017  138.0127  156.0171 O   0  0  0  0  0  0  0  0  0  0  0  0
  148.9712  138.9065  154.9148 C   0  0  1  0  0  0  0  0  0  0  0  0
  149.1411  140.4075  155.2262 C   0  0  0  0  0  0  0  0  0  0  0  0
  148.6152  140.9177  156.5681 C   0  0  0  0  0  0  0  0  0  0  0  0
  147.1576  141.3210  156.3439 C   0  0  0  0  0  0  0  0  0  0  0  0
  147.0610  141.6860  154.8597 C   0  0  0  0  0  0  0  0  0  0  0  0
  148.4306  141.3528  154.2573 C   0  0  0  0  0  0  0  0  0  0  0  0
  152.2440  142.4839  159.7913 C   0  0  0  0  0  0  0  0  0  0  0  0
  151.2180  146.1714  160.2059 H   0  0  0  0  0  0  0  0  0  0  0  0
  150.6291  144.5821  159.7258 H   0  0  0  0  0  0  0  0  0  0  0  0
  152.1796  145.1697  159.1228 H   0  0  0  0  0  0  0  0  0  0  0  0
  153.1032  145.1236  161.4680 H   0  0  0  0  0  0  0  0  0  0  0  0
  151.5682  144.5552  162.0711 H   0  0  0  0  0  0  0  0  0  0  0  0
  153.7846  143.0510  162.6849 H   0  0  0  0  0  0  0  0  0  0  0  0
  154.6731  140.7765  162.2707 H   0  0  0  0  0  0  0  0  0  0  0  0
  152.5650  139.5807  158.2547 H   0  0  0  0  0  0  0  0  0  0  0  0
  151.7219  139.1249  156.4801 H   0  0  0  0  0  0  0  0  0  0  0  0
  151.0810  140.9509  154.3354 H   0  0  0  0  0  0  0  0  0  0  0  0
  150.3068  138.9997  153.2147 H   0  0  0  0  0  0  0  0  0  0  0  0
  151.2017  136.9086  153.8441 H   0  0  0  0  0  0  0  0  0  0  0  0
  151.9164  137.6794  155.2475 H   0  0  0  0  0  0  0  0  0  0  0  0
  149.2903  136.2254  155.0170 H   0  0  0  0  0  0  0  0  0  0  0  0
  150.3264  136.3748  156.4411 H   0  0  0  0  0  0  0  0  0  0  0  0
  148.1652  138.6410  154.2291 H   0  0  0  0  0  0  0  0  0  0  0  0
  148.7037  140.1809  157.3670 H   0  0  0  0  0  0  0  0  0  0  0  0
  149.1859  141.7927  156.8822 H   0  0  0  0  0  0  0  0  0  0  0  0
  146.5029  140.4750  156.5570 H   0  0  0  0  0  0  0  0  0  0  0  0
  146.8574  142.1422  156.9952 H   0  0  0  0  0  0  0  0  0  0  0  0
  146.2762  141.0997  154.3802 H   0  0  0  0  0  0  0  0  0  0  0  0
  146.8173  142.7393  154.7174 H   0  0  0  0  0  0  0  0  0  0  0  0
  149.0063  142.2730  154.1480 H   0  0  0  0  0  0  0  0  0  0  0  0
  148.3303  140.9280  153.2576 H   0  0  0  0  0  0  0  0  0  0  0  0
  151.5817  143.0743  159.1778 H   0  0  0  0  0  0  0  0  0  0  0  0
  1  2  1  0  0  0  0
  1 25  1  0  0  0  0
  1 26  1  0  0  0  0
  1 27  1  0  0  0  0
  2  3  1  0  0  0  0
  2 28  1  0  0  0  0
  2 29  1  0  0  0  0
  3 24  1  0  0  0  0
  3  4  1  0  0  0  0
  4  5  2  0  0  0  0
  4 30  1  0  0  0  0
  5  6  1  0  0  0  0
  5 31  1  0  0  0  0
  6  7  2  0  0  0  0
  6  8  1  0  0  0  0
  8  9  1  0  0  0  0
  8 24  2  0  0  0  0
  9 10  1  0  0  0  0
  9 32  1  0  0  0  0
 10 11  2  0  0  0  0
 10 12  1  0  0  0  0
 12 13  1  0  0  0  0
 12 33  1  0  0  0  0
 13 19  1  0  0  0  0
 13 14  1  0  0  0  0
 13 34  1  0  0  0  0
 14 18  1  0  0  0  0
 14 15  1  0  0  0  0
 14 35  1  0  0  0  0
 15 16  1  0  0  0  0
 15 36  1  0  0  0  0
 15 37  1  0  0  0  0
 16 17  1  0  0  0  0
 16 38  1  0  0  0  0
 16 39  1  0  0  0  0
 17 18  1  0  0  0  0
 18 19  1  0  0  0  0
 18 40  1  0  0  0  0
 19 23  1  0  0  0  0
 19 20  1  0  0  0  0
 20 21  1  0  0  0  0
 20 41  1  0  0  0  0
 20 42  1  0  0  0  0
 21 22  1  0  0  0  0
 21 43  1  0  0  0  0
 21 44  1  0  0  0  0
 22 23  1  0  0  0  0
 22 45  1  0  0  0  0
 22 46  1  0  0  0  0
 23 47  1  0  0  0  0
 23 48  1  0  0  0  0
 24 49  1  0  0  0  0
M  END
> <s_m_source_file>
AV-unprocessed.smi

> <i_m_source_file_index>
2339

> <i_lp_mmshare_version>
43012

> <i_f3d_flags>
0

> <s_epik_input>
W0NIM11bQ0gyXW4xW2NIXVtjSF1jKD1PKWMoW2NIXTEpW05IXUMoPU8pW05IXVtDQEBIXTJbQ0BASF0oW0NIMl1bQ0gyXU8zKVtDQEBIXTNDMjRbQ0gyXVtDSDJdW0NIMl1bQ0gyXTQ=

> <s_epik_cmdline>
J2VwaWtfcHl0aG9uJywgJy1waCcsICc3LjAnLCAnLXRuJywgJzgnLCAnLW1hJywgJzIwMCcsICctbWV0YWxfYmluZGluZycsICctaW1hZScsICc8aW5maWxlLm1hZT4nLCAnLW9tYWUnLCAnPG91dGZpbGUubWFlPic=

> <r_lp_tautomer_probability>
1

> <r_epik_Ionization_Penalty>
0.00145966

> <r_epik_Ionization_Penalty_Charging>
0.00143969

> <r_epik_Ionization_Penalty_Neutral>
1.99697e-05

> <r_epik_State_Penalty>
0.000961843

> <r_epik_Charging_Adjusted_Penalty>
0.00240153

> <i_epik_Tot_Q>
0

> <i_epik_Tot_abs_Q>
0

> <r_epik_Metal_State_Penalty>
-0

> <b_epik_Metal_Only>
0

> <s_lp_Force_Field>
OPLS_2005

> <r_lp_Energy>
59.7263

> <b_lp_Chiralities_Consistent>
1

> <s_lp_Variant>
AV-unprocessed.smi:2339-2

> <Gold.Version>
5.8.1

> <Gold.Id.Protein>
6NUR|6NUR_protein|mol2

> <Gold.PLP.Fitness>
47.3816

> <Gold.PLP.PLP>
-47.6022

> <Gold.PLP.part.hbond>
0.0000

> <Gold.PLP.part.metal>
0.0000

> <Gold.PLP.part.buried>
-4.6431

> <Gold.PLP.part.nonpolar>
-42.7933

> <Gold.PLP.part.repulsive>
0.3175

> <Gold.PLP.ligand.clash>
0.0000

> <Gold.PLP.ligand.torsion>
0.2135

> <Gold.PLP.Chemscore.Hbond>
0.0000

> <Gold.PLP.Chemscore.CHOScore>
0.0000

> <Gold.PLP.Chemscore.Metal>
0.0000

> <Gold.PLP.Chemscore.Internal.Correction>
0.2063

> <Gold.Rescore>
     Score         DG    S(hbond)    S(metal)    S(lipo)     H(rot)  DE(clash)    DE(int)     intcor
     13.57     -16.54       0.00        0.00     120.05       1.17       1.42       1.55       ----

> <Gold.Chemscore.Fitness>
13.5664

> <Gold.Chemscore.DG>
-16.5388

> <Gold.Chemscore.ZeroCoef>
-5.4800

> <Gold.Chemscore.Hbond>
0.0000

> <Gold.Chemscore.Metal>
0.0000

> <Gold.Chemscore.Lipo>
120.0535

> <Gold.Chemscore.Internal_Hbond>
0.0000

> <Gold.Chemscore.DEClash>
1.4226

> <Gold.Chemscore.DEInternal>
1.5498

> <Gold.Chemscore.Rot>
1.1670

> <Gold.Chemscore.Internal.Correction>
   9.000000E+99

> <Gold.Chemscore.Hbond.Weighted>
-0.0000

> <Gold.Chemscore.Metal.Weighted>
-0.0000

> <Gold.Chemscore.Lipo.Weighted>
-14.0463

> <Gold.Chemscore.Internal_Hbond.Weighted>
0.0000

> <Gold.Chemscore.DEClash.Weighted>
1.4226

> <Gold.Chemscore.DEInternal.Weighted>
1.5498

> <Gold.Chemscore.Rot.Weighted>
2.9874

> <Gold.Chemscore.Internal.Correction.Weighted>
   9.000000E+99

> <Gold.Protein.RotatedTorsions>
[ 6907 6896 6895 6894 ] final  107.11 input  -60.11 | X-H torsion
[ 7974 7965 7964 7962 ] final  -77.96 input  175.53 | X-H torsion
[ 8008 7997 7996 7995 ] final  -49.84 input   59.86 | X-H torsion
[ 10167 10162 10161 10158 ] final  153.90 input  -65.29 | X-H torsion
[ 10718 10713 10712 10709 ] final  160.20 input   66.30 | X-H torsion
[ 10763 10752 10751 10750 ] final -139.18 input  -60.55 | X-H torsion
[ 11005 11000 10999 10996 ] final  -53.74 input  -57.11 | X-H torsion

> <Gold.Protein.ActiveResidues>
 VAL166  LYS551  ARG553  GLY616  TRP617  ASP618  TYR619  PRO620  LYS621  CYS622 
 ASP623  PHE694  ASN695  SER759  ASP760  ASP761  ALA762  ILE779  LEU786  VAL792 
 PHE793  MET794  SER795  GLU796  ALA797  LYS798  CYS799  TRP800  GLU811  SER814 

> <Gold.Protein.RotatedAtoms>
  152.5167  133.9283  159.7567 H   0  0  0  0  0  0  0  0  0  0  0  0  # atno 6907 bound_to 6896
  150.9639  133.6407  159.2756 H   0  0  0  0  0  0  0  0  0  0  0  0  # atno 6908 bound_to 6896
  151.3643  135.0915  159.9497 H   0  0  0  0  0  0  0  0  0  0  0  0  # atno 6909 bound_to 6896
  145.5927  140.9426  143.1283 H   0  0  0  0  0  0  0  0  0  0  0  0  # atno 7974 bound_to 7965
  154.4051  140.1287  156.4568 H   0  0  0  0  0  0  0  0  0  0  0  0  # atno 8008 bound_to 7997
  155.7312  140.3491  155.5040 H   0  0  0  0  0  0  0  0  0  0  0  0  # atno 8009 bound_to 7997
  155.9125  140.1038  157.1258 H   0  0  0  0  0  0  0  0  0  0  0  0  # atno 8010 bound_to 7997
  139.4825  144.5233  151.7841 H   0  0  0  0  0  0  0  0  0  0  0  0  # atno 10167 bound_to 10162
  157.1537  131.0570  151.2267 H   0  0  0  0  0  0  0  0  0  0  0  0  # atno 10718 bound_to 10713
  154.8616  135.3590  154.5505 H   0  0  0  0  0  0  0  0  0  0  0  0  # atno 10763 bound_to 10752
  153.6123  135.7009  153.5347 H   0  0  0  0  0  0  0  0  0  0  0  0  # atno 10764 bound_to 10752
  153.3199  135.4154  155.1368 H   0  0  0  0  0  0  0  0  0  0  0  0  # atno 10765 bound_to 10752
  141.0991  133.6620  156.4216 H   0  0  0  0  0  0  0  0  0  0  0  0  # atno 11005 bound_to 11000
  144.7344  139.7629  143.7335 LP  0  0  0  0  0  0  0  0  0  0  0  0  # atno 17320 bound_to 7965
  146.1634  139.4757  142.9973 LP  0  0  0  0  0  0  0  0  0  0  0  0  # atno 17321 bound_to 7965
  140.4750  144.1532  150.5923 LP  0  0  0  0  0  0  0  0  0  0  0  0  # atno 17342 bound_to 10162
  140.4341  143.2555  151.9558 LP  0  0  0  0  0  0  0  0  0  0  0  0  # atno 17343 bound_to 10162
  157.4197  130.7430  149.6903 LP  0  0  0  0  0  0  0  0  0  0  0  0  # atno 17370 bound_to 10713
  155.9766  130.4074  150.3769 LP  0  0  0  0  0  0  0  0  0  0  0  0  # atno 17371 bound_to 10713
  140.5067  134.6434  157.5269 LP  0  0  0  0  0  0  0  0  0  0  0  0  # atno 17394 bound_to 11000
  139.9836  134.7097  155.9814 LP  0  0  0  0  0  0  0  0  0  0  0  0  # atno 17395 bound_to 11000

$$$$
