#       Name:                AV-unprocessed.smi:218
#       Creating user name   scv26
#       Creation time:       Thu Mar 26 20:09:19 2020


#       File generated by GOLD software.
#

@<TRIPOS>MOLECULE
AV-unprocessed.smi:218
    68    71     1
SMALL
NO_CHARGES


@<TRIPOS>ATOM
      1 ****        -2.5411   5.2296  -3.6503 C.3            1 S1                 0.0000
      2 ****        -3.0427   4.3150  -2.5265 C.3            1 S1                 0.0000
      3 ****        -2.4740   4.7451  -1.1631 C.3            1 S1                 0.0000
      4 ****        -2.6136   2.9905  -2.8478 O.3            1 S1                 0.0000
      5 ****        -3.2364   1.8996  -2.2726 C.ar           1 S1                 0.0000
      6 ****        -2.7360   0.6147  -2.5655 C.ar           1 S1                 0.0000
      7 ****        -3.3598  -0.5100  -1.9853 C.ar           1 S1                 0.0000
      8 ****        -2.8590  -1.9175  -2.2660 C.3            1 S1                 0.0000
      9 ****        -1.4089  -2.0781  -2.2255 N.pl3          1 S1                 0.0000
     10 ****        -0.7296  -1.9062  -1.0699 C.ar           1 S1                 0.0000
     11 ****        -1.3787  -1.8231   0.1209 N.ar           1 S1                 0.0000
     12 ****        -0.6836  -1.6570   1.2499 C.ar           1 S1                 0.0000
     13 ****         0.6378  -1.5582   1.4089 N.ar           1 S1                 0.0000
     14 ****         1.2957  -1.6471   0.2167 C.ar           1 S1                 0.0000
     15 ****         0.6866  -1.8193  -1.0577 C.ar           1 S1                 0.0000
     16 ****         1.6626  -1.8646  -2.0446 N.2            1 S1                 0.0000
     17 ****         2.7825  -1.7287  -1.3865 C.2            1 S1                 0.0000
     18 ****         2.6543  -1.5954  -0.0218 N.pl3          1 S1                 0.0000
     19 ****         3.7491  -1.4364   0.9824 C.3            1 S1                 0.0000
     20 ****         3.3535  -0.4772   1.9108 O.3            1 S1                 0.0000
     21 ****         3.8541  -0.8419   3.1871 C.3            1 S1                 0.0000
     22 ****         3.1076  -0.0903   4.3031 C.3            1 S1                 0.0000
     23 ****         3.6722  -0.3919   5.5615 O.3            1 S1                 0.0000
     24 ****         3.7670  -2.3763   3.1964 C.3            1 S1                 0.0000
     25 ****         2.4994  -2.8322   3.6288 O.3            1 S1                 0.0000
     26 ****         4.0027  -2.7554   1.7355 C.3            1 S1                 0.0000
     27 ****         5.3404  -3.1824   1.5718 O.3            1 S1                 0.0000
     28 ****        -4.4693  -0.3035  -1.1418 C.ar           1 S1                 0.0000
     29 ****        -4.8979   1.0175  -0.9094 C.ar           1 S1                 0.0000
     30 ****        -4.3032   2.0975  -1.4587 N.ar           1 S1                 0.0000
     31 ****         4.6094  -1.0839   0.4111 H              1 S1                 0.0000
     32 ****         4.9072  -0.5546   3.2051 H              1 S1                 0.0000
     33 ****         4.5120  -2.8071   3.8674 H              1 S1                 0.0000
     34 ****         3.3301  -3.5444   1.3937 H              1 S1                 0.0000
     35 ****        -2.8375   6.2645  -3.4774 H              1 S1                 0.0000
     36 ****        -2.9515   4.9243  -4.6131 H              1 S1                 0.0000
     37 ****        -1.4538   5.2013  -3.7284 H              1 S1                 0.0000
     38 ****        -4.1315   4.3845  -2.5161 H              1 S1                 0.0000
     39 ****        -2.7591   5.7707  -0.9276 H              1 S1                 0.0000
     40 ****        -1.3851   4.6927  -1.1578 H              1 S1                 0.0000
     41 ****        -2.8385   4.1124  -0.3544 H              1 S1                 0.0000
     42 ****        -1.8856   0.4989  -3.2212 H              1 S1                 0.0000
     43 ****        -3.3194  -2.6204  -1.5704 H              1 S1                 0.0000
     44 ****        -3.2011  -2.2049  -3.2603 H              1 S1                 0.0000
     45 ****        -0.9513  -2.1551  -3.1223 H              1 S1                 0.0000
     46 ****        -1.2691  -1.5963   2.1553 H              1 S1                 0.0000
     47 ****         3.7423  -1.7276  -1.8824 H              1 S1                 0.0000
     48 ****         3.1863   0.9849   4.1412 H              1 S1                 0.0000
     49 ****         2.0442  -0.3310   4.3075 H              1 S1                 0.0000
     50 ****         3.2135   0.1040   6.2228 H              1 S1                 0.0000
     51 ****         2.3623  -2.5348   4.5154 H              1 S1                 0.0000
     52 ****         5.4641  -3.9732   2.0741 H              1 S1                 0.0000
     53 ****        -4.9784  -1.1352  -0.6773 H              1 S1                 0.0000
     54 ****        -5.7426   1.2122  -0.2653 H              1 S1                 0.0000
     55 ****        -1.6464   2.9333  -2.6004 LP             1 S1                 0.0000
     56 ****        -2.7109   2.8886  -3.8378 LP             1 S1                 0.0000
     57 ****        -2.3762  -1.8862   0.1523 LP             1 S1                 0.0000
     58 ****         1.0898  -1.4343   2.2923 LP             1 S1                 0.0000
     59 ****         1.5371  -1.9755  -3.0305 LP             1 S1                 0.0000
     60 ****         2.3551  -0.4314   1.9420 LP             1 S1                 0.0000
     61 ****         3.7201   0.4155   1.6486 LP             1 S1                 0.0000
     62 ****         4.6409  -0.1434   5.5649 LP             1 S1                 0.0000
     63 ****         3.5784  -1.3699   5.7476 LP             1 S1                 0.0000
     64 ****         2.4718  -3.8314   3.5995 LP             1 S1                 0.0000
     65 ****         1.7861  -2.4614   3.0340 LP             1 S1                 0.0000
     66 ****         5.9641  -2.4728   1.8997 LP             1 S1                 0.0000
     67 ****         5.5211  -3.3643   0.6052 LP             1 S1                 0.0000
     68 ****        -4.6404   3.0199  -1.2704 LP             1 S1                 0.0000
@<TRIPOS>BOND
    1    1    2 1     
    2    1   35 1     
    3    1   36 1     
    4    1   37 1     
    5    2    3 1     
    6    2    4 1     
    7    2   38 1     
    8    3   39 1     
    9    3   40 1     
   10    3   41 1     
   11    4    5 1     
   12    5   30 ar    
   13    5    6 ar    
   14    6    7 ar    
   15    6   42 1     
   16    7    8 1     
   17    7   28 ar    
   18    8    9 1     
   19    8   43 1     
   20    8   44 1     
   21    9   10 1     
   22    9   45 1     
   23   10   15 ar    
   24   10   11 ar    
   25   11   12 ar    
   26   12   13 ar    
   27   12   46 1     
   28   13   14 ar    
   29   14   18 1     
   30   14   15 ar    
   31   15   16 1     
   32   16   17 2     
   33   17   18 1     
   34   17   47 1     
   35   18   19 1     
   36   19   31 1     
   37   19   26 1     
   38   19   20 1     
   39   20   21 1     
   40   21   32 1     
   41   21   22 1     
   42   21   24 1     
   43   22   23 1     
   44   22   48 1     
   45   22   49 1     
   46   23   50 1     
   47   24   33 1     
   48   24   25 1     
   49   24   26 1     
   50   25   51 1     
   51   26   34 1     
   52   26   27 1     
   53   27   52 1     
   54   28   29 ar    
   55   28   53 1     
   56   29   30 ar    
   57   29   54 1     
   58    4   55 1     
   59    4   56 1     
   60   11   57 1     
   61   13   58 1     
   62   16   59 1     
   63   20   60 1     
   64   20   61 1     
   65   23   62 1     
   66   23   63 1     
   67   25   64 1     
   68   25   65 1     
   69   27   66 1     
   70   27   67 1     
   71   30   68 1     
@<TRIPOS>SUBSTRUCTURE
      1 S1             1
@<TRIPOS>SET
LONE_PAIRS      STATIC     ATOMS    <user>   **** ""
14 55 56 57 58 59 60 61 62 63 64 65 66 67 68
DONOR_HYDROGENS      STATIC     ATOMS    <user>   **** ""
4 45 50 51 52
ATOM$BLUE        STATIC     ATOMS    COLORGROUP SYSTEM
14 55 56 57 58 59 60 61 62 63 64 65 66 67 68
ATOM$RED        STATIC     ATOMS    COLORGROUP SYSTEM
4 45 50 51 52
