AV-unprocessed.smi:1346|AV-procd|sdf|5513|dock10
  -GOLD-   22720 5 93D 1   1.00000     0.00000
 Structure written by MMmdl.
 47 48  0  0  0  0  0  0  0  0  1 V2000
  148.6104  137.2513  159.0263 C   0  0  0  0  0  0  0  0  0  0  0  0
  148.1964  136.3092  160.1200 C   0  0  0  0  0  0  0  0  0  0  0  0
  147.9622  136.7878  161.3301 N   0  0  0  0  0  0  0  0  0  0  0  0
  147.6004  135.6883  162.1139 O   0  0  0  0  0  0  0  0  0  0  0  0
  147.6332  134.5768  161.3360 C   0  0  0  0  0  0  0  0  0  0  0  0
  147.2701  133.2908  161.9981 C   0  0  0  0  0  0  0  0  0  0  0  0
  148.0069  134.8980  160.0597 C   0  0  0  0  0  0  0  0  0  0  0  0
  148.1749  133.9851  158.8723 C   0  0  0  0  0  0  0  0  0  0  0  0
  147.0261  134.2039  157.8876 C   0  0  0  0  0  0  0  0  0  0  0  0
  145.9992  134.7736  158.2570 O   0  0  0  0  0  0  0  0  0  0  0  0
  147.2105  133.7465  156.6398 N   0  0  0  0  0  0  0  0  0  0  0  0
  146.2380  133.8387  155.5567 C   0  0  0  0  0  0  0  0  0  0  0  0
  146.9148  133.8181  154.1784 C   0  0  0  0  0  0  0  0  0  0  0  0
  145.9306  134.0038  153.1726 O   0  0  0  0  0  0  0  0  0  0  0  0
  146.3991  133.7693  151.8490 C   0  0  1  0  0  0  0  0  0  0  0  0
  146.2494  132.2664  151.5495 C   0  0  0  0  0  0  0  0  0  0  0  0
  144.7743  131.8354  151.4954 C   0  0  0  0  0  0  0  0  0  0  0  0
  143.9830  132.6836  150.4888 C   0  0  0  0  0  0  0  0  0  0  0  0
  144.1132  134.1831  150.7998 C   0  0  0  0  0  0  0  0  0  0  0  0
  145.5896  134.6251  150.8470 C   0  0  1  0  0  0  0  0  0  0  0  0
  145.7235  136.1311  151.1205 C   0  0  0  0  0  0  0  0  0  0  0  0
  148.4257  136.8231  158.0414 H   0  0  0  0  0  0  0  0  0  0  0  0
  149.6734  137.4834  159.0939 H   0  0  0  0  0  0  0  0  0  0  0  0
  148.0591  138.1904  159.0830 H   0  0  0  0  0  0  0  0  0  0  0  0
  147.0567  132.5167  161.2607 H   0  0  0  0  0  0  0  0  0  0  0  0
  146.3841  133.4127  162.6214 H   0  0  0  0  0  0  0  0  0  0  0  0
  148.0850  132.9393  162.6308 H   0  0  0  0  0  0  0  0  0  0  0  0
  149.1298  134.1521  158.3723 H   0  0  0  0  0  0  0  0  0  0  0  0
  148.1759  132.9373  159.1740 H   0  0  0  0  0  0  0  0  0  0  0  0
  148.0855  133.2901  156.4267 H   0  0  0  0  0  0  0  0  0  0  0  0
  145.5202  133.0208  155.6360 H   0  0  0  0  0  0  0  0  0  0  0  0
  145.6718  134.7622  155.6789 H   0  0  0  0  0  0  0  0  0  0  0  0
  147.6786  134.5948  154.1171 H   0  0  0  0  0  0  0  0  0  0  0  0
  147.4144  132.8605  154.0256 H   0  0  0  0  0  0  0  0  0  0  0  0
  147.4568  134.0261  151.7577 H   0  0  0  0  0  0  0  0  0  0  0  0
  146.7236  132.0414  150.5934 H   0  0  0  0  0  0  0  0  0  0  0  0
  146.7820  131.6820  152.3005 H   0  0  0  0  0  0  0  0  0  0  0  0
  144.7055  130.7808  151.2277 H   0  0  0  0  0  0  0  0  0  0  0  0
  144.3268  131.9316  152.4853 H   0  0  0  0  0  0  0  0  0  0  0  0
  144.3466  132.4869  149.4795 H   0  0  0  0  0  0  0  0  0  0  0  0
  142.9326  132.3912  150.5012 H   0  0  0  0  0  0  0  0  0  0  0  0
  143.5769  134.7579  150.0441 H   0  0  0  0  0  0  0  0  0  0  0  0
  143.6295  134.4019  151.7528 H   0  0  0  0  0  0  0  0  0  0  0  0
  146.0127  134.4463  149.8572 H   0  0  0  0  0  0  0  0  0  0  0  0
  145.2832  136.4030  152.0800 H   0  0  0  0  0  0  0  0  0  0  0  0
  145.2199  136.7152  150.3500 H   0  0  0  0  0  0  0  0  0  0  0  0
  146.7700  136.4367  151.1350 H   0  0  0  0  0  0  0  0  0  0  0  0
  1  2  1  0  0  0  0
  1 22  1  0  0  0  0
  1 23  1  0  0  0  0
  1 24  1  0  0  0  0
  2  7  1  0  0  0  0
  2  3  2  0  0  0  0
  3  4  1  0  0  0  0
  4  5  1  0  0  0  0
  5  6  1  0  0  0  0
  5  7  2  0  0  0  0
  6 25  1  0  0  0  0
  6 26  1  0  0  0  0
  6 27  1  0  0  0  0
  7  8  1  0  0  0  0
  8  9  1  0  0  0  0
  8 28  1  0  0  0  0
  8 29  1  0  0  0  0
  9 10  2  0  0  0  0
  9 11  1  0  0  0  0
 11 12  1  0  0  0  0
 11 30  1  0  0  0  0
 12 13  1  0  0  0  0
 12 31  1  0  0  0  0
 12 32  1  0  0  0  0
 13 14  1  0  0  0  0
 13 33  1  0  0  0  0
 13 34  1  0  0  0  0
 14 15  1  0  0  0  0
 15 20  1  0  0  0  0
 15 16  1  0  0  0  0
 15 35  1  0  0  0  0
 16 17  1  0  0  0  0
 16 36  1  0  0  0  0
 16 37  1  0  0  0  0
 17 18  1  0  0  0  0
 17 38  1  0  0  0  0
 17 39  1  0  0  0  0
 18 19  1  0  0  0  0
 18 40  1  0  0  0  0
 18 41  1  0  0  0  0
 19 20  1  0  0  0  0
 19 42  1  0  0  0  0
 19 43  1  0  0  0  0
 20 21  1  0  0  0  0
 20 44  1  0  0  0  0
 21 45  1  0  0  0  0
 21 46  1  0  0  0  0
 21 47  1  0  0  0  0
M  END
> <s_m_source_file>
AV-unprocessed.smi

> <i_m_source_file_index>
1346

> <i_lp_mmshare_version>
43012

> <i_f3d_flags>
0

> <s_epik_input>
W0NIM11jMW5vYyhbQ0gzXSljMVtDSDJdQyg9TylbTkhdW0NIMl1bQ0gyXU9bQ0BASF0yW0NIMl1bQ0gyXVtDSDJdW0NIMl1bQ0BIXTJbQ0gzXQ==

> <s_epik_cmdline>
J2VwaWtfcHl0aG9uJywgJy1waCcsICc3LjAnLCAnLXRuJywgJzgnLCAnLW1hJywgJzIwMCcsICctbWV0YWxfYmluZGluZycsICctaW1hZScsICc8aW5maWxlLm1hZT4nLCAnLW9tYWUnLCAnPG91dGZpbGUubWFlPic=

> <r_lp_tautomer_probability>
1

> <r_epik_Ionization_Penalty>
3.26154e-08

> <r_epik_Ionization_Penalty_Charging>
0

> <r_epik_Ionization_Penalty_Neutral>
3.26154e-08

> <r_epik_State_Penalty>
-0

> <r_epik_Charging_Adjusted_Penalty>
0

> <i_epik_Tot_Q>
0

> <i_epik_Tot_abs_Q>
0

> <r_epik_Metal_State_Penalty>
-0

> <b_epik_Metal_Only>
0

> <s_lp_Force_Field>
OPLS_2005

> <r_lp_Energy>
6.45158

> <b_lp_Chiralities_Consistent>
1

> <s_lp_Variant>
AV-unprocessed.smi:1346-2

> <Gold.Version>
5.8.1

> <Gold.Id.Protein>
6NUR|6NUR_protein|mol2

> <Gold.PLP.Fitness>
36.5116

> <Gold.PLP.PLP>
-32.8138

> <Gold.PLP.part.hbond>
-2.0000

> <Gold.PLP.part.metal>
0.0000

> <Gold.PLP.part.buried>
-5.0080

> <Gold.PLP.part.nonpolar>
-25.3938

> <Gold.PLP.part.repulsive>
0.0912

> <Gold.PLP.ligand.clash>
0.0000

> <Gold.PLP.ligand.torsion>
0.9060

> <Gold.PLP.Chemscore.Hbond>
1.8160

> <Gold.PLP.Chemscore.CHOScore>
0.0000

> <Gold.PLP.Chemscore.Metal>
0.0000

> <Gold.Chemscore.Hbonds>
donor molecule, donor type, donor heavy atom, donor atom, acceptor molecule, acceptor atom, score
      P1  H  6931  6943       L1     3  1.00
      P1  H  6934  6947       L1     3  0.06

> <Gold.PLP.Chemscore.Internal.Correction>
0.0617

> <Gold.Rescore>
     Score         DG    S(hbond)    S(metal)    S(lipo)     H(rot)  DE(clash)    DE(int)     intcor
     14.55     -15.47       1.45        0.00      82.08       1.74       0.01       0.91       ----

> <Gold.Chemscore.Fitness>
14.5466

> <Gold.Chemscore.DG>
-15.4713

> <Gold.Chemscore.ZeroCoef>
-5.4800

> <Gold.Chemscore.Hbond>
1.4462

> <Gold.Chemscore.Metal>
0.0000

> <Gold.Chemscore.Lipo>
82.0759

> <Gold.Chemscore.Internal_Hbond>
0.0000

> <Gold.Chemscore.DEClash>
0.0099

> <Gold.Chemscore.DEInternal>
0.9148

> <Gold.Chemscore.Rot>
1.7352

> <Gold.Chemscore.Internal.Correction>
   9.000000E+99

> <Gold.Chemscore.Hbonds>
donor molecule, donor type, donor heavy atom, donor atom, acceptor molecule, acceptor atom, score
      P1  H  6931  6943       L1     3  0.94
      P1  H  6934  6947       L1     3  0.04

> <Gold.Chemscore.Hbond.Weighted>
-4.8304

> <Gold.Chemscore.Metal.Weighted>
-0.0000

> <Gold.Chemscore.Lipo.Weighted>
-9.6029

> <Gold.Chemscore.Internal_Hbond.Weighted>
0.0000

> <Gold.Chemscore.DEClash.Weighted>
0.0099

> <Gold.Chemscore.DEInternal.Weighted>
0.9148

> <Gold.Chemscore.Rot.Weighted>
4.4420

> <Gold.Chemscore.Internal.Correction.Weighted>
   9.000000E+99

> <Gold.Protein.RotatedTorsions>
[ 6907 6896 6895 6894 ] final  141.01 input  -60.11 | X-H torsion
[ 7974 7965 7964 7962 ] final  102.02 input  175.53 | X-H torsion
[ 8008 7997 7996 7995 ] final  140.97 input   59.86 | X-H torsion
[ 10167 10162 10161 10158 ] final   86.04 input  -65.29 | X-H torsion
[ 10718 10713 10712 10709 ] final  -35.96 input   66.30 | X-H torsion
[ 10763 10752 10751 10750 ] final  113.02 input  -60.55 | X-H torsion
[ 11005 11000 10999 10996 ] final  169.05 input  -57.11 | X-H torsion

> <Gold.Protein.ActiveResidues>
 VAL166  LYS551  ARG553  GLY616  TRP617  ASP618  TYR619  PRO620  LYS621  CYS622 
 ASP623  PHE694  ASN695  SER759  ASP760  ASP761  ALA762  ILE779  LEU786  VAL792 
 PHE793  MET794  SER795  GLU796  ALA797  LYS798  CYS799  TRP800  GLU811  SER814 

> <Gold.Protein.RotatedAtoms>
  152.2361  133.5097  159.5243 H   0  0  0  0  0  0  0  0  0  0  0  0  # atno 6907 bound_to 6896
  150.7051  134.1151  159.4023 H   0  0  0  0  0  0  0  0  0  0  0  0  # atno 6908 bound_to 6896
  151.9072  135.0354  160.0562 H   0  0  0  0  0  0  0  0  0  0  0  0  # atno 6909 bound_to 6896
  145.3646  139.2410  143.3488 H   0  0  0  0  0  0  0  0  0  0  0  0  # atno 7974 bound_to 7965
  156.2972  140.2327  156.4488 H   0  0  0  0  0  0  0  0  0  0  0  0  # atno 8008 bound_to 7997
  154.8120  140.0442  157.1370 H   0  0  0  0  0  0  0  0  0  0  0  0  # atno 8009 bound_to 7997
  154.9413  140.3030  155.5123 H   0  0  0  0  0  0  0  0  0  0  0  0  # atno 8010 bound_to 7997
  139.8916  144.6382  150.8732 H   0  0  0  0  0  0  0  0  0  0  0  0  # atno 10167 bound_to 10162
  156.3325  130.4281  149.7860 H   0  0  0  0  0  0  0  0  0  0  0  0  # atno 10718 bound_to 10713
  153.4863  135.3668  155.2468 H   0  0  0  0  0  0  0  0  0  0  0  0  # atno 10763 bound_to 10752
  154.8753  135.3966  154.3641 H   0  0  0  0  0  0  0  0  0  0  0  0  # atno 10764 bound_to 10752
  153.4253  135.7081  153.6332 H   0  0  0  0  0  0  0  0  0  0  0  0  # atno 10765 bound_to 10752
  140.2937  134.7652  157.3859 H   0  0  0  0  0  0  0  0  0  0  0  0  # atno 11005 bound_to 11000
  146.2912  140.4286  142.8739 LP  0  0  0  0  0  0  0  0  0  0  0  0  # atno 17320 bound_to 7965
  144.8621  140.7154  143.6101 LP  0  0  0  0  0  0  0  0  0  0  0  0  # atno 17321 bound_to 7965
  140.7725  143.3505  151.2023 LP  0  0  0  0  0  0  0  0  0  0  0  0  # atno 17342 bound_to 10162
  139.7104  143.9385  152.2945 LP  0  0  0  0  0  0  0  0  0  0  0  0  # atno 17343 bound_to 10162
  156.5127  130.8179  151.3174 LP  0  0  0  0  0  0  0  0  0  0  0  0  # atno 17370 bound_to 10713
  157.7433  130.9909  150.2581 LP  0  0  0  0  0  0  0  0  0  0  0  0  # atno 17371 bound_to 10713
  140.1172  134.5267  155.8215 LP  0  0  0  0  0  0  0  0  0  0  0  0  # atno 17394 bound_to 11000
  141.2141  133.6744  156.6799 LP  0  0  0  0  0  0  0  0  0  0  0  0  # atno 17395 bound_to 11000

$$$$
