#       Name:                AV-unprocessed.smi:2061
#       Creating user name   scv26
#       Creation time:       Fri Mar 27 11:04:34 2020


#       File generated by GOLD software.
#

@<TRIPOS>MOLECULE
AV-unprocessed.smi:2061
    53    54     1
SMALL
NO_CHARGES


@<TRIPOS>ATOM
      1 ****        -3.9327   7.0693   2.2843 C.3            1 S1                 0.0000
      2 ****        -3.4000   5.7250   1.9244 C.2            1 S1                 0.0000
      3 ****        -3.1440   5.1149   0.7286 C.2            1 S1                 0.0000
      4 ****        -2.6480   3.8427   1.1188 C.2            1 S1                 0.0000
      5 ****        -2.2550   2.8850   0.1493 N.am           1 S1                 0.0000
      6 ****        -1.7584   1.6559   0.3699 C.2            1 S1                 0.0000
      7 ****        -1.5815   1.1486   1.4779 O.2            1 S1                 0.0000
      8 ****        -1.4648   1.0317  -0.7798 N.am           1 S1                 0.0000
      9 ****        -0.8927  -0.3083  -0.8719 C.3            1 S1                 0.0000
     10 ****         0.6195  -0.3478  -0.5251 C.3            1 S1                 0.0000
     11 ****         1.4068   0.5937  -1.4684 C.3            1 S1                 0.0000
     12 ****         1.1113  -1.7641  -0.5352 N.4            1 S1                 1.0000
     13 ****         2.5673  -1.9473  -0.7807 C.3            1 S1                 0.0000
     14 ****         2.9311  -3.4422  -0.8561 C.3            1 S1                 0.0000
     15 ****         4.4410  -3.6578  -1.0102 C.3            1 S1                 0.0000
     16 ****         2.5166  -4.1023   0.3348 O.3            1 S1                 0.0000
     17 ****         1.1252  -3.9873   0.6228 C.3            1 S1                 0.0000
     18 ****         0.2530  -4.8137  -0.3390 C.3            1 S1                 0.0000
     19 ****         0.7244  -2.5024   0.6972 C.3            1 S1                 0.0000
     20 ****        -2.6045   3.6898   2.4334 N.2            1 S1                 0.0000
     21 ****        -3.0865   4.8954   2.9564 O.3            1 S1                 0.0000
     22 ****        -4.2509   7.6130   1.3947 H              1 S1                 0.0000
     23 ****        -3.1712   7.6632   2.7897 H              1 S1                 0.0000
     24 ****        -4.7908   6.9799   2.9505 H              1 S1                 0.0000
     25 ****        -3.2888   5.5174  -0.2628 H              1 S1                 0.0000
     26 ****        -2.3525   3.1717  -0.8135 H              1 S1                 0.0000
     27 ****        -1.6417   1.5165  -1.6476 H              1 S1                 0.0000
     28 ****        -1.4765  -0.9697  -0.2327 H              1 S1                 0.0000
     29 ****        -1.0453  -0.6669  -1.8904 H              1 S1                 0.0000
     30 ****         0.7615   0.0380   0.4856 H              1 S1                 0.0000
     31 ****         1.0060   1.6070  -1.4520 H              1 S1                 0.0000
     32 ****         1.3708   0.2463  -2.5015 H              1 S1                 0.0000
     33 ****         2.4521   0.6865  -1.1735 H              1 S1                 0.0000
     34 ****         2.8613  -1.4950  -1.7271 H              1 S1                 0.0000
     35 ****         3.1355  -1.4547   0.0102 H              1 S1                 0.0000
     36 ****         2.4387  -3.8948  -1.7171 H              1 S1                 0.0000
     37 ****         4.8172  -3.1797  -1.9151 H              1 S1                 0.0000
     38 ****         4.6785  -4.7199  -1.0741 H              1 S1                 0.0000
     39 ****         4.9880  -3.2453  -0.1617 H              1 S1                 0.0000
     40 ****         0.9891  -4.4160   1.6162 H              1 S1                 0.0000
     41 ****        -0.7869  -4.8147  -0.0114 H              1 S1                 0.0000
     42 ****         0.5877  -5.8507  -0.3729 H              1 S1                 0.0000
     43 ****         0.2699  -4.4224  -1.3558 H              1 S1                 0.0000
     44 ****         1.2178  -2.0398   1.5536 H              1 S1                 0.0000
     45 ****        -0.3453  -2.4321   0.8871 H              1 S1                 0.0000
     46 ****         0.6455  -2.2162  -1.3090 H              1 S1                 0.0000
     47 ****        -1.8136   1.6604   2.3050 LP             1 S1                 0.0000
     48 ****        -1.2056   0.2248   1.5506 LP             1 S1                 0.0000
     49 ****         3.0272  -3.7127   1.1013 LP             1 S1                 0.0000
     50 ****         2.7377  -5.0735   0.2463 LP             1 S1                 0.0000
     51 ****        -2.2944   2.8868   2.9424 LP             1 S1                 0.0000
     52 ****        -3.9025   4.7207   3.5074 LP             1 S1                 0.0000
     53 ****        -2.3833   5.3194   3.5272 LP             1 S1                 0.0000
@<TRIPOS>BOND
    1    1    2 1     
    2    1   22 1     
    3    1   23 1     
    4    1   24 1     
    5    2   21 1     
    6    2    3 2     
    7    3    4 1     
    8    3   25 1     
    9    4    5 1     
   10    4   20 2     
   11    5    6 am    
   12    5   26 1     
   13    6    7 2     
   14    6    8 am    
   15    8    9 1     
   16    8   27 1     
   17    9   10 1     
   18    9   28 1     
   19    9   29 1     
   20   10   11 1     
   21   10   12 1     
   22   10   30 1     
   23   11   31 1     
   24   11   32 1     
   25   11   33 1     
   26   12   19 1     
   27   12   13 1     
   28   12   46 1     
   29   13   14 1     
   30   13   34 1     
   31   13   35 1     
   32   14   15 1     
   33   14   16 1     
   34   14   36 1     
   35   15   37 1     
   36   15   38 1     
   37   15   39 1     
   38   16   17 1     
   39   17   18 1     
   40   17   19 1     
   41   17   40 1     
   42   18   41 1     
   43   18   42 1     
   44   18   43 1     
   45   19   44 1     
   46   19   45 1     
   47   20   21 1     
   48    7   47 1     
   49    7   48 1     
   50   16   49 1     
   51   16   50 1     
   52   20   51 1     
   53   21   52 1     
   54   21   53 1     
@<TRIPOS>SUBSTRUCTURE
      1 S1             1
@<TRIPOS>SET
LONE_PAIRS      STATIC     ATOMS    <user>   **** ""
7 47 48 49 50 51 52 53
DONOR_HYDROGENS      STATIC     ATOMS    <user>   **** ""
3 26 27 46
ATOM$BLUE        STATIC     ATOMS    COLORGROUP SYSTEM
7 47 48 49 50 51 52 53
ATOM$RED        STATIC     ATOMS    COLORGROUP SYSTEM
3 26 27 46
