AV-unprocessed.smi:1498|AV-procd|sdf|6059|dock9
  -GOLD-   22720 6173D 1   1.00000     0.00000
 Structure written by MMmdl.
 38 39  0  0  0  0  0  0  0  0  2 V2000
  143.5370  132.7796  148.1059 C   0  0  0  0  0  0  0  0  0  0  0  0
  144.6325  133.1233  149.0374 N   0  3  0  0  0  0  0  0  0  0  0  0
  145.6895  132.0792  149.0825 C   0  0  0  0  0  0  0  0  0  0  0  0
  146.8144  132.4605  150.0638 C   0  0  0  0  0  0  0  0  0  0  0  0
  146.2271  132.7246  151.3868 N   0  0  0  0  0  0  0  0  0  0  0  0
  146.2914  131.9051  152.4668 C   0  0  0  0  0  0  0  0  0  0  0  0
  145.6720  132.1302  153.5069 O   0  0  0  0  0  0  0  0  0  0  0  0
  147.1416  130.8704  152.3243 N   0  0  0  0  0  0  0  0  0  0  0  0
  147.4271  129.8447  153.2609 C   0  0  0  0  0  0  0  0  0  0  0  0
  148.7142  129.2899  153.4831 C   0  0  0  0  0  0  0  0  0  0  0  0
  148.6779  128.3527  154.4177 N   0  0  0  0  0  0  0  0  0  0  0  0
  147.3793  128.2927  154.8060 N   0  0  0  0  0  0  0  0  0  0  0  0
  146.9798  127.3542  155.8400 C   0  0  0  0  0  0  0  0  0  0  0  0
  145.8587  126.4346  155.3525 C   0  0  0  0  0  0  0  0  0  0  0  0
  144.7001  127.0090  155.0179 N   0  0  0  0  0  0  0  0  0  0  0  0
  146.0351  125.2204  155.2822 O   0  0  0  0  0  0  0  0  0  0  0  0
  146.5868  129.1900  154.1166 C   0  0  0  0  0  0  0  0  0  0  0  0
  145.2986  133.8585  151.3278 C   0  0  0  0  0  0  0  0  0  0  0  0
  144.1342  133.5099  150.3830 C   0  0  0  0  0  0  0  0  0  0  0  0
  143.0042  131.8883  148.4400 H   0  0  0  0  0  0  0  0  0  0  0  0
  143.9279  132.5902  147.1058 H   0  0  0  0  0  0  0  0  0  0  0  0
  142.8217  133.5993  148.0340 H   0  0  0  0  0  0  0  0  0  0  0  0
  145.2460  131.1280  149.3820 H   0  0  0  0  0  0  0  0  0  0  0  0
  146.1028  131.9367  148.0834 H   0  0  0  0  0  0  0  0  0  0  0  0
  147.5761  131.6810  150.0632 H   0  0  0  0  0  0  0  0  0  0  0  0
  147.3220  133.3613  149.7158 H   0  0  0  0  0  0  0  0  0  0  0  0
  147.6290  130.8051  151.4427 H   0  0  0  0  0  0  0  0  0  0  0  0
  149.6539  129.5309  153.0084 H   0  0  0  0  0  0  0  0  0  0  0  0
  147.8493  126.7614  156.1270 H   0  0  0  0  0  0  0  0  0  0  0  0
  146.6562  127.8994  156.7283 H   0  0  0  0  0  0  0  0  0  0  0  0
  143.9297  126.4395  154.6987 H   0  0  0  0  0  0  0  0  0  0  0  0
  144.5968  128.0105  155.0936 H   0  0  0  0  0  0  0  0  0  0  0  0
  145.5262  129.2744  154.3016 H   0  0  0  0  0  0  0  0  0  0  0  0
  144.9137  134.1406  152.3091 H   0  0  0  0  0  0  0  0  0  0  0  0
  145.8299  134.7370  150.9585 H   0  0  0  0  0  0  0  0  0  0  0  0
  143.4630  134.3647  150.2915 H   0  0  0  0  0  0  0  0  0  0  0  0
  143.5500  132.6895  150.8035 H   0  0  0  0  0  0  0  0  0  0  0  0
  145.0759  133.9491  148.6607 H   0  0  0  0  0  0  0  0  0  0  0  0
  1  2  1  0  0  0  0
  1 20  1  0  0  0  0
  1 21  1  0  0  0  0
  1 22  1  0  0  0  0
  2 19  1  0  0  0  0
  2  3  1  0  0  0  0
  2 38  1  0  0  0  0
  3  4  1  0  0  0  0
  3 23  1  0  0  0  0
  3 24  1  0  0  0  0
  4  5  1  0  0  0  0
  4 25  1  0  0  0  0
  4 26  1  0  0  0  0
  5  6  1  0  0  0  0
  5 18  1  0  0  0  0
  6  7  2  0  0  0  0
  6  8  1  0  0  0  0
  8  9  1  0  0  0  0
  8 27  1  0  0  0  0
  9 17  2  0  0  0  0
  9 10  1  0  0  0  0
 10 11  2  0  0  0  0
 10 28  1  0  0  0  0
 11 12  1  0  0  0  0
 12 13  1  0  0  0  0
 12 17  1  0  0  0  0
 13 14  1  0  0  0  0
 13 29  1  0  0  0  0
 13 30  1  0  0  0  0
 14 15  1  0  0  0  0
 14 16  2  0  0  0  0
 15 31  1  0  0  0  0
 15 32  1  0  0  0  0
 17 33  1  0  0  0  0
 18 19  1  0  0  0  0
 18 34  1  0  0  0  0
 18 35  1  0  0  0  0
 19 36  1  0  0  0  0
 19 37  1  0  0  0  0
M  CHG  1   2   1
M  END
> <s_m_source_file>
AV-unprocessed.smi

> <i_m_source_file_index>
1498

> <i_lp_mmshare_version>
43012

> <i_f3d_flags>
0

> <s_epik_input>
W0NIM11OMVtDSDJdW0NIMl1OKFtDSDJdW0NIMl0xKUMoPU8pW05IXWMyW2NIXW5uKFtjSF0yKVtDSDJdQyg9TylbTkgyXQ==

> <s_epik_cmdline>
J2VwaWtfcHl0aG9uJywgJy1waCcsICc3LjAnLCAnLXRuJywgJzgnLCAnLW1hJywgJzIwMCcsICctbWV0YWxfYmluZGluZycsICctaW1hZScsICc8aW5maWxlLm1hZT4nLCAnLW9tYWUnLCAnPG91dGZpbGUubWFlPic=

> <r_lp_tautomer_probability>
1

> <r_epik_Ionization_Penalty>
0.25453

> <r_epik_Ionization_Penalty_Charging>
0.254506

> <r_epik_Ionization_Penalty_Neutral>
2.46477e-05

> <r_epik_State_Penalty>
0.245983

> <r_epik_Charging_Adjusted_Penalty>
0.500488

> <i_epik_Tot_Q>
1

> <i_epik_Tot_abs_Q>
1

> <r_epik_Metal_State_Penalty>
0.245984

> <b_epik_Metal_Only>
0

> <s_lp_Force_Field>
OPLS_2005

> <r_lp_Energy>
51.0402

> <b_lp_Chiralities_Consistent>
1

> <s_lp_Variant>
AV-unprocessed.smi:1498-1

> <Gold.Version>
5.8.1

> <Gold.Id.Protein>
6NUR|6NUR_protein|mol2

> <Gold.PLP.Fitness>
37.2617

> <Gold.PLP.PLP>
-26.3702

> <Gold.PLP.part.hbond>
-4.0000

> <Gold.PLP.part.metal>
0.0000

> <Gold.PLP.part.buried>
0.0081

> <Gold.PLP.part.nonpolar>
-23.0425

> <Gold.PLP.part.repulsive>
0.5106

> <Gold.PLP.ligand.clash>
0.0000

> <Gold.PLP.ligand.torsion>
0.3405

> <Gold.PLP.Chemscore.Hbond>
2.8406

> <Gold.PLP.Chemscore.CHOScore>
1.0000

> <Gold.PLP.Chemscore.Metal>
0.0000

> <Gold.Chemscore.Hbonds>
donor molecule, donor type, donor heavy atom, donor atom, acceptor molecule, acceptor atom, score
      L1  H     2    38       P1  7921  1.00
      L1  H     8    27       P1 10747  1.00
      L1  H    15    32       P1 10956  0.84
      L1  C    17    33       P1 10956  1.00

> <Gold.PLP.Chemscore.Internal.Correction>
0.0509

> <Gold.Rescore>
     Score         DG    S(hbond)    S(metal)    S(lipo)     H(rot)  DE(clash)    DE(int)     intcor
     17.36     -19.09       2.90        0.00      67.46       1.55       1.35       0.38       ----

> <Gold.Chemscore.Fitness>
17.3605

> <Gold.Chemscore.DG>
-19.0916

> <Gold.Chemscore.ZeroCoef>
-5.4800

> <Gold.Chemscore.Hbond>
2.8997

> <Gold.Chemscore.Metal>
0.0000

> <Gold.Chemscore.Lipo>
67.4630

> <Gold.Chemscore.Internal_Hbond>
0.0000

> <Gold.Chemscore.DEClash>
1.3473

> <Gold.Chemscore.DEInternal>
0.3837

> <Gold.Chemscore.Rot>
1.5494

> <Gold.Chemscore.Internal.Correction>
   9.000000E+99

> <Gold.Chemscore.Hbonds>
donor molecule, donor type, donor heavy atom, donor atom, acceptor molecule, acceptor atom, score
      L1  H     2    38       P1  7921  0.95
      L1  H     8    27       P1 10747  0.99
      L1  H    15    32       P1 10956  0.77

> <Gold.Chemscore.Hbond.Weighted>
-9.6849

> <Gold.Chemscore.Metal.Weighted>
-0.0000

> <Gold.Chemscore.Lipo.Weighted>
-7.8932

> <Gold.Chemscore.Internal_Hbond.Weighted>
0.0000

> <Gold.Chemscore.DEClash.Weighted>
1.3473

> <Gold.Chemscore.DEInternal.Weighted>
0.3837

> <Gold.Chemscore.Rot.Weighted>
3.9665

> <Gold.Chemscore.Internal.Correction.Weighted>
   9.000000E+99

> <Gold.Protein.RotatedTorsions>
[ 6907 6896 6895 6894 ] final -100.65 input  -60.11 | X-H torsion
[ 7974 7965 7964 7962 ] final  130.92 input  175.53 | X-H torsion
[ 8008 7997 7996 7995 ] final   -5.21 input   59.86 | X-H torsion
[ 10167 10162 10161 10158 ] final   -0.02 input  -65.29 | X-H torsion
[ 10718 10713 10712 10709 ] final   74.71 input   66.30 | X-H torsion
[ 10763 10752 10751 10750 ] final -118.83 input  -60.55 | X-H torsion
[ 11005 11000 10999 10996 ] final    1.64 input  -57.11 | X-H torsion

> <Gold.Protein.ActiveResidues>
 VAL166  LYS551  ARG553  GLY616  TRP617  ASP618  TYR619  PRO620  LYS621  CYS622 
 ASP623  PHE694  ASN695  SER759  ASP760  ASP761  ALA762  ILE779  LEU786  VAL792 
 PHE793  MET794  SER795  GLU796  ALA797  LYS798  CYS799  TRP800  GLU811  SER814 

> <Gold.Protein.RotatedAtoms>
  150.7124  134.0854  159.3912 H   0  0  0  0  0  0  0  0  0  0  0  0  # atno 6907 bound_to 6896
  151.8839  135.0440  160.0501 H   0  0  0  0  0  0  0  0  0  0  0  0  # atno 6908 bound_to 6896
  152.2546  133.5208  159.5382 H   0  0  0  0  0  0  0  0  0  0  0  0  # atno 6909 bound_to 6896
  145.0128  139.4204  143.5236 H   0  0  0  0  0  0  0  0  0  0  0  0  # atno 7974 bound_to 7965
  154.6063  140.2464  155.7727 H   0  0  0  0  0  0  0  0  0  0  0  0  # atno 8008 bound_to 7997
  156.2343  140.2956  156.0221 H   0  0  0  0  0  0  0  0  0  0  0  0  # atno 8009 bound_to 7997
  155.2127  140.0398  157.2926 H   0  0  0  0  0  0  0  0  0  0  0  0  # atno 8010 bound_to 7997
  140.6749  143.6945  150.8001 H   0  0  0  0  0  0  0  0  0  0  0  0  # atno 10167 bound_to 10162
  157.6603  130.9691  150.1249 H   0  0  0  0  0  0  0  0  0  0  0  0  # atno 10718 bound_to 10713
  154.8599  135.4260  154.2201 H   0  0  0  0  0  0  0  0  0  0  0  0  # atno 10763 bound_to 10752
  153.3208  135.6982  153.7038 H   0  0  0  0  0  0  0  0  0  0  0  0  # atno 10764 bound_to 10752
  153.6094  135.3522  155.2947 H   0  0  0  0  0  0  0  0  0  0  0  0  # atno 10765 bound_to 10752
  140.6132  133.9729  155.8187 H   0  0  0  0  0  0  0  0  0  0  0  0  # atno 11005 bound_to 11000
  146.3473  139.9582  142.8720 LP  0  0  0  0  0  0  0  0  0  0  0  0  # atno 17320 bound_to 7965
  145.2000  140.9850  143.4161 LP  0  0  0  0  0  0  0  0  0  0  0  0  # atno 17321 bound_to 7965
  140.0636  143.5130  152.2615 LP  0  0  0  0  0  0  0  0  0  0  0  0  # atno 17342 bound_to 10162
  139.6036  144.7590  151.3114 LP  0  0  0  0  0  0  0  0  0  0  0  0  # atno 17343 bound_to 10162
  156.2111  130.3667  149.8669 LP  0  0  0  0  0  0  0  0  0  0  0  0  # atno 17370 bound_to 10713
  156.6548  130.8758  151.3537 LP  0  0  0  0  0  0  0  0  0  0  0  0  # atno 17371 bound_to 10713
  141.0794  134.0086  157.3409 LP  0  0  0  0  0  0  0  0  0  0  0  0  # atno 17394 bound_to 11000
  139.9183  135.0199  156.7969 LP  0  0  0  0  0  0  0  0  0  0  0  0  # atno 17395 bound_to 11000

$$$$
