AV-unprocessed.smi:1375|AV-procd|sdf|5589|dock2
  -GOLD-   22720 5193D 1   1.00000     0.00000
 Structure written by MMmdl.
 36 37  0  0  0  0  0  0  0  0  1 V2000
  145.4036  143.3064  157.5614 C   0  0  0  0  0  0  0  0  0  0  0  0
  145.8629  142.9493  156.1894 C   0  0  0  0  0  0  0  0  0  0  0  0
  146.9875  142.2743  155.9380 N   0  0  0  0  0  0  0  0  0  0  0  0
  147.1958  142.0651  154.5710 C   0  0  0  0  0  0  0  0  0  0  0  0
  148.4085  141.3196  154.1030 C   0  0  0  0  0  0  0  0  0  0  0  0
  149.3933  141.0350  155.2492 C   0  0  0  0  0  0  0  0  0  0  0  0
  149.8609  142.2665  155.8745 N   0  0  0  0  0  0  0  0  0  0  0  0
  150.8914  142.3543  156.7324 C   0  0  0  0  0  0  0  0  0  0  0  0
  151.5585  141.3858  157.0916 O   0  0  0  0  0  0  0  0  0  0  0  0
  151.1533  143.5985  157.1709 N   0  0  0  0  0  0  0  0  0  0  0  0
  152.2000  144.0242  158.1030 C   0  0  0  0  0  0  0  0  0  0  0  0
  152.4914  142.9505  159.1737 C   0  0  0  0  0  0  0  0  0  0  0  0
  152.4492  143.6708  160.5225 C   0  0  0  0  0  0  0  0  0  0  0  0
  151.4723  144.8212  160.3038 C   0  0  0  0  0  0  0  0  0  0  0  0
  151.7533  145.2807  158.8730 C   0  0  0  0  0  0  0  0  0  0  0  0
  146.2018  142.5932  153.7854 C   0  0  0  0  0  0  0  0  0  0  0  0
  144.9687  143.3752  154.7353 S   0  0  0  0  0  0  0  0  0  0  0  0
  146.1831  143.0971  158.2948 H   0  0  0  0  0  0  0  0  0  0  0  0
  144.5163  142.7279  157.8188 H   0  0  0  0  0  0  0  0  0  0  0  0
  145.1569  144.3671  157.6078 H   0  0  0  0  0  0  0  0  0  0  0  0
  148.1048  140.3807  153.6382 H   0  0  0  0  0  0  0  0  0  0  0  0
  148.9143  141.8881  153.3214 H   0  0  0  0  0  0  0  0  0  0  0  0
  148.9080  140.4310  156.0163 H   0  0  0  0  0  0  0  0  0  0  0  0
  150.2432  140.4537  154.8877 H   0  0  0  0  0  0  0  0  0  0  0  0
  149.3708  143.1156  155.6335 H   0  0  0  0  0  0  0  0  0  0  0  0
  150.5671  144.3353  156.8058 H   0  0  0  0  0  0  0  0  0  0  0  0
  153.1081  144.2651  157.5474 H   0  0  0  0  0  0  0  0  0  0  0  0
  151.7218  142.1770  159.1620 H   0  0  0  0  0  0  0  0  0  0  0  0
  153.4478  142.4535  159.0082 H   0  0  0  0  0  0  0  0  0  0  0  0
  152.1499  143.0141  161.3398 H   0  0  0  0  0  0  0  0  0  0  0  0
  153.4370  144.0685  160.7588 H   0  0  0  0  0  0  0  0  0  0  0  0
  150.4481  144.4535  160.3781 H   0  0  0  0  0  0  0  0  0  0  0  0
  151.5941  145.6217  161.0339 H   0  0  0  0  0  0  0  0  0  0  0  0
  152.5706  146.0031  158.8845 H   0  0  0  0  0  0  0  0  0  0  0  0
  150.8924  145.7811  158.4269 H   0  0  0  0  0  0  0  0  0  0  0  0
  146.1199  142.5678  152.7089 H   0  0  0  0  0  0  0  0  0  0  0  0
  1  2  1  0  0  0  0
  1 18  1  0  0  0  0
  1 19  1  0  0  0  0
  1 20  1  0  0  0  0
  2 17  1  0  0  0  0
  2  3  2  0  0  0  0
  3  4  1  0  0  0  0
  4  5  1  0  0  0  0
  4 16  2  0  0  0  0
  5  6  1  0  0  0  0
  5 21  1  0  0  0  0
  5 22  1  0  0  0  0
  6  7  1  0  0  0  0
  6 23  1  0  0  0  0
  6 24  1  0  0  0  0
  7  8  1  0  0  0  0
  7 25  1  0  0  0  0
  8  9  2  0  0  0  0
  8 10  1  0  0  0  0
 10 11  1  0  0  0  0
 10 26  1  0  0  0  0
 11 15  1  0  0  0  0
 11 12  1  0  0  0  0
 11 27  1  0  0  0  0
 12 13  1  0  0  0  0
 12 28  1  0  0  0  0
 12 29  1  0  0  0  0
 13 14  1  0  0  0  0
 13 30  1  0  0  0  0
 13 31  1  0  0  0  0
 14 15  1  0  0  0  0
 14 32  1  0  0  0  0
 14 33  1  0  0  0  0
 15 34  1  0  0  0  0
 15 35  1  0  0  0  0
 16 17  1  0  0  0  0
 16 36  1  0  0  0  0
M  END
> <s_m_source_file>
AV-unprocessed.smi

> <i_m_source_file_index>
1375

> <i_lp_mmshare_version>
43012

> <i_f3d_flags>
0

> <s_epik_input>
W0NIM11jMW5jKFtjSF1zMSlbQ0gyXVtDSDJdW05IXUMoPU8pW05IXVtDSF0yW0NIMl1bQ0gyXVtDSDJdW0NIMl0y

> <s_epik_cmdline>
J2VwaWtfcHl0aG9uJywgJy1waCcsICc3LjAnLCAnLXRuJywgJzgnLCAnLW1hJywgJzIwMCcsICctbWV0YWxfYmluZGluZycsICctaW1hZScsICc8aW5maWxlLm1hZT4nLCAnLW9tYWUnLCAnPG91dGZpbGUubWFlPic=

> <r_epik_Ionization_Penalty>
0.00202185

> <r_epik_Ionization_Penalty_Charging>
0

> <r_epik_Ionization_Penalty_Neutral>
0.00202185

> <r_epik_State_Penalty>
0.00133629

> <r_epik_Charging_Adjusted_Penalty>
0.00133629

> <i_epik_Tot_Q>
0

> <i_epik_Tot_abs_Q>
0

> <r_epik_Metal_State_Penalty>
-0

> <b_epik_Metal_Only>
0

> <s_lp_Force_Field>
OPLS_2005

> <r_lp_Energy>
21.3593

> <b_lp_Chiralities_Consistent>
1

> <s_lp_Variant>
AV-unprocessed.smi:1375-1

> <Gold.Version>
5.8.1

> <Gold.Id.Protein>
6NUR|6NUR_protein|mol2

> <Gold.PLP.Fitness>
47.6350

> <Gold.PLP.PLP>
-42.9270

> <Gold.PLP.part.hbond>
-2.0000

> <Gold.PLP.part.metal>
0.0000

> <Gold.PLP.part.buried>
-5.6050

> <Gold.PLP.part.nonpolar>
-36.0248

> <Gold.PLP.part.repulsive>
0.7152

> <Gold.PLP.ligand.clash>
0.0000

> <Gold.PLP.ligand.torsion>
0.4932

> <Gold.PLP.Chemscore.Hbond>
1.8892

> <Gold.PLP.Chemscore.CHOScore>
0.0000

> <Gold.PLP.Chemscore.Metal>
0.0000

> <Gold.Chemscore.Hbonds>
donor molecule, donor type, donor heavy atom, donor atom, acceptor molecule, acceptor atom, score
      L1  H     7    25       P1  8028  1.00
      L1  H    10    26       P1  8028  0.89

> <Gold.PLP.Chemscore.Internal.Correction>
0.0267

> <Gold.Rescore>
     Score         DG    S(hbond)    S(metal)    S(lipo)     H(rot)  DE(clash)    DE(int)     intcor
     17.59     -19.69       1.89        0.00     100.52       1.51       0.05       2.06       ----

> <Gold.Chemscore.Fitness>
17.5866

> <Gold.Chemscore.DG>
-19.6948

> <Gold.Chemscore.ZeroCoef>
-5.4800

> <Gold.Chemscore.Hbond>
1.8890

> <Gold.Chemscore.Metal>
0.0000

> <Gold.Chemscore.Lipo>
100.5190

> <Gold.Chemscore.Internal_Hbond>
0.0000

> <Gold.Chemscore.DEClash>
0.0515

> <Gold.Chemscore.DEInternal>
2.0567

> <Gold.Chemscore.Rot>
1.5060

> <Gold.Chemscore.Internal.Correction>
   9.000000E+99

> <Gold.Chemscore.Hbonds>
donor molecule, donor type, donor heavy atom, donor atom, acceptor molecule, acceptor atom, score
      L1  H     7    25       P1  8028  1.00
      L1  H    10    26       P1  8028  0.79

> <Gold.Chemscore.Hbond.Weighted>
-6.3094

> <Gold.Chemscore.Metal.Weighted>
-0.0000

> <Gold.Chemscore.Lipo.Weighted>
-11.7607

> <Gold.Chemscore.Internal_Hbond.Weighted>
0.0000

> <Gold.Chemscore.DEClash.Weighted>
0.0515

> <Gold.Chemscore.DEInternal.Weighted>
2.0567

> <Gold.Chemscore.Rot.Weighted>
3.8553

> <Gold.Chemscore.Internal.Correction.Weighted>
   9.000000E+99

> <Gold.Protein.RotatedTorsions>
[ 6907 6896 6895 6894 ] final -163.09 input  -60.11 | X-H torsion
[ 7974 7965 7964 7962 ] final  -33.46 input  175.53 | X-H torsion
[ 8008 7997 7996 7995 ] final   17.65 input   59.86 | X-H torsion
[ 10167 10162 10161 10158 ] final  -43.34 input  -65.29 | X-H torsion
[ 10718 10713 10712 10709 ] final   51.43 input   66.30 | X-H torsion
[ 10763 10752 10751 10750 ] final -105.91 input  -60.55 | X-H torsion
[ 11005 11000 10999 10996 ] final -119.47 input  -57.11 | X-H torsion

> <Gold.Protein.ActiveResidues>
 VAL166  LYS551  ARG553  GLY616  TRP617  ASP618  TYR619  PRO620  LYS621  CYS622 
 ASP623  PHE694  ASN695  SER759  ASP760  ASP761  ALA762  ILE779  LEU786  VAL792 
 PHE793  MET794  SER795  GLU796  ALA797  LYS798  CYS799  TRP800  GLU811  SER814 

> <Gold.Protein.RotatedAtoms>
  151.3906  133.3790  159.2720 H   0  0  0  0  0  0  0  0  0  0  0  0  # atno 6907 bound_to 6896
  150.9508  134.8909  159.7681 H   0  0  0  0  0  0  0  0  0  0  0  0  # atno 6908 bound_to 6896
  152.5111  134.3861  159.9420 H   0  0  0  0  0  0  0  0  0  0  0  0  # atno 6909 bound_to 6896
  146.0909  140.5918  142.8865 H   0  0  0  0  0  0  0  0  0  0  0  0  # atno 7974 bound_to 7965
  154.8944  140.2991  155.5352 H   0  0  0  0  0  0  0  0  0  0  0  0  # atno 8008 bound_to 7997
  156.3020  140.2418  156.3899 H   0  0  0  0  0  0  0  0  0  0  0  0  # atno 8009 bound_to 7997
  154.8585  140.0406  157.1639 H   0  0  0  0  0  0  0  0  0  0  0  0  # atno 8010 bound_to 7997
  140.6937  143.2988  151.3338 H   0  0  0  0  0  0  0  0  0  0  0  0  # atno 10167 bound_to 10162
  157.4979  130.8419  149.8281 H   0  0  0  0  0  0  0  0  0  0  0  0  # atno 10718 bound_to 10713
  154.7978  135.4731  154.0202 H   0  0  0  0  0  0  0  0  0  0  0  0  # atno 10763 bound_to 10752
  153.1731  135.6828  153.8587 H   0  0  0  0  0  0  0  0  0  0  0  0  # atno 10764 bound_to 10752
  153.8163  135.3210  155.3383 H   0  0  0  0  0  0  0  0  0  0  0  0  # atno 10765 bound_to 10752
  141.0213  134.0120  157.3278 H   0  0  0  0  0  0  0  0  0  0  0  0  # atno 11005 bound_to 11000
  144.7359  140.4808  143.6904 LP  0  0  0  0  0  0  0  0  0  0  0  0  # atno 17320 bound_to 7965
  145.6041  139.1506  143.3113 LP  0  0  0  0  0  0  0  0  0  0  0  0  # atno 17321 bound_to 7965
  139.6368  144.0615  152.2522 LP  0  0  0  0  0  0  0  0  0  0  0  0  # atno 17342 bound_to 10162
  140.0107  144.6226  150.7649 LP  0  0  0  0  0  0  0  0  0  0  0  0  # atno 17343 bound_to 10162
  156.0212  130.3795  150.1958 LP  0  0  0  0  0  0  0  0  0  0  0  0  # atno 17370 bound_to 10713
  157.0147  130.9961  151.3356 LP  0  0  0  0  0  0  0  0  0  0  0  0  # atno 17371 bound_to 10713
  139.9148  135.0195  156.7837 LP  0  0  0  0  0  0  0  0  0  0  0  0  # atno 17394 bound_to 11000
  140.6568  133.9682  155.7783 LP  0  0  0  0  0  0  0  0  0  0  0  0  # atno 17395 bound_to 11000

$$$$
