AV-unprocessed.smi:1261|AV-procd|sdf|5304|dock3
  -GOLD-   22720 4423D 1   1.00000     0.00000
 Structure written by MMmdl.
 49 50  0  0  0  0  0  0  0  0  3 V2000
  153.3147  141.8283  161.1322 C   0  0  0  0  0  0  0  0  0  0  0  0
  152.3440  142.5064  160.1550 C   0  0  1  0  0  0  0  0  0  0  0  0
  153.0635  143.5557  159.2882 C   0  0  0  0  0  0  0  0  0  0  0  0
  152.1135  144.1930  158.2573 C   0  0  2  0  0  0  0  0  0  0  0  0
  151.1320  145.1970  158.8867 C   0  0  0  0  0  0  0  0  0  0  0  0
  151.3907  143.1033  157.4402 C   0  0  0  0  0  0  0  0  0  0  0  0
  150.6911  142.1279  158.3170 N   0  3  1  0  0  0  0  0  0  0  0  0
  149.8722  141.1635  157.5389 C   0  0  0  0  0  0  0  0  0  0  0  0
  150.7286  140.1085  156.8180 C   0  0  0  0  0  0  0  0  0  0  0  0
  150.6394  138.7287  157.4893 C   0  0  0  0  0  0  0  0  0  0  0  0
  149.2935  138.4561  157.9767 N   0  0  0  0  0  0  0  0  0  0  0  0
  148.9427  137.3985  158.7241 C   0  0  0  0  0  0  0  0  0  0  0  0
  149.7425  136.5441  159.1071 O   0  0  0  0  0  0  0  0  0  0  0  0
  147.4632  137.3033  159.1115 C   0  0  0  0  0  0  0  0  0  0  0  0
  147.2153  136.2006  160.0485 N   0  0  0  0  0  0  0  0  0  0  0  0
  147.4452  134.8800  159.4684 N   0  5  0  0  0  0  0  0  0  0  0  0
  147.2808  133.7771  160.2459 C   0  0  0  0  0  0  0  0  0  0  0  0
  147.4692  132.6356  159.8313 O   0  0  0  0  0  0  0  0  0  0  0  0
  146.8628  133.9682  161.6249 C   0  0  0  0  0  0  0  0  0  0  0  0
  146.6463  135.1987  162.1303 C   0  0  0  0  0  0  0  0  0  0  0  0
  146.8190  136.4093  161.3365 C   0  0  0  0  0  0  0  0  0  0  0  0
  146.6255  137.5357  161.7938 O   0  0  0  0  0  0  0  0  0  0  0  0
  151.6332  141.4718  159.2621 C   0  0  0  0  0  0  0  0  0  0  0  0
  154.1044  141.2950  160.6020 H   0  0  0  0  0  0  0  0  0  0  0  0
  152.7956  141.1090  161.7662 H   0  0  0  0  0  0  0  0  0  0  0  0
  153.7889  142.5603  161.7866 H   0  0  0  0  0  0  0  0  0  0  0  0
  151.5866  143.0139  160.7537 H   0  0  0  0  0  0  0  0  0  0  0  0
  153.5100  144.3269  159.9172 H   0  0  0  0  0  0  0  0  0  0  0  0
  153.8907  143.0785  158.7606 H   0  0  0  0  0  0  0  0  0  0  0  0
  152.7293  144.7654  157.5625 H   0  0  0  0  0  0  0  0  0  0  0  0
  150.4420  144.7150  159.5790 H   0  0  0  0  0  0  0  0  0  0  0  0
  150.5357  145.6917  158.1195 H   0  0  0  0  0  0  0  0  0  0  0  0
  151.6646  145.9740  159.4358 H   0  0  0  0  0  0  0  0  0  0  0  0
  150.6799  143.5735  156.7594 H   0  0  0  0  0  0  0  0  0  0  0  0
  152.1098  142.5683  156.8178 H   0  0  0  0  0  0  0  0  0  0  0  0
  149.1990  140.6393  158.2186 H   0  0  0  0  0  0  0  0  0  0  0  0
  149.2388  141.6992  156.8301 H   0  0  0  0  0  0  0  0  0  0  0  0
  150.4151  140.0164  155.7785 H   0  0  0  0  0  0  0  0  0  0  0  0
  151.7696  140.4338  156.8004 H   0  0  0  0  0  0  0  0  0  0  0  0
  150.9032  137.9477  156.7759 H   0  0  0  0  0  0  0  0  0  0  0  0
  151.3554  138.6537  158.3093 H   0  0  0  0  0  0  0  0  0  0  0  0
  148.5630  139.0969  157.7004 H   0  0  0  0  0  0  0  0  0  0  0  0
  147.1462  138.2523  159.5473 H   0  0  0  0  0  0  0  0  0  0  0  0
  146.8579  137.1843  158.2108 H   0  0  0  0  0  0  0  0  0  0  0  0
  146.7212  133.1047  162.2578 H   0  0  0  0  0  0  0  0  0  0  0  0
  146.3358  135.2931  163.1602 H   0  0  0  0  0  0  0  0  0  0  0  0
  152.3654  140.8904  158.6991 H   0  0  0  0  0  0  0  0  0  0  0  0
  151.0985  140.7690  159.8995 H   0  0  0  0  0  0  0  0  0  0  0  0
  150.0425  142.6660  158.8736 H   0  0  0  0  0  0  0  0  0  0  0  0
  1  2  1  0  0  0  0
  1 24  1  0  0  0  0
  1 25  1  0  0  0  0
  1 26  1  0  0  0  0
  2 23  1  0  0  0  0
  2  3  1  0  0  0  0
  2 27  1  0  0  0  0
  3  4  1  0  0  0  0
  3 28  1  0  0  0  0
  3 29  1  0  0  0  0
  4  5  1  0  0  0  0
  4  6  1  0  0  0  0
  4 30  1  0  0  0  0
  5 31  1  0  0  0  0
  5 32  1  0  0  0  0
  5 33  1  0  0  0  0
  6  7  1  0  0  0  0
  6 34  1  0  0  0  0
  6 35  1  0  0  0  0
  7  8  1  0  0  0  0
  7 23  1  0  0  0  0
  7 49  1  0  0  0  0
  8  9  1  0  0  0  0
  8 36  1  0  0  0  0
  8 37  1  0  0  0  0
  9 10  1  0  0  0  0
  9 38  1  0  0  0  0
  9 39  1  0  0  0  0
 10 11  1  0  0  0  0
 10 40  1  0  0  0  0
 10 41  1  0  0  0  0
 11 12  1  0  0  0  0
 11 42  1  0  0  0  0
 12 13  2  0  0  0  0
 12 14  1  0  0  0  0
 14 43  1  0  0  0  0
 14 44  1  0  0  0  0
 14 15  1  0  0  0  0
 15 16  1  0  0  0  0
 15 21  1  0  0  0  0
 16 17  1  0  0  0  0
 17 18  2  0  0  0  0
 17 19  1  0  0  0  0
 19 45  1  0  0  0  0
 19 20  2  0  0  0  0
 20 46  1  0  0  0  0
 20 21  1  0  0  0  0
 21 22  2  0  0  0  0
 23 47  1  0  0  0  0
 23 48  1  0  0  0  0
M  CHG  1   7   1
M  CHG  1  16  -1
M  END
> <s_m_source_file>
AV-unprocessed.smi

> <i_m_source_file_index>
1261

> <i_lp_mmshare_version>
43012

> <i_f3d_flags>
0

> <s_epik_input>
W0NIM11bQ0BASF0xW0NIMl1bQ0BASF0oW0NIM10pW0NIMl1OKFtDSDJdMSlbQ0gyXVtDSDJdW0NIMl1bTkhdQyg9TylbQ0gyXW4yW25IXWMoPU8pW2NIXVtjSF1jMj1P

> <s_epik_cmdline>
J2VwaWtfcHl0aG9uJywgJy1waCcsICc3LjAnLCAnLXRuJywgJzgnLCAnLW1hJywgJzIwMCcsICctbWV0YWxfYmluZGluZycsICctaW1hZScsICc8aW5maWxlLm1hZT4nLCAnLW9tYWUnLCAnPG91dGZpbGUubWFlPic=

> <r_lp_tautomer_probability>
1

> <r_epik_Ionization_Penalty>
0.0955723

> <r_epik_Ionization_Penalty_Charging>
0.0955723

> <r_epik_Ionization_Penalty_Neutral>
2.68632e-08

> <r_epik_State_Penalty>
0.0334406

> <r_epik_Charging_Adjusted_Penalty>
0.129013

> <i_epik_Tot_Q>
0

> <i_epik_Tot_abs_Q>
2

> <r_epik_Metal_State_Penalty>
0.0334406

> <b_epik_Metal_Only>
0

> <s_lp_Force_Field>
OPLS_2005

> <r_lp_Energy>
33.6406

> <b_lp_Chiralities_Consistent>
1

> <s_lp_Variant>
AV-unprocessed.smi:1261-4

> <Gold.Version>
5.8.1

> <Gold.Id.Protein>
6NUR|6NUR_protein|mol2

> <Gold.PLP.Fitness>
55.8752

> <Gold.PLP.PLP>
-49.8830

> <Gold.PLP.part.hbond>
-3.0000

> <Gold.PLP.part.metal>
0.0000

> <Gold.PLP.part.buried>
-5.7067

> <Gold.PLP.part.nonpolar>
-40.5197

> <Gold.PLP.part.repulsive>
0.2130

> <Gold.PLP.ligand.clash>
0.0000

> <Gold.PLP.ligand.torsion>
0.6088

> <Gold.PLP.Chemscore.Hbond>
2.3760

> <Gold.PLP.Chemscore.CHOScore>
0.0000

> <Gold.PLP.Chemscore.Metal>
0.0000

> <Gold.Chemscore.Hbonds>
donor molecule, donor type, donor heavy atom, donor atom, acceptor molecule, acceptor atom, score
      P1  H  6896  6909       L1    13  0.88
      P1  H  6934  6947       L1    22  0.90

> <Gold.PLP.Chemscore.Internal.Correction>
0.0817

> <Gold.Rescore>
     Score         DG    S(hbond)    S(metal)    S(lipo)     H(rot)  DE(clash)    DE(int)     intcor
     19.97     -20.88       2.63        0.00     111.07       2.49       0.09       0.82       ----

> <Gold.Chemscore.Fitness>
19.9684

> <Gold.Chemscore.DG>
-20.8767

> <Gold.Chemscore.ZeroCoef>
-5.4800

> <Gold.Chemscore.Hbond>
2.6302

> <Gold.Chemscore.Metal>
0.0000

> <Gold.Chemscore.Lipo>
111.0750

> <Gold.Chemscore.Internal_Hbond>
0.0000

> <Gold.Chemscore.DEClash>
0.0885

> <Gold.Chemscore.DEInternal>
0.8199

> <Gold.Chemscore.Rot>
2.4938

> <Gold.Chemscore.Internal.Correction>
   9.000000E+99

> <Gold.Chemscore.Hbonds>
donor molecule, donor type, donor heavy atom, donor atom, acceptor molecule, acceptor atom, score
      P1  H  6896  6909       L1    13  0.86
      P1  H  6934  6947       L1    22  0.87

> <Gold.Chemscore.Hbond.Weighted>
-8.7850

> <Gold.Chemscore.Metal.Weighted>
-0.0000

> <Gold.Chemscore.Lipo.Weighted>
-12.9958

> <Gold.Chemscore.Internal_Hbond.Weighted>
0.0000

> <Gold.Chemscore.DEClash.Weighted>
0.0885

> <Gold.Chemscore.DEInternal.Weighted>
0.8199

> <Gold.Chemscore.Rot.Weighted>
6.3840

> <Gold.Chemscore.Internal.Correction.Weighted>
   9.000000E+99

> <Gold.Protein.RotatedTorsions>
[ 6907 6896 6895 6894 ] final   76.88 input  -60.11 | X-H torsion
[ 7974 7965 7964 7962 ] final   32.91 input  175.53 | X-H torsion
[ 8008 7997 7996 7995 ] final  -29.72 input   59.86 | X-H torsion
[ 10167 10162 10161 10158 ] final   32.97 input  -65.29 | X-H torsion
[ 10718 10713 10712 10709 ] final   79.62 input   66.30 | X-H torsion
[ 10763 10752 10751 10750 ] final  -44.83 input  -60.55 | X-H torsion
[ 11005 11000 10999 10996 ] final  104.90 input  -57.11 | X-H torsion

> <Gold.Protein.ActiveResidues>
 VAL166  LYS551  ARG553  GLY616  TRP617  ASP618  TYR619  PRO620  LYS621  CYS622 
 ASP623  PHE694  ASN695  SER759  ASP760  ASP761  ALA762  ILE779  LEU786  VAL792 
 PHE793  MET794  SER795  GLU796  ALA797  LYS798  CYS799  TRP800  GLU811  SER814 

> <Gold.Protein.RotatedAtoms>
  152.5093  134.3902  159.9380 H   0  0  0  0  0  0  0  0  0  0  0  0  # atno 6907 bound_to 6896
  151.3861  133.3798  159.2723 H   0  0  0  0  0  0  0  0  0  0  0  0  # atno 6908 bound_to 6896
  150.9467  134.8892  159.7705 H   0  0  0  0  0  0  0  0  0  0  0  0  # atno 6909 bound_to 6896
  146.1456  139.6465  142.9134 H   0  0  0  0  0  0  0  0  0  0  0  0  # atno 7974 bound_to 7965
  154.4278  140.1810  156.1293 H   0  0  0  0  0  0  0  0  0  0  0  0  # atno 8008 bound_to 7997
  156.0080  140.3353  155.6887 H   0  0  0  0  0  0  0  0  0  0  0  0  # atno 8009 bound_to 7997
  155.6150  140.0654  157.2686 H   0  0  0  0  0  0  0  0  0  0  0  0  # atno 8010 bound_to 7997
  140.4450  144.1131  150.6181 H   0  0  0  0  0  0  0  0  0  0  0  0  # atno 10167 bound_to 10162
  157.6782  130.9922  150.1959 H   0  0  0  0  0  0  0  0  0  0  0  0  # atno 10718 bound_to 10713
  154.0186  135.6672  153.4770 H   0  0  0  0  0  0  0  0  0  0  0  0  # atno 10763 bound_to 10752
  153.0590  135.5039  154.8045 H   0  0  0  0  0  0  0  0  0  0  0  0  # atno 10764 bound_to 10752
  154.6951  135.3068  154.9387 H   0  0  0  0  0  0  0  0  0  0  0  0  # atno 10765 bound_to 10752
  139.8796  134.9317  156.5432 H   0  0  0  0  0  0  0  0  0  0  0  0  # atno 11005 bound_to 11000
  145.4946  141.0438  143.2574 LP  0  0  0  0  0  0  0  0  0  0  0  0  # atno 17320 bound_to 7965
  144.7842  139.6462  143.7141 LP  0  0  0  0  0  0  0  0  0  0  0  0  # atno 17321 bound_to 7965
  140.4274  143.2584  151.9639 LP  0  0  0  0  0  0  0  0  0  0  0  0  # atno 17342 bound_to 10162
  139.4792  144.5776  151.7986 LP  0  0  0  0  0  0  0  0  0  0  0  0  # atno 17343 bound_to 10162
  156.2660  130.3716  149.8081 LP  0  0  0  0  0  0  0  0  0  0  0  0  # atno 17370 bound_to 10713
  156.5812  130.8466  151.3383 LP  0  0  0  0  0  0  0  0  0  0  0  0  # atno 17371 bound_to 10713
  140.8295  133.8290  155.8970 LP  0  0  0  0  0  0  0  0  0  0  0  0  # atno 17394 bound_to 11000
  140.9342  134.1983  157.4843 LP  0  0  0  0  0  0  0  0  0  0  0  0  # atno 17395 bound_to 11000

$$$$
