AV-unprocessed.smi:3|AV-procd|sdf|29|dock4
  -GOLD-   2262015143D 1   1.00000     0.00000
 Structure written by MMmdl.
 34 36  0  0  0  0  0  0  0  0  2 V2000
  151.3125  142.1465  156.5565 C   0  0  0  0  0  0  0  0  0  0  0  0
  152.0278  140.8788  156.6016 N   0  0  0  0  0  0  0  0  0  0  0  0
  152.7209  140.5327  157.8448 C   0  0  0  0  0  0  0  0  0  0  0  0
  153.0843  141.7662  158.6711 C   0  0  1  0  0  0  0  0  0  0  0  0
  151.9995  142.5236  159.4524 C   0  0  0  0  0  0  0  0  0  0  0  0
  153.0288  142.7871  160.5558 C   0  0  1  0  0  0  0  0  0  0  0  0
  152.5776  142.7189  161.8898 O   0  0  0  0  0  0  0  0  0  0  0  0
  153.8018  141.5797  160.0154 C   0  0  0  0  0  0  0  0  0  0  0  0
  151.8054  139.9053  155.5955 C   0  0  0  0  0  0  0  0  0  0  0  0
  152.8455  139.0851  155.2753 N   0  0  0  0  0  0  0  0  0  0  0  0
  152.7634  138.1242  154.3462 C   0  0  0  0  0  0  0  0  0  0  0  0
  151.6496  137.8917  153.6487 N   0  3  0  0  0  0  0  0  0  0  0  0
  150.5843  138.6849  153.9209 C   0  0  0  0  0  0  0  0  0  0  0  0
  149.3331  138.6540  153.3429 N   0  0  0  0  0  0  0  0  0  0  0  0
  148.5322  139.6338  153.8990 C   0  0  0  0  0  0  0  0  0  0  0  0
  149.2538  140.3139  154.8471 C   0  0  0  0  0  0  0  0  0  0  0  0
  150.5744  139.7277  154.8873 C   0  0  0  0  0  0  0  0  0  0  0  0
  153.6595  142.4811  158.0790 H   0  0  0  0  0  0  0  0  0  0  0  0
  153.5723  143.7194  160.3927 H   0  0  0  0  0  0  0  0  0  0  0  0
  149.0170  138.0248  152.6185 H   0  0  0  0  0  0  0  0  0  0  0  0
  151.6489  142.7452  155.7101 H   0  0  0  0  0  0  0  0  0  0  0  0
  151.4926  142.7295  157.4603 H   0  0  0  0  0  0  0  0  0  0  0  0
  150.2372  141.9833  156.4814 H   0  0  0  0  0  0  0  0  0  0  0  0
  152.1487  139.8207  158.4395 H   0  0  0  0  0  0  0  0  0  0  0  0
  153.6317  139.9965  157.5765 H   0  0  0  0  0  0  0  0  0  0  0  0
  151.6269  143.4173  158.9511 H   0  0  0  0  0  0  0  0  0  0  0  0
  151.1821  141.8819  159.7851 H   0  0  0  0  0  0  0  0  0  0  0  0
  153.2080  143.1827  162.4194 H   0  0  0  0  0  0  0  0  0  0  0  0
  153.5362  140.6463  160.5152 H   0  0  0  0  0  0  0  0  0  0  0  0
  154.8830  141.7145  159.9713 H   0  0  0  0  0  0  0  0  0  0  0  0
  153.6159  137.4971  154.1305 H   0  0  0  0  0  0  0  0  0  0  0  0
  147.5107  139.7693  153.5739 H   0  0  0  0  0  0  0  0  0  0  0  0
  148.8891  141.1343  155.4456 H   0  0  0  0  0  0  0  0  0  0  0  0
  151.5957  137.1580  152.9422 H   0  0  0  0  0  0  0  0  0  0  0  0
  1  2  1  0  0  0  0
  1 21  1  0  0  0  0
  1 22  1  0  0  0  0
  1 23  1  0  0  0  0
  2  3  1  0  0  0  0
  2  9  1  0  0  0  0
  3  4  1  0  0  0  0
  3 24  1  0  0  0  0
  3 25  1  0  0  0  0
  4 18  1  0  0  0  0
  4  8  1  0  0  0  0
  4  5  1  0  0  0  0
  5  6  1  0  0  0  0
  5 26  1  0  0  0  0
  5 27  1  0  0  0  0
  6 19  1  0  0  0  0
  6  7  1  0  0  0  0
  6  8  1  0  0  0  0
  7 28  1  0  0  0  0
  8 29  1  0  0  0  0
  8 30  1  0  0  0  0
  9 17  1  0  0  0  0
  9 10  2  0  0  0  0
 10 11  1  0  0  0  0
 11 12  2  0  0  0  0
 11 31  1  0  0  0  0
 12 13  1  0  0  0  0
 12 34  1  0  0  0  0
 13 17  2  0  0  0  0
 13 14  1  0  0  0  0
 14 20  1  0  0  0  0
 14 15  1  0  0  0  0
 15 16  2  0  0  0  0
 15 32  1  0  0  0  0
 16 17  1  0  0  0  0
 16 33  1  0  0  0  0
M  CHG  1  12   1
M  END
> <s_m_source_file>
AV-unprocessed.smi

> <i_m_source_file_index>
3

> <i_lp_mmshare_version>
43012

> <i_f3d_flags>
0

> <s_epik_input>
W25IXTFbY0hdW2NIXWMoYzEyKWMobltjSF1uMilOKFtDSDNdKVtDSDJdW0NASF0zW0NIMl1bQ0BASF0oW09IXSlbQ0gyXTM=

> <s_epik_cmdline>
J2VwaWtfcHl0aG9uJywgJy1waCcsICc3LjAnLCAnLXRuJywgJzgnLCAnLW1hJywgJzIwMCcsICctbWV0YWxfYmluZGluZycsICctaW1hZScsICc8aW5maWxlLm1hZT4nLCAnLW9tYWUnLCAnPG91dGZpbGUubWFlPic=

> <r_lp_tautomer_probability>
1.75997e-05

> <r_epik_Ionization_Penalty>
2.28439

> <r_epik_Ionization_Penalty_Charging>
2.28438

> <r_epik_Ionization_Penalty_Neutral>
1.03791e-05

> <r_epik_State_Penalty>
2.43392

> <r_epik_Charging_Adjusted_Penalty>
4.7183

> <i_epik_Tot_Q>
1

> <i_epik_Tot_abs_Q>
1

> <r_epik_Metal_State_Penalty>
2.4464

> <b_epik_Metal_Only>
0

> <s_lp_Force_Field>
OPLS_2005

> <r_lp_Energy>
16.7386

> <b_lp_Chiralities_Consistent>
1

> <s_lp_Variant>
AV-unprocessed.smi:3-3

> <Gold.Version>
5.8.1

> <Gold.Id.Protein>
6NUR|6NUR_protein|mol2

> <Gold.PLP.Fitness>
51.8994

> <Gold.PLP.PLP>
-36.2308

> <Gold.PLP.part.hbond>
-5.9912

> <Gold.PLP.part.metal>
0.0000

> <Gold.PLP.part.buried>
-1.8084

> <Gold.PLP.part.nonpolar>
-29.5350

> <Gold.PLP.part.repulsive>
0.2220

> <Gold.PLP.ligand.clash>
0.0000

> <Gold.PLP.ligand.torsion>
0.8399

> <Gold.PLP.Chemscore.Hbond>
5.7150

> <Gold.PLP.Chemscore.CHOScore>
0.0000

> <Gold.PLP.Chemscore.Metal>
0.0000

> <Gold.Chemscore.Hbonds>
donor molecule, donor type, donor heavy atom, donor atom, acceptor molecule, acceptor atom, score
      L1  H    12    34       P1  7949  2.00
      L1  H    14    20       P1  7948  1.98
      P1  H  7997  8008       L1    10  0.90

> <Gold.PLP.Chemscore.Internal.Correction>
0.2034

> <Gold.Rescore>
     Score         DG    S(hbond)    S(metal)    S(lipo)     H(rot)  DE(clash)    DE(int)     intcor
     16.17     -17.22       2.37        0.00      73.44       1.86       0.08       0.98       ----

> <Gold.Chemscore.Fitness>
16.1661

> <Gold.Chemscore.DG>
-17.2247

> <Gold.Chemscore.ZeroCoef>
-5.4800

> <Gold.Chemscore.Hbond>
2.3728

> <Gold.Chemscore.Metal>
0.0000

> <Gold.Chemscore.Lipo>
73.4415

> <Gold.Chemscore.Internal_Hbond>
0.0000

> <Gold.Chemscore.DEClash>
0.0760

> <Gold.Chemscore.DEInternal>
0.9826

> <Gold.Chemscore.Rot>
1.8645

> <Gold.Chemscore.Internal.Correction>
   9.000000E+99

> <Gold.Chemscore.Hbonds>
donor molecule, donor type, donor heavy atom, donor atom, acceptor molecule, acceptor atom, score
      L1  H    12    34       P1  7949  0.96
      L1  H    14    20       P1  7948  0.93
      P1  H  7997  8008       L1    10  0.19

> <Gold.Chemscore.Hbond.Weighted>
-7.9251

> <Gold.Chemscore.Metal.Weighted>
-0.0000

> <Gold.Chemscore.Lipo.Weighted>
-8.5927

> <Gold.Chemscore.Internal_Hbond.Weighted>
0.0000

> <Gold.Chemscore.DEClash.Weighted>
0.0760

> <Gold.Chemscore.DEInternal.Weighted>
0.9826

> <Gold.Chemscore.Rot.Weighted>
4.7730

> <Gold.Chemscore.Internal.Correction.Weighted>
   9.000000E+99

> <Gold.Protein.RotatedTorsions>
[ 6907 6896 6895 6894 ] final  -17.42 input  -60.11 | X-H torsion
[ 7974 7965 7964 7962 ] final  -78.31 input  175.53 | X-H torsion
[ 8008 7997 7996 7995 ] final  -35.03 input   59.86 | X-H torsion
[ 10167 10162 10161 10158 ] final  118.27 input  -65.29 | X-H torsion
[ 10718 10713 10712 10709 ] final   92.00 input   66.30 | X-H torsion
[ 10763 10752 10751 10750 ] final -137.63 input  -60.55 | X-H torsion
[ 11005 11000 10999 10996 ] final  -75.52 input  -57.11 | X-H torsion

> <Gold.Protein.ActiveResidues>
 VAL166  LYS551  ARG553  GLY616  TRP617  ASP618  TYR619  PRO620  LYS621  CYS622 
 ASP623  PHE694  ASN695  SER759  ASP760  ASP761  ALA762  ILE779  LEU786  VAL792 
 PHE793  MET794  SER795  GLU796  ALA797  LYS798  CYS799  TRP800  GLU811  SER814 

> <Gold.Protein.RotatedAtoms>
  151.2935  135.0749  159.9212 H   0  0  0  0  0  0  0  0  0  0  0  0  # atno 6907 bound_to 6896
  152.5312  133.9907  159.7859 H   0  0  0  0  0  0  0  0  0  0  0  0  # atno 6908 bound_to 6896
  151.0181  133.5851  159.2705 H   0  0  0  0  0  0  0  0  0  0  0  0  # atno 6909 bound_to 6896
  145.5882  140.9435  143.1307 H   0  0  0  0  0  0  0  0  0  0  0  0  # atno 7974 bound_to 7965
  154.4105  140.1668  156.2146 H   0  0  0  0  0  0  0  0  0  0  0  0  # atno 8008 bound_to 7997
  155.9415  140.3407  155.6308 H   0  0  0  0  0  0  0  0  0  0  0  0  # atno 8009 bound_to 7997
  155.6983  140.0742  157.2411 H   0  0  0  0  0  0  0  0  0  0  0  0  # atno 8010 bound_to 7997
  139.6123  144.7084  151.2817 H   0  0  0  0  0  0  0  0  0  0  0  0  # atno 10167 bound_to 10162
  157.6959  131.0428  150.3816 H   0  0  0  0  0  0  0  0  0  0  0  0  # atno 10718 bound_to 10713
  154.8657  135.3636  154.5254 H   0  0  0  0  0  0  0  0  0  0  0  0  # atno 10763 bound_to 10752
  153.5882  135.7016  153.5439 H   0  0  0  0  0  0  0  0  0  0  0  0  # atno 10764 bound_to 10752
  153.3397  135.4101  155.1524 H   0  0  0  0  0  0  0  0  0  0  0  0  # atno 10765 bound_to 10752
  141.1646  133.6950  156.7530 H   0  0  0  0  0  0  0  0  0  0  0  0  # atno 11005 bound_to 11000
  144.7363  139.7576  143.7328 LP  0  0  0  0  0  0  0  0  0  0  0  0  # atno 17320 bound_to 7965
  146.1667  139.4801  142.9954 LP  0  0  0  0  0  0  0  0  0  0  0  0  # atno 17321 bound_to 7965
  140.7327  143.6815  150.7997 LP  0  0  0  0  0  0  0  0  0  0  0  0  # atno 17342 bound_to 10162
  140.0412  143.5344  152.2717 LP  0  0  0  0  0  0  0  0  0  0  0  0  # atno 17343 bound_to 10162
  156.4229  130.3956  149.6813 LP  0  0  0  0  0  0  0  0  0  0  0  0  # atno 17370 bound_to 10713
  156.4057  130.7697  151.2707 LP  0  0  0  0  0  0  0  0  0  0  0  0  # atno 17371 bound_to 10713
  140.2590  134.8481  157.3740 LP  0  0  0  0  0  0  0  0  0  0  0  0  # atno 17394 bound_to 11000
  140.1629  134.4705  155.7882 LP  0  0  0  0  0  0  0  0  0  0  0  0  # atno 17395 bound_to 11000

$$$$
