AV-unprocessed.smi:334|AV-procd|sdf|2362|dock1
  -GOLD-   2262022273D 1   1.00000     0.00000
 Structure written by MMmdl.
 44 46  0  0  0  0  0  0  0  0  3 V2000
  144.8628  134.8905  154.4260 C   0  0  0  0  0  0  0  0  0  0  0  0
  146.0895  135.0677  153.5157 C   0  0  2  0  0  0  0  0  0  0  0  0
  146.3432  136.5004  153.3680 N   0  0  0  0  0  0  0  0  0  0  0  0
  146.6958  137.3462  154.3488 C   0  0  0  0  0  0  0  0  0  0  0  0
  146.8678  136.9963  155.5172 O   0  0  0  0  0  0  0  0  0  0  0  0
  146.9080  138.8063  153.9242 C   0  0  0  0  0  0  0  0  0  0  0  0
  148.1046  139.4217  154.5224 N   0  0  0  0  0  0  0  0  0  0  0  0
  149.3336  138.7645  154.3148 C   0  0  0  0  0  0  0  0  0  0  0  0
  150.4908  139.2337  154.8208 C   0  0  0  0  0  0  0  0  0  0  0  0
  151.7427  138.5425  154.6028 N   0  3  0  0  0  0  0  0  0  0  0  0
  151.7144  137.4029  154.1494 O   0  0  0  0  0  0  0  0  0  0  0  0
  152.7940  139.1132  154.8774 O   0  5  0  0  0  0  0  0  0  0  0  0
  150.4399  140.4569  155.5981 C   0  0  0  0  0  0  0  0  0  0  0  0
  149.2671  141.0880  155.8035 C   0  0  0  0  0  0  0  0  0  0  0  0
  148.0080  140.5724  155.2563 C   0  0  0  0  0  0  0  0  0  0  0  0
  146.9322  141.1402  155.4469 O   0  0  0  0  0  0  0  0  0  0  0  0
  145.8922  134.4066  152.1277 C   0  0  2  0  0  0  0  0  0  0  0  0
  144.7848  135.0776  151.2778 C   0  0  0  0  0  0  0  0  0  0  0  0
  143.8631  133.9042  150.9012 C   0  0  1  0  0  0  0  0  0  0  0  0
  144.5846  132.9811  149.9028 C   0  0  0  0  0  0  0  0  0  0  0  0
  145.6395  132.2897  150.7860 C   0  0  0  0  0  0  0  0  0  0  0  0
  145.4040  132.9341  152.1657 C   0  0  2  0  0  0  0  0  0  0  0  0
  143.8858  133.0756  152.1788 C   0  0  0  0  0  0  0  0  0  0  0  0
  144.6509  133.8389  154.6181 H   0  0  0  0  0  0  0  0  0  0  0  0
  143.9703  135.3318  153.9807 H   0  0  0  0  0  0  0  0  0  0  0  0
  145.0223  135.3689  155.3930 H   0  0  0  0  0  0  0  0  0  0  0  0
  146.9358  134.5907  154.0124 H   0  0  0  0  0  0  0  0  0  0  0  0
  146.2362  136.8812  152.4389 H   0  0  0  0  0  0  0  0  0  0  0  0
  146.9668  138.8385  152.8352 H   0  0  0  0  0  0  0  0  0  0  0  0
  146.0185  139.3867  154.1770 H   0  0  0  0  0  0  0  0  0  0  0  0
  149.2639  137.8587  153.7294 H   0  0  0  0  0  0  0  0  0  0  0  0
  151.3408  140.8755  156.0215 H   0  0  0  0  0  0  0  0  0  0  0  0
  149.2517  141.9973  156.3863 H   0  0  0  0  0  0  0  0  0  0  0  0
  146.8435  134.4549  151.5953 H   0  0  0  0  0  0  0  0  0  0  0  0
  144.2229  135.8107  151.8576 H   0  0  0  0  0  0  0  0  0  0  0  0
  145.1864  135.5889  150.4021 H   0  0  0  0  0  0  0  0  0  0  0  0
  142.8717  134.2161  150.5715 H   0  0  0  0  0  0  0  0  0  0  0  0
  143.8958  132.2474  149.4821 H   0  0  0  0  0  0  0  0  0  0  0  0
  145.0311  133.5351  149.0762 H   0  0  0  0  0  0  0  0  0  0  0  0
  145.4581  131.2148  150.8260 H   0  0  0  0  0  0  0  0  0  0  0  0
  146.6556  132.4411  150.4202 H   0  0  0  0  0  0  0  0  0  0  0  0
  145.8116  132.3359  152.9799 H   0  0  0  0  0  0  0  0  0  0  0  0
  143.5043  133.6090  153.0510 H   0  0  0  0  0  0  0  0  0  0  0  0
  143.3615  132.1227  152.0861 H   0  0  0  0  0  0  0  0  0  0  0  0
  1  2  1  0  0  0  0
  1 24  1  0  0  0  0
  1 25  1  0  0  0  0
  1 26  1  0  0  0  0
  2  3  1  0  0  0  0
  2 17  1  0  0  0  0
  2 27  1  0  0  0  0
  3  4  1  0  0  0  0
  3 28  1  0  0  0  0
  4  5  2  0  0  0  0
  4  6  1  0  0  0  0
  6  7  1  0  0  0  0
  6 29  1  0  0  0  0
  6 30  1  0  0  0  0
  7 15  1  0  0  0  0
  7  8  1  0  0  0  0
  8  9  2  0  0  0  0
  8 31  1  0  0  0  0
  9 10  1  0  0  0  0
  9 13  1  0  0  0  0
 10 11  2  0  0  0  0
 10 12  1  0  0  0  0
 13 14  2  0  0  0  0
 13 32  1  0  0  0  0
 14 15  1  0  0  0  0
 14 33  1  0  0  0  0
 15 16  2  0  0  0  0
 17 22  1  0  0  0  0
 17 18  1  0  0  0  0
 17 34  1  0  0  0  0
 18 19  1  0  0  0  0
 18 35  1  0  0  0  0
 18 36  1  0  0  0  0
 19 23  1  0  0  0  0
 19 20  1  0  0  0  0
 19 37  1  0  0  0  0
 20 21  1  0  0  0  0
 20 38  1  0  0  0  0
 20 39  1  0  0  0  0
 21 22  1  0  0  0  0
 21 40  1  0  0  0  0
 21 41  1  0  0  0  0
 22 23  1  0  0  0  0
 22 42  1  0  0  0  0
 23 43  1  0  0  0  0
 23 44  1  0  0  0  0
M  CHG  1  10   1
M  CHG  1  12  -1
M  END
> <s_m_source_file>
AV-unprocessed.smi

> <i_m_source_file_index>
334

> <i_lp_mmshare_version>
43012

> <i_f3d_flags>
0

> <s_epik_input>
W0NIMl0xW0NIMl1bQ0BIXShbQ0gyXTIpW0NAQEhdKFtDSDJdW0NAQEhdMTIpW0NASF0oW0NIM10pW05IXUMoPU8pW0NIMl1uM1tjSF1jKFtOK10oPU8pW08tXSlbY0hdW2NIXWMzPU8=

> <s_epik_cmdline>
J2VwaWtfcHl0aG9uJywgJy1waCcsICc3LjAnLCAnLXRuJywgJzgnLCAnLW1hJywgJzIwMCcsICctbWV0YWxfYmluZGluZycsICctaW1hZScsICc8aW5maWxlLm1hZT4nLCAnLW9tYWUnLCAnPG91dGZpbGUubWFlPic=

> <r_lp_tautomer_probability>
1

> <r_epik_Ionization_Penalty>
2.17081e-08

> <r_epik_Ionization_Penalty_Charging>
8.1195e-11

> <r_epik_Ionization_Penalty_Neutral>
2.16269e-08

> <r_epik_State_Penalty>
-0

> <r_epik_Charging_Adjusted_Penalty>
8.1195e-11

> <i_epik_Tot_Q>
0

> <i_epik_Tot_abs_Q>
2

> <r_epik_Metal_State_Penalty>
-0

> <b_epik_Metal_Only>
0

> <s_lp_Force_Field>
OPLS_2005

> <r_lp_Energy>
62.1866

> <b_lp_Chiralities_Consistent>
1

> <s_lp_Variant>
AV-unprocessed.smi:334-1

> <Gold.Version>
5.8.1

> <Gold.Id.Protein>
6NUR|6NUR_protein|mol2

> <Gold.PLP.Fitness>
48.4512

> <Gold.PLP.PLP>
-40.2614

> <Gold.PLP.part.hbond>
-3.0000

> <Gold.PLP.part.metal>
0.0000

> <Gold.PLP.part.buried>
-0.1714

> <Gold.PLP.part.nonpolar>
-35.5302

> <Gold.PLP.part.repulsive>
0.3453

> <Gold.PLP.ligand.clash>
0.0000

> <Gold.PLP.ligand.torsion>
0.4175

> <Gold.PLP.Chemscore.Hbond>
1.9920

> <Gold.PLP.Chemscore.CHOScore>
1.0000

> <Gold.PLP.Chemscore.Metal>
0.0000

> <Gold.Chemscore.Hbonds>
donor molecule, donor type, donor heavy atom, donor atom, acceptor molecule, acceptor atom, score
      P1  H  7997  8010       L1    12  0.52
      P1  H 10752 10764       L1    11  0.75
      L1  C     8    31       P1  7948  1.00

> <Gold.PLP.Chemscore.Internal.Correction>
0.0488

> <Gold.Rescore>
     Score         DG    S(hbond)    S(metal)    S(lipo)     H(rot)  DE(clash)    DE(int)     intcor
     15.47     -17.21       1.89        0.00      84.47       1.75       0.01       1.73       ----

> <Gold.Chemscore.Fitness>
15.4749

> <Gold.Chemscore.DG>
-17.2094

> <Gold.Chemscore.ZeroCoef>
-5.4800

> <Gold.Chemscore.Hbond>
1.8923

> <Gold.Chemscore.Metal>
0.0000

> <Gold.Chemscore.Lipo>
84.4660

> <Gold.Chemscore.Internal_Hbond>
0.0000

> <Gold.Chemscore.DEClash>
0.0095

> <Gold.Chemscore.DEInternal>
1.7250

> <Gold.Chemscore.Rot>
1.7474

> <Gold.Chemscore.Internal.Correction>
   9.000000E+99

> <Gold.Chemscore.Hbonds>
donor molecule, donor type, donor heavy atom, donor atom, acceptor molecule, acceptor atom, score
      P1  H  7997  8010       L1    12  0.52
      P1  H 10752 10764       L1    11  0.72

> <Gold.Chemscore.Hbond.Weighted>
-6.3202

> <Gold.Chemscore.Metal.Weighted>
-0.0000

> <Gold.Chemscore.Lipo.Weighted>
-9.8825

> <Gold.Chemscore.Internal_Hbond.Weighted>
0.0000

> <Gold.Chemscore.DEClash.Weighted>
0.0095

> <Gold.Chemscore.DEInternal.Weighted>
1.7250

> <Gold.Chemscore.Rot.Weighted>
4.4733

> <Gold.Chemscore.Internal.Correction.Weighted>
   9.000000E+99

> <Gold.Protein.RotatedTorsions>
[ 6907 6896 6895 6894 ] final  134.70 input  -60.11 | X-H torsion
[ 7974 7965 7964 7962 ] final  -10.52 input  175.53 | X-H torsion
[ 8008 7997 7996 7995 ] final  100.53 input   59.86 | X-H torsion
[ 10167 10162 10161 10158 ] final  -24.90 input  -65.29 | X-H torsion
[ 10718 10713 10712 10709 ] final -151.20 input   66.30 | X-H torsion
[ 10763 10752 10751 10750 ] final  -76.96 input  -60.55 | X-H torsion
[ 11005 11000 10999 10996 ] final   16.37 input  -57.11 | X-H torsion

> <Gold.Protein.ActiveResidues>
 VAL166  LYS551  ARG553  GLY616  TRP617  ASP618  TYR619  PRO620  LYS621  CYS622 
 ASP623  PHE694  ASN695  SER759  ASP760  ASP761  ALA762  ILE779  LEU786  VAL792 
 PHE793  MET794  SER795  GLU796  ALA797  LYS798  CYS799  TRP800  GLU811  SER814 

> <Gold.Protein.RotatedAtoms>
  152.3085  133.5728  159.5664 H   0  0  0  0  0  0  0  0  0  0  0  0  # atno 6907 bound_to 6896
  150.7311  134.0188  159.3703 H   0  0  0  0  0  0  0  0  0  0  0  0  # atno 6908 bound_to 6896
  151.8082  135.0689  160.0460 H   0  0  0  0  0  0  0  0  0  0  0  0  # atno 6909 bound_to 6896
  146.2218  140.2776  142.8360 H   0  0  0  0  0  0  0  0  0  0  0  0  # atno 7974 bound_to 7965
  156.1212  140.3212  155.8211 H   0  0  0  0  0  0  0  0  0  0  0  0  # atno 8008 bound_to 7997
  155.4501  140.0532  157.3019 H   0  0  0  0  0  0  0  0  0  0  0  0  # atno 8009 bound_to 7997
  154.4829  140.2060  155.9736 H   0  0  0  0  0  0  0  0  0  0  0  0  # atno 8010 bound_to 7997
  140.7287  143.4312  151.0799 H   0  0  0  0  0  0  0  0  0  0  0  0  # atno 10167 bound_to 10162
  156.4561  130.8191  151.2422 H   0  0  0  0  0  0  0  0  0  0  0  0  # atno 10718 bound_to 10713
  154.5066  135.5780  153.6572 H   0  0  0  0  0  0  0  0  0  0  0  0  # atno 10763 bound_to 10752
  152.9889  135.6148  154.2933 H   0  0  0  0  0  0  0  0  0  0  0  0  # atno 10764 bound_to 10752
  154.2844  135.2850  155.2662 H   0  0  0  0  0  0  0  0  0  0  0  0  # atno 10765 bound_to 10752
  140.4479  134.1255  155.7698 H   0  0  0  0  0  0  0  0  0  0  0  0  # atno 11005 bound_to 11000
  144.9221  140.7879  143.5742 LP  0  0  0  0  0  0  0  0  0  0  0  0  # atno 17320 bound_to 7965
  145.2714  139.1953  143.4840 LP  0  0  0  0  0  0  0  0  0  0  0  0  # atno 17321 bound_to 7965
  139.7969  143.8139  152.3158 LP  0  0  0  0  0  0  0  0  0  0  0  0  # atno 17342 bound_to 10162
  139.8142  144.7323  150.9657 LP  0  0  0  0  0  0  0  0  0  0  0  0  # atno 17343 bound_to 10162
  157.7500  131.0122  150.3376 LP  0  0  0  0  0  0  0  0  0  0  0  0  # atno 17370 bound_to 10713
  156.3765  130.3873  149.7134 LP  0  0  0  0  0  0  0  0  0  0  0  0  # atno 17371 bound_to 10713
  141.1677  133.8670  157.1665 LP  0  0  0  0  0  0  0  0  0  0  0  0  # atno 17394 bound_to 11000
  140.0026  135.0021  157.0224 LP  0  0  0  0  0  0  0  0  0  0  0  0  # atno 17395 bound_to 11000

$$$$
