AV-unprocessed.smi:2229|AV-procd|sdf|9027|dock10
  -GOLD-   2272012233D 1   1.00000     0.00000
 Structure written by MMmdl.
 44 45  0  0  0  0  0  0  0  0  1 V2000
  151.6892  144.7263  158.3767 C   0  0  0  0  0  0  0  0  0  0  0  0
  152.1018  143.3259  158.8558 C   0  0  0  0  0  0  0  0  0  0  0  0
  153.5988  143.3032  159.2110 C   0  0  0  0  0  0  0  0  0  0  0  0
  151.7268  142.2590  157.8068 C   0  0  0  0  0  0  0  0  0  0  0  0
  150.2237  141.9337  157.7536 C   0  0  0  0  0  0  0  0  0  0  0  0
  149.8689  140.8675  156.7016 C   0  0  2  0  0  0  0  0  0  0  0  0
  150.9678  139.8435  156.4120 C   0  0  0  0  0  0  0  0  0  0  0  0
  150.5464  139.2208  155.0818 C   0  0  0  0  0  0  0  0  0  0  0  0
  149.8642  140.3501  154.2991 C   0  0  0  0  0  0  0  0  0  0  0  0
  149.5436  141.4593  155.3207 C   0  0  1  0  0  0  0  0  0  0  0  0
  148.1505  141.8844  155.2739 N   0  0  0  0  0  0  0  0  0  0  0  0
  147.0947  141.0865  155.0486 C   0  0  0  0  0  0  0  0  0  0  0  0
  147.1927  139.8648  154.9448 O   0  0  0  0  0  0  0  0  0  0  0  0
  145.7136  141.7457  154.8942 C   0  0  0  0  0  0  0  0  0  0  0  0
  144.9593  141.8978  156.1441 N   0  0  0  0  0  0  0  0  0  0  0  0
  143.6233  142.2358  156.1868 C   0  0  0  0  0  0  0  0  0  0  0  0
  143.1834  142.3079  157.3967 N   0  0  0  0  0  0  0  0  0  0  0  0
  144.2830  142.0091  158.1287 N   0  0  0  0  0  0  0  0  0  0  0  0
  145.3731  141.7593  157.4021 C   0  0  0  0  0  0  0  0  0  0  0  0
  146.4946  141.4593  157.8067 O   0  0  0  0  0  0  0  0  0  0  0  0
  144.2167  141.9944  159.1364 H   0  0  0  0  0  0  0  0  0  0  0  0
  152.2173  145.0043  157.4640 H   0  0  0  0  0  0  0  0  0  0  0  0
  151.9095  145.4815  159.1316 H   0  0  0  0  0  0  0  0  0  0  0  0
  150.6195  144.7742  158.1702 H   0  0  0  0  0  0  0  0  0  0  0  0
  151.5382  143.1180  159.7662 H   0  0  0  0  0  0  0  0  0  0  0  0
  154.2185  143.4543  158.3268 H   0  0  0  0  0  0  0  0  0  0  0  0
  153.8939  142.3591  159.6679 H   0  0  0  0  0  0  0  0  0  0  0  0
  153.8431  144.0908  159.9245 H   0  0  0  0  0  0  0  0  0  0  0  0
  152.0389  142.6093  156.8224 H   0  0  0  0  0  0  0  0  0  0  0  0
  152.2946  141.3468  157.9957 H   0  0  0  0  0  0  0  0  0  0  0  0
  149.9013  141.5666  158.7277 H   0  0  0  0  0  0  0  0  0  0  0  0
  149.6520  142.8433  157.5668 H   0  0  0  0  0  0  0  0  0  0  0  0
  148.9948  140.3139  157.0511 H   0  0  0  0  0  0  0  0  0  0  0  0
  151.9293  140.3459  156.2963 H   0  0  0  0  0  0  0  0  0  0  0  0
  151.0712  139.0997  157.2025 H   0  0  0  0  0  0  0  0  0  0  0  0
  151.3884  138.7881  154.5409 H   0  0  0  0  0  0  0  0  0  0  0  0
  149.8285  138.4208  155.2670 H   0  0  0  0  0  0  0  0  0  0  0  0
  150.5300  140.7394  153.5279 H   0  0  0  0  0  0  0  0  0  0  0  0
  148.9727  139.9771  153.7929 H   0  0  0  0  0  0  0  0  0  0  0  0
  150.1989  142.3126  155.1332 H   0  0  0  0  0  0  0  0  0  0  0  0
  147.9797  142.8763  155.3538 H   0  0  0  0  0  0  0  0  0  0  0  0
  145.8510  142.7333  154.4517 H   0  0  0  0  0  0  0  0  0  0  0  0
  145.1382  141.1670  154.1701 H   0  0  0  0  0  0  0  0  0  0  0  0
  143.0774  142.4035  155.2566 H   0  0  0  0  0  0  0  0  0  0  0  0
  1  2  1  0  0  0  0
  1 22  1  0  0  0  0
  1 23  1  0  0  0  0
  1 24  1  0  0  0  0
  2  3  1  0  0  0  0
  2  4  1  0  0  0  0
  2 25  1  0  0  0  0
  3 26  1  0  0  0  0
  3 27  1  0  0  0  0
  3 28  1  0  0  0  0
  4  5  1  0  0  0  0
  4 29  1  0  0  0  0
  4 30  1  0  0  0  0
  5  6  1  0  0  0  0
  5 31  1  0  0  0  0
  5 32  1  0  0  0  0
  6 10  1  0  0  0  0
  6  7  1  0  0  0  0
  6 33  1  0  0  0  0
  7  8  1  0  0  0  0
  7 34  1  0  0  0  0
  7 35  1  0  0  0  0
  8  9  1  0  0  0  0
  8 36  1  0  0  0  0
  8 37  1  0  0  0  0
  9 10  1  0  0  0  0
  9 38  1  0  0  0  0
  9 39  1  0  0  0  0
 10 11  1  0  0  0  0
 10 40  1  0  0  0  0
 11 12  1  0  0  0  0
 11 41  1  0  0  0  0
 12 13  2  0  0  0  0
 12 14  1  0  0  0  0
 14 15  1  0  0  0  0
 14 42  1  0  0  0  0
 14 43  1  0  0  0  0
 15 19  1  0  0  0  0
 15 16  1  0  0  0  0
 16 17  2  0  0  0  0
 16 44  1  0  0  0  0
 17 18  1  0  0  0  0
 18 21  1  0  0  0  0
 18 19  1  0  0  0  0
 19 20  2  0  0  0  0
M  END
> <s_m_source_file>
AV-unprocessed.smi

> <i_m_source_file_index>
2229

> <i_lp_mmshare_version>
43012

> <i_f3d_flags>
0

> <s_epik_input>
W0NIM11bQ0hdKFtDSDNdKVtDSDJdW0NIMl1bQ0BASF0xW0NIMl1bQ0gyXVtDSDJdW0NASF0xW05IXUMoPU8pW0NIMl1uMltjSF1uW25IXWMyPU8=

> <s_epik_cmdline>
J2VwaWtfcHl0aG9uJywgJy1waCcsICc3LjAnLCAnLXRuJywgJzgnLCAnLW1hJywgJzIwMCcsICctbWV0YWxfYmluZGluZycsICctaW1hZScsICc8aW5maWxlLm1hZT4nLCAnLW9tYWUnLCAnPG91dGZpbGUubWFlPic=

> <r_lp_tautomer_probability>
1

> <r_epik_Ionization_Penalty>
4.14174e-05

> <r_epik_Ionization_Penalty_Charging>
4.13165e-05

> <r_epik_Ionization_Penalty_Neutral>
1.00911e-07

> <r_epik_State_Penalty>
-0

> <r_epik_Charging_Adjusted_Penalty>
4.13165e-05

> <i_epik_Tot_Q>
0

> <i_epik_Tot_abs_Q>
0

> <r_epik_Metal_State_Penalty>
0.0399369

> <b_epik_Metal_Only>
0

> <s_lp_Force_Field>
OPLS_2005

> <r_lp_Energy>
36.5056

> <b_lp_Chiralities_Consistent>
1

> <s_lp_Variant>
AV-unprocessed.smi:2229-1

> <Gold.Version>
5.8.1

> <Gold.Id.Protein>
6NUR|6NUR_protein|mol2

> <Gold.PLP.Fitness>
40.9060

> <Gold.PLP.PLP>
-37.7347

> <Gold.PLP.part.hbond>
-1.0000

> <Gold.PLP.part.metal>
0.0000

> <Gold.PLP.part.buried>
-5.5099

> <Gold.PLP.part.nonpolar>
-33.3652

> <Gold.PLP.part.repulsive>
0.5230

> <Gold.PLP.ligand.clash>
0.0000

> <Gold.PLP.ligand.torsion>
1.3423

> <Gold.PLP.Chemscore.Hbond>
0.9440

> <Gold.PLP.Chemscore.CHOScore>
1.0000

> <Gold.PLP.Chemscore.Metal>
0.0000

> <Gold.Chemscore.Hbonds>
donor molecule, donor type, donor heavy atom, donor atom, acceptor molecule, acceptor atom, score
      L1  H    11    41       P1  8028  0.86

> <Gold.PLP.Chemscore.Internal.Correction>
0.0238

> <Gold.Rescore>
     Score         DG    S(hbond)    S(metal)    S(lipo)     H(rot)  DE(clash)    DE(int)     intcor
      8.01     -11.80       0.88        0.00      86.63       2.64       0.08       3.71       ----

> <Gold.Chemscore.Fitness>
8.0117

> <Gold.Chemscore.DG>
-11.8017

> <Gold.Chemscore.ZeroCoef>
-5.4800

> <Gold.Chemscore.Hbond>
0.8791

> <Gold.Chemscore.Metal>
0.0000

> <Gold.Chemscore.Lipo>
86.6293

> <Gold.Chemscore.Internal_Hbond>
0.0000

> <Gold.Chemscore.DEClash>
0.0838

> <Gold.Chemscore.DEInternal>
3.7062

> <Gold.Chemscore.Rot>
2.6368

> <Gold.Chemscore.Internal.Correction>
   9.000000E+99

> <Gold.Chemscore.Hbonds>
donor molecule, donor type, donor heavy atom, donor atom, acceptor molecule, acceptor atom, score
      L1  H    11    41       P1  8028  0.70

> <Gold.Chemscore.Hbond.Weighted>
-2.9361

> <Gold.Chemscore.Metal.Weighted>
-0.0000

> <Gold.Chemscore.Lipo.Weighted>
-10.1356

> <Gold.Chemscore.Internal_Hbond.Weighted>
0.0000

> <Gold.Chemscore.DEClash.Weighted>
0.0838

> <Gold.Chemscore.DEInternal.Weighted>
3.7062

> <Gold.Chemscore.Rot.Weighted>
6.7501

> <Gold.Chemscore.Internal.Correction.Weighted>
   9.000000E+99

> <Gold.Protein.RotatedTorsions>
[ 6907 6896 6895 6894 ] final  113.71 input  -60.11 | X-H torsion
[ 7974 7965 7964 7962 ] final  -85.95 input  175.53 | X-H torsion
[ 8008 7997 7996 7995 ] final   58.80 input   59.86 | X-H torsion
[ 10167 10162 10161 10158 ] final -170.82 input  -65.29 | X-H torsion
[ 10718 10713 10712 10709 ] final    4.77 input   66.30 | X-H torsion
[ 10763 10752 10751 10750 ] final  155.43 input  -60.55 | X-H torsion
[ 11005 11000 10999 10996 ] final  -95.36 input  -57.11 | X-H torsion

> <Gold.Protein.ActiveResidues>
 VAL166  LYS551  ARG553  GLY616  TRP617  ASP618  TYR619  PRO620  LYS621  CYS622 
 ASP623  PHE694  ASN695  SER759  ASP760  ASP761  ALA762  ILE779  LEU786  VAL792 
 PHE793  MET794  SER795  GLU796  ALA797  LYS798  CYS799  TRP800  GLU811  SER814 

> <Gold.Protein.RotatedAtoms>
  152.4845  133.8338  159.7116 H   0  0  0  0  0  0  0  0  0  0  0  0  # atno 6907 bound_to 6896
  150.8921  133.7220  159.2908 H   0  0  0  0  0  0  0  0  0  0  0  0  # atno 6908 bound_to 6896
  151.4690  135.1048  159.9798 H   0  0  0  0  0  0  0  0  0  0  0  0  # atno 6909 bound_to 6896
  145.4864  140.9555  143.1836 H   0  0  0  0  0  0  0  0  0  0  0  0  # atno 7974 bound_to 7965
  155.5559  140.3487  155.4479 H   0  0  0  0  0  0  0  0  0  0  0  0  # atno 8008 bound_to 7997
  156.0550  140.1326  157.0033 H   0  0  0  0  0  0  0  0  0  0  0  0  # atno 8009 bound_to 7997
  154.4452  140.0997  156.6416 H   0  0  0  0  0  0  0  0  0  0  0  0  # atno 8010 bound_to 7997
  139.5839  144.1362  152.1550 H   0  0  0  0  0  0  0  0  0  0  0  0  # atno 10167 bound_to 10162
  156.8975  130.5709  149.5648 H   0  0  0  0  0  0  0  0  0  0  0  0  # atno 10718 bound_to 10713
  154.1682  135.2806  155.3089 H   0  0  0  0  0  0  0  0  0  0  0  0  # atno 10763 bound_to 10752
  154.6095  135.5503  153.7461 H   0  0  0  0  0  0  0  0  0  0  0  0  # atno 10764 bound_to 10752
  153.0172  135.6412  154.1823 H   0  0  0  0  0  0  0  0  0  0  0  0  # atno 10765 bound_to 10752
  141.1444  133.8021  157.0424 H   0  0  0  0  0  0  0  0  0  0  0  0  # atno 11005 bound_to 11000
  144.7859  139.6428  143.7134 LP  0  0  0  0  0  0  0  0  0  0  0  0  # atno 17320 bound_to 7965
  146.2310  139.5814  142.9555 LP  0  0  0  0  0  0  0  0  0  0  0  0  # atno 17321 bound_to 7965
  140.0921  144.5612  150.7047 LP  0  0  0  0  0  0  0  0  0  0  0  0  # atno 17342 bound_to 10162
  140.7114  143.2508  151.4570 LP  0  0  0  0  0  0  0  0  0  0  0  0  # atno 17343 bound_to 10162
  156.0598  130.5653  150.9169 LP  0  0  0  0  0  0  0  0  0  0  0  0  # atno 17370 bound_to 10713
  157.6046  131.0939  150.8901 LP  0  0  0  0  0  0  0  0  0  0  0  0  # atno 17371 bound_to 10713
  140.0684  134.9716  157.1425 LP  0  0  0  0  0  0  0  0  0  0  0  0  # atno 17394 bound_to 11000
  140.3747  134.2352  155.7175 LP  0  0  0  0  0  0  0  0  0  0  0  0  # atno 17395 bound_to 11000

$$$$
