#       Name:                AV-unprocessed.smi:199
#       Creating user name   scv26
#       Creation time:       Thu Mar 26 19:43:50 2020


#       File generated by GOLD software.
#

@<TRIPOS>MOLECULE
AV-unprocessed.smi:199
    61    65     1
SMALL
NO_CHARGES


@<TRIPOS>ATOM
      1 ****        -6.1011   0.6150   0.6810 C.3            1 S1                 0.0000
      2 ****        -5.2841   1.9051   0.8540 C.3            1 S1                 0.0000
      3 ****        -5.5589   2.7452  -0.2641 O.3            1 S1                 0.0000
      4 ****        -4.4171   3.5402  -0.5302 C.3            1 S1                 0.0000
      5 ****        -3.2780   2.5553  -0.3170 C.3            1 S1                 0.0000
      6 ****        -3.7365   1.7560   0.9000 C.3            1 S1                 0.0000
      7 ****        -3.2762   2.4305   2.0598 O.3            1 S1                 0.0000
      8 ****        -3.1817   0.3072   0.9363 C.3            1 S1                 0.0000
      9 ****        -1.7277   0.2434   0.9118 N.pl3          1 S1                 0.0000
     10 ****        -0.8822   0.3376   1.9929 C.2            1 S1                 0.0000
     11 ****         0.3890   0.2578   1.7124 N.2            1 S1                 0.0000
     12 ****         0.4294   0.0806   0.3340 C.ar           1 S1                 0.0000
     13 ****         1.4743  -0.0756  -0.6238 C.ar           1 S1                 0.0000
     14 ****         2.8005  -0.0815  -0.3142 N.3            1 S1                 0.0000
     15 ****         3.2880  -0.7722   0.8711 C.3            1 S1                 0.0000
     16 ****         4.7605  -0.3300   0.9249 C.3            1 S1                 0.0000
     17 ****         5.1012  -0.2364  -0.5698 C.3            1 S1                 0.0000
     18 ****         3.7756  -0.6885  -1.2113 C.3            1 S1                 0.0000
     19 ****         3.5401  -2.2096  -1.0186 C.3            1 S1                 0.0000
     20 ****         4.6693  -3.1411  -1.4966 C.3            1 S1                 0.0000
     21 ****         4.2330  -4.4833  -1.4646 O.3            1 S1                 0.0000
     22 ****         3.2305  -2.2657   0.4895 C.3            1 S1                 0.0000
     23 ****         1.1067  -0.1932  -1.9280 N.ar           1 S1                 0.0000
     24 ****        -0.1831  -0.1933  -2.2741 C.ar           1 S1                 0.0000
     25 ****        -1.2557  -0.0746  -1.4913 N.ar           1 S1                 0.0000
     26 ****        -0.8987   0.0703  -0.1835 C.ar           1 S1                 0.0000
     27 ****        -5.9435  -0.0722   1.5122 H              1 S1                 0.0000
     28 ****        -5.8443   0.0986  -0.2441 H              1 S1                 0.0000
     29 ****        -7.1672   0.8392   0.6426 H              1 S1                 0.0000
     30 ****        -5.6427   2.4203   1.7473 H              1 S1                 0.0000
     31 ****        -4.4385   3.9506  -1.5399 H              1 S1                 0.0000
     32 ****        -4.3649   4.3662   0.1808 H              1 S1                 0.0000
     33 ****        -3.2148   1.9055  -1.1904 H              1 S1                 0.0000
     34 ****        -2.3076   3.0380  -0.1906 H              1 S1                 0.0000
     35 ****        -3.6452   2.0064   2.8194 H              1 S1                 0.0000
     36 ****        -3.5278  -0.2103   1.8319 H              1 S1                 0.0000
     37 ****        -3.5521  -0.2659   0.0861 H              1 S1                 0.0000
     38 ****        -1.2397   0.4764   3.0028 H              1 S1                 0.0000
     39 ****         2.7684  -0.5479   1.8006 H              1 S1                 0.0000
     40 ****         4.8592   0.6460   1.4019 H              1 S1                 0.0000
     41 ****         5.3939  -1.0364   1.4626 H              1 S1                 0.0000
     42 ****         5.3196   0.7974  -0.8410 H              1 S1                 0.0000
     43 ****         5.9630  -0.8372  -0.8565 H              1 S1                 0.0000
     44 ****         3.6930  -0.3701  -2.2511 H              1 S1                 0.0000
     45 ****         2.6363  -2.4792  -1.5680 H              1 S1                 0.0000
     46 ****         4.9560  -2.8939  -2.5189 H              1 S1                 0.0000
     47 ****         5.5592  -3.0507  -0.8739 H              1 S1                 0.0000
     48 ****         4.9313  -5.0345  -1.7832 H              1 S1                 0.0000
     49 ****         3.9417  -2.8671   1.0570 H              1 S1                 0.0000
     50 ****         2.2345  -2.6763   0.6597 H              1 S1                 0.0000
     51 ****        -0.3837  -0.3031  -3.3297 H              1 S1                 0.0000
     52 ****        -6.3387   3.3359  -0.0568 LP             1 S1                 0.0000
     53 ****        -5.7702   2.1825  -1.0632 LP             1 S1                 0.0000
     54 ****        -3.5680   3.3866   2.0322 LP             1 S1                 0.0000
     55 ****        -2.2780   2.3877   2.1012 LP             1 S1                 0.0000
     56 ****         1.1607   0.3119   2.3460 LP             1 S1                 0.0000
     57 ****         2.7666   0.9174  -0.2818 LP             1 S1                 0.0000
     58 ****         3.4272  -4.5897  -2.0471 LP             1 S1                 0.0000
     59 ****         4.0022  -4.7403  -0.5261 LP             1 S1                 0.0000
     60 ****         1.8090  -0.2804  -2.6345 LP             1 S1                 0.0000
     61 ****        -2.1998  -0.0898  -1.8207 LP             1 S1                 0.0000
@<TRIPOS>BOND
    1    1    2 1     
    2    1   27 1     
    3    1   28 1     
    4    1   29 1     
    5    2    6 1     
    6    2    3 1     
    7    2   30 1     
    8    3    4 1     
    9    4    5 1     
   10    4   31 1     
   11    4   32 1     
   12    5    6 1     
   13    5   33 1     
   14    5   34 1     
   15    6    7 1     
   16    6    8 1     
   17    7   35 1     
   18    8    9 1     
   19    8   36 1     
   20    8   37 1     
   21    9   26 1     
   22    9   10 1     
   23   10   11 2     
   24   10   38 1     
   25   11   12 1     
   26   12   26 ar    
   27   12   13 ar    
   28   13   14 1     
   29   13   23 ar    
   30   14   18 1     
   31   14   15 1     
   32   15   22 1     
   33   15   16 1     
   34   15   39 1     
   35   16   17 1     
   36   16   40 1     
   37   16   41 1     
   38   17   18 1     
   39   17   42 1     
   40   17   43 1     
   41   18   19 1     
   42   18   44 1     
   43   19   20 1     
   44   19   22 1     
   45   19   45 1     
   46   20   21 1     
   47   20   46 1     
   48   20   47 1     
   49   21   48 1     
   50   22   49 1     
   51   22   50 1     
   52   23   24 ar    
   53   24   25 ar    
   54   24   51 1     
   55   25   26 ar    
   56    3   52 1     
   57    3   53 1     
   58    7   54 1     
   59    7   55 1     
   60   11   56 1     
   61   14   57 1     
   62   21   58 1     
   63   21   59 1     
   64   23   60 1     
   65   25   61 1     
@<TRIPOS>SUBSTRUCTURE
      1 S1             1
@<TRIPOS>SET
LONE_PAIRS      STATIC     ATOMS    <user>   **** ""
10 52 53 54 55 56 57 58 59 60 61
DONOR_HYDROGENS      STATIC     ATOMS    <user>   **** ""
2 35 48
ATOM$BLUE        STATIC     ATOMS    COLORGROUP SYSTEM
10 52 53 54 55 56 57 58 59 60 61
ATOM$RED        STATIC     ATOMS    COLORGROUP SYSTEM
2 35 48
