AV-unprocessed.smi:1718|AV-procd|sdf|6925|dock2
  -GOLD-   22720 8133D 1   1.00000     0.00000
 Structure written by MMmdl.
 40 41  0  0  0  0  0  0  0  0  1 V2000
  149.0198  138.6304  154.2605 C   0  0  0  0  0  0  0  0  0  0  0  0
  149.2403  140.1449  154.3836 C   0  0  1  0  0  0  0  0  0  0  0  0
  148.0134  140.7224  154.8223 O   0  0  0  0  0  0  0  0  0  0  0  0
  147.6169  141.9076  154.1411 C   0  0  0  0  0  0  0  0  0  0  0  0
  146.5707  142.6391  154.9900 C   0  0  1  0  0  0  0  0  0  0  0  0
  145.5358  143.4128  154.1719 C   0  0  0  0  0  0  0  0  0  0  0  0
  144.3450  143.4122  155.1025 C   0  0  0  0  0  0  0  0  0  0  0  0
  144.4320  142.0145  155.7057 C   0  0  0  0  0  0  0  0  0  0  0  0
  145.8220  141.7060  155.7664 O   0  0  0  0  0  0  0  0  0  0  0  0
  150.3642  140.4630  155.3827 C   0  0  0  0  0  0  0  0  0  0  0  0
  151.5331  140.2332  155.0721 O   0  0  0  0  0  0  0  0  0  0  0  0
  149.9637  140.9838  156.5592 N   0  0  0  0  0  0  0  0  0  0  0  0
  150.7290  141.3034  157.6927 C   0  0  0  0  0  0  0  0  0  0  0  0
  150.7258  142.5136  158.3096 C   0  0  0  0  0  0  0  0  0  0  0  0
  151.5562  142.7906  159.4683 C   0  0  0  0  0  0  0  0  0  0  0  0
  151.5124  144.1480  160.1511 C   0  0  0  0  0  0  0  0  0  0  0  0
  152.1705  144.1420  161.3112 F   0  0  0  0  0  0  0  0  0  0  0  0
  152.0595  145.0732  159.3635 F   0  0  0  0  0  0  0  0  0  0  0  0
  150.2498  144.5037  160.3865 F   0  0  0  0  0  0  0  0  0  0  0  0
  152.3414  141.7859  159.9000 C   0  0  0  0  0  0  0  0  0  0  0  0
  152.3607  140.5429  159.2626 N   0  0  0  0  0  0  0  0  0  0  0  0
  151.6100  140.2304  158.1821 C   0  0  0  0  0  0  0  0  0  0  0  0
  151.6878  139.1124  157.6736 O   0  0  0  0  0  0  0  0  0  0  0  0
  152.9812  139.8423  159.6423 H   0  0  0  0  0  0  0  0  0  0  0  0
  149.9296  138.1221  153.9392 H   0  0  0  0  0  0  0  0  0  0  0  0
  148.2447  138.4123  153.5255 H   0  0  0  0  0  0  0  0  0  0  0  0
  148.7065  138.1915  155.2088 H   0  0  0  0  0  0  0  0  0  0  0  0
  149.4920  140.5387  153.3967 H   0  0  0  0  0  0  0  0  0  0  0  0
  148.4638  142.5682  153.9518 H   0  0  0  0  0  0  0  0  0  0  0  0
  147.1874  141.6445  153.1735 H   0  0  0  0  0  0  0  0  0  0  0  0
  147.0639  143.3184  155.6868 H   0  0  0  0  0  0  0  0  0  0  0  0
  145.8698  144.4154  153.9036 H   0  0  0  0  0  0  0  0  0  0  0  0
  145.2897  142.8777  153.2533 H   0  0  0  0  0  0  0  0  0  0  0  0
  144.4743  144.1675  155.8788 H   0  0  0  0  0  0  0  0  0  0  0  0
  143.3996  143.6004  154.5928 H   0  0  0  0  0  0  0  0  0  0  0  0
  143.9647  141.9535  156.6887 H   0  0  0  0  0  0  0  0  0  0  0  0
  143.9445  141.2891  155.0531 H   0  0  0  0  0  0  0  0  0  0  0  0
  148.9809  141.2028  156.6393 H   0  0  0  0  0  0  0  0  0  0  0  0
  150.1176  143.3245  157.9425 H   0  0  0  0  0  0  0  0  0  0  0  0
  153.0044  141.8494  160.7501 H   0  0  0  0  0  0  0  0  0  0  0  0
  1  2  1  0  0  0  0
  1 25  1  0  0  0  0
  1 26  1  0  0  0  0
  1 27  1  0  0  0  0
  2  3  1  0  0  0  0
  2 10  1  0  0  0  0
  2 28  1  0  0  0  0
  3  4  1  0  0  0  0
  4  5  1  0  0  0  0
  4 29  1  0  0  0  0
  4 30  1  0  0  0  0
  5  9  1  0  0  0  0
  5  6  1  0  0  0  0
  5 31  1  0  0  0  0
  6  7  1  0  0  0  0
  6 32  1  0  0  0  0
  6 33  1  0  0  0  0
  7  8  1  0  0  0  0
  7 34  1  0  0  0  0
  7 35  1  0  0  0  0
  8  9  1  0  0  0  0
  8 36  1  0  0  0  0
  8 37  1  0  0  0  0
 10 11  2  0  0  0  0
 10 12  1  0  0  0  0
 12 13  1  0  0  0  0
 12 38  1  0  0  0  0
 13 22  1  0  0  0  0
 13 14  2  0  0  0  0
 14 15  1  0  0  0  0
 14 39  1  0  0  0  0
 15 16  1  0  0  0  0
 15 20  2  0  0  0  0
 16 17  1  0  0  0  0
 16 18  1  0  0  0  0
 16 19  1  0  0  0  0
 20 21  1  0  0  0  0
 20 40  1  0  0  0  0
 21 24  1  0  0  0  0
 21 22  1  0  0  0  0
 22 23  2  0  0  0  0
M  END
> <s_m_source_file>
AV-unprocessed.smi

> <i_m_source_file_index>
1718

> <i_lp_mmshare_version>
43012

> <i_f3d_flags>
0

> <s_epik_input>
TzFbQ0gyXVtDSDJdW0NIMl1bQ0BIXTFbQ0gyXU9bQ0BASF0oW0NIM10pQyg9TylbTkhdYzJbY0hdYyhDKEYpKEYpRilbY0hdW25IXWMyPU8=

> <s_epik_cmdline>
J2VwaWtfcHl0aG9uJywgJy1waCcsICc3LjAnLCAnLXRuJywgJzgnLCAnLW1hJywgJzIwMCcsICctbWV0YWxfYmluZGluZycsICctaW1hZScsICc8aW5maWxlLm1hZT4nLCAnLW9tYWUnLCAnPG91dGZpbGUubWFlPic=

> <r_lp_tautomer_probability>
0.999

> <r_epik_Ionization_Penalty>
0.00894336

> <r_epik_Ionization_Penalty_Charging>
0.00894326

> <r_epik_Ionization_Penalty_Neutral>
1.00145e-07

> <r_epik_State_Penalty>
0.00676626

> <r_epik_Charging_Adjusted_Penalty>
0.0157095

> <i_epik_Tot_Q>
0

> <i_epik_Tot_abs_Q>
0

> <r_epik_Metal_State_Penalty>
0.321145

> <b_epik_Metal_Only>
0

> <s_lp_Force_Field>
OPLS_2005

> <r_lp_Energy>
34.4612

> <b_lp_Chiralities_Consistent>
1

> <s_lp_Variant>
AV-unprocessed.smi:1718-4

> <Gold.Version>
5.8.1

> <Gold.Id.Protein>
6NUR|6NUR_protein|mol2

> <Gold.PLP.Fitness>
46.6886

> <Gold.PLP.PLP>
-47.5463

> <Gold.PLP.part.hbond>
-1.0000

> <Gold.PLP.part.metal>
0.0000

> <Gold.PLP.part.buried>
-7.3344

> <Gold.PLP.part.nonpolar>
-40.1322

> <Gold.PLP.part.repulsive>
0.4310

> <Gold.PLP.ligand.clash>
0.0000

> <Gold.PLP.ligand.torsion>
2.0994

> <Gold.PLP.Chemscore.Hbond>
1.0000

> <Gold.PLP.Chemscore.CHOScore>
0.0000

> <Gold.PLP.Chemscore.Metal>
0.0000

> <Gold.Chemscore.Hbonds>
donor molecule, donor type, donor heavy atom, donor atom, acceptor molecule, acceptor atom, score
      P1  H  7989  7998       L1    11  0.99

> <Gold.PLP.Chemscore.Internal.Correction>
0.3411

> <Gold.Rescore>
     Score         DG    S(hbond)    S(metal)    S(lipo)     H(rot)  DE(clash)    DE(int)     intcor
     11.13     -13.45       0.98        0.00      81.26       1.88       0.33       1.99       ----

> <Gold.Chemscore.Fitness>
11.1346

> <Gold.Chemscore.DG>
-13.4530

> <Gold.Chemscore.ZeroCoef>
-5.4800

> <Gold.Chemscore.Hbond>
0.9808

> <Gold.Chemscore.Metal>
0.0000

> <Gold.Chemscore.Lipo>
81.2583

> <Gold.Chemscore.Internal_Hbond>
0.0000

> <Gold.Chemscore.DEClash>
0.3259

> <Gold.Chemscore.DEInternal>
1.9925

> <Gold.Chemscore.Rot>
1.8790

> <Gold.Chemscore.Internal.Correction>
   9.000000E+99

> <Gold.Chemscore.Hbonds>
donor molecule, donor type, donor heavy atom, donor atom, acceptor molecule, acceptor atom, score
      P1  H  7989  7998       L1    11  0.37

> <Gold.Chemscore.Hbond.Weighted>
-3.2760

> <Gold.Chemscore.Metal.Weighted>
-0.0000

> <Gold.Chemscore.Lipo.Weighted>
-9.5072

> <Gold.Chemscore.Internal_Hbond.Weighted>
0.0000

> <Gold.Chemscore.DEClash.Weighted>
0.3259

> <Gold.Chemscore.DEInternal.Weighted>
1.9925

> <Gold.Chemscore.Rot.Weighted>
4.8102

> <Gold.Chemscore.Internal.Correction.Weighted>
   9.000000E+99

> <Gold.Protein.RotatedTorsions>
[ 6907 6896 6895 6894 ] final   92.84 input  -60.11 | X-H torsion
[ 7974 7965 7964 7962 ] final -145.11 input  175.53 | X-H torsion
[ 8008 7997 7996 7995 ] final  -54.59 input   59.86 | X-H torsion
[ 10167 10162 10161 10158 ] final -123.56 input  -65.29 | X-H torsion
[ 10718 10713 10712 10709 ] final -130.06 input   66.30 | X-H torsion
[ 10763 10752 10751 10750 ] final  -56.42 input  -60.55 | X-H torsion
[ 11005 11000 10999 10996 ] final  127.89 input  -57.11 | X-H torsion

> <Gold.Protein.ActiveResidues>
 VAL166  LYS551  ARG553  GLY616  TRP617  ASP618  TYR619  PRO620  LYS621  CYS622 
 ASP623  PHE694  ASN695  SER759  ASP760  ASP761  ALA762  ILE779  LEU786  VAL792 
 PHE793  MET794  SER795  GLU796  ALA797  LYS798  CYS799  TRP800  GLU811  SER814 

> <Gold.Protein.RotatedAtoms>
  152.5453  134.1440  159.8490 H   0  0  0  0  0  0  0  0  0  0  0  0  # atno 6907 bound_to 6896
  151.1473  133.4924  159.2603 H   0  0  0  0  0  0  0  0  0  0  0  0  # atno 6908 bound_to 6896
  151.1509  135.0237  159.8723 H   0  0  0  0  0  0  0  0  0  0  0  0  # atno 6909 bound_to 6896
  144.8250  140.5625  143.5553 H   0  0  0  0  0  0  0  0  0  0  0  0  # atno 7974 bound_to 7965
  154.4167  140.1173  156.5340 H   0  0  0  0  0  0  0  0  0  0  0  0  # atno 8008 bound_to 7997
  155.6576  140.3496  155.4751 H   0  0  0  0  0  0  0  0  0  0  0  0  # atno 8009 bound_to 7997
  155.9740  140.1147  157.0776 H   0  0  0  0  0  0  0  0  0  0  0  0  # atno 8010 bound_to 7997
  140.0022  143.5528  152.2298 H   0  0  0  0  0  0  0  0  0  0  0  0  # atno 10167 bound_to 10162
  156.2107  130.6917  151.0646 H   0  0  0  0  0  0  0  0  0  0  0  0  # atno 10718 bound_to 10713
  154.2064  135.6402  153.5102 H   0  0  0  0  0  0  0  0  0  0  0  0  # atno 10763 bound_to 10752
  153.0000  135.5463  154.6261 H   0  0  0  0  0  0  0  0  0  0  0  0  # atno 10764 bound_to 10752
  154.5687  135.2915  155.0822 H   0  0  0  0  0  0  0  0  0  0  0  0  # atno 10765 bound_to 10752
  139.9531  134.9618  156.8922 H   0  0  0  0  0  0  0  0  0  0  0  0  # atno 11005 bound_to 11000
  145.5020  139.1483  143.3652 LP  0  0  0  0  0  0  0  0  0  0  0  0  # atno 17320 bound_to 7965
  146.2556  140.5159  142.8875 LP  0  0  0  0  0  0  0  0  0  0  0  0  # atno 17321 bound_to 7965
  139.6263  144.7638  151.2630 LP  0  0  0  0  0  0  0  0  0  0  0  0  # atno 17342 bound_to 10162
  140.7414  143.6557  150.8208 LP  0  0  0  0  0  0  0  0  0  0  0  0  # atno 17343 bound_to 10162
  157.7037  131.0765  150.6738 LP  0  0  0  0  0  0  0  0  0  0  0  0  # atno 17370 bound_to 10713
  156.6797  130.4563  149.5631 LP  0  0  0  0  0  0  0  0  0  0  0  0  # atno 17371 bound_to 10713
  140.5671  134.0479  155.7418 LP  0  0  0  0  0  0  0  0  0  0  0  0  # atno 17394 bound_to 11000
  141.1198  133.9480  157.2751 LP  0  0  0  0  0  0  0  0  0  0  0  0  # atno 17395 bound_to 11000

$$$$
