#       Name:                AV-unprocessed.smi:647
#       Creating user name   scv26
#       Creation time:       Fri Mar 27 00:09:14 2020


#       File generated by GOLD software.
#

@<TRIPOS>MOLECULE
AV-unprocessed.smi:647
    52    54     1
SMALL
NO_CHARGES


@<TRIPOS>ATOM
      1 ****        -1.4488   1.0190  -2.3344 O.2            1 S1                 0.0000
      2 ****        -2.1543   0.2055  -1.7359 C.2            1 S1                 0.0000
      3 ****        -1.8111  -1.2882  -1.7564 C.3            1 S1                 0.0000
      4 ****        -0.3730  -1.5352  -1.8219 N.am           1 S1                 0.0000
      5 ****         0.4634  -1.4895  -0.7740 C.2            1 S1                 0.0000
      6 ****         0.0976  -1.2361   0.3743 O.2            1 S1                 0.0000
      7 ****         1.7275  -1.7557  -1.1466 N.am           1 S1                 0.0000
      8 ****         2.8843  -1.8245  -0.3262 C.ar           1 S1                 0.0000
      9 ****         4.0792  -2.1669  -0.9934 C.ar           1 S1                 0.0000
     10 ****         5.2610  -2.2600  -0.2390 C.ar           1 S1                 0.0000
     11 ****         5.1705  -2.0047   1.1419 C.ar           1 S1                 0.0000
     12 ****         6.3609  -2.0634   2.0478 C.3            1 S1                 0.0000
     13 ****         7.3752  -3.1809   1.9414 C.3            1 S1                 0.0000
     14 ****         6.4558  -3.1093   3.1352 C.3            1 S1                 0.0000
     15 ****         4.0025  -1.6703   1.7341 N.ar           1 S1                 0.0000
     16 ****         2.8810  -1.5860   1.0110 N.ar           1 S1                 0.0000
     17 ****        -3.2598   0.5464  -1.0564 N.am           1 S1                 0.0000
     18 ****        -3.7753   1.9033  -0.9056 C.3            1 S1                 0.0000
     19 ****        -3.0103   2.6575   0.2028 C.3            1 S1                 0.0000
     20 ****        -3.5926   4.0612   0.4333 C.3            1 S1                 0.0000
     21 ****        -5.0955   3.9976   0.7480 C.3            1 S1                 0.0000
     22 ****        -5.8616   3.2539  -0.3573 C.3            1 S1                 0.0000
     23 ****        -5.2821   1.8487  -0.5886 C.3            1 S1                 0.0000
     24 ****        -2.2371  -1.7881  -0.8843 H              1 S1                 0.0000
     25 ****        -2.2776  -1.7378  -2.6330 H              1 S1                 0.0000
     26 ****         0.0110  -1.7426  -2.7320 H              1 S1                 0.0000
     27 ****         1.8774  -1.9435  -2.1267 H              1 S1                 0.0000
     28 ****         4.0926  -2.3562  -2.0568 H              1 S1                 0.0000
     29 ****         6.2007  -2.5181  -0.7042 H              1 S1                 0.0000
     30 ****         6.7324  -1.0649   2.2705 H              1 S1                 0.0000
     31 ****         7.1926  -3.9773   1.2225 H              1 S1                 0.0000
     32 ****         8.4214  -2.9365   2.1136 H              1 S1                 0.0000
     33 ****         6.9026  -2.8171   4.0833 H              1 S1                 0.0000
     34 ****         5.6613  -3.8506   3.1997 H              1 S1                 0.0000
     35 ****        -3.7775  -0.1896  -0.5981 H              1 S1                 0.0000
     36 ****        -3.6470   2.4371  -1.8493 H              1 S1                 0.0000
     37 ****        -3.0552   2.0904   1.1340 H              1 S1                 0.0000
     38 ****        -1.9540   2.7406  -0.0555 H              1 S1                 0.0000
     39 ****        -3.0626   4.5538   1.2492 H              1 S1                 0.0000
     40 ****        -3.4306   4.6733  -0.4549 H              1 S1                 0.0000
     41 ****        -5.2483   3.4923   1.7027 H              1 S1                 0.0000
     42 ****        -5.4946   5.0057   0.8642 H              1 S1                 0.0000
     43 ****        -6.9170   3.1815  -0.0932 H              1 S1                 0.0000
     44 ****        -5.8133   3.8264  -1.2846 H              1 S1                 0.0000
     45 ****        -5.8184   1.3605  -1.4033 H              1 S1                 0.0000
     46 ****        -5.4511   1.2395   0.3007 H              1 S1                 0.0000
     47 ****        -0.6442   0.7068  -2.8394 LP             1 S1                 0.0000
     48 ****        -1.6809   1.9915  -2.3152 LP             1 S1                 0.0000
     49 ****        -0.8670  -1.0512   0.5625 LP             1 S1                 0.0000
     50 ****         0.7651  -1.2153   1.1186 LP             1 S1                 0.0000
     51 ****         3.9770  -1.4853   2.7165 LP             1 S1                 0.0000
     52 ****         2.0230  -1.3426   1.4635 LP             1 S1                 0.0000
@<TRIPOS>BOND
    1    1    2 2     
    2    2    3 1     
    3    2   17 am    
    4    3    4 1     
    5    3   24 1     
    6    3   25 1     
    7    4    5 am    
    8    4   26 1     
    9    5    6 2     
   10    5    7 am    
   11    7    8 1     
   12    7   27 1     
   13    8   16 ar    
   14    8    9 ar    
   15    9   10 ar    
   16    9   28 1     
   17   10   11 ar    
   18   10   29 1     
   19   11   12 1     
   20   11   15 ar    
   21   12   14 1     
   22   12   13 1     
   23   12   30 1     
   24   13   14 1     
   25   13   31 1     
   26   13   32 1     
   27   14   33 1     
   28   14   34 1     
   29   15   16 ar    
   30   17   18 1     
   31   17   35 1     
   32   18   23 1     
   33   18   19 1     
   34   18   36 1     
   35   19   20 1     
   36   19   37 1     
   37   19   38 1     
   38   20   21 1     
   39   20   39 1     
   40   20   40 1     
   41   21   22 1     
   42   21   41 1     
   43   21   42 1     
   44   22   23 1     
   45   22   43 1     
   46   22   44 1     
   47   23   45 1     
   48   23   46 1     
   49    1   47 1     
   50    1   48 1     
   51    6   49 1     
   52    6   50 1     
   53   15   51 1     
   54   16   52 1     
@<TRIPOS>SUBSTRUCTURE
      1 S1             1
@<TRIPOS>SET
LONE_PAIRS      STATIC     ATOMS    <user>   **** ""
6 47 48 49 50 51 52
DONOR_HYDROGENS      STATIC     ATOMS    <user>   **** ""
3 26 27 35
ATOM$BLUE        STATIC     ATOMS    COLORGROUP SYSTEM
6 47 48 49 50 51 52
ATOM$RED        STATIC     ATOMS    COLORGROUP SYSTEM
3 26 27 35
