AV-unprocessed.smi:2076|AV-procd|sdf|8459|dock3
  -GOLD-   2272011153D 1   1.00000     0.00000
 Structure written by MMmdl.
 45 46  0  0  0  0  0  0  0  0  2 V2000
  154.4130  139.4196  159.3031 C   0  0  0  0  0  0  0  0  0  0  0  0
  153.3076  140.3272  158.8508 C   0  0  0  0  0  0  0  0  0  0  0  0
  152.7666  141.4594  159.5217 C   0  0  0  0  0  0  0  0  0  0  0  0
  151.7975  141.9216  158.6767 C   0  0  0  0  0  0  0  0  0  0  0  0
  150.8791  143.0913  158.8132 C   0  0  0  0  0  0  0  0  0  0  0  0
  151.7904  141.0824  157.5766 N   0  0  0  0  0  0  0  0  0  0  0  0
  150.9646  141.1444  156.3800 C   0  0  0  0  0  0  0  0  0  0  0  0
  151.1143  139.8709  155.5462 C   0  0  0  0  0  0  0  0  0  0  0  0
  152.1412  139.6709  154.8985 O   0  0  0  0  0  0  0  0  0  0  0  0
  150.0852  139.0129  155.5833 N   0  0  0  0  0  0  0  0  0  0  0  0
  150.0676  137.7073  154.9378 C   0  0  0  0  0  0  0  0  0  0  0  0
  148.8194  136.8791  155.3417 C   0  0  2  0  0  0  0  0  0  0  0  0
  148.8500  136.5615  156.8556 C   0  0  0  0  0  0  0  0  0  0  0  0
  148.6571  135.6137  154.5526 N   0  3  0  0  0  0  0  0  0  0  0  0
  149.7632  134.6460  154.7891 C   0  0  0  0  0  0  0  0  0  0  0  0
  149.6172  133.4074  153.8907 C   0  0  0  0  0  0  0  0  0  0  0  0
  148.3627  132.7903  154.1376 O   0  0  0  0  0  0  0  0  0  0  0  0
  147.2849  133.6590  153.8226 C   0  0  0  0  0  0  0  0  0  0  0  0
  147.3490  134.9179  154.7050 C   0  0  0  0  0  0  0  0  0  0  0  0
  152.7192  140.1066  157.6866 N   0  0  0  0  0  0  0  0  0  0  0  0
  154.7414  139.6719  160.3116 H   0  0  0  0  0  0  0  0  0  0  0  0
  155.2778  139.4969  158.6437 H   0  0  0  0  0  0  0  0  0  0  0  0
  154.0898  138.3784  159.3110 H   0  0  0  0  0  0  0  0  0  0  0  0
  153.0501  141.8726  160.4785 H   0  0  0  0  0  0  0  0  0  0  0  0
  151.0543  143.6159  159.7525 H   0  0  0  0  0  0  0  0  0  0  0  0
  149.8369  142.7722  158.7978 H   0  0  0  0  0  0  0  0  0  0  0  0
  151.0300  143.8014  158.0000 H   0  0  0  0  0  0  0  0  0  0  0  0
  149.9201  141.2813  156.6648 H   0  0  0  0  0  0  0  0  0  0  0  0
  151.2496  142.0173  155.7921 H   0  0  0  0  0  0  0  0  0  0  0  0
  149.2812  139.2631  156.1414 H   0  0  0  0  0  0  0  0  0  0  0  0
  150.0866  137.8906  153.8629 H   0  0  0  0  0  0  0  0  0  0  0  0
  150.9777  137.1628  155.1964 H   0  0  0  0  0  0  0  0  0  0  0  0
  147.9483  137.5056  155.1423 H   0  0  0  0  0  0  0  0  0  0  0  0
  148.9176  137.4649  157.4622 H   0  0  0  0  0  0  0  0  0  0  0  0
  149.7064  135.9353  157.1069 H   0  0  0  0  0  0  0  0  0  0  0  0
  147.9538  136.0453  157.1949 H   0  0  0  0  0  0  0  0  0  0  0  0
  150.7330  135.0996  154.5942 H   0  0  0  0  0  0  0  0  0  0  0  0
  149.7624  134.3414  155.8369 H   0  0  0  0  0  0  0  0  0  0  0  0
  149.7090  133.6744  152.8365 H   0  0  0  0  0  0  0  0  0  0  0  0
  150.4103  132.6914  154.1080 H   0  0  0  0  0  0  0  0  0  0  0  0
  147.3134  133.9241  152.7643 H   0  0  0  0  0  0  0  0  0  0  0  0
  146.3464  133.1308  153.9918 H   0  0  0  0  0  0  0  0  0  0  0  0
  147.1935  134.6510  155.7517 H   0  0  0  0  0  0  0  0  0  0  0  0
  146.5255  135.5652  154.4045 H   0  0  0  0  0  0  0  0  0  0  0  0
  148.7080  135.8842  153.5805 H   0  0  0  0  0  0  0  0  0  0  0  0
  1  2  1  0  0  0  0
  1 21  1  0  0  0  0
  1 22  1  0  0  0  0
  1 23  1  0  0  0  0
  2 20  2  0  0  0  0
  2  3  1  0  0  0  0
  3  4  2  0  0  0  0
  3 24  1  0  0  0  0
  4  5  1  0  0  0  0
  4  6  1  0  0  0  0
  5 25  1  0  0  0  0
  5 26  1  0  0  0  0
  5 27  1  0  0  0  0
  6  7  1  0  0  0  0
  6 20  1  0  0  0  0
  7  8  1  0  0  0  0
  7 28  1  0  0  0  0
  7 29  1  0  0  0  0
  8  9  2  0  0  0  0
  8 10  1  0  0  0  0
 10 11  1  0  0  0  0
 10 30  1  0  0  0  0
 11 12  1  0  0  0  0
 11 31  1  0  0  0  0
 11 32  1  0  0  0  0
 12 13  1  0  0  0  0
 12 14  1  0  0  0  0
 12 33  1  0  0  0  0
 13 34  1  0  0  0  0
 13 35  1  0  0  0  0
 13 36  1  0  0  0  0
 14 19  1  0  0  0  0
 14 15  1  0  0  0  0
 14 45  1  0  0  0  0
 15 16  1  0  0  0  0
 15 37  1  0  0  0  0
 15 38  1  0  0  0  0
 16 17  1  0  0  0  0
 16 39  1  0  0  0  0
 16 40  1  0  0  0  0
 17 18  1  0  0  0  0
 18 19  1  0  0  0  0
 18 41  1  0  0  0  0
 18 42  1  0  0  0  0
 19 43  1  0  0  0  0
 19 44  1  0  0  0  0
M  CHG  1  14   1
M  END
> <s_m_source_file>
AV-unprocessed.smi

> <i_m_source_file_index>
2076

> <i_lp_mmshare_version>
43012

> <i_f3d_flags>
0

> <s_epik_input>
W0NIM11jMVtjSF1jKFtDSDNdKW4objEpW0NIMl1DKD1PKVtOSF1bQ0gyXVtDQEhdKFtDSDNdKU4yW0NIMl1bQ0gyXU9bQ0gyXVtDSDJdMg==

> <s_epik_cmdline>
J2VwaWtfcHl0aG9uJywgJy1waCcsICc3LjAnLCAnLXRuJywgJzgnLCAnLW1hJywgJzIwMCcsICctbWV0YWxfYmluZGluZycsICctaW1hZScsICc8aW5maWxlLm1hZT4nLCAnLW9tYWUnLCAnPG91dGZpbGUubWFlPic=

> <r_lp_tautomer_probability>
1

> <r_epik_Ionization_Penalty>
0.748594

> <r_epik_Ionization_Penalty_Charging>
0.748396

> <r_epik_Ionization_Penalty_Neutral>
0.000197403

> <r_epik_State_Penalty>
0.775162

> <r_epik_Charging_Adjusted_Penalty>
1.52356

> <i_epik_Tot_Q>
1

> <i_epik_Tot_abs_Q>
1

> <r_epik_Metal_State_Penalty>
0.77529

> <b_epik_Metal_Only>
0

> <s_lp_Force_Field>
OPLS_2005

> <r_lp_Energy>
18.1598

> <b_lp_Chiralities_Consistent>
1

> <s_lp_Variant>
AV-unprocessed.smi:2076-3

> <Gold.Version>
5.8.1

> <Gold.Id.Protein>
6NUR|6NUR_protein|mol2

> <Gold.PLP.Fitness>
39.0543

> <Gold.PLP.PLP>
-29.6765

> <Gold.PLP.part.hbond>
-3.0000

> <Gold.PLP.part.metal>
0.0000

> <Gold.PLP.part.buried>
-3.6878

> <Gold.PLP.part.nonpolar>
-22.2695

> <Gold.PLP.part.repulsive>
0.1703

> <Gold.PLP.ligand.clash>
0.0000

> <Gold.PLP.ligand.torsion>
0.3858

> <Gold.PLP.Chemscore.Hbond>
3.3680

> <Gold.PLP.Chemscore.CHOScore>
0.0000

> <Gold.PLP.Chemscore.Metal>
0.0000

> <Gold.Chemscore.Hbonds>
donor molecule, donor type, donor heavy atom, donor atom, acceptor molecule, acceptor atom, score
      L1  H    14    45       P1  7948  2.00
      P1  H  7989  7998       L1     9  0.62
      P1  H  7997  8009       L1    20  0.70

> <Gold.PLP.Chemscore.Internal.Correction>
0.0454

> <Gold.Rescore>
     Score         DG    S(hbond)    S(metal)    S(lipo)     H(rot)  DE(clash)    DE(int)     intcor
     13.23     -15.09       1.61        0.00      75.01       1.78       0.12       1.73       ----

> <Gold.Chemscore.Fitness>
13.2321

> <Gold.Chemscore.DG>
-15.0886

> <Gold.Chemscore.ZeroCoef>
-5.4800

> <Gold.Chemscore.Hbond>
1.6106

> <Gold.Chemscore.Metal>
0.0000

> <Gold.Chemscore.Lipo>
75.0067

> <Gold.Chemscore.Internal_Hbond>
0.0000

> <Gold.Chemscore.DEClash>
0.1238

> <Gold.Chemscore.DEInternal>
1.7327

> <Gold.Chemscore.Rot>
1.7760

> <Gold.Chemscore.Internal.Correction>
   9.000000E+99

> <Gold.Chemscore.Hbonds>
donor molecule, donor type, donor heavy atom, donor atom, acceptor molecule, acceptor atom, score
      L1  H    14    45       P1  7948  1.00
      P1  H  7989  7998       L1     9  0.08
      P1  H  7997  8009       L1    20  0.07

> <Gold.Chemscore.Hbond.Weighted>
-5.3793

> <Gold.Chemscore.Metal.Weighted>
-0.0000

> <Gold.Chemscore.Lipo.Weighted>
-8.7758

> <Gold.Chemscore.Internal_Hbond.Weighted>
0.0000

> <Gold.Chemscore.DEClash.Weighted>
0.1238

> <Gold.Chemscore.DEInternal.Weighted>
1.7327

> <Gold.Chemscore.Rot.Weighted>
4.5464

> <Gold.Chemscore.Internal.Correction.Weighted>
   9.000000E+99

> <Gold.Protein.RotatedTorsions>
[ 6907 6896 6895 6894 ] final  -14.65 input  -60.11 | X-H torsion
[ 7974 7965 7964 7962 ] final   91.22 input  175.53 | X-H torsion
[ 8008 7997 7996 7995 ] final  177.68 input   59.86 | X-H torsion
[ 10167 10162 10161 10158 ] final  166.87 input  -65.29 | X-H torsion
[ 10718 10713 10712 10709 ] final  -42.31 input   66.30 | X-H torsion
[ 10763 10752 10751 10750 ] final  135.32 input  -60.55 | X-H torsion
[ 11005 11000 10999 10996 ] final  158.03 input  -57.11 | X-H torsion

> <Gold.Protein.ActiveResidues>
 VAL166  LYS551  ARG553  GLY616  TRP617  ASP618  TYR619  PRO620  LYS621  CYS622 
 ASP623  PHE694  ASN695  SER759  ASP760  ASP761  ALA762  ILE779  LEU786  VAL792 
 PHE793  MET794  SER795  GLU796  ALA797  LYS798  CYS799  TRP800  GLU811  SER814 

> <Gold.Protein.RotatedAtoms>
  151.3362  135.0853  159.9355 H   0  0  0  0  0  0  0  0  0  0  0  0  # atno 6907 bound_to 6896
  152.5223  133.9493  159.7674 H   0  0  0  0  0  0  0  0  0  0  0  0  # atno 6908 bound_to 6896
  150.9841  133.6162  159.2748 H   0  0  0  0  0  0  0  0  0  0  0  0  # atno 6909 bound_to 6896
  145.5086  139.2276  143.2737 H   0  0  0  0  0  0  0  0  0  0  0  0  # atno 7974 bound_to 7965
  156.0630  140.1352  156.9919 H   0  0  0  0  0  0  0  0  0  0  0  0  # atno 8008 bound_to 7997
  154.4491  140.0987  156.6616 H   0  0  0  0  0  0  0  0  0  0  0  0  # atno 8009 bound_to 7997
  155.5347  140.3459  155.4436 H   0  0  0  0  0  0  0  0  0  0  0  0  # atno 8010 bound_to 7997
  139.4933  144.3982  151.9440 H   0  0  0  0  0  0  0  0  0  0  0  0  # atno 10167 bound_to 10162
  156.2610  130.4197  149.8543 H   0  0  0  0  0  0  0  0  0  0  0  0  # atno 10718 bound_to 10713
  153.8381  135.3095  155.3424 H   0  0  0  0  0  0  0  0  0  0  0  0  # atno 10763 bound_to 10752
  154.7944  135.4763  154.0131 H   0  0  0  0  0  0  0  0  0  0  0  0  # atno 10764 bound_to 10752
  153.1593  135.6858  153.8858 H   0  0  0  0  0  0  0  0  0  0  0  0  # atno 10765 bound_to 10752
  140.1826  134.8464  157.2821 H   0  0  0  0  0  0  0  0  0  0  0  0  # atno 11005 bound_to 11000
  146.2181  140.5891  142.9029 LP  0  0  0  0  0  0  0  0  0  0  0  0  # atno 17320 bound_to 7965
  144.7740  140.5699  143.6651 LP  0  0  0  0  0  0  0  0  0  0  0  0  # atno 17321 bound_to 7965
  140.3421  144.3191  150.5965 LP  0  0  0  0  0  0  0  0  0  0  0  0  # atno 17342 bound_to 10162
  140.5557  143.2199  151.7851 LP  0  0  0  0  0  0  0  0  0  0  0  0  # atno 17343 bound_to 10162
  156.6058  130.8566  151.3442 LP  0  0  0  0  0  0  0  0  0  0  0  0  # atno 17370 bound_to 10713
  157.7250  130.9610  150.1597 LP  0  0  0  0  0  0  0  0  0  0  0  0  # atno 17371 bound_to 10713
  140.2250  134.3978  155.7548 LP  0  0  0  0  0  0  0  0  0  0  0  0  # atno 17394 bound_to 11000
  141.2223  133.7185  156.8550 LP  0  0  0  0  0  0  0  0  0  0  0  0  # atno 17395 bound_to 11000

$$$$
