AV-unprocessed.smi:3251|AV-procd|sdf|12438|dock10
  -GOLD-   2272018333D 1   1.00000     0.00000
 Structure written by MMmdl.
 40 41  0  0  0  0  0  0  0  0  1 V2000
  152.0248  144.4364  158.9413 C   0  0  0  0  0  0  0  0  0  0  0  0
  152.4683  143.5805  160.0926 C   0  0  0  0  0  0  0  0  0  0  0  0
  152.1013  143.6980  161.4637 C   0  0  0  0  0  0  0  0  0  0  0  0
  152.6716  142.7823  162.2292 N   0  0  0  0  0  0  0  0  0  0  0  0
  153.4197  142.0493  161.3777 N   0  0  0  0  0  0  0  0  0  0  0  0
  154.1992  140.9343  161.8793 C   0  0  0  0  0  0  0  0  0  0  0  0
  155.0337  140.2803  160.7684 C   0  0  0  0  0  0  0  0  0  0  0  0
  154.1542  139.5099  159.8959 N   0  0  0  0  0  0  0  0  0  0  0  0
  153.6770  138.2526  160.5019 C   0  0  1  0  0  0  0  0  0  0  0  0
  152.4527  137.7426  159.7262 C   0  0  0  0  0  0  0  0  0  0  0  0
  154.7558  137.1466  160.5619 C   0  0  0  0  0  0  0  0  0  0  0  0
  155.3079  136.7980  159.5167 O   0  0  0  0  0  0  0  0  0  0  0  0
  155.0675  136.5848  161.7503 N   0  0  0  0  0  0  0  0  0  0  0  0
  154.4139  136.9563  163.0045 C   0  0  0  0  0  0  0  0  0  0  0  0
  154.8887  135.9380  164.0409 C   0  0  0  0  0  0  0  0  0  0  0  0
  156.2337  135.4679  163.5076 C   0  0  0  0  0  0  0  0  0  0  0  0
  156.0865  135.5626  161.9888 C   0  0  0  0  0  0  0  0  0  0  0  0
  153.3159  142.5089  160.0821 C   0  0  0  0  0  0  0  0  0  0  0  0
  151.2285  145.1231  159.2295 H   0  0  0  0  0  0  0  0  0  0  0  0
  151.6461  143.8352  158.1146 H   0  0  0  0  0  0  0  0  0  0  0  0
  152.8442  145.0404  158.5516 H   0  0  0  0  0  0  0  0  0  0  0  0
  151.4409  144.4188  161.9228 H   0  0  0  0  0  0  0  0  0  0  0  0
  154.8456  141.2981  162.6793 H   0  0  0  0  0  0  0  0  0  0  0  0
  153.5186  140.2079  162.3268 H   0  0  0  0  0  0  0  0  0  0  0  0
  155.5646  141.0502  160.2074 H   0  0  0  0  0  0  0  0  0  0  0  0
  155.7830  139.6202  161.2077 H   0  0  0  0  0  0  0  0  0  0  0  0
  153.3822  140.0921  159.6048 H   0  0  0  0  0  0  0  0  0  0  0  0
  153.3433  138.5003  161.5090 H   0  0  0  0  0  0  0  0  0  0  0  0
  152.0484  136.8333  160.1728 H   0  0  0  0  0  0  0  0  0  0  0  0
  152.7013  137.5199  158.6875 H   0  0  0  0  0  0  0  0  0  0  0  0
  151.6540  138.4849  159.7233 H   0  0  0  0  0  0  0  0  0  0  0  0
  154.7296  137.9627  163.2840 H   0  0  0  0  0  0  0  0  0  0  0  0
  153.3263  136.9538  162.9170 H   0  0  0  0  0  0  0  0  0  0  0  0
  154.9535  136.3558  165.0460 H   0  0  0  0  0  0  0  0  0  0  0  0
  154.1947  135.0971  164.0722 H   0  0  0  0  0  0  0  0  0  0  0  0
  157.0167  136.1498  163.8422 H   0  0  0  0  0  0  0  0  0  0  0  0
  156.4967  134.4652  163.8456 H   0  0  0  0  0  0  0  0  0  0  0  0
  155.7391  134.6120  161.5815 H   0  0  0  0  0  0  0  0  0  0  0  0
  157.0398  135.8102  161.5201 H   0  0  0  0  0  0  0  0  0  0  0  0
  153.8483  142.0400  159.2675 H   0  0  0  0  0  0  0  0  0  0  0  0
  1  2  1  0  0  0  0
  1 19  1  0  0  0  0
  1 20  1  0  0  0  0
  1 21  1  0  0  0  0
  2 18  2  0  0  0  0
  2  3  1  0  0  0  0
  3  4  2  0  0  0  0
  3 22  1  0  0  0  0
  4  5  1  0  0  0  0
  5  6  1  0  0  0  0
  5 18  1  0  0  0  0
  6  7  1  0  0  0  0
  6 23  1  0  0  0  0
  6 24  1  0  0  0  0
  7  8  1  0  0  0  0
  7 25  1  0  0  0  0
  7 26  1  0  0  0  0
  8  9  1  0  0  0  0
  8 27  1  0  0  0  0
  9 10  1  0  0  0  0
  9 11  1  0  0  0  0
  9 28  1  0  0  0  0
 10 29  1  0  0  0  0
 10 30  1  0  0  0  0
 10 31  1  0  0  0  0
 11 12  2  0  0  0  0
 11 13  1  0  0  0  0
 13 17  1  0  0  0  0
 13 14  1  0  0  0  0
 14 15  1  0  0  0  0
 14 32  1  0  0  0  0
 14 33  1  0  0  0  0
 15 16  1  0  0  0  0
 15 34  1  0  0  0  0
 15 35  1  0  0  0  0
 16 17  1  0  0  0  0
 16 36  1  0  0  0  0
 16 37  1  0  0  0  0
 17 38  1  0  0  0  0
 17 39  1  0  0  0  0
 18 40  1  0  0  0  0
M  END
> <s_m_source_file>
AV-unprocessed.smi

> <i_m_source_file_index>
3251

> <i_lp_mmshare_version>
43012

> <i_f3d_flags>
0

> <s_epik_input>
W0NIM11jMVtjSF1ubihbY0hdMSlbQ0gyXVtDSDJdW05IXVtDQEhdKFtDSDNdKUMoPU8pTjJbQ0gyXVtDSDJdW0NIMl1bQ0gyXTI=

> <s_epik_cmdline>
J2VwaWtfcHl0aG9uJywgJy1waCcsICc3LjAnLCAnLXRuJywgJzgnLCAnLW1hJywgJzIwMCcsICctbWV0YWxfYmluZGluZycsICctaW1hZScsICc8aW5maWxlLm1hZT4nLCAnLW9tYWUnLCAnPG91dGZpbGUubWFlPic=

> <r_lp_tautomer_probability>
1

> <r_epik_Ionization_Penalty>
0.734676

> <r_epik_Ionization_Penalty_Charging>
0

> <r_epik_Ionization_Penalty_Neutral>
0.734676

> <r_epik_State_Penalty>
0.75825

> <r_epik_Charging_Adjusted_Penalty>
0.75825

> <i_epik_Tot_Q>
0

> <i_epik_Tot_abs_Q>
0

> <r_epik_Metal_State_Penalty>
0.756914

> <b_epik_Metal_Only>
0

> <s_lp_Force_Field>
OPLS_2005

> <r_lp_Energy>
31.4715

> <b_lp_Chiralities_Consistent>
1

> <s_lp_Variant>
AV-unprocessed.smi:3251-4

> <Gold.Version>
5.8.1

> <Gold.Id.Protein>
6NUR|6NUR_protein|mol2

> <Gold.PLP.Fitness>
44.4323

> <Gold.PLP.PLP>
-44.9682

> <Gold.PLP.part.hbond>
0.0000

> <Gold.PLP.part.metal>
0.0000

> <Gold.PLP.part.buried>
-4.8189

> <Gold.PLP.part.nonpolar>
-40.0949

> <Gold.PLP.part.repulsive>
0.1108

> <Gold.PLP.ligand.clash>
0.0000

> <Gold.PLP.ligand.torsion>
0.2839

> <Gold.PLP.Chemscore.Hbond>
0.0000

> <Gold.PLP.Chemscore.CHOScore>
0.0000

> <Gold.PLP.Chemscore.Metal>
0.0000

> <Gold.PLP.Chemscore.Internal.Correction>
0.0320

> <Gold.Rescore>
     Score         DG    S(hbond)    S(metal)    S(lipo)     H(rot)  DE(clash)    DE(int)     intcor
     14.00     -14.31       0.00        0.00     112.57       1.70       0.04       0.27       ----

> <Gold.Chemscore.Fitness>
14.0000

> <Gold.Chemscore.DG>
-14.3108

> <Gold.Chemscore.ZeroCoef>
-5.4800

> <Gold.Chemscore.Hbond>
0.0000

> <Gold.Chemscore.Metal>
0.0000

> <Gold.Chemscore.Lipo>
112.5669

> <Gold.Chemscore.Internal_Hbond>
0.0000

> <Gold.Chemscore.DEClash>
0.0432

> <Gold.Chemscore.DEInternal>
0.2676

> <Gold.Chemscore.Rot>
1.6951

> <Gold.Chemscore.Internal.Correction>
   9.000000E+99

> <Gold.Chemscore.Hbond.Weighted>
-0.0000

> <Gold.Chemscore.Metal.Weighted>
-0.0000

> <Gold.Chemscore.Lipo.Weighted>
-13.1703

> <Gold.Chemscore.Internal_Hbond.Weighted>
0.0000

> <Gold.Chemscore.DEClash.Weighted>
0.0432

> <Gold.Chemscore.DEInternal.Weighted>
0.2676

> <Gold.Chemscore.Rot.Weighted>
4.3395

> <Gold.Chemscore.Internal.Correction.Weighted>
   9.000000E+99

> <Gold.Protein.RotatedTorsions>
[ 6907 6896 6895 6894 ] final  -28.21 input  -60.11 | X-H torsion
[ 7974 7965 7964 7962 ] final  -89.59 input  175.53 | X-H torsion
[ 8008 7997 7996 7995 ] final  -78.98 input   59.86 | X-H torsion
[ 10167 10162 10161 10158 ] final -154.42 input  -65.29 | X-H torsion
[ 10718 10713 10712 10709 ] final  152.19 input   66.30 | X-H torsion
[ 10763 10752 10751 10750 ] final   63.41 input  -60.55 | X-H torsion
[ 11005 11000 10999 10996 ] final  178.16 input  -57.11 | X-H torsion

> <Gold.Protein.ActiveResidues>
 VAL166  LYS551  ARG553  GLY616  TRP617  ASP618  TYR619  PRO620  LYS621  CYS622 
 ASP623  PHE694  ASN695  SER759  ASP760  ASP761  ALA762  ILE779  LEU786  VAL792 
 PHE793  MET794  SER795  GLU796  ALA797  LYS798  CYS799  TRP800  GLU811  SER814 

> <Gold.Protein.RotatedAtoms>
  151.1362  135.0156  159.8604 H   0  0  0  0  0  0  0  0  0  0  0  0  # atno 6907 bound_to 6896
  152.5452  134.1552  159.8545 H   0  0  0  0  0  0  0  0  0  0  0  0  # atno 6908 bound_to 6896
  151.1624  133.4791  159.2627 H   0  0  0  0  0  0  0  0  0  0  0  0  # atno 6909 bound_to 6896
  145.4378  140.9558  143.2092 H   0  0  0  0  0  0  0  0  0  0  0  0  # atno 7974 bound_to 7965
  154.5741  140.0685  156.9008 H   0  0  0  0  0  0  0  0  0  0  0  0  # atno 8008 bound_to 7997
  155.2581  140.3356  155.4257 H   0  0  0  0  0  0  0  0  0  0  0  0  # atno 8009 bound_to 7997
  156.2140  140.1771  156.7615 H   0  0  0  0  0  0  0  0  0  0  0  0  # atno 8010 bound_to 7997
  139.7015  143.9255  152.2431 H   0  0  0  0  0  0  0  0  0  0  0  0  # atno 10167 bound_to 10162
  157.2610  131.0798  151.1666 H   0  0  0  0  0  0  0  0  0  0  0  0  # atno 10718 bound_to 10713
  153.0017  135.5430  154.6347 H   0  0  0  0  0  0  0  0  0  0  0  0  # atno 10763 bound_to 10752
  154.5616  135.2834  155.0915 H   0  0  0  0  0  0  0  0  0  0  0  0  # atno 10764 bound_to 10752
  154.2116  135.6466  153.5169 H   0  0  0  0  0  0  0  0  0  0  0  0  # atno 10765 bound_to 10752
  140.3921  134.6853  157.4513 H   0  0  0  0  0  0  0  0  0  0  0  0  # atno 11005 bound_to 11000
  144.8141  139.5909  143.7016 LP  0  0  0  0  0  0  0  0  0  0  0  0  # atno 17320 bound_to 7965
  146.2572  139.6330  142.9386 LP  0  0  0  0  0  0  0  0  0  0  0  0  # atno 17321 bound_to 7965
  139.9099  144.6863  150.8574 LP  0  0  0  0  0  0  0  0  0  0  0  0  # atno 17342 bound_to 10162
  140.7711  143.3451  151.2128 LP  0  0  0  0  0  0  0  0  0  0  0  0  # atno 17343 bound_to 10162
  157.3175  130.6921  149.6250 LP  0  0  0  0  0  0  0  0  0  0  0  0  # atno 17370 bound_to 10713
  155.9664  130.4345  150.5052 LP  0  0  0  0  0  0  0  0  0  0  0  0  # atno 17371 bound_to 10713
  140.0399  134.6282  155.8994 LP  0  0  0  0  0  0  0  0  0  0  0  0  # atno 17394 bound_to 11000
  141.1887  133.6563  156.5336 LP  0  0  0  0  0  0  0  0  0  0  0  0  # atno 17395 bound_to 11000

$$$$
