AV-unprocessed.smi:581|AV-procd|sdf|2992|dock9
  -GOLD-   2262023493D 1   1.00000     0.00000
 Structure written by MMmdl.
 35 36  0  0  0  0  0  0  0  0  2 V2000
  152.4436  138.7498  157.9324 C   0  0  0  0  0  0  0  0  0  0  0  0
  152.9090  139.6438  159.0690 C   0  0  0  0  0  0  0  0  0  0  0  0
  152.4583  140.9481  158.9841 N   0  0  0  0  0  0  0  0  0  0  0  0
  152.8292  141.8597  159.9633 C   0  0  0  0  0  0  0  0  0  0  0  0
  152.3017  143.1369  159.7871 N   0  0  0  0  0  0  0  0  0  0  0  0
  152.3066  144.0903  160.8955 C   0  0  0  0  0  0  0  0  0  0  0  0
  151.2883  145.2190  160.6630 C   0  0  0  0  0  0  0  0  0  0  0  0
  151.5551  145.8550  159.4196 O   0  0  0  0  0  0  0  0  0  0  0  0
  151.4381  144.9451  158.3336 C   0  0  0  0  0  0  0  0  0  0  0  0
  152.4602  143.8075  158.4975 C   0  0  0  0  0  0  0  0  0  0  0  0
  153.5965  141.5509  160.9678 N   0  0  0  0  0  0  0  0  0  0  0  0
  154.0951  140.2466  161.1049 C   0  0  0  0  0  0  0  0  0  0  0  0
  154.8404  139.9668  162.0425 O   0  0  0  0  0  0  0  0  0  0  0  0
  153.7007  139.2408  160.0928 C   0  0  0  0  0  0  0  0  0  0  0  0
  154.2368  137.8107  160.2172 C   0  0  0  0  0  0  0  0  0  0  0  0
  153.8734  137.0952  161.5382 C   0  0  0  0  0  0  0  0  0  0  0  0
  154.5037  135.7049  161.6476 C   0  0  0  0  0  0  0  0  0  0  0  0
  154.2591  134.8944  160.7271 O   0  0  0  0  0  0  0  0  0  0  0  0
  155.2180  135.4789  162.6485 O   0  5  0  0  0  0  0  0  0  0  0  0
  151.8584  141.1904  158.2097 H   0  0  0  0  0  0  0  0  0  0  0  0
  151.7814  137.9688  158.3043 H   0  0  0  0  0  0  0  0  0  0  0  0
  153.2937  138.2808  157.4369 H   0  0  0  0  0  0  0  0  0  0  0  0
  151.8941  139.3159  157.1792 H   0  0  0  0  0  0  0  0  0  0  0  0
  153.3087  144.5081  161.0007 H   0  0  0  0  0  0  0  0  0  0  0  0
  152.0732  143.5804  161.8315 H   0  0  0  0  0  0  0  0  0  0  0  0
  150.2683  144.8312  160.6754 H   0  0  0  0  0  0  0  0  0  0  0  0
  151.3579  145.9577  161.4615 H   0  0  0  0  0  0  0  0  0  0  0  0
  150.4225  144.5498  158.2811 H   0  0  0  0  0  0  0  0  0  0  0  0
  151.6194  145.4808  157.4018 H   0  0  0  0  0  0  0  0  0  0  0  0
  152.3482  143.1024  157.6731 H   0  0  0  0  0  0  0  0  0  0  0  0
  153.4733  144.2070  158.4329 H   0  0  0  0  0  0  0  0  0  0  0  0
  155.3186  137.7931  160.0799 H   0  0  0  0  0  0  0  0  0  0  0  0
  153.8490  137.2241  159.3850 H   0  0  0  0  0  0  0  0  0  0  0  0
  154.1758  137.6936  162.3969 H   0  0  0  0  0  0  0  0  0  0  0  0
  152.7905  136.9903  161.6104 H   0  0  0  0  0  0  0  0  0  0  0  0
  1 21  1  0  0  0  0
  1 22  1  0  0  0  0
  1 23  1  0  0  0  0
  1  2  1  0  0  0  0
  2 14  2  0  0  0  0
  2  3  1  0  0  0  0
  3 20  1  0  0  0  0
  3  4  1  0  0  0  0
  4  5  1  0  0  0  0
  4 11  2  0  0  0  0
  5 10  1  0  0  0  0
  5  6  1  0  0  0  0
  6  7  1  0  0  0  0
  6 24  1  0  0  0  0
  6 25  1  0  0  0  0
  7  8  1  0  0  0  0
  7 26  1  0  0  0  0
  7 27  1  0  0  0  0
  8  9  1  0  0  0  0
  9 10  1  0  0  0  0
  9 28  1  0  0  0  0
  9 29  1  0  0  0  0
 10 30  1  0  0  0  0
 10 31  1  0  0  0  0
 11 12  1  0  0  0  0
 12 13  2  0  0  0  0
 12 14  1  0  0  0  0
 14 15  1  0  0  0  0
 15 16  1  0  0  0  0
 15 32  1  0  0  0  0
 15 33  1  0  0  0  0
 16 17  1  0  0  0  0
 16 34  1  0  0  0  0
 16 35  1  0  0  0  0
 17 18  2  0  0  0  0
 17 19  1  0  0  0  0
M  CHG  1  19  -1
M  END
> <s_m_source_file>
AV-unprocessed.smi

> <i_m_source_file_index>
581

> <i_lp_mmshare_version>
43012

> <i_f3d_flags>
0

> <s_epik_input>
W0NIMl0xW0NIMl1PW0NIMl1bQ0gyXU4xYyhuYzJbQ0gzXSlbbkhdYyg9TyljMltDSDJdW0NIMl1DKD1PKVtPSF0=

> <s_epik_cmdline>
J2VwaWtfcHl0aG9uJywgJy1waCcsICc3LjAnLCAnLXRuJywgJzgnLCAnLW1hJywgJzIwMCcsICctbWV0YWxfYmluZGluZycsICctaW1hZScsICc8aW5maWxlLm1hZT4nLCAnLW9tYWUnLCAnPG91dGZpbGUubWFlPic=

> <r_lp_tautomer_probability>
0.108306

> <r_epik_Ionization_Penalty>
0.0702858

> <r_epik_Ionization_Penalty_Charging>
0.050334

> <r_epik_Ionization_Penalty_Neutral>
0.0199519

> <r_epik_State_Penalty>
1.38976

> <r_epik_Charging_Adjusted_Penalty>
1.44009

> <i_epik_Tot_Q>
-1

> <i_epik_Tot_abs_Q>
1

> <r_epik_Metal_State_Penalty>
1.61644

> <b_epik_Metal_Only>
0

> <s_lp_Force_Field>
OPLS_2005

> <r_lp_Energy>
27.984

> <b_lp_Chiralities_Consistent>
1

> <s_lp_Variant>
AV-unprocessed.smi:581-2

> <Gold.Version>
5.8.1

> <Gold.Id.Protein>
6NUR|6NUR_protein|mol2

> <Gold.PLP.Fitness>
42.2476

> <Gold.PLP.PLP>
-36.9822

> <Gold.PLP.part.hbond>
-2.2955

> <Gold.PLP.part.metal>
0.0000

> <Gold.PLP.part.buried>
-4.3282

> <Gold.PLP.part.nonpolar>
-31.1939

> <Gold.PLP.part.repulsive>
0.2896

> <Gold.PLP.ligand.clash>
0.0000

> <Gold.PLP.ligand.torsion>
0.5380

> <Gold.PLP.Chemscore.Hbond>
2.0000

> <Gold.PLP.Chemscore.CHOScore>
0.0000

> <Gold.PLP.Chemscore.Metal>
0.0000

> <Gold.Chemscore.Hbonds>
donor molecule, donor type, donor heavy atom, donor atom, acceptor molecule, acceptor atom, score
      P1  H  6896  6909       L1    18  2.00

> <Gold.PLP.Chemscore.Internal.Correction>
0.3415

> <Gold.Rescore>
     Score         DG    S(hbond)    S(metal)    S(lipo)     H(rot)  DE(clash)    DE(int)     intcor
     12.37     -13.04       0.93        0.00      79.34       1.89       0.24       0.43       ----

> <Gold.Chemscore.Fitness>
12.3710

> <Gold.Chemscore.DG>
-13.0402

> <Gold.Chemscore.ZeroCoef>
-5.4800

> <Gold.Chemscore.Hbond>
0.9322

> <Gold.Chemscore.Metal>
0.0000

> <Gold.Chemscore.Lipo>
79.3368

> <Gold.Chemscore.Internal_Hbond>
0.0000

> <Gold.Chemscore.DEClash>
0.2439

> <Gold.Chemscore.DEInternal>
0.4252

> <Gold.Chemscore.Rot>
1.8890

> <Gold.Chemscore.Internal.Correction>
   9.000000E+99

> <Gold.Chemscore.Hbonds>
donor molecule, donor type, donor heavy atom, donor atom, acceptor molecule, acceptor atom, score
      P1  H  6896  6909       L1    18  0.98

> <Gold.Chemscore.Hbond.Weighted>
-3.1135

> <Gold.Chemscore.Metal.Weighted>
-0.0000

> <Gold.Chemscore.Lipo.Weighted>
-9.2824

> <Gold.Chemscore.Internal_Hbond.Weighted>
0.0000

> <Gold.Chemscore.DEClash.Weighted>
0.2439

> <Gold.Chemscore.DEInternal.Weighted>
0.4252

> <Gold.Chemscore.Rot.Weighted>
4.8357

> <Gold.Chemscore.Internal.Correction.Weighted>
   9.000000E+99

> <Gold.Protein.RotatedTorsions>
[ 6907 6896 6895 6894 ] final -166.84 input  -60.11 | X-H torsion
[ 7974 7965 7964 7962 ] final   56.90 input  175.53 | X-H torsion
[ 8008 7997 7996 7995 ] final  -12.33 input   59.86 | X-H torsion
[ 10167 10162 10161 10158 ] final  -58.45 input  -65.29 | X-H torsion
[ 10718 10713 10712 10709 ] final  142.76 input   66.30 | X-H torsion
[ 10763 10752 10751 10750 ] final   -2.31 input  -60.55 | X-H torsion
[ 11005 11000 10999 10996 ] final  121.88 input  -57.11 | X-H torsion

> <Gold.Protein.ActiveResidues>
 VAL166  LYS551  ARG553  GLY616  TRP617  ASP618  TYR619  PRO620  LYS621  CYS622 
 ASP623  PHE694  ASN695  SER759  ASP760  ASP761  ALA762  ILE779  LEU786  VAL792 
 PHE793  MET794  SER795  GLU796  ALA797  LYS798  CYS799  TRP800  GLU811  SER814 

> <Gold.Protein.RotatedAtoms>
  151.4500  133.3620  159.2793 H   0  0  0  0  0  0  0  0  0  0  0  0  # atno 6907 bound_to 6896
  150.9098  134.8516  159.7428 H   0  0  0  0  0  0  0  0  0  0  0  0  # atno 6908 bound_to 6896
  152.4926  134.4428  159.9601 H   0  0  0  0  0  0  0  0  0  0  0  0  # atno 6909 bound_to 6896
  145.9348  139.3838  143.0399 H   0  0  0  0  0  0  0  0  0  0  0  0  # atno 7974 bound_to 7965
  154.5387  140.2279  155.8678 H   0  0  0  0  0  0  0  0  0  0  0  0  # atno 8008 bound_to 7997
  156.1837  140.3094  155.9160 H   0  0  0  0  0  0  0  0  0  0  0  0  # atno 8009 bound_to 7997
  155.3302  140.0445  157.3033 H   0  0  0  0  0  0  0  0  0  0  0  0  # atno 8010 bound_to 7997
  140.6196  143.2415  151.5512 H   0  0  0  0  0  0  0  0  0  0  0  0  # atno 10167 bound_to 10162
  157.3768  131.0986  151.0777 H   0  0  0  0  0  0  0  0  0  0  0  0  # atno 10718 bound_to 10713
  153.3563  135.6988  153.6748 H   0  0  0  0  0  0  0  0  0  0  0  0  # atno 10763 bound_to 10752
  153.5454  135.3564  155.2737 H   0  0  0  0  0  0  0  0  0  0  0  0  # atno 10764 bound_to 10752
  154.8661  135.4213  154.2810 H   0  0  0  0  0  0  0  0  0  0  0  0  # atno 10765 bound_to 10752
  139.9244  134.9640  156.8024 H   0  0  0  0  0  0  0  0  0  0  0  0  # atno 11005 bound_to 11000
  145.8378  140.9597  143.0815 LP  0  0  0  0  0  0  0  0  0  0  0  0  # atno 17320 bound_to 7965
  144.6770  140.0245  143.7483 LP  0  0  0  0  0  0  0  0  0  0  0  0  # atno 17321 bound_to 7965
  139.5428  144.2602  152.1383 LP  0  0  0  0  0  0  0  0  0  0  0  0  # atno 17342 bound_to 10162
  140.1820  144.4835  150.6523 LP  0  0  0  0  0  0  0  0  0  0  0  0  # atno 17343 bound_to 10162
  157.1860  130.6331  149.5688 LP  0  0  0  0  0  0  0  0  0  0  0  0  # atno 17370 bound_to 10713
  155.9767  130.4738  150.6545 LP  0  0  0  0  0  0  0  0  0  0  0  0  # atno 17371 bound_to 10713
  140.6378  133.9846  155.7693 LP  0  0  0  0  0  0  0  0  0  0  0  0  # atno 17394 bound_to 11000
  141.0791  134.0090  157.3413 LP  0  0  0  0  0  0  0  0  0  0  0  0  # atno 17395 bound_to 11000

$$$$
