AV-unprocessed.smi:16|AV-procd|sdf|88|dock1
  -GOLD-   2262015223D 1   1.00000     0.00000
 Structure written by MMmdl.
 60 64  0  0  0  0  0  0  0  0  2 V2000
  147.3830  132.6461  155.2989 C   0  0  0  0  0  0  0  0  0  0  0  0
  147.4294  131.4958  154.2822 C   0  0  0  0  0  0  0  0  0  0  0  0
  146.6440  131.7919  153.0578 N   0  3  2  0  0  0  0  0  0  0  0  0
  146.4629  130.5957  152.1955 C   0  0  0  0  0  0  0  0  0  0  0  0
  145.5115  130.8981  151.0270 C   0  0  0  0  0  0  0  0  0  0  0  0
  146.0050  132.1086  150.2058 C   0  0  1  0  0  0  0  0  0  0  0  0
  145.1259  132.4462  149.1307 O   0  0  0  0  0  0  0  0  0  0  0  0
  143.8759  133.0043  149.5319 C   0  0  0  0  0  0  0  0  0  0  0  0
  144.1054  134.2380  150.4177 C   0  0  0  0  0  0  0  0  0  0  0  0
  144.9714  133.8992  151.5402 N   0  0  0  0  0  0  0  0  0  0  0  0
  145.0433  134.8894  152.4554 C   0  0  0  0  0  0  0  0  0  0  0  0
  144.5430  134.7059  153.7050 N   0  0  0  0  0  0  0  0  0  0  0  0
  144.5880  135.7066  154.5906 C   0  0  0  0  0  0  0  0  0  0  0  0
  145.0658  136.9435  154.4295 N   0  0  0  0  0  0  0  0  0  0  0  0
  145.5637  137.1254  153.1724 C   0  0  0  0  0  0  0  0  0  0  0  0
  145.5999  136.1533  152.1359 C   0  0  0  0  0  0  0  0  0  0  0  0
  146.1868  136.6850  150.9959 N   0  0  0  0  0  0  0  0  0  0  0  0
  146.4913  137.9065  151.3428 C   0  0  0  0  0  0  0  0  0  0  0  0
  146.1181  138.2661  152.6191 N   0  0  0  0  0  0  0  0  0  0  0  0
  146.3494  139.5288  153.2561 C   0  0  0  0  0  0  0  0  0  0  0  0
  147.1444  140.6330  152.5555 C   0  0  0  0  0  0  0  0  0  0  0  0
  147.6867  141.1014  153.9251 C   0  0  0  0  0  0  0  0  0  0  0  0
  149.1769  141.4778  153.9566 C   0  0  0  0  0  0  0  0  0  0  0  0
  149.9644  140.4878  153.3272 O   0  0  0  0  0  0  0  0  0  0  0  0
  146.8690  142.2138  154.6123 C   0  0  0  0  0  0  0  0  0  0  0  0
  147.3436  142.4731  155.9180 O   0  0  0  0  0  0  0  0  0  0  0  0
  147.3645  139.6652  154.3929 C   0  0  0  0  0  0  0  0  0  0  0  0
  146.2551  133.3356  151.1111 C   0  0  1  0  0  0  0  0  0  0  0  0
  147.1910  132.9349  152.2796 C   0  0  0  0  0  0  0  0  0  0  0  0
  146.9533  131.8284  149.7458 H   0  0  0  0  0  0  0  0  0  0  0  0
  146.7620  134.0980  150.5173 H   0  0  0  0  0  0  0  0  0  0  0  0
  147.9496  132.3888  156.1939 H   0  0  0  0  0  0  0  0  0  0  0  0
  146.3592  132.8521  155.6102 H   0  0  0  0  0  0  0  0  0  0  0  0
  147.8050  133.5689  154.9016 H   0  0  0  0  0  0  0  0  0  0  0  0
  148.4601  131.2559  154.0167 H   0  0  0  0  0  0  0  0  0  0  0  0
  147.0242  130.6082  154.7699 H   0  0  0  0  0  0  0  0  0  0  0  0
  147.4320  130.2634  151.8196 H   0  0  0  0  0  0  0  0  0  0  0  0
  146.0516  129.7747  152.7839 H   0  0  0  0  0  0  0  0  0  0  0  0
  145.4224  130.0233  150.3826 H   0  0  0  0  0  0  0  0  0  0  0  0
  144.5184  131.0807  151.4365 H   0  0  0  0  0  0  0  0  0  0  0  0
  143.3181  133.2872  148.6392 H   0  0  0  0  0  0  0  0  0  0  0  0
  143.2685  132.2618  150.0487 H   0  0  0  0  0  0  0  0  0  0  0  0
  144.5626  135.0349  149.8291 H   0  0  0  0  0  0  0  0  0  0  0  0
  143.1489  134.6156  150.7822 H   0  0  0  0  0  0  0  0  0  0  0  0
  144.1771  135.4880  155.5653 H   0  0  0  0  0  0  0  0  0  0  0  0
  146.9875  138.5874  150.6665 H   0  0  0  0  0  0  0  0  0  0  0  0
  145.3692  139.8955  153.5654 H   0  0  0  0  0  0  0  0  0  0  0  0
  147.9216  140.2334  151.9012 H   0  0  0  0  0  0  0  0  0  0  0  0
  146.5285  141.3603  152.0257 H   0  0  0  0  0  0  0  0  0  0  0  0
  149.3495  142.4201  153.4358 H   0  0  0  0  0  0  0  0  0  0  0  0
  149.5357  141.6229  154.9758 H   0  0  0  0  0  0  0  0  0  0  0  0
  149.5127  140.1930  152.5512 H   0  0  0  0  0  0  0  0  0  0  0  0
  146.9209  143.1462  154.0502 H   0  0  0  0  0  0  0  0  0  0  0  0
  145.8116  141.9546  154.6690 H   0  0  0  0  0  0  0  0  0  0  0  0
  148.0715  143.0728  155.8593 H   0  0  0  0  0  0  0  0  0  0  0  0
  146.9362  139.5940  155.3932 H   0  0  0  0  0  0  0  0  0  0  0  0
  148.2111  138.9848  154.2815 H   0  0  0  0  0  0  0  0  0  0  0  0
  147.3819  133.7891  152.9278 H   0  0  0  0  0  0  0  0  0  0  0  0
  148.1654  132.6504  151.8788 H   0  0  0  0  0  0  0  0  0  0  0  0
  145.7204  132.0583  153.3691 H   0  0  0  0  0  0  0  0  0  0  0  0
  1  2  1  0  0  0  0
  1 32  1  0  0  0  0
  1 33  1  0  0  0  0
  1 34  1  0  0  0  0
  2  3  1  0  0  0  0
  2 35  1  0  0  0  0
  2 36  1  0  0  0  0
  3 29  1  0  0  0  0
  3  4  1  0  0  0  0
  3 60  1  0  0  0  0
  4  5  1  0  0  0  0
  4 37  1  0  0  0  0
  4 38  1  0  0  0  0
  5  6  1  0  0  0  0
  5 39  1  0  0  0  0
  5 40  1  0  0  0  0
  6 30  1  0  0  0  0
  6 28  1  0  0  0  0
  6  7  1  0  0  0  0
  7  8  1  0  0  0  0
  8  9  1  0  0  0  0
  8 41  1  0  0  0  0
  8 42  1  0  0  0  0
  9 10  1  0  0  0  0
  9 43  1  0  0  0  0
  9 44  1  0  0  0  0
 10 11  1  0  0  0  0
 10 28  1  0  0  0  0
 11 16  1  0  0  0  0
 11 12  2  0  0  0  0
 12 13  1  0  0  0  0
 13 14  2  0  0  0  0
 13 45  1  0  0  0  0
 14 15  1  0  0  0  0
 15 19  1  0  0  0  0
 15 16  2  0  0  0  0
 16 17  1  0  0  0  0
 17 18  2  0  0  0  0
 18 19  1  0  0  0  0
 18 46  1  0  0  0  0
 19 20  1  0  0  0  0
 20 27  1  0  0  0  0
 20 21  1  0  0  0  0
 20 47  1  0  0  0  0
 21 22  1  0  0  0  0
 21 48  1  0  0  0  0
 21 49  1  0  0  0  0
 22 23  1  0  0  0  0
 22 25  1  0  0  0  0
 22 27  1  0  0  0  0
 23 24  1  0  0  0  0
 23 50  1  0  0  0  0
 23 51  1  0  0  0  0
 24 52  1  0  0  0  0
 25 26  1  0  0  0  0
 25 53  1  0  0  0  0
 25 54  1  0  0  0  0
 26 55  1  0  0  0  0
 27 56  1  0  0  0  0
 27 57  1  0  0  0  0
 28 31  1  0  0  0  0
 28 29  1  0  0  0  0
 29 58  1  0  0  0  0
 29 59  1  0  0  0  0
M  CHG  1   3   1
M  END
> <s_m_source_file>
AV-unprocessed.smi

> <i_m_source_file_index>
16

> <i_lp_mmshare_version>
43012

> <i_f3d_flags>
0

> <s_epik_input>
W0NIM11bQ0gyXU4oW0NIMl1bQ0gyXTEpW0NIMl1bQ0BASF0oW0NAQEhdMTIpTihbQ0gyXVtDSDJdTzIpYyhuW2NIXW4zKWMoYzM0KW5bY0hdbjRbQ0hdKFtDSDJdNSlbQ0gyXUM1KFtDSDJdW09IXSlbQ0gyXVtPSF0=

> <s_epik_cmdline>
J2VwaWtfcHl0aG9uJywgJy1waCcsICc3LjAnLCAnLXRuJywgJzgnLCAnLW1hJywgJzIwMCcsICctbWV0YWxfYmluZGluZycsICctaW1hZScsICc8aW5maWxlLm1hZT4nLCAnLW9tYWUnLCAnPG91dGZpbGUubWFlPic=

> <r_lp_tautomer_probability>
1

> <r_epik_Ionization_Penalty>
0.0135603

> <r_epik_Ionization_Penalty_Charging>
0.0131385

> <r_epik_Ionization_Penalty_Neutral>
0.000421734

> <r_epik_State_Penalty>
0.0102091

> <r_epik_Charging_Adjusted_Penalty>
0.0233476

> <i_epik_Tot_Q>
1

> <i_epik_Tot_abs_Q>
1

> <r_epik_Metal_State_Penalty>
0.0103746

> <b_epik_Metal_Only>
0

> <s_lp_Force_Field>
OPLS_2005

> <r_lp_Energy>
60.5416

> <b_lp_Chiralities_Consistent>
1

> <s_lp_Variant>
AV-unprocessed.smi:16-2

> <Gold.Version>
5.8.1

> <Gold.Id.Protein>
6NUR|6NUR_protein|mol2

> <Gold.PLP.Fitness>
45.1318

> <Gold.PLP.PLP>
-35.4121

> <Gold.PLP.part.hbond>
-3.0000

> <Gold.PLP.part.metal>
0.0000

> <Gold.PLP.part.buried>
3.8353

> <Gold.PLP.part.nonpolar>
-38.6803

> <Gold.PLP.part.repulsive>
4.3831

> <Gold.PLP.ligand.clash>
0.0000

> <Gold.PLP.ligand.torsion>
0.3707

> <Gold.PLP.Chemscore.Hbond>
2.8160

> <Gold.PLP.Chemscore.CHOScore>
0.4421

> <Gold.PLP.Chemscore.Metal>
0.0000

> <Gold.Chemscore.Hbonds>
donor molecule, donor type, donor heavy atom, donor atom, acceptor molecule, acceptor atom, score
      L1  H    24    52       P1  7957  0.60
      L1  H    26    55       P1  8028  1.00
      P1  H  7989  7998       L1    24  0.42

> <Gold.PLP.Chemscore.Internal.Correction>
0.6867

> <Gold.Rescore>
     Score         DG    S(hbond)    S(metal)    S(lipo)     H(rot)  DE(clash)    DE(int)     intcor
     10.46     -15.62       1.91        0.00     104.97       3.33       4.36       0.80       ----

> <Gold.Chemscore.Fitness>
10.4551

> <Gold.Chemscore.DG>
-15.6157

> <Gold.Chemscore.ZeroCoef>
-5.4800

> <Gold.Chemscore.Hbond>
1.9062

> <Gold.Chemscore.Metal>
0.0000

> <Gold.Chemscore.Lipo>
104.9683

> <Gold.Chemscore.Internal_Hbond>
0.0000

> <Gold.Chemscore.DEClash>
4.3566

> <Gold.Chemscore.DEInternal>
0.8039

> <Gold.Chemscore.Rot>
3.3251

> <Gold.Chemscore.Internal.Correction>
   9.000000E+99

> <Gold.Chemscore.Hbonds>
donor molecule, donor type, donor heavy atom, donor atom, acceptor molecule, acceptor atom, score
      L1  H    24    52       P1  7957  0.58
      L1  H    26    55       P1  8028  0.68
      P1  H  7989  7998       L1    24  0.31

> <Gold.Chemscore.Hbond.Weighted>
-6.3666

> <Gold.Chemscore.Metal.Weighted>
-0.0000

> <Gold.Chemscore.Lipo.Weighted>
-12.2813

> <Gold.Chemscore.Internal_Hbond.Weighted>
0.0000

> <Gold.Chemscore.DEClash.Weighted>
4.3566

> <Gold.Chemscore.DEInternal.Weighted>
0.8039

> <Gold.Chemscore.Rot.Weighted>
8.5122

> <Gold.Chemscore.Internal.Correction.Weighted>
   9.000000E+99

> <Gold.Protein.RotatedTorsions>
[ 6907 6896 6895 6894 ] final  -94.91 input  -60.11 | X-H torsion
[ 7974 7965 7964 7962 ] final   46.46 input  175.53 | X-H torsion
[ 8008 7997 7996 7995 ] final  -62.97 input   59.86 | X-H torsion
[ 10167 10162 10161 10158 ] final  -10.36 input  -65.29 | X-H torsion
[ 10718 10713 10712 10709 ] final   51.16 input   66.30 | X-H torsion
[ 10763 10752 10751 10750 ] final -146.26 input  -60.55 | X-H torsion
[ 11005 11000 10999 10996 ] final -124.05 input  -57.11 | X-H torsion

> <Gold.Protein.ActiveResidues>
 VAL166  LYS551  ARG553  GLY616  TRP617  ASP618  TYR619  PRO620  LYS621  CYS622 
 ASP623  PHE694  ASN695  SER759  ASP760  ASP761  ALA762  ILE779  LEU786  VAL792 
 PHE793  MET794  SER795  GLU796  ALA797  LYS798  CYS799  TRP800  GLU811  SER814 

> <Gold.Protein.RotatedAtoms>
  150.6952  134.1739  159.4222 H   0  0  0  0  0  0  0  0  0  0  0  0  # atno 6907 bound_to 6896
  151.9716  135.0071  160.0562 H   0  0  0  0  0  0  0  0  0  0  0  0  # atno 6908 bound_to 6896
  152.1836  133.4689  159.5008 H   0  0  0  0  0  0  0  0  0  0  0  0  # atno 6909 bound_to 6896
  146.0388  139.4854  142.9791 H   0  0  0  0  0  0  0  0  0  0  0  0  # atno 7974 bound_to 7965
  154.4529  140.0984  156.6671 H   0  0  0  0  0  0  0  0  0  0  0  0  # atno 8008 bound_to 7997
  155.5229  140.3479  155.4392 H   0  0  0  0  0  0  0  0  0  0  0  0  # atno 8009 bound_to 7997
  156.0718  140.1351  156.9809 H   0  0  0  0  0  0  0  0  0  0  0  0  # atno 8010 bound_to 7997
  140.7112  143.5756  150.9045 H   0  0  0  0  0  0  0  0  0  0  0  0  # atno 10167 bound_to 10162
  157.4954  130.8403  149.8252 H   0  0  0  0  0  0  0  0  0  0  0  0  # atno 10718 bound_to 10713
  154.8344  135.3391  154.6634 H   0  0  0  0  0  0  0  0  0  0  0  0  # atno 10763 bound_to 10752
  153.7250  135.6955  153.5008 H   0  0  0  0  0  0  0  0  0  0  0  0  # atno 10764 bound_to 10752
  153.2353  135.4402  155.0593 H   0  0  0  0  0  0  0  0  0  0  0  0  # atno 10765 bound_to 10752
  140.9871  134.0591  157.3698 H   0  0  0  0  0  0  0  0  0  0  0  0  # atno 11005 bound_to 11000
  145.6920  141.0161  143.1550 LP  0  0  0  0  0  0  0  0  0  0  0  0  # atno 17320 bound_to 7965
  144.7064  139.8543  143.7428 LP  0  0  0  0  0  0  0  0  0  0  0  0  # atno 17321 bound_to 7965
  139.9483  143.6302  152.3036 LP  0  0  0  0  0  0  0  0  0  0  0  0  # atno 17342 bound_to 10162
  139.6811  144.7655  151.1606 LP  0  0  0  0  0  0  0  0  0  0  0  0  # atno 17343 bound_to 10162
  156.0197  130.3800  150.1999 LP  0  0  0  0  0  0  0  0  0  0  0  0  # atno 17370 bound_to 10713
  157.0188  130.9973  151.3345 LP  0  0  0  0  0  0  0  0  0  0  0  0  # atno 17371 bound_to 10713
  139.8975  135.0151  156.7105 LP  0  0  0  0  0  0  0  0  0  0  0  0  # atno 17394 bound_to 11000
  140.7097  133.9234  155.8076 LP  0  0  0  0  0  0  0  0  0  0  0  0  # atno 17395 bound_to 11000

$$$$
