AV-unprocessed.smi:2|AV-procd|sdf|25|dock4
  -GOLD-   2262015133D 1   1.00000     0.00000
 Structure written by MMmdl.
 52 54  0  0  0  0  0  0  0  0  3 V2000
  144.2441  133.3949  150.7959 C   0  0  0  0  0  0  0  0  0  0  0  0
  145.0280  134.3310  151.7263 C   0  0  0  0  0  0  0  0  0  0  0  0
  145.1363  135.7517  151.1624 C   0  0  0  0  0  0  0  0  0  0  0  0
  144.7527  135.9513  150.0102 O   0  0  0  0  0  0  0  0  0  0  0  0
  145.6962  136.8284  152.0328 C   0  0  0  0  0  0  0  0  0  0  0  0
  146.2481  138.0186  151.5040 C   0  0  0  0  0  0  0  0  0  0  0  0
  146.7698  139.0073  152.3602 C   0  0  0  0  0  0  0  0  0  0  0  0
  146.7567  138.8364  153.7582 C   0  0  0  0  0  0  0  0  0  0  0  0
  147.2936  139.8523  154.5196 O   0  0  0  0  0  0  0  0  0  0  0  0
  147.2787  139.7127  155.9342 C   0  0  0  0  0  0  0  0  0  0  0  0
  148.6858  139.3198  156.4112 C   0  0  2  0  0  0  0  0  0  0  0  0
  148.6312  139.0843  157.8035 O   0  0  0  0  0  0  0  0  0  0  0  0
  149.7237  140.4261  156.1079 C   0  0  0  0  0  0  0  0  0  0  0  0
  150.9564  140.2960  156.8933 N   0  0  0  0  0  0  0  0  0  0  0  0
  151.9863  139.4245  156.6685 C   0  0  0  0  0  0  0  0  0  0  0  0
  152.0782  138.4240  155.6137 N   0  3  0  0  0  0  0  0  0  0  0  0
  151.3467  138.5105  154.6354 O   0  0  0  0  0  0  0  0  0  0  0  0
  152.8766  137.5066  155.7784 O   0  5  0  0  0  0  0  0  0  0  0  0
  152.9857  139.5242  157.5442 N   0  0  0  0  0  0  0  0  0  0  0  0
  152.5707  140.5191  158.4056 C   0  0  0  0  0  0  0  0  0  0  0  0
  153.2432  141.0414  159.6107 C   0  0  0  0  0  0  0  0  0  0  0  0
  154.3607  140.6403  159.9390 O   0  0  0  0  0  0  0  0  0  0  0  0
  152.5066  141.9617  160.3065 N   0  0  0  0  0  0  0  0  0  0  0  0
  153.0621  142.4876  161.5684 C   0  0  0  0  0  0  0  0  0  0  0  0
  151.2731  142.4527  159.9203 C   0  0  0  0  0  0  0  0  0  0  0  0
  150.6705  143.2586  160.6361 O   0  0  0  0  0  0  0  0  0  0  0  0
  150.7387  142.0324  158.7224 N   0  0  0  0  0  0  0  0  0  0  0  0
  149.5187  142.6934  158.2363 C   0  0  0  0  0  0  0  0  0  0  0  0
  151.3657  141.0261  158.0340 C   0  0  0  0  0  0  0  0  0  0  0  0
  146.2000  137.6483  154.2909 C   0  0  0  0  0  0  0  0  0  0  0  0
  145.6767  136.6593  153.4358 C   0  0  0  0  0  0  0  0  0  0  0  0
  144.1552  132.4024  151.2377 H   0  0  0  0  0  0  0  0  0  0  0  0
  144.7336  133.2820  149.8284 H   0  0  0  0  0  0  0  0  0  0  0  0
  143.2348  133.7682  150.6189 H   0  0  0  0  0  0  0  0  0  0  0  0
  144.5219  134.3843  152.6907 H   0  0  0  0  0  0  0  0  0  0  0  0
  146.0210  133.9320  151.9313 H   0  0  0  0  0  0  0  0  0  0  0  0
  146.2830  138.2010  150.4409 H   0  0  0  0  0  0  0  0  0  0  0  0
  147.1883  139.9086  151.9365 H   0  0  0  0  0  0  0  0  0  0  0  0
  147.0056  140.6759  156.3680 H   0  0  0  0  0  0  0  0  0  0  0  0
  146.5412  138.9776  156.2615 H   0  0  0  0  0  0  0  0  0  0  0  0
  148.9871  138.3902  155.9299 H   0  0  0  0  0  0  0  0  0  0  0  0
  147.9922  138.4080  157.9698 H   0  0  0  0  0  0  0  0  0  0  0  0
  149.9695  140.4511  155.0521 H   0  0  0  0  0  0  0  0  0  0  0  0
  149.2863  141.4097  156.2547 H   0  0  0  0  0  0  0  0  0  0  0  0
  153.2126  143.5660  161.4951 H   0  0  0  0  0  0  0  0  0  0  0  0
  154.0199  142.0583  161.8643 H   0  0  0  0  0  0  0  0  0  0  0  0
  152.3759  142.3004  162.3960 H   0  0  0  0  0  0  0  0  0  0  0  0
  148.6390  142.0952  158.4738 H   0  0  0  0  0  0  0  0  0  0  0  0
  149.5595  142.8757  157.1672 H   0  0  0  0  0  0  0  0  0  0  0  0
  149.3543  143.6824  158.6659 H   0  0  0  0  0  0  0  0  0  0  0  0
  146.1611  137.4694  155.3546 H   0  0  0  0  0  0  0  0  0  0  0  0
  145.2606  135.7644  153.8759 H   0  0  0  0  0  0  0  0  0  0  0  0
  1  2  1  0  0  0  0
  1 32  1  0  0  0  0
  1 33  1  0  0  0  0
  1 34  1  0  0  0  0
  2  3  1  0  0  0  0
  2 35  1  0  0  0  0
  2 36  1  0  0  0  0
  3  4  2  0  0  0  0
  3  5  1  0  0  0  0
  5 31  1  0  0  0  0
  5  6  2  0  0  0  0
  6  7  1  0  0  0  0
  6 37  1  0  0  0  0
  7  8  2  0  0  0  0
  7 38  1  0  0  0  0
  8  9  1  0  0  0  0
  8 30  1  0  0  0  0
  9 10  1  0  0  0  0
 10 11  1  0  0  0  0
 10 39  1  0  0  0  0
 10 40  1  0  0  0  0
 11 12  1  0  0  0  0
 11 13  1  0  0  0  0
 11 41  1  0  0  0  0
 12 42  1  0  0  0  0
 13 14  1  0  0  0  0
 13 43  1  0  0  0  0
 13 44  1  0  0  0  0
 14 29  1  0  0  0  0
 14 15  1  0  0  0  0
 15 16  1  0  0  0  0
 15 19  2  0  0  0  0
 16 17  2  0  0  0  0
 16 18  1  0  0  0  0
 19 20  1  0  0  0  0
 20 29  2  0  0  0  0
 20 21  1  0  0  0  0
 21 22  2  0  0  0  0
 21 23  1  0  0  0  0
 23 24  1  0  0  0  0
 23 25  1  0  0  0  0
 24 45  1  0  0  0  0
 24 46  1  0  0  0  0
 24 47  1  0  0  0  0
 25 26  2  0  0  0  0
 25 27  1  0  0  0  0
 27 28  1  0  0  0  0
 27 29  1  0  0  0  0
 28 48  1  0  0  0  0
 28 49  1  0  0  0  0
 28 50  1  0  0  0  0
 30 31  2  0  0  0  0
 30 51  1  0  0  0  0
 31 52  1  0  0  0  0
M  CHG  1  16   1
M  CHG  1  18  -1
M  END
> <s_m_source_file>
AV-unprocessed.smi

> <i_m_source_file_index>
2

> <i_lp_mmshare_version>
43012

> <i_f3d_flags>
0

> <s_epik_input>
W0NIM11bQ0gyXUMoPU8pYzFbY0hdW2NIXWMoW2NIXVtjSF0xKU9bQ0gyXVtDQEhdKFtPSF0pW0NIMl1uKGMobjIpW04rXSg9TylbTy1dKWMoYzIzKW4oW0NIM10pYyg9TyluKGMzPU8pW0NIM10=

> <s_epik_cmdline>
J2VwaWtfcHl0aG9uJywgJy1waCcsICc3LjAnLCAnLXRuJywgJzgnLCAnLW1hJywgJzIwMCcsICctbWV0YWxfYmluZGluZycsICctaW1hZScsICc8aW5maWxlLm1hZT4nLCAnLW9tYWUnLCAnPG91dGZpbGUubWFlPic=

> <r_lp_tautomer_probability>
1

> <r_epik_Ionization_Penalty>
1.02275e-06

> <r_epik_Ionization_Penalty_Charging>
4.46226e-11

> <r_epik_Ionization_Penalty_Neutral>
1.02271e-06

> <r_epik_State_Penalty>
-0

> <r_epik_Charging_Adjusted_Penalty>
4.46226e-11

> <i_epik_Tot_Q>
0

> <i_epik_Tot_abs_Q>
2

> <r_epik_Metal_State_Penalty>
-0

> <b_epik_Metal_Only>
0

> <s_lp_Force_Field>
OPLS_2005

> <r_lp_Energy>
60.0216

> <b_lp_Chiralities_Consistent>
1

> <s_lp_Variant>
AV-unprocessed.smi:2-1

> <Gold.Version>
5.8.1

> <Gold.Id.Protein>
6NUR|6NUR_protein|mol2

> <Gold.PLP.Fitness>
45.2376

> <Gold.PLP.PLP>
-42.5180

> <Gold.PLP.part.hbond>
-3.0000

> <Gold.PLP.part.metal>
0.0000

> <Gold.PLP.part.buried>
-3.9722

> <Gold.PLP.part.nonpolar>
-37.6102

> <Gold.PLP.part.repulsive>
2.2688

> <Gold.PLP.ligand.clash>
0.0000

> <Gold.PLP.ligand.torsion>
1.1283

> <Gold.PLP.Chemscore.Hbond>
1.4960

> <Gold.PLP.Chemscore.CHOScore>
0.0000

> <Gold.PLP.Chemscore.Metal>
0.0000

> <Gold.Chemscore.Hbonds>
donor molecule, donor type, donor heavy atom, donor atom, acceptor molecule, acceptor atom, score
      P1  H  7997  8008       L1    19  1.00
      P1  H 10752 10764       L1    18  0.34

> <Gold.PLP.Chemscore.Internal.Correction>
0.4883

> <Gold.Rescore>
     Score         DG    S(hbond)    S(metal)    S(lipo)     H(rot)  DE(clash)    DE(int)     intcor
      4.50      -8.77       0.83        0.00      73.63       3.16       1.94       2.34       ----

> <Gold.Chemscore.Fitness>
4.4951

> <Gold.Chemscore.DG>
-8.7708

> <Gold.Chemscore.ZeroCoef>
-5.4800

> <Gold.Chemscore.Hbond>
0.8279

> <Gold.Chemscore.Metal>
0.0000

> <Gold.Chemscore.Lipo>
73.6272

> <Gold.Chemscore.Internal_Hbond>
0.0000

> <Gold.Chemscore.DEClash>
1.9397

> <Gold.Chemscore.DEInternal>
2.3359

> <Gold.Chemscore.Rot>
3.1597

> <Gold.Chemscore.Internal.Correction>
   9.000000E+99

> <Gold.Chemscore.Hbonds>
donor molecule, donor type, donor heavy atom, donor atom, acceptor molecule, acceptor atom, score
      P1  H  7997  8008       L1    19  0.50
      P1  H 10752 10764       L1    18  0.33

> <Gold.Chemscore.Hbond.Weighted>
-2.7652

> <Gold.Chemscore.Metal.Weighted>
-0.0000

> <Gold.Chemscore.Lipo.Weighted>
-8.6144

> <Gold.Chemscore.Internal_Hbond.Weighted>
0.0000

> <Gold.Chemscore.DEClash.Weighted>
1.9397

> <Gold.Chemscore.DEInternal.Weighted>
2.3359

> <Gold.Chemscore.Rot.Weighted>
8.0888

> <Gold.Chemscore.Internal.Correction.Weighted>
   9.000000E+99

> <Gold.Protein.RotatedTorsions>
[ 6907 6896 6895 6894 ] final -143.80 input  -60.11 | X-H torsion
[ 7974 7965 7964 7962 ] final   95.73 input  175.53 | X-H torsion
[ 8008 7997 7996 7995 ] final  -70.57 input   59.86 | X-H torsion
[ 10167 10162 10161 10158 ] final  106.51 input  -65.29 | X-H torsion
[ 10718 10713 10712 10709 ] final  162.22 input   66.30 | X-H torsion
[ 10763 10752 10751 10750 ] final  -21.49 input  -60.55 | X-H torsion
[ 11005 11000 10999 10996 ] final  -77.91 input  -57.11 | X-H torsion

> <Gold.Protein.ActiveResidues>
 VAL166  LYS551  ARG553  GLY616  TRP617  ASP618  TYR619  PRO620  LYS621  CYS622 
 ASP623  PHE694  ASN695  SER759  ASP760  ASP761  ALA762  ILE779  LEU786  VAL792 
 PHE793  MET794  SER795  GLU796  ALA797  LYS798  CYS799  TRP800  GLU811  SER814 

> <Gold.Protein.RotatedAtoms>
  151.1054  133.5212  159.2607 H   0  0  0  0  0  0  0  0  0  0  0  0  # atno 6907 bound_to 6896
  151.2027  135.0448  159.8889 H   0  0  0  0  0  0  0  0  0  0  0  0  # atno 6908 bound_to 6896
  152.5446  134.0880  159.8318 H   0  0  0  0  0  0  0  0  0  0  0  0  # atno 6909 bound_to 6896
  145.4482  139.2295  143.3054 H   0  0  0  0  0  0  0  0  0  0  0  0  # atno 7974 bound_to 7965
  154.5022  140.0832  156.7820 H   0  0  0  0  0  0  0  0  0  0  0  0  # atno 8008 bound_to 7997
  155.3977  140.3435  155.4237 H   0  0  0  0  0  0  0  0  0  0  0  0  # atno 8009 bound_to 7997
  156.1470  140.1547  156.8818 H   0  0  0  0  0  0  0  0  0  0  0  0  # atno 8010 bound_to 7997
  139.7003  144.7095  151.1197 H   0  0  0  0  0  0  0  0  0  0  0  0  # atno 10167 bound_to 10162
  157.1256  131.0503  151.2395 H   0  0  0  0  0  0  0  0  0  0  0  0  # atno 10718 bound_to 10713
  153.6370  135.6986  153.5255 H   0  0  0  0  0  0  0  0  0  0  0  0  # atno 10763 bound_to 10752
  153.2813  135.4185  155.1081 H   0  0  0  0  0  0  0  0  0  0  0  0  # atno 10764 bound_to 10752
  154.8509  135.3602  154.5913 H   0  0  0  0  0  0  0  0  0  0  0  0  # atno 10765 bound_to 10752
  141.1662  133.7041  156.7892 H   0  0  0  0  0  0  0  0  0  0  0  0  # atno 11005 bound_to 11000
  146.2519  140.5239  142.8890 LP  0  0  0  0  0  0  0  0  0  0  0  0  # atno 17320 bound_to 7965
  144.8078  140.6331  143.6435 LP  0  0  0  0  0  0  0  0  0  0  0  0  # atno 17321 bound_to 7965
  140.7708  143.5433  150.9287 LP  0  0  0  0  0  0  0  0  0  0  0  0  # atno 17342 bound_to 10162
  139.9114  143.6715  152.3114 LP  0  0  0  0  0  0  0  0  0  0  0  0  # atno 17343 bound_to 10162
  157.4438  130.7559  149.7092 LP  0  0  0  0  0  0  0  0  0  0  0  0  # atno 17370 bound_to 10713
  155.9819  130.4015  150.3446 LP  0  0  0  0  0  0  0  0  0  0  0  0  # atno 17371 bound_to 10713
  140.2338  134.8666  157.3503 LP  0  0  0  0  0  0  0  0  0  0  0  0  # atno 17394 bound_to 11000
  140.1865  134.4425  155.7741 LP  0  0  0  0  0  0  0  0  0  0  0  0  # atno 17395 bound_to 11000

$$$$
