AV-unprocessed.smi:1817|AV-procd|sdf|7371|dock3
  -GOLD-   22720 9 33D 1   1.00000     0.00000
 Structure written by MMmdl.
 43 44  0  0  0  0  0  0  0  0  2 V2000
  150.4775  141.4889  155.9628 C   0  0  0  0  0  0  0  0  0  0  0  0
  151.1865  140.1407  155.7701 C   0  0  0  0  0  0  0  0  0  0  0  0
  150.9666  139.5922  154.4298 N   0  0  0  0  0  0  0  0  0  0  0  0
  151.7671  138.4117  154.0998 C   0  0  0  0  0  0  0  0  0  0  0  0
  151.3420  137.1653  154.9043 C   0  0  0  0  0  0  0  0  0  0  0  0
  149.9005  136.8444  154.7006 N   0  3  0  0  0  0  0  0  0  0  0  0
  149.4140  135.6206  155.4234 C   0  0  1  0  0  0  0  0  0  0  0  0
  149.6301  135.7656  156.9490 C   0  0  0  0  0  0  0  0  0  0  0  0
  147.9286  135.2796  155.1124 C   0  0  0  0  0  0  0  0  0  0  0  0
  147.6700  135.0651  153.6899 N   0  0  0  0  0  0  0  0  0  0  0  0
  146.7135  134.2745  153.1806 C   0  0  0  0  0  0  0  0  0  0  0  0
  145.9511  133.6007  153.8728 O   0  0  0  0  0  0  0  0  0  0  0  0
  146.7115  134.3192  151.8386 N   0  0  0  0  0  0  0  0  0  0  0  0
  145.8657  133.6177  150.9433 C   0  0  0  0  0  0  0  0  0  0  0  0
  146.4368  132.7986  150.0527 N   0  0  0  0  0  0  0  0  0  0  0  0
  145.4968  132.1752  149.2412 N   0  0  0  0  0  0  0  0  0  0  0  0
  144.2519  132.5482  149.5533 C   0  0  0  0  0  0  0  0  0  0  0  0
  144.1031  133.6985  150.8700 S   0  0  0  0  0  0  0  0  0  0  0  0
  149.0852  138.0566  154.9954 C   0  0  0  0  0  0  0  0  0  0  0  0
  149.5624  139.2740  154.1768 C   0  0  0  0  0  0  0  0  0  0  0  0
  150.5423  141.8071  157.0036 H   0  0  0  0  0  0  0  0  0  0  0  0
  149.4202  141.4215  155.7053 H   0  0  0  0  0  0  0  0  0  0  0  0
  150.9252  142.2772  155.3583 H   0  0  0  0  0  0  0  0  0  0  0  0
  152.2472  140.2388  155.9982 H   0  0  0  0  0  0  0  0  0  0  0  0
  150.7777  139.4393  156.4988 H   0  0  0  0  0  0  0  0  0  0  0  0
  151.6538  138.2077  153.0340 H   0  0  0  0  0  0  0  0  0  0  0  0
  152.8266  138.6157  154.2502 H   0  0  0  0  0  0  0  0  0  0  0  0
  151.9664  136.3474  154.5478 H   0  0  0  0  0  0  0  0  0  0  0  0
  151.5546  137.2888  155.9669 H   0  0  0  0  0  0  0  0  0  0  0  0
  150.0138  134.7775  155.0761 H   0  0  0  0  0  0  0  0  0  0  0  0
  149.3082  134.8775  157.4912 H   0  0  0  0  0  0  0  0  0  0  0  0
  149.0711  136.6132  157.3465 H   0  0  0  0  0  0  0  0  0  0  0  0
  150.6753  135.8975  157.2209 H   0  0  0  0  0  0  0  0  0  0  0  0
  147.6038  134.4216  155.7037 H   0  0  0  0  0  0  0  0  0  0  0  0
  147.2770  136.1086  155.3858 H   0  0  0  0  0  0  0  0  0  0  0  0
  148.2500  135.5787  153.0422 H   0  0  0  0  0  0  0  0  0  0  0  0
  147.3929  134.9240  151.4041 H   0  0  0  0  0  0  0  0  0  0  0  0
  143.4156  132.1423  149.0036 H   0  0  0  0  0  0  0  0  0  0  0  0
  148.0411  137.8935  154.7386 H   0  0  0  0  0  0  0  0  0  0  0  0
  149.1077  138.2717  156.0644 H   0  0  0  0  0  0  0  0  0  0  0  0
  148.9447  140.1448  154.3996 H   0  0  0  0  0  0  0  0  0  0  0  0
  149.4336  139.0731  153.1123 H   0  0  0  0  0  0  0  0  0  0  0  0
  149.7964  136.6552  153.7139 H   0  0  0  0  0  0  0  0  0  0  0  0
  1  2  1  0  0  0  0
  1 21  1  0  0  0  0
  1 22  1  0  0  0  0
  1 23  1  0  0  0  0
  2  3  1  0  0  0  0
  2 24  1  0  0  0  0
  2 25  1  0  0  0  0
  3 20  1  0  0  0  0
  3  4  1  0  0  0  0
  4  5  1  0  0  0  0
  4 26  1  0  0  0  0
  4 27  1  0  0  0  0
  5  6  1  0  0  0  0
  5 28  1  0  0  0  0
  5 29  1  0  0  0  0
  6  7  1  0  0  0  0
  6 19  1  0  0  0  0
  6 43  1  0  0  0  0
  7  8  1  0  0  0  0
  7  9  1  0  0  0  0
  7 30  1  0  0  0  0
  8 31  1  0  0  0  0
  8 32  1  0  0  0  0
  8 33  1  0  0  0  0
  9 10  1  0  0  0  0
  9 34  1  0  0  0  0
  9 35  1  0  0  0  0
 10 11  1  0  0  0  0
 10 36  1  0  0  0  0
 11 12  2  0  0  0  0
 11 13  1  0  0  0  0
 13 14  1  0  0  0  0
 13 37  1  0  0  0  0
 14 18  1  0  0  0  0
 14 15  2  0  0  0  0
 15 16  1  0  0  0  0
 16 17  2  0  0  0  0
 17 18  1  0  0  0  0
 17 38  1  0  0  0  0
 19 20  1  0  0  0  0
 19 39  1  0  0  0  0
 19 40  1  0  0  0  0
 20 41  1  0  0  0  0
 20 42  1  0  0  0  0
M  CHG  1   6   1
M  END
> <s_m_source_file>
AV-unprocessed.smi

> <i_m_source_file_index>
1817

> <i_lp_mmshare_version>
43012

> <i_f3d_flags>
0

> <s_epik_input>
W0NIM11bQ0gyXU4xW0NIMl1bQ0gyXU4oW0NIMl1bQ0gyXTEpW0NASF0oW0NIM10pW0NIMl1bTkhdQyg9TylbTkhdYzJubltjSF1zMg==

> <s_epik_cmdline>
J2VwaWtfcHl0aG9uJywgJy1waCcsICc3LjAnLCAnLXRuJywgJzgnLCAnLW1hJywgJzIwMCcsICctbWV0YWxfYmluZGluZycsICctaW1hZScsICc8aW5maWxlLm1hZT4nLCAnLW9tYWUnLCAnPG91dGZpbGUubWFlPic=

> <r_epik_Ionization_Penalty>
0.153808

> <r_epik_Ionization_Penalty_Charging>
0.148467

> <r_epik_Ionization_Penalty_Neutral>
0.00534086

> <r_epik_State_Penalty>
0.974087

> <r_epik_Charging_Adjusted_Penalty>
1.12255

> <i_epik_Tot_Q>
1

> <i_epik_Tot_abs_Q>
1

> <r_epik_Metal_State_Penalty>
1.30894

> <b_epik_Metal_Only>
0

> <s_lp_Force_Field>
OPLS_2005

> <r_lp_Energy>
21.4774

> <b_lp_Chiralities_Consistent>
1

> <s_lp_Variant>
AV-unprocessed.smi:1817-4

> <Gold.Version>
5.8.1

> <Gold.Id.Protein>
6NUR|6NUR_protein|mol2

> <Gold.PLP.Fitness>
43.1709

> <Gold.PLP.PLP>
-30.4330

> <Gold.PLP.part.hbond>
-3.9975

> <Gold.PLP.part.metal>
0.0000

> <Gold.PLP.part.buried>
-4.9338

> <Gold.PLP.part.nonpolar>
-21.4688

> <Gold.PLP.part.repulsive>
0.9287

> <Gold.PLP.ligand.clash>
0.0000

> <Gold.PLP.ligand.torsion>
0.7836

> <Gold.PLP.Chemscore.Hbond>
4.7476

> <Gold.PLP.Chemscore.CHOScore>
0.0000

> <Gold.PLP.Chemscore.Metal>
0.0000

> <Gold.Chemscore.Hbonds>
donor molecule, donor type, donor heavy atom, donor atom, acceptor molecule, acceptor atom, score
      L1  H     6    43       P1  7948  1.95
      L1  H    10    36       P1  7948  0.94
      L1  H    13    37       P1  7948  0.86
      P1  H  7989  7998       L1     3  1.00

> <Gold.PLP.Chemscore.Internal.Correction>
0.0622

> <Gold.Rescore>
     Score         DG    S(hbond)    S(metal)    S(lipo)     H(rot)  DE(clash)    DE(int)     intcor
     14.68     -15.87       2.37        0.00      63.27       1.92       0.38       0.81       ----

> <Gold.Chemscore.Fitness>
14.6840

> <Gold.Chemscore.DG>
-15.8731

> <Gold.Chemscore.ZeroCoef>
-5.4800

> <Gold.Chemscore.Hbond>
2.3668

> <Gold.Chemscore.Metal>
0.0000

> <Gold.Chemscore.Lipo>
63.2653

> <Gold.Chemscore.Internal_Hbond>
0.0000

> <Gold.Chemscore.DEClash>
0.3834

> <Gold.Chemscore.DEInternal>
0.8057

> <Gold.Chemscore.Rot>
1.9196

> <Gold.Chemscore.Internal.Correction>
   9.000000E+99

> <Gold.Chemscore.Hbonds>
donor molecule, donor type, donor heavy atom, donor atom, acceptor molecule, acceptor atom, score
      L1  H     6    43       P1  7948  0.41
      L1  H    10    36       P1  7948  0.90
      L1  H    13    37       P1  7948  0.40
      P1  H  7989  7998       L1     3  0.12

> <Gold.Chemscore.Hbond.Weighted>
-7.9052

> <Gold.Chemscore.Metal.Weighted>
-0.0000

> <Gold.Chemscore.Lipo.Weighted>
-7.4020

> <Gold.Chemscore.Internal_Hbond.Weighted>
0.0000

> <Gold.Chemscore.DEClash.Weighted>
0.3834

> <Gold.Chemscore.DEInternal.Weighted>
0.8057

> <Gold.Chemscore.Rot.Weighted>
4.9141

> <Gold.Chemscore.Internal.Correction.Weighted>
   9.000000E+99

> <Gold.Protein.RotatedTorsions>
[ 6907 6896 6895 6894 ] final -153.18 input  -60.11 | X-H torsion
[ 7974 7965 7964 7962 ] final   47.51 input  175.53 | X-H torsion
[ 8008 7997 7996 7995 ] final  174.33 input   59.86 | X-H torsion
[ 10167 10162 10161 10158 ] final  125.12 input  -65.29 | X-H torsion
[ 10718 10713 10712 10709 ] final   -7.13 input   66.30 | X-H torsion
[ 10763 10752 10751 10750 ] final  -33.05 input  -60.55 | X-H torsion
[ 11005 11000 10999 10996 ] final  145.25 input  -57.11 | X-H torsion

> <Gold.Protein.ActiveResidues>
 VAL166  LYS551  ARG553  GLY616  TRP617  ASP618  TYR619  PRO620  LYS621  CYS622 
 ASP623  PHE694  ASN695  SER759  ASP760  ASP761  ALA762  ILE779  LEU786  VAL792 
 PHE793  MET794  SER795  GLU796  ALA797  LYS798  CYS799  TRP800  GLU811  SER814 

> <Gold.Protein.RotatedAtoms>
  151.2388  133.4410  159.2606 H   0  0  0  0  0  0  0  0  0  0  0  0  # atno 6907 bound_to 6896
  151.0725  134.9807  159.8326 H   0  0  0  0  0  0  0  0  0  0  0  0  # atno 6908 bound_to 6896
  152.5414  134.2332  159.8886 H   0  0  0  0  0  0  0  0  0  0  0  0  # atno 6909 bound_to 6896
  146.0291  139.4742  142.9849 H   0  0  0  0  0  0  0  0  0  0  0  0  # atno 7974 bound_to 7965
  156.0985  140.1437  156.9499 H   0  0  0  0  0  0  0  0  0  0  0  0  # atno 8008 bound_to 7997
  154.4687  140.0917  156.7133 H   0  0  0  0  0  0  0  0  0  0  0  0  # atno 8009 bound_to 7997
  155.4801  140.3444  155.4340 H   0  0  0  0  0  0  0  0  0  0  0  0  # atno 8010 bound_to 7997
  139.5703  144.6935  151.3796 H   0  0  0  0  0  0  0  0  0  0  0  0  # atno 10167 bound_to 10162
  156.7217  130.5153  149.5866 H   0  0  0  0  0  0  0  0  0  0  0  0  # atno 10718 bound_to 10713
  153.8238  135.6872  153.4823 H   0  0  0  0  0  0  0  0  0  0  0  0  # atno 10763 bound_to 10752
  153.1553  135.4601  154.9693 H   0  0  0  0  0  0  0  0  0  0  0  0  # atno 10764 bound_to 10752
  154.7916  135.3304  154.7708 H   0  0  0  0  0  0  0  0  0  0  0  0  # atno 10765 bound_to 10752
  140.0697  134.9158  157.1324 H   0  0  0  0  0  0  0  0  0  0  0  0  # atno 11005 bound_to 11000
  145.7069  141.0118  143.1474 LP  0  0  0  0  0  0  0  0  0  0  0  0  # atno 17320 bound_to 7965
  144.7022  139.8711  143.7440 LP  0  0  0  0  0  0  0  0  0  0  0  0  # atno 17321 bound_to 7965
  140.6988  143.7684  150.7369 LP  0  0  0  0  0  0  0  0  0  0  0  0  # atno 17342 bound_to 10162
  140.1188  143.4631  152.2326 LP  0  0  0  0  0  0  0  0  0  0  0  0  # atno 17343 bound_to 10162
  156.1590  130.6361  151.0694 LP  0  0  0  0  0  0  0  0  0  0  0  0  # atno 17370 bound_to 10713
  157.6895  131.0814  150.7147 LP  0  0  0  0  0  0  0  0  0  0  0  0  # atno 17371 bound_to 10713
  140.3645  134.2457  155.7183 LP  0  0  0  0  0  0  0  0  0  0  0  0  # atno 17394 bound_to 11000
  141.2007  133.7981  157.0477 LP  0  0  0  0  0  0  0  0  0  0  0  0  # atno 17395 bound_to 11000

$$$$
