AV-unprocessed.smi:543|AV-procd|sdf|2876|dock2
  -GOLD-   2262023373D 1   1.00000     0.00000
 Structure written by MMmdl.
 45 47  0  0  0  0  0  0  0  0  2 V2000
  148.1589  127.8696  153.5384 C   0  0  0  0  0  0  0  0  0  0  0  0
  149.3754  128.5845  153.6578 O   0  0  0  0  0  0  0  0  0  0  0  0
  149.5177  129.2124  154.9225 C   0  0  0  0  0  0  0  0  0  0  0  0
  148.3938  130.2404  155.1150 C   0  0  0  0  0  0  0  0  0  0  0  0
  148.8486  131.6003  154.8246 N   0  0  0  0  0  0  0  0  0  0  0  0
  148.4345  132.4497  153.8413 C   0  0  0  0  0  0  0  0  0  0  0  0
  147.4774  132.0875  152.8849 N   0  0  0  0  0  0  0  0  0  0  0  0
  146.8090  130.7944  152.8057 C   0  0  0  0  0  0  0  0  0  0  0  0
  147.1463  132.8916  151.7087 C   0  0  0  0  0  0  0  0  0  0  0  0
  145.7001  132.8040  151.2494 C   0  0  0  0  0  0  0  0  0  0  0  0
  144.6770  133.3907  152.0241 C   0  0  0  0  0  0  0  0  0  0  0  0
  143.3370  133.3239  151.5955 C   0  0  0  0  0  0  0  0  0  0  0  0
  143.0137  132.6670  150.3928 C   0  0  0  0  0  0  0  0  0  0  0  0
  144.0312  132.0772  149.6181 C   0  0  0  0  0  0  0  0  0  0  0  0
  145.3717  132.1454  150.0452 C   0  0  0  0  0  0  0  0  0  0  0  0
  148.9876  133.6634  153.8975 N   0  0  0  0  0  0  0  0  0  0  0  0
  149.8384  133.5778  154.9859 C   0  0  0  0  0  0  0  0  0  0  0  0
  149.7694  132.3506  155.5657 C   0  0  0  0  0  0  0  0  0  0  0  0
  150.5348  131.9713  156.7751 C   0  0  0  0  0  0  0  0  0  0  0  0
  150.4237  130.8532  157.2740 O   0  0  0  0  0  0  0  0  0  0  0  0
  151.3291  132.9929  157.2271 N   0  5  0  0  0  0  0  0  0  0  0  0
  151.4308  134.2485  156.6674 C   0  0  0  0  0  0  0  0  0  0  0  0
  152.1665  135.1145  157.1428 O   0  0  0  0  0  0  0  0  0  0  0  0
  150.6979  134.5578  155.5520 N   0  0  0  0  0  0  0  0  0  0  0  0
  150.7780  135.8868  154.9387 C   0  0  0  0  0  0  0  0  0  0  0  0
  148.1027  127.4064  152.5534 H   0  0  0  0  0  0  0  0  0  0  0  0
  147.3001  128.5332  153.6479 H   0  0  0  0  0  0  0  0  0  0  0  0
  148.0898  127.0795  154.2872 H   0  0  0  0  0  0  0  0  0  0  0  0
  149.4813  128.4656  155.7171 H   0  0  0  0  0  0  0  0  0  0  0  0
  150.4879  129.7070  154.9852 H   0  0  0  0  0  0  0  0  0  0  0  0
  147.5420  130.0024  154.4802 H   0  0  0  0  0  0  0  0  0  0  0  0
  148.0093  130.1705  156.1270 H   0  0  0  0  0  0  0  0  0  0  0  0
  147.2691  130.0799  153.4888 H   0  0  0  0  0  0  0  0  0  0  0  0
  146.8771  130.3713  151.8030 H   0  0  0  0  0  0  0  0  0  0  0  0
  145.7542  130.8930  153.0643 H   0  0  0  0  0  0  0  0  0  0  0  0
  147.3920  133.9432  151.8652 H   0  0  0  0  0  0  0  0  0  0  0  0
  147.7938  132.5596  150.8964 H   0  0  0  0  0  0  0  0  0  0  0  0
  144.9174  133.9011  152.9451 H   0  0  0  0  0  0  0  0  0  0  0  0
  142.5573  133.7782  152.1889 H   0  0  0  0  0  0  0  0  0  0  0  0
  141.9862  132.6164  150.0642 H   0  0  0  0  0  0  0  0  0  0  0  0
  143.7837  131.5736  148.6952 H   0  0  0  0  0  0  0  0  0  0  0  0
  146.1465  131.6945  149.4432 H   0  0  0  0  0  0  0  0  0  0  0  0
  150.4034  136.6451  155.6274 H   0  0  0  0  0  0  0  0  0  0  0  0
  150.1957  135.9625  154.0204 H   0  0  0  0  0  0  0  0  0  0  0  0
  151.8104  136.1337  154.6872 H   0  0  0  0  0  0  0  0  0  0  0  0
  1  2  1  0  0  0  0
  1 26  1  0  0  0  0
  1 27  1  0  0  0  0
  1 28  1  0  0  0  0
  2  3  1  0  0  0  0
  3  4  1  0  0  0  0
  3 29  1  0  0  0  0
  3 30  1  0  0  0  0
  4  5  1  0  0  0  0
  4 31  1  0  0  0  0
  4 32  1  0  0  0  0
  5 18  1  0  0  0  0
  5  6  1  0  0  0  0
  6  7  1  0  0  0  0
  6 16  2  0  0  0  0
  7  8  1  0  0  0  0
  7  9  1  0  0  0  0
  8 33  1  0  0  0  0
  8 34  1  0  0  0  0
  8 35  1  0  0  0  0
  9 10  1  0  0  0  0
  9 36  1  0  0  0  0
  9 37  1  0  0  0  0
 10 15  1  0  0  0  0
 10 11  2  0  0  0  0
 11 12  1  0  0  0  0
 11 38  1  0  0  0  0
 12 13  2  0  0  0  0
 12 39  1  0  0  0  0
 13 14  1  0  0  0  0
 13 40  1  0  0  0  0
 14 15  2  0  0  0  0
 14 41  1  0  0  0  0
 15 42  1  0  0  0  0
 16 17  1  0  0  0  0
 17 24  1  0  0  0  0
 17 18  2  0  0  0  0
 18 19  1  0  0  0  0
 19 20  2  0  0  0  0
 19 21  1  0  0  0  0
 21 22  1  0  0  0  0
 22 23  2  0  0  0  0
 22 24  1  0  0  0  0
 24 25  1  0  0  0  0
 25 43  1  0  0  0  0
 25 44  1  0  0  0  0
 25 45  1  0  0  0  0
M  CHG  1  21  -1
M  END
> <s_m_source_file>
AV-unprocessed.smi

> <i_m_source_file_index>
543

> <i_lp_mmshare_version>
43012

> <i_f3d_flags>
0

> <s_epik_input>
W0NIM11uMWMoPU8pW25IXWMoPU8pYyhjMTIpbihbQ0gyXVtDSDJdT1tDSDNdKWMobjIpTihbQ0gzXSlbQ0gyXWMzW2NIXVtjSF1bY0hdW2NIXVtjSF0z

> <s_epik_cmdline>
J2VwaWtfcHl0aG9uJywgJy1waCcsICc3LjAnLCAnLXRuJywgJzgnLCAnLW1hJywgJzIwMCcsICctbWV0YWxfYmluZGluZycsICctaW1hZScsICc8aW5maWxlLm1hZT4nLCAnLW9tYWUnLCAnPG91dGZpbGUubWFlPic=

> <r_lp_tautomer_probability>
1

> <r_epik_Ionization_Penalty>
6.27073

> <r_epik_Ionization_Penalty_Charging>
0.0750099

> <r_epik_Ionization_Penalty_Neutral>
6.19572

> <r_epik_State_Penalty>
6.19553

> <r_epik_Charging_Adjusted_Penalty>
6.27054

> <i_epik_Tot_Q>
-1

> <i_epik_Tot_abs_Q>
1

> <r_epik_Metal_State_Penalty>
2.13591

> <b_epik_Metal_Only>
1

> <s_lp_Force_Field>
OPLS_2005

> <r_lp_Energy>
36.8514

> <b_lp_Chiralities_Consistent>
1

> <s_lp_Variant>
AV-unprocessed.smi:543-2

> <Gold.Version>
5.8.1

> <Gold.Id.Protein>
6NUR|6NUR_protein|mol2

> <Gold.PLP.Fitness>
42.3270

> <Gold.PLP.PLP>
-37.9562

> <Gold.PLP.part.hbond>
-2.3758

> <Gold.PLP.part.metal>
0.0000

> <Gold.PLP.part.buried>
-0.7461

> <Gold.PLP.part.nonpolar>
-38.0175

> <Gold.PLP.part.repulsive>
0.3110

> <Gold.PLP.ligand.clash>
4.7127

> <Gold.PLP.ligand.torsion>
0.7602

> <Gold.PLP.Chemscore.Hbond>
1.9184

> <Gold.PLP.Chemscore.CHOScore>
0.0000

> <Gold.PLP.Chemscore.Metal>
0.0000

> <Gold.Chemscore.Hbonds>
donor molecule, donor type, donor heavy atom, donor atom, acceptor molecule, acceptor atom, score
      P1  H  6896  6908       L1    21  1.73
      P1  H 10752 10765       L1    23  0.22

> <Gold.PLP.Chemscore.Internal.Correction>
4.8487

> <Gold.Rescore>
     Score         DG    S(hbond)    S(metal)    S(lipo)     H(rot)  DE(clash)    DE(int)     intcor
      9.39     -12.28       0.47        0.00      84.43       1.82       0.70       2.19       ----

> <Gold.Chemscore.Fitness>
9.3854

> <Gold.Chemscore.DG>
-12.2765

> <Gold.Chemscore.ZeroCoef>
-5.4800

> <Gold.Chemscore.Hbond>
0.4728

> <Gold.Chemscore.Metal>
0.0000

> <Gold.Chemscore.Lipo>
84.4290

> <Gold.Chemscore.Internal_Hbond>
0.0000

> <Gold.Chemscore.DEClash>
0.7041

> <Gold.Chemscore.DEInternal>
2.1869

> <Gold.Chemscore.Rot>
1.8207

> <Gold.Chemscore.Internal.Correction>
   9.000000E+99

> <Gold.Chemscore.Hbonds>
donor molecule, donor type, donor heavy atom, donor atom, acceptor molecule, acceptor atom, score
      P1  H  6896  6908       L1    21  0.35
      P1  H 10752 10765       L1    23  0.02

> <Gold.Chemscore.Hbond.Weighted>
-1.5793

> <Gold.Chemscore.Metal.Weighted>
-0.0000

> <Gold.Chemscore.Lipo.Weighted>
-9.8782

> <Gold.Chemscore.Internal_Hbond.Weighted>
0.0000

> <Gold.Chemscore.DEClash.Weighted>
0.7041

> <Gold.Chemscore.DEInternal.Weighted>
2.1869

> <Gold.Chemscore.Rot.Weighted>
4.6610

> <Gold.Chemscore.Internal.Correction.Weighted>
   9.000000E+99

> <Gold.Protein.RotatedTorsions>
[ 6907 6896 6895 6894 ] final   72.31 input  -60.11 | X-H torsion
[ 7974 7965 7964 7962 ] final -178.11 input  175.53 | X-H torsion
[ 8008 7997 7996 7995 ] final   73.98 input   59.86 | X-H torsion
[ 10167 10162 10161 10158 ] final -106.38 input  -65.29 | X-H torsion
[ 10718 10713 10712 10709 ] final -127.80 input   66.30 | X-H torsion
[ 10763 10752 10751 10750 ] final -144.15 input  -60.55 | X-H torsion
[ 11005 11000 10999 10996 ] final   33.92 input  -57.11 | X-H torsion

> <Gold.Protein.ActiveResidues>
 VAL166  LYS551  ARG553  GLY616  TRP617  ASP618  TYR619  PRO620  LYS621  CYS622 
 ASP623  PHE694  ASN695  SER759  ASP760  ASP761  ALA762  ILE779  LEU786  VAL792 
 PHE793  MET794  SER795  GLU796  ALA797  LYS798  CYS799  TRP800  GLU811  SER814 

> <Gold.Protein.RotatedAtoms>
  152.4860  134.4590  159.9598 H   0  0  0  0  0  0  0  0  0  0  0  0  # atno 6907 bound_to 6896
  151.4586  133.3592  159.2813 H   0  0  0  0  0  0  0  0  0  0  0  0  # atno 6908 bound_to 6896
  150.8972  134.8406  159.7395 H   0  0  0  0  0  0  0  0  0  0  0  0  # atno 6909 bound_to 6896
  144.7130  140.0918  143.6421 H   0  0  0  0  0  0  0  0  0  0  0  0  # atno 7974 bound_to 7965
  155.7916  140.3479  155.5352 H   0  0  0  0  0  0  0  0  0  0  0  0  # atno 8008 bound_to 7997
  155.8628  140.0974  157.1622 H   0  0  0  0  0  0  0  0  0  0  0  0  # atno 8009 bound_to 7997
  154.4013  140.1355  156.3969 H   0  0  0  0  0  0  0  0  0  0  0  0  # atno 8010 bound_to 7997
  140.1884  143.3911  152.1226 H   0  0  0  0  0  0  0  0  0  0  0  0  # atno 10167 bound_to 10162
  156.1891  130.6783  151.0401 H   0  0  0  0  0  0  0  0  0  0  0  0  # atno 10718 bound_to 10713
  154.8440  135.3448  154.6301 H   0  0  0  0  0  0  0  0  0  0  0  0  # atno 10763 bound_to 10752
  153.6911  135.6975  153.5094 H   0  0  0  0  0  0  0  0  0  0  0  0  # atno 10764 bound_to 10752
  153.2595  135.4327  155.0834 H   0  0  0  0  0  0  0  0  0  0  0  0  # atno 10765 bound_to 10752
  140.2581  134.3224  155.7867 H   0  0  0  0  0  0  0  0  0  0  0  0  # atno 11005 bound_to 11000
  145.9613  139.2803  143.1154 LP  0  0  0  0  0  0  0  0  0  0  0  0  # atno 17320 bound_to 7965
  145.9217  140.9110  143.0401 LP  0  0  0  0  0  0  0  0  0  0  0  0  # atno 17321 bound_to 7965
  139.5266  144.7110  151.5207 LP  0  0  0  0  0  0  0  0  0  0  0  0  # atno 17342 bound_to 10162
  140.6472  143.8770  150.6749 LP  0  0  0  0  0  0  0  0  0  0  0  0  # atno 17343 bound_to 10162
  157.6917  131.0807  150.7087 LP  0  0  0  0  0  0  0  0  0  0  0  0  # atno 17370 bound_to 10713
  156.7144  130.4661  149.5539 LP  0  0  0  0  0  0  0  0  0  0  0  0  # atno 17371 bound_to 10713
  141.2193  133.7393  156.9144 LP  0  0  0  0  0  0  0  0  0  0  0  0  # atno 17394 bound_to 11000
  140.1491  134.9242  157.2569 LP  0  0  0  0  0  0  0  0  0  0  0  0  # atno 17395 bound_to 11000

$$$$
