#       Name:                AV-unprocessed.smi:2583
#       Creating user name   scv26
#       Creation time:       Fri Mar 27 14:15:15 2020


#       File generated by GOLD software.
#

@<TRIPOS>MOLECULE
AV-unprocessed.smi:2583
    58    60     1
SMALL
NO_CHARGES


@<TRIPOS>ATOM
      1 ****        -5.8904   5.7838  -1.8403 C.3            1 S1                 0.0000
      2 ****        -5.9361   4.3358  -1.3990 C.ar           1 S1                 0.0000
      3 ****        -7.1319   3.7562  -0.9277 C.ar           1 S1                 0.0000
      4 ****        -7.2250   2.4686  -0.5347 N.ar           1 S1                 0.0000
      5 ****        -6.1113   1.7079  -0.5920 C.ar           1 S1                 0.0000
      6 ****        -4.8582   2.1859  -1.0299 C.ar           1 S1                 0.0000
      7 ****        -3.7681   1.2743  -1.0481 N.am           1 S1                 0.0000
      8 ****        -2.4515   1.5448  -1.0438 C.2            1 S1                 0.0000
      9 ****        -1.9548   2.6709  -1.0337 O.2            1 S1                 0.0000
     10 ****        -1.7250   0.4181  -1.0297 N.am           1 S1                 0.0000
     11 ****        -0.2665   0.3624  -0.9940 C.3            1 S1                 0.0000
     12 ****         0.2223  -1.0051  -1.4770 C.3            1 S1                 0.0000
     13 ****         1.7508  -1.1224  -1.3467 C.3            1 S1                 0.0000
     14 ****         2.1979  -0.9475   0.0459 N.3            1 S1                 0.0000
     15 ****         3.6617  -1.1406   0.1699 C.3            1 S1                 0.0000
     16 ****         4.1362  -2.5568  -0.2472 C.3            1 S1                 0.0000
     17 ****         3.6730  -3.6356   0.7485 C.3            1 S1                 0.0000
     18 ****         4.1568  -3.3418   2.1197 N.4            1 S1                 1.0000
     19 ****         3.7970  -4.4038   3.0834 C.3            1 S1                 0.0000
     20 ****         3.7468  -1.9937   2.5840 C.3            1 S1                 0.0000
     21 ****         4.2112  -0.9040   1.6007 C.3            1 S1                 0.0000
     22 ****         1.7866   0.3949   0.4906 C.3            1 S1                 0.0000
     23 ****         0.2611   0.5809   0.4289 C.3            1 S1                 0.0000
     24 ****        -4.7783   3.5342  -1.4548 C.ar           1 S1                 0.0000
     25 ****        -6.8656   6.2610  -1.7387 H              1 S1                 0.0000
     26 ****        -5.5848   5.8517  -2.8846 H              1 S1                 0.0000
     27 ****        -5.1737   6.3405  -1.2360 H              1 S1                 0.0000
     28 ****        -8.0405   4.3375  -0.8689 H              1 S1                 0.0000
     29 ****        -6.2246   0.6827  -0.2706 H              1 S1                 0.0000
     30 ****        -4.0203   0.2989  -0.9828 H              1 S1                 0.0000
     31 ****        -2.2151  -0.4643  -1.0372 H              1 S1                 0.0000
     32 ****         0.1408   1.1310  -1.6540 H              1 S1                 0.0000
     33 ****        -0.2530  -1.8010  -0.9014 H              1 S1                 0.0000
     34 ****        -0.0696  -1.1585  -2.5165 H              1 S1                 0.0000
     35 ****         2.0109  -2.1078  -1.7235 H              1 S1                 0.0000
     36 ****         2.2424  -0.3925  -1.9918 H              1 S1                 0.0000
     37 ****         4.1360  -0.4155  -0.4935 H              1 S1                 0.0000
     38 ****         3.8552  -2.8246  -1.2630 H              1 S1                 0.0000
     39 ****         5.2270  -2.5599  -0.2676 H              1 S1                 0.0000
     40 ****         2.5841  -3.7067   0.7485 H              1 S1                 0.0000
     41 ****         4.0534  -4.6079   0.4328 H              1 S1                 0.0000
     42 ****         2.7146  -4.4837   3.1923 H              1 S1                 0.0000
     43 ****         4.2255  -4.1954   4.0642 H              1 S1                 0.0000
     44 ****         4.1799  -5.3696   2.7523 H              1 S1                 0.0000
     45 ****         2.6628  -1.9581   2.7036 H              1 S1                 0.0000
     46 ****         4.1802  -1.8038   3.5667 H              1 S1                 0.0000
     47 ****         5.3009  -0.9294   1.5568 H              1 S1                 0.0000
     48 ****         3.9905   0.0886   1.9876 H              1 S1                 0.0000
     49 ****         2.0647   0.5654   1.5274 H              1 S1                 0.0000
     50 ****         2.2865   1.1579  -0.1084 H              1 S1                 0.0000
     51 ****         0.0039   1.5824   0.7754 H              1 S1                 0.0000
     52 ****        -0.2178  -0.1163   1.1183 H              1 S1                 0.0000
     53 ****        -3.8630   3.9631  -1.8318 H              1 S1                 0.0000
     54 ****         5.1655  -3.3313   2.0701 H              1 S1                 0.0000
     55 ****        -8.0921   2.0897  -0.2111 LP             1 S1                 0.0000
     56 ****        -2.5454   3.4778  -1.0279 LP             1 S1                 0.0000
     57 ****        -0.9607   2.7788  -1.0312 LP             1 S1                 0.0000
     58 ****         1.7746  -1.6396   0.6307 LP             1 S1                 0.0000
@<TRIPOS>BOND
    1    1    2 1     
    2    1   25 1     
    3    1   26 1     
    4    1   27 1     
    5    2   24 ar    
    6    2    3 ar    
    7    3    4 ar    
    8    3   28 1     
    9    4    5 ar    
   10    5    6 ar    
   11    5   29 1     
   12    6    7 1     
   13    6   24 ar    
   14    7    8 am    
   15    7   30 1     
   16    8    9 2     
   17    8   10 am    
   18   10   11 1     
   19   10   31 1     
   20   11   23 1     
   21   11   12 1     
   22   11   32 1     
   23   12   13 1     
   24   12   33 1     
   25   12   34 1     
   26   13   14 1     
   27   13   35 1     
   28   13   36 1     
   29   14   15 1     
   30   14   22 1     
   31   15   21 1     
   32   15   16 1     
   33   15   37 1     
   34   16   17 1     
   35   16   38 1     
   36   16   39 1     
   37   17   18 1     
   38   17   40 1     
   39   17   41 1     
   40   18   19 1     
   41   18   20 1     
   42   18   54 1     
   43   19   42 1     
   44   19   43 1     
   45   19   44 1     
   46   20   21 1     
   47   20   45 1     
   48   20   46 1     
   49   21   47 1     
   50   21   48 1     
   51   22   23 1     
   52   22   49 1     
   53   22   50 1     
   54   23   51 1     
   55   23   52 1     
   56   24   53 1     
   57    4   55 1     
   58    9   56 1     
   59    9   57 1     
   60   14   58 1     
@<TRIPOS>SUBSTRUCTURE
      1 S1             1
@<TRIPOS>SET
LONE_PAIRS      STATIC     ATOMS    <user>   **** ""
4 55 56 57 58
DONOR_HYDROGENS      STATIC     ATOMS    <user>   **** ""
3 30 31 54
ATOM$BLUE        STATIC     ATOMS    COLORGROUP SYSTEM
4 55 56 57 58
ATOM$RED        STATIC     ATOMS    COLORGROUP SYSTEM
3 30 31 54
