#       Name:                AV-unprocessed.smi:3212
#       Creating user name   scv26
#       Creation time:       Fri Mar 27 18:11:40 2020


#       File generated by GOLD software.
#

@<TRIPOS>MOLECULE
AV-unprocessed.smi:3212
    43    43     1
SMALL
NO_CHARGES


@<TRIPOS>ATOM
      1 ****        -1.5374   3.4316   0.5016 C.3            1 S1                 0.0000
      2 ****        -0.9466   2.0122   0.5257 C.3            1 S1                 0.0000
      3 ****         0.5099   2.0863   0.7455 N.3            1 S1                 0.0000
      4 ****         1.1539   0.7884   0.9155 C.3            1 S1                 0.0000
      5 ****         2.6360   0.9941   1.2582 C.3            1 S1                 0.0000
      6 ****         3.3059  -0.2696   1.4964 N.pl3          1 S1                 0.0000
      7 ****         3.6132  -0.8622   2.7031 C.2            1 S1                 0.0000
      8 ****         4.2347  -2.0464   2.4273 C.2            1 S1                 0.0000
      9 ****         4.2616  -2.0905   1.0051 C.2            1 S1                 0.0000
     10 ****         3.7043  -1.0259   0.4509 N.2            1 S1                 0.0000
     11 ****        -1.3326   1.2336  -0.7443 C.2            1 S1                 0.0000
     12 ****        -1.2400   1.7693  -1.8488 O.2            1 S1                 0.0000
     13 ****        -1.7344  -0.0375  -0.5602 N.am           1 S1                 0.0000
     14 ****        -2.1114  -1.0315  -1.5715 C.3            1 S1                 0.0000
     15 ****        -2.4745  -2.3221  -0.8163 C.3            1 S1                 0.0000
     16 ****        -0.9243  -1.3215  -2.5144 C.3            1 S1                 0.0000
     17 ****        -3.3416  -0.5557  -2.3725 C.3            1 S1                 0.0000
     18 ****        -2.6181   3.4089   0.3547 H              1 S1                 0.0000
     19 ****        -1.1047   4.0355  -0.2975 H              1 S1                 0.0000
     20 ****        -1.3486   3.9488   1.4428 H              1 S1                 0.0000
     21 ****        -1.3884   1.4998   1.3825 H              1 S1                 0.0000
     22 ****         0.7291   2.6725   1.5381 H              1 S1                 0.0000
     23 ****         0.6612   0.2394   1.7194 H              1 S1                 0.0000
     24 ****         1.0710   0.1896   0.0077 H              1 S1                 0.0000
     25 ****         3.1497   1.5151   0.4485 H              1 S1                 0.0000
     26 ****         2.7407   1.6127   2.1506 H              1 S1                 0.0000
     27 ****         3.3651  -0.3983   3.6464 H              1 S1                 0.0000
     28 ****         4.6121  -2.7709   3.1335 H              1 S1                 0.0000
     29 ****         4.6660  -2.8597   0.3636 H              1 S1                 0.0000
     30 ****        -1.7648  -0.3614   0.3955 H              1 S1                 0.0000
     31 ****        -2.7665  -3.1160  -1.5046 H              1 S1                 0.0000
     32 ****        -3.3073  -2.1617  -0.1303 H              1 S1                 0.0000
     33 ****        -1.6319  -2.6911  -0.2301 H              1 S1                 0.0000
     34 ****        -0.0364  -1.6181  -1.9546 H              1 S1                 0.0000
     35 ****        -0.6580  -0.4542  -3.1184 H              1 S1                 0.0000
     36 ****        -1.1609  -2.1306  -3.2063 H              1 S1                 0.0000
     37 ****        -3.6891  -1.3322  -3.0546 H              1 S1                 0.0000
     38 ****        -3.1231   0.3245  -2.9770 H              1 S1                 0.0000
     39 ****        -4.1723  -0.3042  -1.7124 H              1 S1                 0.0000
     40 ****         0.8770   2.4873  -0.0938 LP             1 S1                 0.0000
     41 ****         3.6012  -0.8262  -0.5235 LP             1 S1                 0.0000
     42 ****        -0.9136   2.7117  -1.9216 LP             1 S1                 0.0000
     43 ****        -1.4912   1.2620  -2.6731 LP             1 S1                 0.0000
@<TRIPOS>BOND
    1    1    2 1     
    2    1   18 1     
    3    1   19 1     
    4    1   20 1     
    5    2    3 1     
    6    2   11 1     
    7    2   21 1     
    8    3    4 1     
    9    3   22 1     
   10    4    5 1     
   11    4   23 1     
   12    4   24 1     
   13    5    6 1     
   14    5   25 1     
   15    5   26 1     
   16    6   10 1     
   17    6    7 1     
   18    7    8 2     
   19    7   27 1     
   20    8    9 1     
   21    8   28 1     
   22    9   10 2     
   23    9   29 1     
   24   11   12 2     
   25   11   13 am    
   26   13   14 1     
   27   13   30 1     
   28   14   15 1     
   29   14   16 1     
   30   14   17 1     
   31   15   31 1     
   32   15   32 1     
   33   15   33 1     
   34   16   34 1     
   35   16   35 1     
   36   16   36 1     
   37   17   37 1     
   38   17   38 1     
   39   17   39 1     
   40    3   40 1     
   41   10   41 1     
   42   12   42 1     
   43   12   43 1     
@<TRIPOS>SUBSTRUCTURE
      1 S1             1
@<TRIPOS>SET
LONE_PAIRS      STATIC     ATOMS    <user>   **** ""
4 40 41 42 43
DONOR_HYDROGENS      STATIC     ATOMS    <user>   **** ""
2 22 30
ATOM$BLUE        STATIC     ATOMS    COLORGROUP SYSTEM
4 40 41 42 43
ATOM$RED        STATIC     ATOMS    COLORGROUP SYSTEM
2 22 30
