AV-unprocessed.smi:3276|AV-procd|sdf|12535|dock8
  -GOLD-   2272018453D 1   1.00000     0.00000
 Structure written by MMmdl.
 39 40  0  0  0  0  0  0  0  0  1 V2000
  149.9622  134.5816  155.8859 C   0  0  0  0  0  0  0  0  0  0  0  0
  150.7810  135.7747  155.4416 C   0  0  0  0  0  0  0  0  0  0  0  0
  152.1917  135.7545  155.4665 C   0  0  0  0  0  0  0  0  0  0  0  0
  152.9213  136.8207  155.0733 N   0  0  0  0  0  0  0  0  0  0  0  0
  152.2351  137.9097  154.6553 C   0  0  0  0  0  0  0  0  0  0  0  0
  153.0710  139.1012  154.2234 C   0  0  0  0  0  0  0  0  0  0  0  0
  150.8173  137.9372  154.6295 C   0  0  0  0  0  0  0  0  0  0  0  0
  150.1401  139.0853  154.1886 N   0  0  0  0  0  0  0  0  0  0  0  0
  149.8736  140.1944  155.0972 C   0  0  0  0  0  0  0  0  0  0  0  0
  151.0866  140.5331  155.9758 C   0  0  0  0  0  0  0  0  0  0  0  0
  150.6996  141.5059  156.9309 O   0  0  0  0  0  0  0  0  0  0  0  0
  151.7207  141.7944  157.8718 C   0  0  0  0  0  0  0  0  0  0  0  0
  151.2297  142.8684  158.8524 C   0  0  1  0  0  0  0  0  0  0  0  0
  152.2542  143.3077  159.9027 C   0  0  0  0  0  0  0  0  0  0  0  0
  151.8271  144.7333  160.1692 C   0  0  0  0  0  0  0  0  0  0  0  0
  151.4117  145.1920  158.7753 C   0  0  0  0  0  0  0  0  0  0  0  0
  150.8308  144.0482  158.1579 O   0  0  0  0  0  0  0  0  0  0  0  0
  150.0940  136.8606  155.0242 N   0  0  0  0  0  0  0  0  0  0  0  0
  150.5940  133.7056  156.0354 H   0  0  0  0  0  0  0  0  0  0  0  0
  149.2102  134.3339  155.1361 H   0  0  0  0  0  0  0  0  0  0  0  0
  149.4538  134.8012  156.8250 H   0  0  0  0  0  0  0  0  0  0  0  0
  152.7371  134.8846  155.8018 H   0  0  0  0  0  0  0  0  0  0  0  0
  152.8352  139.9712  154.8370 H   0  0  0  0  0  0  0  0  0  0  0  0
  152.8687  139.3484  153.1809 H   0  0  0  0  0  0  0  0  0  0  0  0
  154.1382  138.8979  154.3215 H   0  0  0  0  0  0  0  0  0  0  0  0
  150.1356  139.2844  153.1987 H   0  0  0  0  0  0  0  0  0  0  0  0
  149.5958  141.0658  154.5038 H   0  0  0  0  0  0  0  0  0  0  0  0
  149.0089  139.9626  155.7197 H   0  0  0  0  0  0  0  0  0  0  0  0
  151.4273  139.6342  156.4913 H   0  0  0  0  0  0  0  0  0  0  0  0
  151.9188  140.8950  155.3700 H   0  0  0  0  0  0  0  0  0  0  0  0
  152.0000  140.8898  158.4140 H   0  0  0  0  0  0  0  0  0  0  0  0
  152.6108  142.1541  157.3536 H   0  0  0  0  0  0  0  0  0  0  0  0
  150.3418  142.4986  159.3670 H   0  0  0  0  0  0  0  0  0  0  0  0
  152.2420  142.6825  160.7959 H   0  0  0  0  0  0  0  0  0  0  0  0
  153.2669  143.2996  159.4975 H   0  0  0  0  0  0  0  0  0  0  0  0
  150.9697  144.7505  160.8436 H   0  0  0  0  0  0  0  0  0  0  0  0
  152.6189  145.3456  160.6017 H   0  0  0  0  0  0  0  0  0  0  0  0
  150.7167  146.0317  158.7976 H   0  0  0  0  0  0  0  0  0  0  0  0
  152.2881  145.4907  158.1987 H   0  0  0  0  0  0  0  0  0  0  0  0
  1  2  1  0  0  0  0
  1 19  1  0  0  0  0
  1 20  1  0  0  0  0
  1 21  1  0  0  0  0
  2 18  1  0  0  0  0
  2  3  2  0  0  0  0
  3  4  1  0  0  0  0
  3 22  1  0  0  0  0
  4  5  2  0  0  0  0
  5  6  1  0  0  0  0
  5  7  1  0  0  0  0
  6 23  1  0  0  0  0
  6 24  1  0  0  0  0
  6 25  1  0  0  0  0
  7  8  1  0  0  0  0
  7 18  2  0  0  0  0
  8  9  1  0  0  0  0
  8 26  1  0  0  0  0
  9 10  1  0  0  0  0
  9 27  1  0  0  0  0
  9 28  1  0  0  0  0
 10 11  1  0  0  0  0
 10 29  1  0  0  0  0
 10 30  1  0  0  0  0
 11 12  1  0  0  0  0
 12 13  1  0  0  0  0
 12 31  1  0  0  0  0
 12 32  1  0  0  0  0
 13 17  1  0  0  0  0
 13 14  1  0  0  0  0
 13 33  1  0  0  0  0
 14 15  1  0  0  0  0
 14 34  1  0  0  0  0
 14 35  1  0  0  0  0
 15 16  1  0  0  0  0
 15 36  1  0  0  0  0
 15 37  1  0  0  0  0
 16 17  1  0  0  0  0
 16 38  1  0  0  0  0
 16 39  1  0  0  0  0
M  END
> <s_m_source_file>
AV-unprocessed.smi

> <i_m_source_file_index>
3276

> <i_lp_mmshare_version>
43012

> <i_f3d_flags>
0

> <s_epik_input>
W0NIM11jMVtjSF1uYyhbQ0gzXSljKG4xKVtOSF1bQ0gyXVtDSDJdT1tDSDJdW0NAQEhdMltDSDJdW0NIMl1bQ0gyXU8y

> <s_epik_cmdline>
J2VwaWtfcHl0aG9uJywgJy1waCcsICc3LjAnLCAnLXRuJywgJzgnLCAnLW1hJywgJzIwMCcsICctbWV0YWxfYmluZGluZycsICctaW1hZScsICc8aW5maWxlLm1hZT4nLCAnLW9tYWUnLCAnPG91dGZpbGUubWFlPic=

> <r_lp_tautomer_probability>
1

> <r_epik_Ionization_Penalty>
0.000506

> <r_epik_Ionization_Penalty_Charging>
0

> <r_epik_Ionization_Penalty_Neutral>
0.000506

> <r_epik_State_Penalty>
-0

> <r_epik_Charging_Adjusted_Penalty>
0

> <i_epik_Tot_Q>
0

> <i_epik_Tot_abs_Q>
0

> <r_epik_Metal_State_Penalty>
-0

> <b_epik_Metal_Only>
0

> <s_lp_Force_Field>
OPLS_2005

> <r_lp_Energy>
26.2022

> <b_lp_Chiralities_Consistent>
1

> <s_lp_Variant>
AV-unprocessed.smi:3276-2

> <Gold.Version>
5.8.1

> <Gold.Id.Protein>
6NUR|6NUR_protein|mol2

> <Gold.PLP.Fitness>
41.2006

> <Gold.PLP.PLP>
-36.8893

> <Gold.PLP.part.hbond>
-2.0000

> <Gold.PLP.part.metal>
0.0000

> <Gold.PLP.part.buried>
-6.1395

> <Gold.PLP.part.nonpolar>
-29.4470

> <Gold.PLP.part.repulsive>
0.9829

> <Gold.PLP.ligand.clash>
0.0000

> <Gold.PLP.ligand.torsion>
0.8730

> <Gold.PLP.Chemscore.Hbond>
2.0000

> <Gold.PLP.Chemscore.CHOScore>
0.0000

> <Gold.PLP.Chemscore.Metal>
0.0000

> <Gold.Chemscore.Hbonds>
donor molecule, donor type, donor heavy atom, donor atom, acceptor molecule, acceptor atom, score
      L1  H     8    26       P1  7957  0.50

> <Gold.PLP.Chemscore.Internal.Correction>
0.0573

> <Gold.Rescore>
     Score         DG    S(hbond)    S(metal)    S(lipo)     H(rot)  DE(clash)    DE(int)     intcor
     16.60     -18.72       1.91        0.00      95.43       1.68       1.07       1.06       ----

> <Gold.Chemscore.Fitness>
16.5972

> <Gold.Chemscore.DG>
-18.7218

> <Gold.Chemscore.ZeroCoef>
-5.4800

> <Gold.Chemscore.Hbond>
1.9107

> <Gold.Chemscore.Metal>
0.0000

> <Gold.Chemscore.Lipo>
95.4337

> <Gold.Chemscore.Internal_Hbond>
0.0000

> <Gold.Chemscore.DEClash>
1.0678

> <Gold.Chemscore.DEInternal>
1.0568

> <Gold.Chemscore.Rot>
1.6820

> <Gold.Chemscore.Internal.Correction>
   9.000000E+99

> <Gold.Chemscore.Hbonds>
donor molecule, donor type, donor heavy atom, donor atom, acceptor molecule, acceptor atom, score
      L1  H     8    26       P1  7957  0.48

> <Gold.Chemscore.Hbond.Weighted>
-6.3818

> <Gold.Chemscore.Metal.Weighted>
-0.0000

> <Gold.Chemscore.Lipo.Weighted>
-11.1657

> <Gold.Chemscore.Internal_Hbond.Weighted>
0.0000

> <Gold.Chemscore.DEClash.Weighted>
1.0678

> <Gold.Chemscore.DEInternal.Weighted>
1.0568

> <Gold.Chemscore.Rot.Weighted>
4.3058

> <Gold.Chemscore.Internal.Correction.Weighted>
   9.000000E+99

> <Gold.Protein.RotatedTorsions>
[ 6907 6896 6895 6894 ] final -152.54 input  -60.11 | X-H torsion
[ 7974 7965 7964 7962 ] final  102.27 input  175.53 | X-H torsion
[ 8008 7997 7996 7995 ] final   68.52 input   59.86 | X-H torsion
[ 10167 10162 10161 10158 ] final   55.27 input  -65.29 | X-H torsion
[ 10718 10713 10712 10709 ] final  -18.59 input   66.30 | X-H torsion
[ 10763 10752 10751 10750 ] final   60.56 input  -60.55 | X-H torsion
[ 11005 11000 10999 10996 ] final  -47.43 input  -57.11 | X-H torsion

> <Gold.Protein.ActiveResidues>
 VAL166  LYS551  ARG553  GLY616  TRP617  ASP618  TYR619  PRO620  LYS621  CYS622 
 ASP623  PHE694  ASN695  SER759  ASP760  ASP761  ALA762  ILE779  LEU786  VAL792 
 PHE793  MET794  SER795  GLU796  ALA797  LYS798  CYS799  TRP800  GLU811  SER814 

> <Gold.Protein.RotatedAtoms>
  151.2294  133.4459  159.2603 H   0  0  0  0  0  0  0  0  0  0  0  0  # atno 6907 bound_to 6896
  151.0809  134.9858  159.8366 H   0  0  0  0  0  0  0  0  0  0  0  0  # atno 6908 bound_to 6896
  152.5424  134.2233  159.8849 H   0  0  0  0  0  0  0  0  0  0  0  0  # atno 6909 bound_to 6896
  145.3614  139.2417  143.3505 H   0  0  0  0  0  0  0  0  0  0  0  0  # atno 7974 bound_to 7965
  155.7095  140.3494  155.4968 H   0  0  0  0  0  0  0  0  0  0  0  0  # atno 8008 bound_to 7997
  155.9368  140.1094  157.1110 H   0  0  0  0  0  0  0  0  0  0  0  0  # atno 8009 bound_to 7997
  154.4095  140.1220  156.4861 H   0  0  0  0  0  0  0  0  0  0  0  0  # atno 8010 bound_to 7997
  140.2212  144.3786  150.6450 H   0  0  0  0  0  0  0  0  0  0  0  0  # atno 10167 bound_to 10162
  156.5575  130.4717  149.6422 H   0  0  0  0  0  0  0  0  0  0  0  0  # atno 10718 bound_to 10713
  152.9924  135.5532  154.5893 H   0  0  0  0  0  0  0  0  0  0  0  0  # atno 10763 bound_to 10752
  154.5258  135.2810  155.1225 H   0  0  0  0  0  0  0  0  0  0  0  0  # atno 10764 bound_to 10752
  154.2560  135.6390  153.5310 H   0  0  0  0  0  0  0  0  0  0  0  0  # atno 10765 bound_to 10752
  141.0640  133.6700  156.3296 H   0  0  0  0  0  0  0  0  0  0  0  0  # atno 11005 bound_to 11000
  146.2926  140.4248  142.8734 LP  0  0  0  0  0  0  0  0  0  0  0  0  # atno 17320 bound_to 7965
  144.8644  140.7185  143.6087 LP  0  0  0  0  0  0  0  0  0  0  0  0  # atno 17321 bound_to 7965
  140.6253  143.2180  151.6609 LP  0  0  0  0  0  0  0  0  0  0  0  0  # atno 17342 bound_to 10162
  139.5143  144.3414  152.0736 LP  0  0  0  0  0  0  0  0  0  0  0  0  # atno 17343 bound_to 10162
  156.2829  130.7081  151.1910 LP  0  0  0  0  0  0  0  0  0  0  0  0  # atno 17370 bound_to 10713
  157.7375  131.0551  150.5350 LP  0  0  0  0  0  0  0  0  0  0  0  0  # atno 17371 bound_to 10713
  140.5811  134.5745  157.5479 LP  0  0  0  0  0  0  0  0  0  0  0  0  # atno 17394 bound_to 11000
  139.9459  134.7703  156.0564 LP  0  0  0  0  0  0  0  0  0  0  0  0  # atno 17395 bound_to 11000

$$$$
