AV-unprocessed.smi:3158|AV-procd|sdf|12046|dock8
  -GOLD-   2272017473D 1   1.00000     0.00000
 Structure written by MMmdl.
 39 39  0  0  0  0  0  0  0  0  1 V2000
  147.8413  140.8331  153.6097 C   0  0  0  0  0  0  0  0  0  0  0  0
  148.9680  140.3423  154.5308 C   0  0  0  0  0  0  0  0  0  0  0  0
  149.6009  139.0050  154.0864 C   0  0  1  0  0  0  0  0  0  0  0  0
  150.7594  138.5699  155.0019 C   0  0  0  0  0  0  0  0  0  0  0  0
  148.6149  137.9340  153.9208 N   0  0  0  0  0  0  0  0  0  0  0  0
  147.7190  137.5017  154.8250 C   0  0  0  0  0  0  0  0  0  0  0  0
  147.6083  137.9731  155.9571 O   0  0  0  0  0  0  0  0  0  0  0  0
  146.8246  136.3286  154.3921 C   0  0  2  0  0  0  0  0  0  0  0  0
  145.8548  135.9479  155.5217 C   0  0  0  0  0  0  0  0  0  0  0  0
  147.5913  135.1423  153.9731 N   0  0  0  0  0  0  0  0  0  0  0  0
  146.7953  134.1089  153.3170 C   0  0  0  0  0  0  0  0  0  0  0  0
  146.1925  134.6541  152.0122 C   0  0  0  0  0  0  0  0  0  0  0  0
  145.4583  133.6355  151.2819 N   0  0  0  0  0  0  0  0  0  0  0  0
  145.9107  132.4125  150.8329 C   0  0  0  0  0  0  0  0  0  0  0  0
  144.8635  131.7951  150.2108 C   0  0  0  0  0  0  0  0  0  0  0  0
  143.7996  132.7324  150.3306 C   0  0  0  0  0  0  0  0  0  0  0  0
  144.1586  133.8327  150.9720 N   0  0  0  0  0  0  0  0  0  0  0  0
  147.4728  141.8058  153.9362 H   0  0  0  0  0  0  0  0  0  0  0  0
  146.9948  140.1459  153.6091 H   0  0  0  0  0  0  0  0  0  0  0  0
  148.1906  140.9380  152.5822 H   0  0  0  0  0  0  0  0  0  0  0  0
  149.7457  141.1062  154.5613 H   0  0  0  0  0  0  0  0  0  0  0  0
  148.5910  140.2645  155.5510 H   0  0  0  0  0  0  0  0  0  0  0  0
  150.0244  139.1618  153.0937 H   0  0  0  0  0  0  0  0  0  0  0  0
  151.5493  139.3214  155.0125 H   0  0  0  0  0  0  0  0  0  0  0  0
  151.2016  137.6340  154.6586 H   0  0  0  0  0  0  0  0  0  0  0  0
  150.4325  138.4261  156.0319 H   0  0  0  0  0  0  0  0  0  0  0  0
  148.6186  137.4675  153.0253 H   0  0  0  0  0  0  0  0  0  0  0  0
  146.2217  136.6531  153.5419 H   0  0  0  0  0  0  0  0  0  0  0  0
  145.2628  136.8064  155.8417 H   0  0  0  0  0  0  0  0  0  0  0  0
  146.3840  135.5640  156.3951 H   0  0  0  0  0  0  0  0  0  0  0  0
  145.1578  135.1761  155.1938 H   0  0  0  0  0  0  0  0  0  0  0  0
  148.3742  135.3947  153.3858 H   0  0  0  0  0  0  0  0  0  0  0  0
  147.4346  133.2531  153.0975 H   0  0  0  0  0  0  0  0  0  0  0  0
  145.9906  133.7533  153.9612 H   0  0  0  0  0  0  0  0  0  0  0  0
  145.5383  135.5050  152.2105 H   0  0  0  0  0  0  0  0  0  0  0  0
  146.9897  135.0200  151.3643 H   0  0  0  0  0  0  0  0  0  0  0  0
  146.9273  132.0862  150.9954 H   0  0  0  0  0  0  0  0  0  0  0  0
  144.8581  130.8223  149.7422 H   0  0  0  0  0  0  0  0  0  0  0  0
  142.7839  132.6463  149.9734 H   0  0  0  0  0  0  0  0  0  0  0  0
  1  2  1  0  0  0  0
  1 18  1  0  0  0  0
  1 19  1  0  0  0  0
  1 20  1  0  0  0  0
  2  3  1  0  0  0  0
  2 21  1  0  0  0  0
  2 22  1  0  0  0  0
  3  4  1  0  0  0  0
  3  5  1  0  0  0  0
  3 23  1  0  0  0  0
  4 24  1  0  0  0  0
  4 25  1  0  0  0  0
  4 26  1  0  0  0  0
  5  6  1  0  0  0  0
  5 27  1  0  0  0  0
  6  7  2  0  0  0  0
  6  8  1  0  0  0  0
  8  9  1  0  0  0  0
  8 10  1  0  0  0  0
  8 28  1  0  0  0  0
  9 29  1  0  0  0  0
  9 30  1  0  0  0  0
  9 31  1  0  0  0  0
 10 11  1  0  0  0  0
 10 32  1  0  0  0  0
 11 12  1  0  0  0  0
 11 33  1  0  0  0  0
 11 34  1  0  0  0  0
 12 13  1  0  0  0  0
 12 35  1  0  0  0  0
 12 36  1  0  0  0  0
 13 17  1  0  0  0  0
 13 14  1  0  0  0  0
 14 15  2  0  0  0  0
 14 37  1  0  0  0  0
 15 16  1  0  0  0  0
 15 38  1  0  0  0  0
 16 17  2  0  0  0  0
 16 39  1  0  0  0  0
M  END
> <s_m_source_file>
AV-unprocessed.smi

> <i_m_source_file_index>
3158

> <i_lp_mmshare_version>
43012

> <i_f3d_flags>
0

> <s_epik_input>
W0NIM11bQ0gyXVtDQEhdKFtDSDNdKVtOSF1DKD1PKVtDQEhdKFtDSDNdKVtOSF1bQ0gyXVtDSDJdbjFbY0hdW2NIXVtjSF1uMQ==

> <s_epik_cmdline>
J2VwaWtfcHl0aG9uJywgJy1waCcsICc3LjAnLCAnLXRuJywgJzgnLCAnLW1hJywgJzIwMCcsICctbWV0YWxfYmluZGluZycsICctaW1hZScsICc8aW5maWxlLm1hZT4nLCAnLW9tYWUnLCAnPG91dGZpbGUubWFlPic=

> <r_lp_tautomer_probability>
1

> <r_epik_Ionization_Penalty>
0.724013

> <r_epik_Ionization_Penalty_Charging>
0

> <r_epik_Ionization_Penalty_Neutral>
0.724013

> <r_epik_State_Penalty>
0.74758

> <r_epik_Charging_Adjusted_Penalty>
0.74758

> <i_epik_Tot_Q>
0

> <i_epik_Tot_abs_Q>
0

> <r_epik_Metal_State_Penalty>
0.746846

> <b_epik_Metal_Only>
0

> <s_lp_Force_Field>
OPLS_2005

> <r_lp_Energy>
6.38515

> <b_lp_Chiralities_Consistent>
1

> <s_lp_Variant>
AV-unprocessed.smi:3158-6

> <Gold.Version>
5.8.1

> <Gold.Id.Protein>
6NUR|6NUR_protein|mol2

> <Gold.PLP.Fitness>
38.4966

> <Gold.PLP.PLP>
-26.7304

> <Gold.PLP.part.hbond>
-2.0000

> <Gold.PLP.part.metal>
0.0000

> <Gold.PLP.part.buried>
-1.8960

> <Gold.PLP.part.nonpolar>
-23.0349

> <Gold.PLP.part.repulsive>
0.1771

> <Gold.PLP.ligand.clash>
0.0000

> <Gold.PLP.ligand.torsion>
0.1695

> <Gold.PLP.Chemscore.Hbond>
1.9920

> <Gold.PLP.Chemscore.CHOScore>
2.0000

> <Gold.PLP.Chemscore.Metal>
0.0000

> <Gold.Chemscore.Hbonds>
donor molecule, donor type, donor heavy atom, donor atom, acceptor molecule, acceptor atom, score
      L1  H     5    27       P1  7948  1.00
      L1  H    10    32       P1  7948  0.96
      L1  C    14    37       P1 10747  1.00
      L1  C    16    39       P1 10186  0.97

> <Gold.PLP.Chemscore.Internal.Correction>
0.1292

> <Gold.Rescore>
     Score         DG    S(hbond)    S(metal)    S(lipo)     H(rot)  DE(clash)    DE(int)     intcor
     14.27     -14.52       1.96        0.00      67.81       2.12       0.13       0.12       ----

> <Gold.Chemscore.Fitness>
14.2684

> <Gold.Chemscore.DG>
-14.5201

> <Gold.Chemscore.ZeroCoef>
-5.4800

> <Gold.Chemscore.Hbond>
1.9587

> <Gold.Chemscore.Metal>
0.0000

> <Gold.Chemscore.Lipo>
67.8123

> <Gold.Chemscore.Internal_Hbond>
0.0000

> <Gold.Chemscore.DEClash>
0.1279

> <Gold.Chemscore.DEInternal>
0.1238

> <Gold.Chemscore.Rot>
2.1234

> <Gold.Chemscore.Internal.Correction>
   9.000000E+99

> <Gold.Chemscore.Hbonds>
donor molecule, donor type, donor heavy atom, donor atom, acceptor molecule, acceptor atom, score
      L1  H     5    27       P1  7948  0.99
      L1  H    10    32       P1  7948  0.91

> <Gold.Chemscore.Hbond.Weighted>
-6.5419

> <Gold.Chemscore.Metal.Weighted>
-0.0000

> <Gold.Chemscore.Lipo.Weighted>
-7.9340

> <Gold.Chemscore.Internal_Hbond.Weighted>
0.0000

> <Gold.Chemscore.DEClash.Weighted>
0.1279

> <Gold.Chemscore.DEInternal.Weighted>
0.1238

> <Gold.Chemscore.Rot.Weighted>
5.4359

> <Gold.Chemscore.Internal.Correction.Weighted>
   9.000000E+99

> <Gold.Protein.RotatedTorsions>
[ 6907 6896 6895 6894 ] final  -84.75 input  -60.11 | X-H torsion
[ 7974 7965 7964 7962 ] final   53.71 input  175.53 | X-H torsion
[ 8008 7997 7996 7995 ] final   13.91 input   59.86 | X-H torsion
[ 10167 10162 10161 10158 ] final  143.79 input  -65.29 | X-H torsion
[ 10718 10713 10712 10709 ] final -138.34 input   66.30 | X-H torsion
[ 10763 10752 10751 10750 ] final -120.77 input  -60.55 | X-H torsion
[ 11005 11000 10999 10996 ] final -178.08 input  -57.11 | X-H torsion

> <Gold.Protein.ActiveResidues>
 VAL166  LYS551  ARG553  GLY616  TRP617  ASP618  TYR619  PRO620  LYS621  CYS622 
 ASP623  PHE694  ASN695  SER759  ASP760  ASP761  ALA762  ILE779  LEU786  VAL792 
 PHE793  MET794  SER795  GLU796  ALA797  LYS798  CYS799  TRP800  GLU811  SER814 

> <Gold.Protein.RotatedAtoms>
  150.6874  134.3311  159.4827 H   0  0  0  0  0  0  0  0  0  0  0  0  # atno 6907 bound_to 6896
  152.1175  134.9227  160.0573 H   0  0  0  0  0  0  0  0  0  0  0  0  # atno 6908 bound_to 6896
  152.0446  133.3957  159.4388 H   0  0  0  0  0  0  0  0  0  0  0  0  # atno 6909 bound_to 6896
  145.9684  139.4125  143.0205 H   0  0  0  0  0  0  0  0  0  0  0  0  # atno 7974 bound_to 7965
  154.8410  140.2914  155.5659 H   0  0  0  0  0  0  0  0  0  0  0  0  # atno 8008 bound_to 7997
  156.3011  140.2514  156.3284 H   0  0  0  0  0  0  0  0  0  0  0  0  # atno 8009 bound_to 7997
  154.9125  140.0388  157.1943 H   0  0  0  0  0  0  0  0  0  0  0  0  # atno 8010 bound_to 7997
  139.4961  144.6016  151.6468 H   0  0  0  0  0  0  0  0  0  0  0  0  # atno 10167 bound_to 10162
  156.2982  130.7414  151.1458 H   0  0  0  0  0  0  0  0  0  0  0  0  # atno 10718 bound_to 10713
  154.8652  135.4191  154.2512 H   0  0  0  0  0  0  0  0  0  0  0  0  # atno 10763 bound_to 10752
  153.3458  135.6996  153.6834 H   0  0  0  0  0  0  0  0  0  0  0  0  # atno 10764 bound_to 10752
  153.5794  135.3576  155.2842 H   0  0  0  0  0  0  0  0  0  0  0  0  # atno 10765 bound_to 10752
  140.4338  134.6494  157.4725 H   0  0  0  0  0  0  0  0  0  0  0  0  # atno 11005 bound_to 11000
  145.7941  140.9801  143.1033 LP  0  0  0  0  0  0  0  0  0  0  0  0  # atno 17320 bound_to 7965
  144.6831  139.9720  143.7482 LP  0  0  0  0  0  0  0  0  0  0  0  0  # atno 17321 bound_to 7965
  140.5668  144.0177  150.6196 LP  0  0  0  0  0  0  0  0  0  0  0  0  # atno 17342 bound_to 10162
  140.3281  143.3095  152.0716 LP  0  0  0  0  0  0  0  0  0  0  0  0  # atno 17343 bound_to 10162
  157.7361  131.0566  150.5433 LP  0  0  0  0  0  0  0  0  0  0  0  0  # atno 17370 bound_to 10713
  156.5557  130.4243  149.6086 LP  0  0  0  0  0  0  0  0  0  0  0  0  # atno 17371 bound_to 10713
  140.0116  134.6682  155.9372 LP  0  0  0  0  0  0  0  0  0  0  0  0  # atno 17394 bound_to 11000
  141.1734  133.6538  156.4738 LP  0  0  0  0  0  0  0  0  0  0  0  0  # atno 17395 bound_to 11000

$$$$
