#       Name:                AV-unprocessed.smi:3100
#       Creating user name   scv26
#       Creation time:       Fri Mar 27 17:18:04 2020


#       File generated by GOLD software.
#

@<TRIPOS>MOLECULE
AV-unprocessed.smi:3100
    34    35     1
SMALL
NO_CHARGES


@<TRIPOS>ATOM
      1 ****        -3.0777   2.8050   0.3848 C.3            1 S1                 0.0000
      2 ****        -2.9056   1.3034   0.1343 C.3            1 S1                 0.0000
      3 ****        -2.7867   0.9262  -1.3378 C.3            1 S1                 0.0000
      4 ****        -2.1451  -0.4438  -1.2510 C.3            1 S1                 0.0000
      5 ****        -1.2785  -0.3552   0.0182 C.3            1 S1                 0.0000
      6 ****         0.2257  -0.2614  -0.2640 C.2            1 S1                 0.0000
      7 ****         0.6348   0.4694  -1.1672 O.2            1 S1                 0.0000
      8 ****         1.0160  -1.0010   0.5358 N.am           1 S1                 0.0000
      9 ****         2.4298  -1.1248   0.4988 C.ar           1 S1                 0.0000
     10 ****         2.9984  -1.9755   1.4760 C.ar           1 S1                 0.0000
     11 ****         4.3288  -2.1970   1.5657 N.ar           1 S1                 0.0000
     12 ****         5.1088  -1.5598   0.6666 C.ar           1 S1                 0.0000
     13 ****         4.5604  -0.7092  -0.3139 C.ar           1 S1                 0.0000
     14 ****         3.2298  -0.4929  -0.3980 N.ar           1 S1                 0.0000
     15 ****        -1.6800   0.8417   0.6836 O.3            1 S1                 0.0000
     16 ****        -4.0007   3.1730  -0.0641 H              1 S1                 0.0000
     17 ****        -2.2486   3.3738  -0.0372 H              1 S1                 0.0000
     18 ****        -3.1179   3.0188   1.4529 H              1 S1                 0.0000
     19 ****        -3.7245   0.7476   0.5943 H              1 S1                 0.0000
     20 ****        -3.7457   0.9177  -1.8565 H              1 S1                 0.0000
     21 ****        -2.1208   1.6169  -1.8575 H              1 S1                 0.0000
     22 ****        -2.9132  -1.2067  -1.1178 H              1 S1                 0.0000
     23 ****        -1.5890  -0.6967  -2.1551 H              1 S1                 0.0000
     24 ****        -1.4874  -1.2097   0.6641 H              1 S1                 0.0000
     25 ****         0.5489  -1.5405   1.2501 H              1 S1                 0.0000
     26 ****         2.3787  -2.4884   2.1973 H              1 S1                 0.0000
     27 ****         6.1736  -1.7295   0.7282 H              1 S1                 0.0000
     28 ****         5.1889  -0.2023  -1.0312 H              1 S1                 0.0000
     29 ****        -0.0135   0.9994  -1.7139 LP             1 S1                 0.0000
     30 ****         1.6152   0.5328  -1.3537 LP             1 S1                 0.0000
     31 ****         4.7153  -2.8016   2.2621 LP             1 S1                 0.0000
     32 ****         2.8471   0.1117  -1.0966 LP             1 S1                 0.0000
     33 ****        -1.8013   0.6559   1.6587 LP             1 S1                 0.0000
     34 ****        -0.9764   1.5419   0.5628 LP             1 S1                 0.0000
@<TRIPOS>BOND
    1    1    2 1     
    2    1   16 1     
    3    1   17 1     
    4    1   18 1     
    5    2   15 1     
    6    2    3 1     
    7    2   19 1     
    8    3    4 1     
    9    3   20 1     
   10    3   21 1     
   11    4    5 1     
   12    4   22 1     
   13    4   23 1     
   14    5    6 1     
   15    5   15 1     
   16    5   24 1     
   17    6    7 2     
   18    6    8 am    
   19    8    9 1     
   20    8   25 1     
   21    9   14 ar    
   22    9   10 ar    
   23   10   11 ar    
   24   10   26 1     
   25   11   12 ar    
   26   12   13 ar    
   27   12   27 1     
   28   13   14 ar    
   29   13   28 1     
   30    7   29 1     
   31    7   30 1     
   32   11   31 1     
   33   14   32 1     
   34   15   33 1     
   35   15   34 1     
@<TRIPOS>SUBSTRUCTURE
      1 S1             1
@<TRIPOS>SET
LONE_PAIRS      STATIC     ATOMS    <user>   **** ""
6 29 30 31 32 33 34
DONOR_HYDROGENS      STATIC     ATOMS    <user>   **** ""
1 25
ATOM$BLUE        STATIC     ATOMS    COLORGROUP SYSTEM
6 29 30 31 32 33 34
ATOM$RED        STATIC     ATOMS    COLORGROUP SYSTEM
1 25
