AV-unprocessed.smi:663|AV-procd|sdf|3247|dock6
  -GOLD-   22720 0193D 1   1.00000     0.00000
 Structure written by MMmdl.
 30 31  0  0  0  0  0  0  0  0  1 V2000
  150.0048  138.4495  153.1309 N   0  0  0  0  0  0  0  0  0  0  0  0
  150.6378  138.5687  154.3006 C   0  0  0  0  0  0  0  0  0  0  0  0
  151.3335  139.5465  154.5683 O   0  0  0  0  0  0  0  0  0  0  0  0
  150.4821  137.4134  155.2995 C   0  0  0  0  0  0  0  0  0  0  0  0
  149.0147  137.0524  155.6305 C   0  0  2  0  0  0  0  0  0  0  0  0
  148.3328  136.5421  154.4416 N   0  0  0  0  0  0  0  0  0  0  0  0
  147.0521  136.1496  154.3854 C   0  0  0  0  0  0  0  0  0  0  0  0
  146.2845  136.1924  155.3466 O   0  0  0  0  0  0  0  0  0  0  0  0
  146.7351  135.7092  153.1573 N   0  0  0  0  0  0  0  0  0  0  0  0
  145.4843  135.2231  152.7016 C   0  0  0  0  0  0  0  0  0  0  0  0
  144.4943  135.1016  153.5938 N   0  0  0  0  0  0  0  0  0  0  0  0
  143.3287  134.6147  153.0151 N   0  0  0  0  0  0  0  0  0  0  0  0
  143.4862  134.3863  151.7078 C   0  0  0  0  0  0  0  0  0  0  0  0
  145.0740  134.7434  151.0523 S   0  0  0  0  0  0  0  0  0  0  0  0
  148.3018  138.2439  156.2493 C   0  0  0  0  0  0  0  0  0  0  0  0
  148.6920  138.7598  157.6144 C   0  0  0  0  0  0  0  0  0  0  0  0
  147.3572  138.0792  157.4166 C   0  0  0  0  0  0  0  0  0  0  0  0
  150.0789  139.1866  152.4445 H   0  0  0  0  0  0  0  0  0  0  0  0
  149.4539  137.6262  152.9352 H   0  0  0  0  0  0  0  0  0  0  0  0
  150.9898  136.5344  154.8992 H   0  0  0  0  0  0  0  0  0  0  0  0
  151.0159  137.6754  156.2141 H   0  0  0  0  0  0  0  0  0  0  0  0
  149.0380  136.2588  156.3807 H   0  0  0  0  0  0  0  0  0  0  0  0
  148.8878  136.4651  153.6017 H   0  0  0  0  0  0  0  0  0  0  0  0
  147.4726  135.7223  152.4681 H   0  0  0  0  0  0  0  0  0  0  0  0
  142.6609  134.0049  151.1254 H   0  0  0  0  0  0  0  0  0  0  0  0
  148.0285  139.0085  155.5242 H   0  0  0  0  0  0  0  0  0  0  0  0
  149.4558  138.2135  158.1644 H   0  0  0  0  0  0  0  0  0  0  0  0
  148.6907  139.8376  157.7632 H   0  0  0  0  0  0  0  0  0  0  0  0
  146.4656  138.7025  157.4309 H   0  0  0  0  0  0  0  0  0  0  0  0
  147.2367  137.0838  157.8394 H   0  0  0  0  0  0  0  0  0  0  0  0
  1  2  1  0  0  0  0
  1 18  1  0  0  0  0
  1 19  1  0  0  0  0
  2  3  2  0  0  0  0
  2  4  1  0  0  0  0
  4  5  1  0  0  0  0
  4 20  1  0  0  0  0
  4 21  1  0  0  0  0
  5  6  1  0  0  0  0
  5 15  1  0  0  0  0
  5 22  1  0  0  0  0
  6  7  1  0  0  0  0
  6 23  1  0  0  0  0
  7  8  2  0  0  0  0
  7  9  1  0  0  0  0
  9 10  1  0  0  0  0
  9 24  1  0  0  0  0
 10 14  1  0  0  0  0
 10 11  2  0  0  0  0
 11 12  1  0  0  0  0
 12 13  2  0  0  0  0
 13 14  1  0  0  0  0
 13 25  1  0  0  0  0
 15 17  1  0  0  0  0
 15 16  1  0  0  0  0
 15 26  1  0  0  0  0
 16 17  1  0  0  0  0
 16 27  1  0  0  0  0
 16 28  1  0  0  0  0
 17 29  1  0  0  0  0
 17 30  1  0  0  0  0
M  END
> <s_m_source_file>
AV-unprocessed.smi

> <i_m_source_file_index>
663

> <i_lp_mmshare_version>
43012

> <i_f3d_flags>
0

> <s_epik_input>
W05IMl1DKD1PKVtDSDJdW0NAQEhdKFtDSF0xW0NIMl1bQ0gyXTEpW05IXUMoPU8pW05IXWMybm5bY0hdczI=

> <s_epik_cmdline>
J2VwaWtfcHl0aG9uJywgJy1waCcsICc3LjAnLCAnLXRuJywgJzgnLCAnLW1hJywgJzIwMCcsICctbWV0YWxfYmluZGluZycsICctaW1hZScsICc8aW5maWxlLm1hZT4nLCAnLW9tYWUnLCAnPG91dGZpbGUubWFlPic=

> <r_lp_tautomer_probability>
1

> <r_epik_Ionization_Penalty>
0.000388224

> <r_epik_Ionization_Penalty_Charging>
0

> <r_epik_Ionization_Penalty_Neutral>
0.000388224

> <r_epik_State_Penalty>
-0

> <r_epik_Charging_Adjusted_Penalty>
0

> <i_epik_Tot_Q>
0

> <i_epik_Tot_abs_Q>
0

> <r_epik_Metal_State_Penalty>
0.191941

> <b_epik_Metal_Only>
0

> <s_lp_Force_Field>
OPLS_2005

> <r_lp_Energy>
6.58878

> <b_lp_Chiralities_Consistent>
1

> <s_lp_Variant>
AV-unprocessed.smi:663-1

> <Gold.Version>
5.8.1

> <Gold.Id.Protein>
6NUR|6NUR_protein|mol2

> <Gold.PLP.Fitness>
35.6085

> <Gold.PLP.PLP>
-17.8749

> <Gold.PLP.part.hbond>
-5.1208

> <Gold.PLP.part.metal>
0.0000

> <Gold.PLP.part.buried>
-1.9823

> <Gold.PLP.part.nonpolar>
-9.9659

> <Gold.PLP.part.repulsive>
0.4015

> <Gold.PLP.ligand.clash>
0.0000

> <Gold.PLP.ligand.torsion>
0.6471

> <Gold.PLP.Chemscore.Hbond>
4.9760

> <Gold.PLP.Chemscore.CHOScore>
1.0000

> <Gold.PLP.Chemscore.Metal>
0.0000

> <Gold.Chemscore.Hbonds>
donor molecule, donor type, donor heavy atom, donor atom, acceptor molecule, acceptor atom, score
      L1  H     1    18       P1  7957  1.00
      L1  H     1    19       P1  7948  1.00
      L1  H     6    23       P1  7948  0.99
      L1  H     9    24       P1  7948  1.00
      P1  H  7989  7998       L1     3  1.00
      L1  C    13    25       P1 10186  1.00

> <Gold.PLP.Chemscore.Internal.Correction>
1.1000

> <Gold.Rescore>
     Score         DG    S(hbond)    S(metal)    S(lipo)     H(rot)  DE(clash)    DE(int)     intcor
     13.13     -16.89       4.70        0.00      18.53       2.52       0.23       3.53       ----

> <Gold.Chemscore.Fitness>
13.1348

> <Gold.Chemscore.DG>
-16.8895

> <Gold.Chemscore.ZeroCoef>
-5.4800

> <Gold.Chemscore.Hbond>
4.6999

> <Gold.Chemscore.Metal>
0.0000

> <Gold.Chemscore.Lipo>
18.5281

> <Gold.Chemscore.Internal_Hbond>
0.0000

> <Gold.Chemscore.DEClash>
0.2276

> <Gold.Chemscore.DEInternal>
3.5271

> <Gold.Chemscore.Rot>
2.5218

> <Gold.Chemscore.Internal.Correction>
   9.000000E+99

> <Gold.Chemscore.Hbonds>
donor molecule, donor type, donor heavy atom, donor atom, acceptor molecule, acceptor atom, score
      L1  H     1    18       P1  7957  0.58
      L1  H     1    19       P1  7948  0.83
      L1  H     6    23       P1  7948  0.94
      L1  H     9    24       P1  7948  0.98
      P1  H  7989  7998       L1     3  1.00

> <Gold.Chemscore.Hbond.Weighted>
-15.6976

> <Gold.Chemscore.Metal.Weighted>
-0.0000

> <Gold.Chemscore.Lipo.Weighted>
-2.1678

> <Gold.Chemscore.Internal_Hbond.Weighted>
0.0000

> <Gold.Chemscore.DEClash.Weighted>
0.2276

> <Gold.Chemscore.DEInternal.Weighted>
3.5271

> <Gold.Chemscore.Rot.Weighted>
6.4559

> <Gold.Chemscore.Internal.Correction.Weighted>
   9.000000E+99

> <Gold.Protein.RotatedTorsions>
[ 6907 6896 6895 6894 ] final  -29.76 input  -60.11 | X-H torsion
[ 7974 7965 7964 7962 ] final  -57.51 input  175.53 | X-H torsion
[ 8008 7997 7996 7995 ] final  116.14 input   59.86 | X-H torsion
[ 10167 10162 10161 10158 ] final   47.05 input  -65.29 | X-H torsion
[ 10718 10713 10712 10709 ] final   -7.80 input   66.30 | X-H torsion
[ 10763 10752 10751 10750 ] final  -89.01 input  -60.55 | X-H torsion
[ 11005 11000 10999 10996 ] final  -17.92 input  -57.11 | X-H torsion

> <Gold.Protein.ActiveResidues>
 VAL166  LYS551  ARG553  GLY616  TRP617  ASP618  TYR619  PRO620  LYS621  CYS622 
 ASP623  PHE694  ASN695  SER759  ASP760  ASP761  ALA762  ILE779  LEU786  VAL792 
 PHE793  MET794  SER795  GLU796  ALA797  LYS798  CYS799  TRP800  GLU811  SER814 

> <Gold.Protein.RotatedAtoms>
  151.1147  135.0046  159.8510 H   0  0  0  0  0  0  0  0  0  0  0  0  # atno 6907 bound_to 6896
  152.5445  134.1793  159.8639 H   0  0  0  0  0  0  0  0  0  0  0  0  # atno 6908 bound_to 6896
  151.1847  133.4659  159.2627 H   0  0  0  0  0  0  0  0  0  0  0  0  # atno 6909 bound_to 6896
  145.8502  140.8357  142.9989 H   0  0  0  0  0  0  0  0  0  0  0  0  # atno 7974 bound_to 7965
  156.2422  140.2924  156.0477 H   0  0  0  0  0  0  0  0  0  0  0  0  # atno 8008 bound_to 7997
  155.1916  140.0407  157.2918 H   0  0  0  0  0  0  0  0  0  0  0  0  # atno 8009 bound_to 7997
  154.6190  140.2471  155.7580 H   0  0  0  0  0  0  0  0  0  0  0  0  # atno 8010 bound_to 7997
  140.3076  144.2859  150.6206 H   0  0  0  0  0  0  0  0  0  0  0  0  # atno 10167 bound_to 10162
  156.7119  130.5124  149.5890 H   0  0  0  0  0  0  0  0  0  0  0  0  # atno 10718 bound_to 10713
  154.6507  135.5356  153.7898 H   0  0  0  0  0  0  0  0  0  0  0  0  # atno 10763 bound_to 10752
  153.0384  135.6481  154.1021 H   0  0  0  0  0  0  0  0  0  0  0  0  # atno 10764 bound_to 10752
  154.0938  135.2938  155.3246 H   0  0  0  0  0  0  0  0  0  0  0  0  # atno 10765 bound_to 10752
  140.8216  133.8064  155.9665 H   0  0  0  0  0  0  0  0  0  0  0  0  # atno 11005 bound_to 11000
  144.6729  140.0942  143.7463 LP  0  0  0  0  0  0  0  0  0  0  0  0  # atno 17320 bound_to 7965
  145.9366  139.2641  143.1293 LP  0  0  0  0  0  0  0  0  0  0  0  0  # atno 17321 bound_to 7965
  140.5597  143.2194  151.7787 LP  0  0  0  0  0  0  0  0  0  0  0  0  # atno 17342 bound_to 10162
  139.4901  144.4366  151.9812 LP  0  0  0  0  0  0  0  0  0  0  0  0  # atno 17343 bound_to 10162
  156.1655  130.6402  151.0773 LP  0  0  0  0  0  0  0  0  0  0  0  0  # atno 17370 bound_to 10713
  157.6933  131.0803  150.7045 LP  0  0  0  0  0  0  0  0  0  0  0  0  # atno 17371 bound_to 10713
  140.9093  134.2281  157.4995 LP  0  0  0  0  0  0  0  0  0  0  0  0  # atno 17394 bound_to 11000
  139.8708  134.9742  156.4839 LP  0  0  0  0  0  0  0  0  0  0  0  0  # atno 17395 bound_to 11000

$$$$
