AV-unprocessed.smi:1417|AV-procd|sdf|5771|dock8
  -GOLD-   22720 5413D 1   1.00000     0.00000
 Structure written by MMmdl.
 39 40  0  0  0  0  0  0  0  0  3 V2000
  152.1227  139.7193  156.5417 C   0  0  0  0  0  0  0  0  0  0  0  0
  151.5775  138.4287  156.0337 C   0  0  0  0  0  0  0  0  0  0  0  0
  150.5703  138.1244  155.1620 C   0  0  0  0  0  0  0  0  0  0  0  0
  150.5920  136.6994  155.1340 C   0  0  0  0  0  0  0  0  0  0  0  0
  149.7347  135.8595  154.3771 N   0  0  0  0  0  0  0  0  0  0  0  0
  149.2102  134.6722  154.7245 C   0  0  0  0  0  0  0  0  0  0  0  0
  149.3753  134.1082  155.8060 O   0  0  0  0  0  0  0  0  0  0  0  0
  148.4712  134.1577  153.7304 N   0  0  0  0  0  0  0  0  0  0  0  0
  147.7841  132.8699  153.7759 C   0  0  2  0  0  0  0  0  0  0  0  0
  148.7962  131.7114  153.8422 C   0  0  0  0  0  0  0  0  0  0  0  0
  148.0883  130.3482  153.7833 C   0  0  0  0  0  0  0  0  0  0  0  0
  147.2402  130.2353  152.5662 N   0  3  1  0  0  0  0  0  0  0  0  0
  146.6367  128.8901  152.3983 C   0  0  0  0  0  0  0  0  0  0  0  0
  147.6560  127.9271  151.7802 C   0  0  0  0  0  0  0  0  0  0  0  0
  147.9318  128.2242  150.4962 N   0  5  0  0  0  0  0  0  0  0  0  0
  148.1060  127.0036  152.4554 O   0  0  0  0  0  0  0  0  0  0  0  0
  146.2287  131.3203  152.5034 C   0  0  0  0  0  0  0  0  0  0  0  0
  146.8972  132.7055  152.5314 C   0  0  0  0  0  0  0  0  0  0  0  0
  151.5260  136.1897  155.9156 N   0  0  0  0  0  0  0  0  0  0  0  0
  152.1640  137.2920  156.4961 O   0  0  0  0  0  0  0  0  0  0  0  0
  151.4295  140.5378  156.3467 H   0  0  0  0  0  0  0  0  0  0  0  0
  153.0698  139.9554  156.0567 H   0  0  0  0  0  0  0  0  0  0  0  0
  152.2949  139.6722  157.6170 H   0  0  0  0  0  0  0  0  0  0  0  0
  149.9326  138.8216  154.6401 H   0  0  0  0  0  0  0  0  0  0  0  0
  149.5055  136.1998  153.4550 H   0  0  0  0  0  0  0  0  0  0  0  0
  148.3856  134.6901  152.8769 H   0  0  0  0  0  0  0  0  0  0  0  0
  147.1443  132.8372  154.6600 H   0  0  0  0  0  0  0  0  0  0  0  0
  149.5028  131.7878  153.0143 H   0  0  0  0  0  0  0  0  0  0  0  0
  149.3855  131.7755  154.7576 H   0  0  0  0  0  0  0  0  0  0  0  0
  148.8401  129.5586  153.7950 H   0  0  0  0  0  0  0  0  0  0  0  0
  147.4715  130.2075  154.6724 H   0  0  0  0  0  0  0  0  0  0  0  0
  146.2347  128.5306  153.3484 H   0  0  0  0  0  0  0  0  0  0  0  0
  145.7946  128.9422  151.7068 H   0  0  0  0  0  0  0  0  0  0  0  0
  148.0158  129.2117  150.2258 H   0  0  0  0  0  0  0  0  0  0  0  0
  145.6434  131.2256  151.5879 H   0  0  0  0  0  0  0  0  0  0  0  0
  145.5329  131.2189  153.3377 H   0  0  0  0  0  0  0  0  0  0  0  0
  146.1327  133.4831  152.5107 H   0  0  0  0  0  0  0  0  0  0  0  0
  147.4956  132.8353  151.6282 H   0  0  0  0  0  0  0  0  0  0  0  0
  147.8482  130.3640  151.7698 H   0  0  0  0  0  0  0  0  0  0  0  0
  1  2  1  0  0  0  0
  1 21  1  0  0  0  0
  1 22  1  0  0  0  0
  1 23  1  0  0  0  0
  2 20  1  0  0  0  0
  2  3  2  0  0  0  0
  3  4  1  0  0  0  0
  3 24  1  0  0  0  0
  4  5  1  0  0  0  0
  4 19  2  0  0  0  0
  5  6  1  0  0  0  0
  5 25  1  0  0  0  0
  6  7  2  0  0  0  0
  6  8  1  0  0  0  0
  8  9  1  0  0  0  0
  8 26  1  0  0  0  0
  9 18  1  0  0  0  0
  9 10  1  0  0  0  0
  9 27  1  0  0  0  0
 10 11  1  0  0  0  0
 10 28  1  0  0  0  0
 10 29  1  0  0  0  0
 11 12  1  0  0  0  0
 11 30  1  0  0  0  0
 11 31  1  0  0  0  0
 12 13  1  0  0  0  0
 12 17  1  0  0  0  0
 12 39  1  0  0  0  0
 13 14  1  0  0  0  0
 13 32  1  0  0  0  0
 13 33  1  0  0  0  0
 14 15  1  0  0  0  0
 14 16  2  0  0  0  0
 15 34  1  0  0  0  0
 17 18  1  0  0  0  0
 17 35  1  0  0  0  0
 17 36  1  0  0  0  0
 18 37  1  0  0  0  0
 18 38  1  0  0  0  0
 19 20  1  0  0  0  0
M  CHG  1  12   1
M  CHG  1  15  -1
M  END
> <s_m_source_file>
AV-unprocessed.smi

> <i_m_source_file_index>
1417

> <i_lp_mmshare_version>
43012

> <i_f3d_flags>
0

> <s_epik_input>
W0NIM11jMVtjSF1jKG5vMSlbTkhdQyg9TylbTkhdW0NIXTJbQ0gyXVtDSDJdTihbQ0gyXVtDSDJdMilbQ0gyXUMoPU8pW05IMl0=

> <s_epik_cmdline>
J2VwaWtfcHl0aG9uJywgJy1waCcsICc3LjAnLCAnLXRuJywgJzgnLCAnLW1hJywgJzIwMCcsICctbWV0YWxfYmluZGluZycsICctaW1hZScsICc8aW5maWxlLm1hZT4nLCAnLW9tYWUnLCAnPG91dGZpbGUubWFlPic=

> <r_epik_Ionization_Penalty>
5.73218

> <r_epik_Ionization_Penalty_Charging>
5.73215

> <r_epik_Ionization_Penalty_Neutral>
3.37968e-05

> <r_epik_State_Penalty>
6.58009

> <r_epik_Charging_Adjusted_Penalty>
12.3122

> <i_epik_Tot_Q>
0

> <i_epik_Tot_abs_Q>
2

> <r_epik_Metal_State_Penalty>
2.55295

> <b_epik_Metal_Only>
1

> <s_lp_Force_Field>
OPLS_2005

> <r_lp_Energy>
6.84109

> <b_lp_Chiralities_Consistent>
1

> <s_lp_Variant>
AV-unprocessed.smi:1417-7

> <Gold.Version>
5.8.1

> <Gold.Id.Protein>
6NUR|6NUR_protein|mol2

> <Gold.PLP.Fitness>
43.8415

> <Gold.PLP.PLP>
-30.2423

> <Gold.PLP.part.hbond>
-6.5080

> <Gold.PLP.part.metal>
0.0000

> <Gold.PLP.part.buried>
-1.2928

> <Gold.PLP.part.nonpolar>
-23.1526

> <Gold.PLP.part.repulsive>
0.1896

> <Gold.PLP.ligand.clash>
0.0000

> <Gold.PLP.ligand.torsion>
0.6645

> <Gold.PLP.Chemscore.Hbond>
4.9680

> <Gold.PLP.Chemscore.CHOScore>
0.0000

> <Gold.PLP.Chemscore.Metal>
0.0000

> <Gold.Chemscore.Hbonds>
donor molecule, donor type, donor heavy atom, donor atom, acceptor molecule, acceptor atom, score
      L1  H     5    25       P1  7948  1.00
      L1  H     8    26       P1  7948  0.96
      L1  H    12    39       P1 10747  1.00
      L1  H    15    34       P1 10747  0.98
      P1  H 10752 10765       L1    19  1.00

> <Gold.PLP.Chemscore.Internal.Correction>
0.0242

> <Gold.Rescore>
     Score         DG    S(hbond)    S(metal)    S(lipo)     H(rot)  DE(clash)    DE(int)     intcor
     17.45     -19.20       3.89        0.00      50.41       2.02       0.24       1.52       ----

> <Gold.Chemscore.Fitness>
17.4469

> <Gold.Chemscore.DG>
-19.2043

> <Gold.Chemscore.ZeroCoef>
-5.4800

> <Gold.Chemscore.Hbond>
3.8896

> <Gold.Chemscore.Metal>
0.0000

> <Gold.Chemscore.Lipo>
50.4098

> <Gold.Chemscore.Internal_Hbond>
0.0000

> <Gold.Chemscore.DEClash>
0.2371

> <Gold.Chemscore.DEInternal>
1.5203

> <Gold.Chemscore.Rot>
2.0176

> <Gold.Chemscore.Internal.Correction>
   9.000000E+99

> <Gold.Chemscore.Hbonds>
donor molecule, donor type, donor heavy atom, donor atom, acceptor molecule, acceptor atom, score
      L1  H     5    25       P1  7948  0.50
      L1  H     8    26       P1  7948  0.41
      L1  H    12    39       P1 10747  1.00
      L1  H    15    34       P1 10747  0.24
      P1  H 10752 10765       L1    19  0.11

> <Gold.Chemscore.Hbond.Weighted>
-12.9914

> <Gold.Chemscore.Metal.Weighted>
-0.0000

> <Gold.Chemscore.Lipo.Weighted>
-5.8979

> <Gold.Chemscore.Internal_Hbond.Weighted>
0.0000

> <Gold.Chemscore.DEClash.Weighted>
0.2371

> <Gold.Chemscore.DEInternal.Weighted>
1.5203

> <Gold.Chemscore.Rot.Weighted>
5.1651

> <Gold.Chemscore.Internal.Correction.Weighted>
   9.000000E+99

> <Gold.Protein.RotatedTorsions>
[ 6907 6896 6895 6894 ] final  127.26 input  -60.11 | X-H torsion
[ 7974 7965 7964 7962 ] final   89.97 input  175.53 | X-H torsion
[ 8008 7997 7996 7995 ] final  102.20 input   59.86 | X-H torsion
[ 10167 10162 10161 10158 ] final   25.73 input  -65.29 | X-H torsion
[ 10718 10713 10712 10709 ] final -119.37 input   66.30 | X-H torsion
[ 10763 10752 10751 10750 ] final -178.07 input  -60.55 | X-H torsion
[ 11005 11000 10999 10996 ] final   72.22 input  -57.11 | X-H torsion

> <Gold.Protein.ActiveResidues>
 VAL166  LYS551  ARG553  GLY616  TRP617  ASP618  TYR619  PRO620  LYS621  CYS622 
 ASP623  PHE694  ASN695  SER759  ASP760  ASP761  ALA762  ILE779  LEU786  VAL792 
 PHE793  MET794  SER795  GLU796  ALA797  LYS798  CYS799  TRP800  GLU811  SER814 

> <Gold.Protein.RotatedAtoms>
  152.3829  133.6571  159.6175 H   0  0  0  0  0  0  0  0  0  0  0  0  # atno 6907 bound_to 6896
  150.7755  133.9083  159.3371 H   0  0  0  0  0  0  0  0  0  0  0  0  # atno 6908 bound_to 6896
  151.6886  135.0951  160.0280 H   0  0  0  0  0  0  0  0  0  0  0  0  # atno 6909 bound_to 6896
  145.5253  139.2281  143.2649 H   0  0  0  0  0  0  0  0  0  0  0  0  # atno 7974 bound_to 7965
  156.1370  140.3185  155.8437 H   0  0  0  0  0  0  0  0  0  0  0  0  # atno 8008 bound_to 7997
  155.4225  140.0513  157.3041 H   0  0  0  0  0  0  0  0  0  0  0  0  # atno 8009 bound_to 7997
  154.4945  140.2105  155.9489 H   0  0  0  0  0  0  0  0  0  0  0  0  # atno 8010 bound_to 7997
  140.5082  144.0204  150.6361 H   0  0  0  0  0  0  0  0  0  0  0  0  # atno 10167 bound_to 10162
  156.1176  130.6298  150.9408 H   0  0  0  0  0  0  0  0  0  0  0  0  # atno 10718 bound_to 10713
  154.5522  135.2814  155.0998 H   0  0  0  0  0  0  0  0  0  0  0  0  # atno 10763 bound_to 10752
  154.2439  135.6352  153.5220 H   0  0  0  0  0  0  0  0  0  0  0  0  # atno 10764 bound_to 10752
  153.0006  135.5566  154.6092 H   0  0  0  0  0  0  0  0  0  0  0  0  # atno 10765 bound_to 10752
  139.9502  134.7240  156.0880 H   0  0  0  0  0  0  0  0  0  0  0  0  # atno 11005 bound_to 11000
  146.2080  140.6067  142.9072 LP  0  0  0  0  0  0  0  0  0  0  0  0  # atno 17320 bound_to 7965
  144.7654  140.5519  143.6706 LP  0  0  0  0  0  0  0  0  0  0  0  0  # atno 17321 bound_to 7965
  140.3519  143.2958  152.0478 LP  0  0  0  0  0  0  0  0  0  0  0  0  # atno 17342 bound_to 10162
  139.4889  144.6367  151.6960 LP  0  0  0  0  0  0  0  0  0  0  0  0  # atno 17343 bound_to 10162
  157.6360  131.0916  150.8348 LP  0  0  0  0  0  0  0  0  0  0  0  0  # atno 17370 bound_to 10713
  156.8449  130.5060  149.5317 LP  0  0  0  0  0  0  0  0  0  0  0  0  # atno 17371 bound_to 10713
  141.1163  133.6627  156.3102 LP  0  0  0  0  0  0  0  0  0  0  0  0  # atno 17394 bound_to 11000
  140.5737  134.5815  157.5463 LP  0  0  0  0  0  0  0  0  0  0  0  0  # atno 17395 bound_to 11000

$$$$
