AV-unprocessed.smi:1721|AV-procd|sdf|6941|dock1
  -GOLD-   22720 8153D 1   1.00000     0.00000
 Structure written by MMmdl.
 44 46  0  0  0  0  0  0  0  0  2 V2000
  151.3271  138.3087  154.1586 C   0  0  0  0  0  0  0  0  0  0  0  0
  149.9962  138.3285  153.6541 O   0  0  0  0  0  0  0  0  0  0  0  0
  149.3230  139.5350  153.6146 C   0  0  0  0  0  0  0  0  0  0  0  0
  149.9632  140.6443  154.0623 N   0  0  0  0  0  0  0  0  0  0  0  0
  149.3112  141.8240  154.0205 C   0  0  0  0  0  0  0  0  0  0  0  0
  148.0005  141.9614  153.5292 C   0  0  0  0  0  0  0  0  0  0  0  0
  147.3343  140.8127  153.0632 C   0  0  0  0  0  0  0  0  0  0  0  0
  148.0006  139.5632  153.1116 C   0  0  0  0  0  0  0  0  0  0  0  0
  147.4363  138.3368  152.6591 N   0  0  0  0  0  0  0  0  0  0  0  0
  146.1479  138.0158  152.4518 C   0  0  0  0  0  0  0  0  0  0  0  0
  145.1838  138.7586  152.6320 O   0  0  0  0  0  0  0  0  0  0  0  0
  146.0287  136.7536  152.0161 N   0  0  0  0  0  0  0  0  0  0  0  0
  144.7611  136.1012  151.6968 C   0  0  2  0  0  0  0  0  0  0  0  0
  143.9271  135.7600  152.9249 C   0  0  0  0  0  0  0  0  0  0  0  0
  142.9426  134.7138  152.3916 C   0  0  0  0  0  0  0  0  0  0  0  0
  143.6070  134.0435  151.2465 N   0  3  2  0  0  0  0  0  0  0  0  0
  143.6988  132.5646  151.3805 C   0  0  0  0  0  0  0  0  0  0  0  0
  144.7192  131.9856  150.3891 C   0  0  0  0  0  0  0  0  0  0  0  0
  146.1356  132.5305  150.6539 C   0  0  0  0  0  0  0  0  0  0  0  0
  146.1186  133.8851  151.3874 C   0  0  0  0  0  0  0  0  0  0  0  0
  144.8958  134.7438  150.9796 C   0  0  2  0  0  0  0  0  0  0  0  0
  151.7115  137.2895  154.1226 H   0  0  0  0  0  0  0  0  0  0  0  0
  151.3656  138.6399  155.1973 H   0  0  0  0  0  0  0  0  0  0  0  0
  151.9907  138.9328  153.5585 H   0  0  0  0  0  0  0  0  0  0  0  0
  149.8525  142.6846  154.3846 H   0  0  0  0  0  0  0  0  0  0  0  0
  147.5183  142.9273  153.5062 H   0  0  0  0  0  0  0  0  0  0  0  0
  146.3363  140.9227  152.6706 H   0  0  0  0  0  0  0  0  0  0  0  0
  148.1038  137.5928  152.5156 H   0  0  0  0  0  0  0  0  0  0  0  0
  146.8697  136.2074  151.8990 H   0  0  0  0  0  0  0  0  0  0  0  0
  144.1680  136.7711  151.0701 H   0  0  0  0  0  0  0  0  0  0  0  0
  144.5555  135.3162  153.6987 H   0  0  0  0  0  0  0  0  0  0  0  0
  143.4272  136.6287  153.3545 H   0  0  0  0  0  0  0  0  0  0  0  0
  142.6291  134.0212  153.1740 H   0  0  0  0  0  0  0  0  0  0  0  0
  142.0448  135.2045  152.0144 H   0  0  0  0  0  0  0  0  0  0  0  0
  143.9940  132.2954  152.3963 H   0  0  0  0  0  0  0  0  0  0  0  0
  142.7124  132.1312  151.2131 H   0  0  0  0  0  0  0  0  0  0  0  0
  144.7244  130.8961  150.4358 H   0  0  0  0  0  0  0  0  0  0  0  0
  144.4122  132.2449  149.3748 H   0  0  0  0  0  0  0  0  0  0  0  0
  146.7085  131.8159  151.2460 H   0  0  0  0  0  0  0  0  0  0  0  0
  146.6623  132.6270  149.7036 H   0  0  0  0  0  0  0  0  0  0  0  0
  146.0949  133.7124  152.4644 H   0  0  0  0  0  0  0  0  0  0  0  0
  147.0541  134.4072  151.1854 H   0  0  0  0  0  0  0  0  0  0  0  0
  144.9646  134.9211  149.9051 H   0  0  0  0  0  0  0  0  0  0  0  0
  143.0264  134.2231  150.4398 H   0  0  0  0  0  0  0  0  0  0  0  0
  1  2  1  0  0  0  0
  1 22  1  0  0  0  0
  1 23  1  0  0  0  0
  1 24  1  0  0  0  0
  2  3  1  0  0  0  0
  3  8  1  0  0  0  0
  3  4  2  0  0  0  0
  4  5  1  0  0  0  0
  5  6  2  0  0  0  0
  5 25  1  0  0  0  0
  6  7  1  0  0  0  0
  6 26  1  0  0  0  0
  7  8  2  0  0  0  0
  7 27  1  0  0  0  0
  8  9  1  0  0  0  0
  9 10  1  0  0  0  0
  9 28  1  0  0  0  0
 10 11  2  0  0  0  0
 10 12  1  0  0  0  0
 12 13  1  0  0  0  0
 12 29  1  0  0  0  0
 13 21  1  0  0  0  0
 13 14  1  0  0  0  0
 13 30  1  0  0  0  0
 14 15  1  0  0  0  0
 14 31  1  0  0  0  0
 14 32  1  0  0  0  0
 15 16  1  0  0  0  0
 15 33  1  0  0  0  0
 15 34  1  0  0  0  0
 16 21  1  0  0  0  0
 16 17  1  0  0  0  0
 16 44  1  0  0  0  0
 17 18  1  0  0  0  0
 17 35  1  0  0  0  0
 17 36  1  0  0  0  0
 18 19  1  0  0  0  0
 18 37  1  0  0  0  0
 18 38  1  0  0  0  0
 19 20  1  0  0  0  0
 19 39  1  0  0  0  0
 19 40  1  0  0  0  0
 20 21  1  0  0  0  0
 20 41  1  0  0  0  0
 20 42  1  0  0  0  0
 21 43  1  0  0  0  0
M  CHG  1  16   1
M  END
> <s_m_source_file>
AV-unprocessed.smi

> <i_m_source_file_index>
1721

> <i_lp_mmshare_version>
43012

> <i_f3d_flags>
0

> <s_epik_input>
W0NIM11PYzFuW2NIXVtjSF1bY0hdYzFbTkhdQyg9TylbTkhdW0NASF0oW0NIMl1bQ0gyXTIpW0NAQEhdKE4yMylbQ0gyXVtDSDJdW0NIMl1bQ0gyXTM=

> <s_epik_cmdline>
J2VwaWtfcHl0aG9uJywgJy1waCcsICc3LjAnLCAnLXRuJywgJzgnLCAnLW1hJywgJzIwMCcsICctbWV0YWxfYmluZGluZycsICctaW1hZScsICc8aW5maWxlLm1hZT4nLCAnLW9tYWUnLCAnPG91dGZpbGUubWFlPic=

> <r_lp_tautomer_probability>
1

> <r_epik_Ionization_Penalty>
0.00104793

> <r_epik_Ionization_Penalty_Charging>
0.000974069

> <r_epik_Ionization_Penalty_Neutral>
7.38649e-05

> <r_epik_State_Penalty>
0.000633842

> <r_epik_Charging_Adjusted_Penalty>
0.00160791

> <i_epik_Tot_Q>
1

> <i_epik_Tot_abs_Q>
1

> <r_epik_Metal_State_Penalty>
-0

> <b_epik_Metal_Only>
0

> <s_lp_Force_Field>
OPLS_2005

> <r_lp_Energy>
43.7012

> <b_lp_Chiralities_Consistent>
1

> <s_lp_Variant>
AV-unprocessed.smi:1721-7

> <Gold.Version>
5.8.1

> <Gold.Id.Protein>
6NUR|6NUR_protein|mol2

> <Gold.PLP.Fitness>
51.0635

> <Gold.PLP.PLP>
-36.5658

> <Gold.PLP.part.hbond>
-4.0054

> <Gold.PLP.part.metal>
0.0000

> <Gold.PLP.part.buried>
-4.3741

> <Gold.PLP.part.nonpolar>
-35.4799

> <Gold.PLP.part.repulsive>
6.3000

> <Gold.PLP.ligand.clash>
0.0000

> <Gold.PLP.ligand.torsion>
0.1956

> <Gold.PLP.Chemscore.Hbond>
4.0909

> <Gold.PLP.Chemscore.CHOScore>
0.8706

> <Gold.PLP.Chemscore.Metal>
0.0000

> <Gold.Chemscore.Hbonds>
donor molecule, donor type, donor heavy atom, donor atom, acceptor molecule, acceptor atom, score
      L1  H     9    28       P1  7948  1.00
      L1  H    12    29       P1  7948  0.86
      L1  H    16    44       P1 10186  1.10
      P1  H  7989  7998       L1     4  0.67
      L1  C     5    25       P1  8028  0.85

> <Gold.PLP.Chemscore.Internal.Correction>
0.0042

> <Gold.Rescore>
     Score         DG    S(hbond)    S(metal)    S(lipo)     H(rot)  DE(clash)    DE(int)     intcor
     17.27     -20.09       2.20        0.00      89.26       1.25       1.74       1.08       ----

> <Gold.Chemscore.Fitness>
17.2711

> <Gold.Chemscore.DG>
-20.0888

> <Gold.Chemscore.ZeroCoef>
-5.4800

> <Gold.Chemscore.Hbond>
2.2033

> <Gold.Chemscore.Metal>
0.0000

> <Gold.Chemscore.Lipo>
89.2587

> <Gold.Chemscore.Internal_Hbond>
0.0000

> <Gold.Chemscore.DEClash>
1.7378

> <Gold.Chemscore.DEInternal>
1.0799

> <Gold.Chemscore.Rot>
1.2474

> <Gold.Chemscore.Internal.Correction>
   9.000000E+99

> <Gold.Chemscore.Hbonds>
donor molecule, donor type, donor heavy atom, donor atom, acceptor molecule, acceptor atom, score
      L1  H     9    28       P1  7948  1.00
      L1  H    12    29       P1  7948  0.81
      L1  H    16    44       P1 10186  0.41
      P1  H  7989  7998       L1     4  0.40

> <Gold.Chemscore.Hbond.Weighted>
-7.3590

> <Gold.Chemscore.Metal.Weighted>
-0.0000

> <Gold.Chemscore.Lipo.Weighted>
-10.4433

> <Gold.Chemscore.Internal_Hbond.Weighted>
0.0000

> <Gold.Chemscore.DEClash.Weighted>
1.7378

> <Gold.Chemscore.DEInternal.Weighted>
1.0799

> <Gold.Chemscore.Rot.Weighted>
3.1934

> <Gold.Chemscore.Internal.Correction.Weighted>
   9.000000E+99

> <Gold.Protein.RotatedTorsions>
[ 6907 6896 6895 6894 ] final -139.10 input  -60.11 | X-H torsion
[ 7974 7965 7964 7962 ] final  178.70 input  175.53 | X-H torsion
[ 8008 7997 7996 7995 ] final   11.72 input   59.86 | X-H torsion
[ 10167 10162 10161 10158 ] final   26.97 input  -65.29 | X-H torsion
[ 10718 10713 10712 10709 ] final  138.85 input   66.30 | X-H torsion
[ 10763 10752 10751 10750 ] final -120.97 input  -60.55 | X-H torsion
[ 11005 11000 10999 10996 ] final  119.43 input  -57.11 | X-H torsion

> <Gold.Protein.ActiveResidues>
 VAL166  LYS551  ARG553  GLY616  TRP617  ASP618  TYR619  PRO620  LYS621  CYS622 
 ASP623  PHE694  ASN695  SER759  ASP760  ASP761  ALA762  ILE779  LEU786  VAL792 
 PHE793  MET794  SER795  GLU796  ALA797  LYS798  CYS799  TRP800  GLU811  SER814 

> <Gold.Protein.RotatedAtoms>
  151.0434  133.5686  159.2648 H   0  0  0  0  0  0  0  0  0  0  0  0  # atno 6907 bound_to 6896
  151.2724  135.0688  159.9149 H   0  0  0  0  0  0  0  0  0  0  0  0  # atno 6908 bound_to 6896
  152.5368  134.0162  159.8015 H   0  0  0  0  0  0  0  0  0  0  0  0  # atno 6909 bound_to 6896
  144.7153  140.0438  143.6437 H   0  0  0  0  0  0  0  0  0  0  0  0  # atno 7974 bound_to 7965
  154.8108  140.2867  155.5855 H   0  0  0  0  0  0  0  0  0  0  0  0  # atno 8008 bound_to 7997
  156.2988  140.2568  156.2925 H   0  0  0  0  0  0  0  0  0  0  0  0  # atno 8009 bound_to 7997
  154.9450  140.0380  157.2105 H   0  0  0  0  0  0  0  0  0  0  0  0  # atno 8010 bound_to 7997
  140.4978  144.0364  150.6321 H   0  0  0  0  0  0  0  0  0  0  0  0  # atno 10167 bound_to 10162
  157.4208  131.1038  151.0355 H   0  0  0  0  0  0  0  0  0  0  0  0  # atno 10718 bound_to 10713
  154.8657  135.4184  154.2545 H   0  0  0  0  0  0  0  0  0  0  0  0  # atno 10763 bound_to 10752
  153.3485  135.6997  153.6814 H   0  0  0  0  0  0  0  0  0  0  0  0  # atno 10764 bound_to 10752
  153.5764  135.3581  155.2830 H   0  0  0  0  0  0  0  0  0  0  0  0  # atno 10765 bound_to 10752
  139.9146  134.9628  156.7654 H   0  0  0  0  0  0  0  0  0  0  0  0  # atno 11005 bound_to 11000
  146.0002  139.3085  143.0932 LP  0  0  0  0  0  0  0  0  0  0  0  0  # atno 17320 bound_to 7965
  145.8802  140.9367  143.0605 LP  0  0  0  0  0  0  0  0  0  0  0  0  # atno 17321 bound_to 7965
  140.3651  143.2886  152.0340 LP  0  0  0  0  0  0  0  0  0  0  0  0  # atno 17342 bound_to 10162
  139.4865  144.6273  151.7139 LP  0  0  0  0  0  0  0  0  0  0  0  0  # atno 17343 bound_to 10162
  157.1286  130.6092  149.5523 LP  0  0  0  0  0  0  0  0  0  0  0  0  # atno 17370 bound_to 10713
  155.9880  130.4922  150.7150 LP  0  0  0  0  0  0  0  0  0  0  0  0  # atno 17371 bound_to 10713
  140.6664  133.9599  155.7832 LP  0  0  0  0  0  0  0  0  0  0  0  0  # atno 17394 bound_to 11000
  141.0608  134.0349  157.3661 LP  0  0  0  0  0  0  0  0  0  0  0  0  # atno 17395 bound_to 11000

$$$$
