AV-unprocessed.smi:2618|AV-procd|sdf|10219|dock8
  -GOLD-   2272014223D 1   1.00000     0.00000
 Structure written by MMmdl.
 39 40  0  0  0  0  0  0  0  0  1 V2000
  159.4315  142.0559  158.1643 C   0  0  0  0  0  0  0  0  0  0  0  0
  158.6707  141.1944  158.9923 O   0  0  0  0  0  0  0  0  0  0  0  0
  159.4585  140.5555  159.9853 C   0  0  0  0  0  0  0  0  0  0  0  0
  158.6066  139.5141  160.7357 C   0  0  0  0  0  0  0  0  0  0  0  0
  157.1266  139.6079  160.4525 C   0  0  0  0  0  0  0  0  0  0  0  0
  156.3751  140.5792  160.8212 N   0  0  0  0  0  0  0  0  0  0  0  0
  155.1169  140.3886  160.4257 N   0  0  0  0  0  0  0  0  0  0  0  0
  154.1022  141.3309  160.6311 C   0  0  0  0  0  0  0  0  0  0  0  0
  153.2128  141.5241  159.6488 N   0  0  0  0  0  0  0  0  0  0  0  0
  152.2395  142.4377  159.8511 C   0  0  0  0  0  0  0  0  0  0  0  0
  151.2461  142.6315  158.7257 C   0  0  0  0  0  0  0  0  0  0  0  0
  152.1535  143.1777  161.0473 C   0  0  0  0  0  0  0  0  0  0  0  0
  153.1409  142.9032  162.0147 C   0  0  0  0  0  0  0  0  0  0  0  0
  153.1719  143.6256  163.3444 C   0  0  0  0  0  0  0  0  0  0  0  0
  154.1071  141.9838  161.8031 N   0  0  0  0  0  0  0  0  0  0  0  0
  154.9449  139.0783  159.7805 C   0  0  2  0  0  0  0  0  0  0  0  0
  154.4253  139.1051  158.4608 O   0  0  0  0  0  0  0  0  0  0  0  0
  154.0865  138.0998  160.6316 C   0  0  0  0  0  0  0  0  0  0  0  0
  154.2112  136.8548  160.1683 F   0  0  0  0  0  0  0  0  0  0  0  0
  154.4445  138.0975  161.9147 F   0  0  0  0  0  0  0  0  0  0  0  0
  152.7981  138.4384  160.5577 F   0  0  0  0  0  0  0  0  0  0  0  0
  156.3924  138.5809  159.6690 C   0  0  0  0  0  0  0  0  0  0  0  0
  158.7791  142.5266  157.4290 H   0  0  0  0  0  0  0  0  0  0  0  0
  160.2023  141.5035  157.6251 H   0  0  0  0  0  0  0  0  0  0  0  0
  159.9078  142.8452  158.7473 H   0  0  0  0  0  0  0  0  0  0  0  0
  160.3407  140.0890  159.5429 H   0  0  0  0  0  0  0  0  0  0  0  0
  159.8174  141.3056  160.6917 H   0  0  0  0  0  0  0  0  0  0  0  0
  158.9499  138.5135  160.4723 H   0  0  0  0  0  0  0  0  0  0  0  0
  158.7761  139.6215  161.8074 H   0  0  0  0  0  0  0  0  0  0  0  0
  150.3833  143.2091  159.0587 H   0  0  0  0  0  0  0  0  0  0  0  0
  150.8890  141.6682  158.3598 H   0  0  0  0  0  0  0  0  0  0  0  0
  151.7147  143.1622  157.8966 H   0  0  0  0  0  0  0  0  0  0  0  0
  151.3782  143.9118  161.2117 H   0  0  0  0  0  0  0  0  0  0  0  0
  152.3736  144.3653  163.4104 H   0  0  0  0  0  0  0  0  0  0  0  0
  154.1243  144.1400  163.4748 H   0  0  0  0  0  0  0  0  0  0  0  0
  153.0487  142.9163  164.1634 H   0  0  0  0  0  0  0  0  0  0  0  0
  153.8057  138.3977  158.3694 H   0  0  0  0  0  0  0  0  0  0  0  0
  156.7619  138.5663  158.6423 H   0  0  0  0  0  0  0  0  0  0  0  0
  156.5350  137.5873  160.0948 H   0  0  0  0  0  0  0  0  0  0  0  0
  1  2  1  0  0  0  0
  1 23  1  0  0  0  0
  1 24  1  0  0  0  0
  1 25  1  0  0  0  0
  2  3  1  0  0  0  0
  3  4  1  0  0  0  0
  3 26  1  0  0  0  0
  3 27  1  0  0  0  0
  4  5  1  0  0  0  0
  4 28  1  0  0  0  0
  4 29  1  0  0  0  0
  5 22  1  0  0  0  0
  5  6  2  0  0  0  0
  6  7  1  0  0  0  0
  7  8  1  0  0  0  0
  7 16  1  0  0  0  0
  8 15  1  0  0  0  0
  8  9  2  0  0  0  0
  9 10  1  0  0  0  0
 10 11  1  0  0  0  0
 10 12  2  0  0  0  0
 11 30  1  0  0  0  0
 11 31  1  0  0  0  0
 11 32  1  0  0  0  0
 12 13  1  0  0  0  0
 12 33  1  0  0  0  0
 13 14  1  0  0  0  0
 13 15  2  0  0  0  0
 14 34  1  0  0  0  0
 14 35  1  0  0  0  0
 14 36  1  0  0  0  0
 16 17  1  0  0  0  0
 16 18  1  0  0  0  0
 16 22  1  0  0  0  0
 17 37  1  0  0  0  0
 18 19  1  0  0  0  0
 18 20  1  0  0  0  0
 18 21  1  0  0  0  0
 22 38  1  0  0  0  0
 22 39  1  0  0  0  0
M  END
> <s_m_source_file>
AV-unprocessed.smi

> <i_m_source_file_index>
2618

> <i_lp_mmshare_version>
43012

> <i_f3d_flags>
0

> <s_epik_input>
W0NIM11PW0NIMl1bQ0gyXUMoW0NIMl0xKT1OTihbQ0BAXTEoW09IXSlDKEYpKEYpRiljMm5jKFtDSDNdKVtjSF1jKG4yKVtDSDNd

> <s_epik_cmdline>
J2VwaWtfcHl0aG9uJywgJy1waCcsICc3LjAnLCAnLXRuJywgJzgnLCAnLW1hJywgJzIwMCcsICctbWV0YWxfYmluZGluZycsICctaW1hZScsICc8aW5maWxlLm1hZT4nLCAnLW9tYWUnLCAnPG91dGZpbGUubWFlPic=

> <r_lp_tautomer_probability>
1

> <r_epik_Ionization_Penalty>
0.0648608

> <r_epik_Ionization_Penalty_Charging>
0

> <r_epik_Ionization_Penalty_Neutral>
0.0648608

> <r_epik_State_Penalty>
0.0551477

> <r_epik_Charging_Adjusted_Penalty>
0.0551477

> <i_epik_Tot_Q>
0

> <i_epik_Tot_abs_Q>
0

> <r_epik_Metal_State_Penalty>
0.0550619

> <b_epik_Metal_Only>
0

> <s_epik_Chemistry_Notes>
This compound has an imine and may undergo hydrolysis.

> <s_lp_Force_Field>
OPLS_2005

> <r_lp_Energy>
16.3005

> <b_lp_Chiralities_Consistent>
1

> <s_lp_Variant>
AV-unprocessed.smi:2618-2

> <Gold.Version>
5.8.1

> <Gold.Id.Protein>
6NUR|6NUR_protein|mol2

> <Gold.PLP.Fitness>
39.3770

> <Gold.PLP.PLP>
-38.8499

> <Gold.PLP.part.hbond>
-2.7813

> <Gold.PLP.part.metal>
0.0000

> <Gold.PLP.part.buried>
-4.1185

> <Gold.PLP.part.nonpolar>
-31.2424

> <Gold.PLP.part.repulsive>
0.1093

> <Gold.PLP.ligand.clash>
0.0000

> <Gold.PLP.ligand.torsion>
1.2825

> <Gold.PLP.Chemscore.Hbond>
1.0000

> <Gold.PLP.Chemscore.CHOScore>
0.0000

> <Gold.PLP.Chemscore.Metal>
0.0000

> <Gold.Chemscore.Hbonds>
donor molecule, donor type, donor heavy atom, donor atom, acceptor molecule, acceptor atom, score
      P1  H  7997  8008       L1    17  1.00

> <Gold.PLP.Chemscore.Internal.Correction>
0.0921

> <Gold.Rescore>
     Score         DG    S(hbond)    S(metal)    S(lipo)     H(rot)  DE(clash)    DE(int)     intcor
     10.28     -13.13       0.94        0.00      83.14       2.03       0.98       1.87       ----

> <Gold.Chemscore.Fitness>
10.2786

> <Gold.Chemscore.DG>
-13.1285

> <Gold.Chemscore.ZeroCoef>
-5.4800

> <Gold.Chemscore.Hbond>
0.9366

> <Gold.Chemscore.Metal>
0.0000

> <Gold.Chemscore.Lipo>
83.1400

> <Gold.Chemscore.Internal_Hbond>
0.0000

> <Gold.Chemscore.DEClash>
0.9766

> <Gold.Chemscore.DEInternal>
1.8732

> <Gold.Chemscore.Rot>
2.0340

> <Gold.Chemscore.Internal.Correction>
   9.000000E+99

> <Gold.Chemscore.Hbonds>
donor molecule, donor type, donor heavy atom, donor atom, acceptor molecule, acceptor atom, score
      P1  H  7997  8008       L1    17  0.90

> <Gold.Chemscore.Hbond.Weighted>
-3.1282

> <Gold.Chemscore.Metal.Weighted>
-0.0000

> <Gold.Chemscore.Lipo.Weighted>
-9.7274

> <Gold.Chemscore.Internal_Hbond.Weighted>
0.0000

> <Gold.Chemscore.DEClash.Weighted>
0.9766

> <Gold.Chemscore.DEInternal.Weighted>
1.8732

> <Gold.Chemscore.Rot.Weighted>
5.2071

> <Gold.Chemscore.Internal.Correction.Weighted>
   9.000000E+99

> <Gold.Protein.RotatedTorsions>
[ 6907 6896 6895 6894 ] final  118.50 input  -60.11 | X-H torsion
[ 7974 7965 7964 7962 ] final  169.25 input  175.53 | X-H torsion
[ 8008 7997 7996 7995 ] final -129.56 input   59.86 | X-H torsion
[ 10167 10162 10161 10158 ] final  104.36 input  -65.29 | X-H torsion
[ 10718 10713 10712 10709 ] final    5.41 input   66.30 | X-H torsion
[ 10763 10752 10751 10750 ] final  -27.75 input  -60.55 | X-H torsion
[ 11005 11000 10999 10996 ] final -126.61 input  -57.11 | X-H torsion

> <Gold.Protein.ActiveResidues>
 VAL166  LYS551  ARG553  GLY616  TRP617  ASP618  TYR619  PRO620  LYS621  CYS622 
 ASP623  PHE694  ASN695  SER759  ASP760  ASP761  ALA762  ILE779  LEU786  VAL792 
 PHE793  MET794  SER795  GLU796  ALA797  LYS798  CYS799  TRP800  GLU811  SER814 

> <Gold.Protein.RotatedAtoms>
  152.4539  133.7683  159.6784 H   0  0  0  0  0  0  0  0  0  0  0  0  # atno 6907 bound_to 6896
  150.8459  133.7853  159.3049 H   0  0  0  0  0  0  0  0  0  0  0  0  # atno 6908 bound_to 6896
  151.5463  135.1071  159.9990 H   0  0  0  0  0  0  0  0  0  0  0  0  # atno 6909 bound_to 6896
  144.7361  139.9027  143.6410 H   0  0  0  0  0  0  0  0  0  0  0  0  # atno 7974 bound_to 7965
  155.2812  140.0444  157.3015 H   0  0  0  0  0  0  0  0  0  0  0  0  # atno 8008 bound_to 7997
  154.5596  140.2342  155.8325 H   0  0  0  0  0  0  0  0  0  0  0  0  # atno 8009 bound_to 7997
  156.2036  140.3019  155.9586 H   0  0  0  0  0  0  0  0  0  0  0  0  # atno 8010 bound_to 7997
  139.7184  144.7063  151.0912 H   0  0  0  0  0  0  0  0  0  0  0  0  # atno 10167 bound_to 10162
  156.9070  130.5742  149.5647 H   0  0  0  0  0  0  0  0  0  0  0  0  # atno 10718 bound_to 10713
  153.7371  135.6935  153.4975 H   0  0  0  0  0  0  0  0  0  0  0  0  # atno 10763 bound_to 10752
  153.2095  135.4408  155.0361 H   0  0  0  0  0  0  0  0  0  0  0  0  # atno 10764 bound_to 10752
  154.8233  135.3433  154.6899 H   0  0  0  0  0  0  0  0  0  0  0  0  # atno 10765 bound_to 10752
  140.9667  134.0862  157.3912 H   0  0  0  0  0  0  0  0  0  0  0  0  # atno 11005 bound_to 11000
  146.1060  139.4059  143.0317 LP  0  0  0  0  0  0  0  0  0  0  0  0  # atno 17320 bound_to 7965
  145.7511  140.9972  143.1250 LP  0  0  0  0  0  0  0  0  0  0  0  0  # atno 17321 bound_to 7965
  140.7748  143.5199  150.9549 LP  0  0  0  0  0  0  0  0  0  0  0  0  # atno 17342 bound_to 10162
  139.8885  143.6983  152.3148 LP  0  0  0  0  0  0  0  0  0  0  0  0  # atno 17343 bound_to 10162
  156.0554  130.5616  150.9080 LP  0  0  0  0  0  0  0  0  0  0  0  0  # atno 17370 bound_to 10713
  157.5991  131.0942  150.8991 LP  0  0  0  0  0  0  0  0  0  0  0  0  # atno 17371 bound_to 10713
  139.8897  135.0107  156.6694 LP  0  0  0  0  0  0  0  0  0  0  0  0  # atno 17394 bound_to 11000
  140.7389  133.8995  155.8263 LP  0  0  0  0  0  0  0  0  0  0  0  0  # atno 17395 bound_to 11000

$$$$
