AV-unprocessed.smi:249|AV-procd|sdf|1926|dock7
  -GOLD-   2262021 43D 1   1.00000     0.00000
 Structure written by MMmdl.
 64 67  0  0  0  0  0  0  0  0  2 V2000
  143.8071  132.2637  150.8014 C   0  0  0  0  0  0  0  0  0  0  0  0
  144.6298  133.5029  150.4222 C   0  0  0  0  0  0  0  0  0  0  0  0
  144.8045  134.4332  151.5671 N   0  3  2  0  0  0  0  0  0  0  0  0
  145.3190  135.7729  151.1741 C   0  0  0  0  0  0  0  0  0  0  0  0
  145.2715  136.7490  152.3597 C   0  0  0  0  0  0  0  0  0  0  0  0
  146.0571  136.2010  153.5693 C   0  0  1  0  0  0  0  0  0  0  0  0
  146.0939  137.1175  154.7166 N   0  0  0  0  0  0  0  0  0  0  0  0
  144.8647  137.3009  155.4787 C   0  0  0  0  0  0  0  0  0  0  0  0
  146.8469  138.2372  154.6073 C   0  0  0  0  0  0  0  0  0  0  0  0
  146.8049  138.9029  153.4262 N   0  0  0  0  0  0  0  0  0  0  0  0
  147.5233  140.0170  153.2592 C   0  0  0  0  0  0  0  0  0  0  0  0
  148.3354  140.6239  154.1270 N   0  0  0  0  0  0  0  0  0  0  0  0
  148.3893  139.9506  155.3119 C   0  0  0  0  0  0  0  0  0  0  0  0
  147.6825  138.7585  155.6359 C   0  0  0  0  0  0  0  0  0  0  0  0
  147.9755  138.3744  156.9391 N   0  0  0  0  0  0  0  0  0  0  0  0
  148.8051  139.2885  157.3622 C   0  0  0  0  0  0  0  0  0  0  0  0
  149.1241  140.2622  156.4425 N   0  0  0  0  0  0  0  0  0  0  0  0
  150.0080  141.3961  156.6517 C   0  0  0  0  0  0  0  0  0  0  0  0
  150.9994  141.2377  157.8346 C   0  0  1  0  0  0  0  0  0  0  0  0
  151.7643  139.9025  157.6831 C   0  0  0  0  0  0  0  0  0  0  0  0
  152.6116  139.9135  156.5521 O   0  0  0  0  0  0  0  0  0  0  0  0
  151.9561  142.4480  158.0431 C   0  0  1  0  0  0  0  0  0  0  0  0
  151.2974  143.8192  158.0828 C   0  0  0  0  0  0  0  0  0  0  0  0
  152.3247  144.6858  158.8075 C   0  0  0  0  0  0  0  0  0  0  0  0
  153.1121  143.7990  159.5922 O   0  0  0  0  0  0  0  0  0  0  0  0
  152.6612  142.4649  159.4036 C   0  0  0  0  0  0  0  0  0  0  0  0
  145.5186  134.7981  153.9255 C   0  0  0  0  0  0  0  0  0  0  0  0
  145.5478  133.8396  152.7178 C   0  0  2  0  0  0  0  0  0  0  0  0
  146.9798  133.3880  152.3574 C   0  0  0  0  0  0  0  0  0  0  0  0
  143.7542  131.5684  149.9633 H   0  0  0  0  0  0  0  0  0  0  0  0
  142.7838  132.5180  151.0757 H   0  0  0  0  0  0  0  0  0  0  0  0
  144.2586  131.7335  151.6405 H   0  0  0  0  0  0  0  0  0  0  0  0
  145.6074  133.1588  150.0821 H   0  0  0  0  0  0  0  0  0  0  0  0
  144.1731  134.0240  149.5795 H   0  0  0  0  0  0  0  0  0  0  0  0
  146.3352  135.6905  150.7876 H   0  0  0  0  0  0  0  0  0  0  0  0
  144.7159  136.1817  150.3644 H   0  0  0  0  0  0  0  0  0  0  0  0
  145.6767  137.7148  152.0564 H   0  0  0  0  0  0  0  0  0  0  0  0
  144.2272  136.9176  152.6259 H   0  0  0  0  0  0  0  0  0  0  0  0
  147.0954  136.0920  153.2545 H   0  0  0  0  0  0  0  0  0  0  0  0
  145.0444  137.9055  156.3686 H   0  0  0  0  0  0  0  0  0  0  0  0
  144.4782  136.3354  155.8057 H   0  0  0  0  0  0  0  0  0  0  0  0
  144.0931  137.7896  154.8842 H   0  0  0  0  0  0  0  0  0  0  0  0
  147.4355  140.4895  152.2920 H   0  0  0  0  0  0  0  0  0  0  0  0
  149.2200  139.2701  158.3596 H   0  0  0  0  0  0  0  0  0  0  0  0
  150.5592  141.5440  155.7223 H   0  0  0  0  0  0  0  0  0  0  0  0
  149.3991  142.2905  156.7898 H   0  0  0  0  0  0  0  0  0  0  0  0
  150.4109  141.1332  158.7462 H   0  0  0  0  0  0  0  0  0  0  0  0
  152.3606  139.6862  158.5693 H   0  0  0  0  0  0  0  0  0  0  0  0
  151.0634  139.0732  157.5828 H   0  0  0  0  0  0  0  0  0  0  0  0
  152.1299  140.2645  155.8187 H   0  0  0  0  0  0  0  0  0  0  0  0
  152.7172  142.4499  157.2610 H   0  0  0  0  0  0  0  0  0  0  0  0
  151.0681  144.2211  157.0975 H   0  0  0  0  0  0  0  0  0  0  0  0
  150.3717  143.7802  158.6591 H   0  0  0  0  0  0  0  0  0  0  0  0
  152.9782  145.1885  158.0941 H   0  0  0  0  0  0  0  0  0  0  0  0
  151.8510  145.4474  159.4273 H   0  0  0  0  0  0  0  0  0  0  0  0
  151.9613  142.2206  160.2041 H   0  0  0  0  0  0  0  0  0  0  0  0
  153.4949  141.7646  159.4563 H   0  0  0  0  0  0  0  0  0  0  0  0
  146.0853  134.3640  154.7495 H   0  0  0  0  0  0  0  0  0  0  0  0
  144.4888  134.8800  154.2739 H   0  0  0  0  0  0  0  0  0  0  0  0
  145.0016  132.9450  153.0205 H   0  0  0  0  0  0  0  0  0  0  0  0
  147.4736  132.9489  153.2246 H   0  0  0  0  0  0  0  0  0  0  0  0
  147.6039  134.2127  152.0148 H   0  0  0  0  0  0  0  0  0  0  0  0
  146.9783  132.6285  151.5759 H   0  0  0  0  0  0  0  0  0  0  0  0
  143.8719  134.5933  151.9206 H   0  0  0  0  0  0  0  0  0  0  0  0
  1  2  1  0  0  0  0
  1 30  1  0  0  0  0
  1 31  1  0  0  0  0
  1 32  1  0  0  0  0
  2  3  1  0  0  0  0
  2 33  1  0  0  0  0
  2 34  1  0  0  0  0
  3 28  1  0  0  0  0
  3  4  1  0  0  0  0
  3 64  1  0  0  0  0
  4  5  1  0  0  0  0
  4 35  1  0  0  0  0
  4 36  1  0  0  0  0
  5  6  1  0  0  0  0
  5 37  1  0  0  0  0
  5 38  1  0  0  0  0
  6  7  1  0  0  0  0
  6 27  1  0  0  0  0
  6 39  1  0  0  0  0
  7  8  1  0  0  0  0
  7  9  1  0  0  0  0
  8 40  1  0  0  0  0
  8 41  1  0  0  0  0
  8 42  1  0  0  0  0
  9 14  1  0  0  0  0
  9 10  2  0  0  0  0
 10 11  1  0  0  0  0
 11 12  2  0  0  0  0
 11 43  1  0  0  0  0
 12 13  1  0  0  0  0
 13 17  1  0  0  0  0
 13 14  2  0  0  0  0
 14 15  1  0  0  0  0
 15 16  2  0  0  0  0
 16 17  1  0  0  0  0
 16 44  1  0  0  0  0
 17 18  1  0  0  0  0
 18 19  1  0  0  0  0
 18 45  1  0  0  0  0
 18 46  1  0  0  0  0
 19 20  1  0  0  0  0
 19 22  1  0  0  0  0
 19 47  1  0  0  0  0
 20 21  1  0  0  0  0
 20 48  1  0  0  0  0
 20 49  1  0  0  0  0
 21 50  1  0  0  0  0
 22 26  1  0  0  0  0
 22 23  1  0  0  0  0
 22 51  1  0  0  0  0
 23 24  1  0  0  0  0
 23 52  1  0  0  0  0
 23 53  1  0  0  0  0
 24 25  1  0  0  0  0
 24 54  1  0  0  0  0
 24 55  1  0  0  0  0
 25 26  1  0  0  0  0
 26 56  1  0  0  0  0
 26 57  1  0  0  0  0
 27 28  1  0  0  0  0
 27 58  1  0  0  0  0
 27 59  1  0  0  0  0
 28 29  1  0  0  0  0
 28 60  1  0  0  0  0
 29 61  1  0  0  0  0
 29 62  1  0  0  0  0
 29 63  1  0  0  0  0
M  CHG  1   3   1
M  END
> <s_m_source_file>
AV-unprocessed.smi

> <i_m_source_file_index>
249

> <i_lp_mmshare_version>
43012

> <i_f3d_flags>
0

> <s_epik_input>
W0NIM11bQ0gyXU4xW0NIMl1bQ0gyXVtDQEhdKFtDSDJdW0NASF0xW0NIM10pTihbQ0gzXSljKG5bY0hdbjIpYyhjMjMpbltjSF1uM1tDSDJdW0NASF0oW0NIMl1bT0hdKVtDQEBIXTRbQ0gyXVtDSDJdT1tDSDJdNA==

> <s_epik_cmdline>
J2VwaWtfcHl0aG9uJywgJy1waCcsICc3LjAnLCAnLXRuJywgJzgnLCAnLW1hJywgJzIwMCcsICctbWV0YWxfYmluZGluZycsICctaW1hZScsICc8aW5maWxlLm1hZT4nLCAnLW9tYWUnLCAnPG91dGZpbGUubWFlPic=

> <r_lp_tautomer_probability>
1

> <r_epik_Ionization_Penalty>
0.00294688

> <r_epik_Ionization_Penalty_Charging>
0.00169971

> <r_epik_Ionization_Penalty_Neutral>
0.00124717

> <r_epik_State_Penalty>
-0

> <r_epik_Charging_Adjusted_Penalty>
0.00169971

> <i_epik_Tot_Q>
1

> <i_epik_Tot_abs_Q>
1

> <r_epik_Metal_State_Penalty>
-0

> <b_epik_Metal_Only>
0

> <s_lp_Force_Field>
OPLS_2005

> <r_lp_Energy>
54.3628

> <b_lp_Chiralities_Consistent>
1

> <s_lp_Variant>
AV-unprocessed.smi:249-29

> <Gold.Version>
5.8.1

> <Gold.Id.Protein>
6NUR|6NUR_protein|mol2

> <Gold.PLP.Fitness>
42.4264

> <Gold.PLP.PLP>
-38.9859

> <Gold.PLP.part.hbond>
-1.0000

> <Gold.PLP.part.metal>
0.0000

> <Gold.PLP.part.buried>
-6.0474

> <Gold.PLP.part.nonpolar>
-32.9763

> <Gold.PLP.part.repulsive>
0.4127

> <Gold.PLP.ligand.clash>
0.0000

> <Gold.PLP.ligand.torsion>
1.0787

> <Gold.PLP.Chemscore.Hbond>
1.0000

> <Gold.PLP.Chemscore.CHOScore>
0.5463

> <Gold.PLP.Chemscore.Metal>
0.0000

> <Gold.Chemscore.Hbonds>
donor molecule, donor type, donor heavy atom, donor atom, acceptor molecule, acceptor atom, score
      P1  H  7997  8008       L1    21  1.00
      L1  C    11    43       P1  7957  0.52

> <Gold.PLP.Chemscore.Internal.Correction>
0.9593

> <Gold.Rescore>
     Score         DG    S(hbond)    S(metal)    S(lipo)     H(rot)  DE(clash)    DE(int)     intcor
      9.86     -13.10       0.96        0.00     101.14       2.90       0.71       2.52       ----

> <Gold.Chemscore.Fitness>
9.8626

> <Gold.Chemscore.DG>
-13.0972

> <Gold.Chemscore.ZeroCoef>
-5.4800

> <Gold.Chemscore.Hbond>
0.9609

> <Gold.Chemscore.Metal>
0.0000

> <Gold.Chemscore.Lipo>
101.1410

> <Gold.Chemscore.Internal_Hbond>
0.0000

> <Gold.Chemscore.DEClash>
0.7138

> <Gold.Chemscore.DEInternal>
2.5208

> <Gold.Chemscore.Rot>
2.9006

> <Gold.Chemscore.Internal.Correction>
   9.000000E+99

> <Gold.Chemscore.Hbonds>
donor molecule, donor type, donor heavy atom, donor atom, acceptor molecule, acceptor atom, score
      P1  H  7997  8008       L1    21  0.74

> <Gold.Chemscore.Hbond.Weighted>
-3.2094

> <Gold.Chemscore.Metal.Weighted>
-0.0000

> <Gold.Chemscore.Lipo.Weighted>
-11.8335

> <Gold.Chemscore.Internal_Hbond.Weighted>
0.0000

> <Gold.Chemscore.DEClash.Weighted>
0.7138

> <Gold.Chemscore.DEInternal.Weighted>
2.5208

> <Gold.Chemscore.Rot.Weighted>
7.4256

> <Gold.Chemscore.Internal.Correction.Weighted>
   9.000000E+99

> <Gold.Protein.RotatedTorsions>
[ 6907 6896 6895 6894 ] final  -90.56 input  -60.11 | X-H torsion
[ 7974 7965 7964 7962 ] final   74.23 input  175.53 | X-H torsion
[ 8008 7997 7996 7995 ] final  -39.08 input   59.86 | X-H torsion
[ 10167 10162 10161 10158 ] final  173.76 input  -65.29 | X-H torsion
[ 10718 10713 10712 10709 ] final   49.38 input   66.30 | X-H torsion
[ 10763 10752 10751 10750 ] final  164.99 input  -60.55 | X-H torsion
[ 11005 11000 10999 10996 ] final  -48.73 input  -57.11 | X-H torsion

> <Gold.Protein.ActiveResidues>
 VAL166  LYS551  ARG553  GLY616  TRP617  ASP618  TYR619  PRO620  LYS621  CYS622 
 ASP623  PHE694  ASN695  SER759  ASP760  ASP761  ALA762  ILE779  LEU786  VAL792 
 PHE793  MET794  SER795  GLU796  ALA797  LYS798  CYS799  TRP800  GLU811  SER814 

> <Gold.Protein.RotatedAtoms>
  150.6883  134.2414  159.4473 H   0  0  0  0  0  0  0  0  0  0  0  0  # atno 6907 bound_to 6896
  152.0358  134.9738  160.0582 H   0  0  0  0  0  0  0  0  0  0  0  0  # atno 6908 bound_to 6896
  152.1260  133.4345  159.4735 H   0  0  0  0  0  0  0  0  0  0  0  0  # atno 6909 bound_to 6896
  145.7309  139.2683  143.1541 H   0  0  0  0  0  0  0  0  0  0  0  0  # atno 7974 bound_to 7965
  154.4028  140.1561  156.2804 H   0  0  0  0  0  0  0  0  0  0  0  0  # atno 8008 bound_to 7997
  155.8874  140.3440  155.5909 H   0  0  0  0  0  0  0  0  0  0  0  0  # atno 8009 bound_to 7997
  155.7597  140.0816  157.2152 H   0  0  0  0  0  0  0  0  0  0  0  0  # atno 8010 bound_to 7997
  139.5119  144.3224  152.0190 H   0  0  0  0  0  0  0  0  0  0  0  0  # atno 10167 bound_to 10162
  157.4780  130.8297  149.8062 H   0  0  0  0  0  0  0  0  0  0  0  0  # atno 10718 bound_to 10713
  154.3173  135.2756  155.2537 H   0  0  0  0  0  0  0  0  0  0  0  0  # atno 10763 bound_to 10752
  154.4906  135.5834  153.6460 H   0  0  0  0  0  0  0  0  0  0  0  0  # atno 10764 bound_to 10752
  152.9881  135.6133  154.3355 H   0  0  0  0  0  0  0  0  0  0  0  0  # atno 10765 bound_to 10752
  141.0718  133.6677  156.3483 H   0  0  0  0  0  0  0  0  0  0  0  0  # atno 11005 bound_to 11000
  146.0538  140.8042  142.9768 LP  0  0  0  0  0  0  0  0  0  0  0  0  # atno 17320 bound_to 7965
  144.6893  140.3093  143.7250 LP  0  0  0  0  0  0  0  0  0  0  0  0  # atno 17321 bound_to 7965
  140.2665  144.4010  150.6166 LP  0  0  0  0  0  0  0  0  0  0  0  0  # atno 17342 bound_to 10162
  140.6119  143.2170  151.6868 LP  0  0  0  0  0  0  0  0  0  0  0  0  # atno 17343 bound_to 10162
  156.0107  130.3835  150.2275 LP  0  0  0  0  0  0  0  0  0  0  0  0  # atno 17370 bound_to 10713
  157.0460  131.0049  151.3268 LP  0  0  0  0  0  0  0  0  0  0  0  0  # atno 17371 bound_to 10713
  140.5658  134.5889  157.5445 LP  0  0  0  0  0  0  0  0  0  0  0  0  # atno 17394 bound_to 11000
  139.9531  134.7583  156.0404 LP  0  0  0  0  0  0  0  0  0  0  0  0  # atno 17395 bound_to 11000

$$$$
