AV-unprocessed.smi:3217|AV-procd|sdf|12290|dock5
  -GOLD-   2272018133D 1   1.00000     0.00000
 Structure written by MMmdl.
 34 35  0  0  0  0  0  0  0  0  1 V2000
  144.3393  135.6308  152.7863 C   0  0  0  0  0  0  0  0  0  0  0  0
  145.1558  135.9196  151.5183 C   0  0  1  0  0  0  0  0  0  0  0  0
  146.3553  136.6689  151.8901 N   0  0  0  0  0  0  0  0  0  0  0  0
  146.3816  137.8438  152.5359 C   0  0  0  0  0  0  0  0  0  0  0  0
  145.3708  138.4496  152.8899 O   0  0  0  0  0  0  0  0  0  0  0  0
  147.6462  138.2476  152.7463 N   0  0  0  0  0  0  0  0  0  0  0  0
  148.1136  139.4109  153.4171 C   0  0  0  0  0  0  0  0  0  0  0  0
  147.3753  140.6119  153.5549 C   0  0  0  0  0  0  0  0  0  0  0  0
  147.9616  141.6960  154.2365 C   0  0  0  0  0  0  0  0  0  0  0  0
  149.2648  141.5445  154.7477 C   0  0  0  0  0  0  0  0  0  0  0  0
  149.9849  140.4113  154.6126 N   0  0  0  0  0  0  0  0  0  0  0  0
  149.4160  139.3759  153.9591 C   0  0  0  0  0  0  0  0  0  0  0  0
  145.5408  134.6260  150.7721 C   0  0  2  0  0  0  0  0  0  0  0  0
  144.3592  133.8342  150.2053 C   0  0  0  0  0  0  0  0  0  0  0  0
  144.9241  132.4340  150.1460 C   0  0  0  0  0  0  0  0  0  0  0  0
  145.7500  132.3838  151.4266 C   0  0  0  0  0  0  0  0  0  0  0  0
  146.1987  133.7172  151.6540 O   0  0  0  0  0  0  0  0  0  0  0  0
  143.4150  135.1038  152.5485 H   0  0  0  0  0  0  0  0  0  0  0  0
  144.0664  136.5561  153.2952 H   0  0  0  0  0  0  0  0  0  0  0  0
  144.9010  135.0164  153.4907 H   0  0  0  0  0  0  0  0  0  0  0  0
  144.5303  136.5196  150.8549 H   0  0  0  0  0  0  0  0  0  0  0  0
  147.2393  136.2493  151.6426 H   0  0  0  0  0  0  0  0  0  0  0  0
  148.3670  137.6102  152.4415 H   0  0  0  0  0  0  0  0  0  0  0  0
  146.3842  140.7322  153.1474 H   0  0  0  0  0  0  0  0  0  0  0  0
  147.4243  142.6243  154.3616 H   0  0  0  0  0  0  0  0  0  0  0  0
  149.7434  142.3569  155.2744 H   0  0  0  0  0  0  0  0  0  0  0  0
  150.0224  138.4860  153.8703 H   0  0  0  0  0  0  0  0  0  0  0  0
  146.2337  134.8530  149.9600 H   0  0  0  0  0  0  0  0  0  0  0  0
  143.5106  133.8636  150.8907 H   0  0  0  0  0  0  0  0  0  0  0  0
  144.0268  134.2014  149.2340 H   0  0  0  0  0  0  0  0  0  0  0  0
  144.1562  131.6613  150.1025 H   0  0  0  0  0  0  0  0  0  0  0  0
  145.5712  132.3262  149.2742 H   0  0  0  0  0  0  0  0  0  0  0  0
  145.1269  132.0808  152.2690 H   0  0  0  0  0  0  0  0  0  0  0  0
  146.5858  131.6875  151.3563 H   0  0  0  0  0  0  0  0  0  0  0  0
  1  2  1  0  0  0  0
  1 18  1  0  0  0  0
  1 19  1  0  0  0  0
  1 20  1  0  0  0  0
  2  3  1  0  0  0  0
  2 13  1  0  0  0  0
  2 21  1  0  0  0  0
  3  4  1  0  0  0  0
  3 22  1  0  0  0  0
  4  5  2  0  0  0  0
  4  6  1  0  0  0  0
  6  7  1  0  0  0  0
  6 23  1  0  0  0  0
  7 12  1  0  0  0  0
  7  8  2  0  0  0  0
  8  9  1  0  0  0  0
  8 24  1  0  0  0  0
  9 10  2  0  0  0  0
  9 25  1  0  0  0  0
 10 11  1  0  0  0  0
 10 26  1  0  0  0  0
 11 12  2  0  0  0  0
 12 27  1  0  0  0  0
 13 17  1  0  0  0  0
 13 14  1  0  0  0  0
 13 28  1  0  0  0  0
 14 15  1  0  0  0  0
 14 29  1  0  0  0  0
 14 30  1  0  0  0  0
 15 16  1  0  0  0  0
 15 31  1  0  0  0  0
 15 32  1  0  0  0  0
 16 17  1  0  0  0  0
 16 33  1  0  0  0  0
 16 34  1  0  0  0  0
M  END
> <s_m_source_file>
AV-unprocessed.smi

> <i_m_source_file_index>
3217

> <i_lp_mmshare_version>
43012

> <i_f3d_flags>
0

> <s_epik_input>
TzFbQ0gyXVtDSDJdW0NIMl1bQ0BIXTFbQ0BIXShbQ0gzXSlbTkhdQyg9TylbTkhdYzJbY0hdW2NIXVtjSF1uW2NIXTI=

> <s_epik_cmdline>
J2VwaWtfcHl0aG9uJywgJy1waCcsICc3LjAnLCAnLXRuJywgJzgnLCAnLW1hJywgJzIwMCcsICctbWV0YWxfYmluZGluZycsICctaW1hZScsICc8aW5maWxlLm1hZT4nLCAnLW9tYWUnLCAnPG91dGZpbGUubWFlPic=

> <r_epik_Ionization_Penalty>
0.00475451

> <r_epik_Ionization_Penalty_Charging>
0

> <r_epik_Ionization_Penalty_Neutral>
0.00475451

> <r_epik_State_Penalty>
0.00341814

> <r_epik_Charging_Adjusted_Penalty>
0.00341814

> <i_epik_Tot_Q>
0

> <i_epik_Tot_abs_Q>
0

> <r_epik_Metal_State_Penalty>
-0

> <b_epik_Metal_Only>
0

> <s_lp_Force_Field>
OPLS_2005

> <r_lp_Energy>
20.7148

> <b_lp_Chiralities_Consistent>
1

> <s_lp_Variant>
AV-unprocessed.smi:3217-2

> <Gold.Version>
5.8.1

> <Gold.Id.Protein>
6NUR|6NUR_protein|mol2

> <Gold.PLP.Fitness>
39.4775

> <Gold.PLP.PLP>
-28.1563

> <Gold.PLP.part.hbond>
-3.9377

> <Gold.PLP.part.metal>
0.0000

> <Gold.PLP.part.buried>
1.4333

> <Gold.PLP.part.nonpolar>
-28.8979

> <Gold.PLP.part.repulsive>
3.6301

> <Gold.PLP.ligand.clash>
0.0000

> <Gold.PLP.ligand.torsion>
0.1762

> <Gold.PLP.Chemscore.Hbond>
2.9040

> <Gold.PLP.Chemscore.CHOScore>
0.9843

> <Gold.PLP.Chemscore.Metal>
0.0000

> <Gold.Chemscore.Hbonds>
donor molecule, donor type, donor heavy atom, donor atom, acceptor molecule, acceptor atom, score
      L1  H     3    22       P1  7948  0.98
      L1  H     6    23       P1  7948  1.00
      P1  H  7989  7998       L1    11  0.92
      L1  C    10    26       P1  8028  0.95

> <Gold.PLP.Chemscore.Internal.Correction>
0.0088

> <Gold.Rescore>
     Score         DG    S(hbond)    S(metal)    S(lipo)     H(rot)  DE(clash)    DE(int)     intcor
     13.83     -17.93       2.14        0.00      72.12       1.22       1.79       2.32       ----

> <Gold.Chemscore.Fitness>
13.8259

> <Gold.Chemscore.DG>
-17.9301

> <Gold.Chemscore.ZeroCoef>
-5.4800

> <Gold.Chemscore.Hbond>
2.1389

> <Gold.Chemscore.Metal>
0.0000

> <Gold.Chemscore.Lipo>
72.1242

> <Gold.Chemscore.Internal_Hbond>
0.0000

> <Gold.Chemscore.DEClash>
1.7876

> <Gold.Chemscore.DEInternal>
2.3165

> <Gold.Chemscore.Rot>
1.2236

> <Gold.Chemscore.Internal.Correction>
   9.000000E+99

> <Gold.Chemscore.Hbonds>
donor molecule, donor type, donor heavy atom, donor atom, acceptor molecule, acceptor atom, score
      L1  H     3    22       P1  7948  0.93
      L1  H     6    23       P1  7948  0.97
      P1  H  7989  7998       L1    11  0.22

> <Gold.Chemscore.Hbond.Weighted>
-7.1441

> <Gold.Chemscore.Metal.Weighted>
-0.0000

> <Gold.Chemscore.Lipo.Weighted>
-8.4385

> <Gold.Chemscore.Internal_Hbond.Weighted>
0.0000

> <Gold.Chemscore.DEClash.Weighted>
1.7876

> <Gold.Chemscore.DEInternal.Weighted>
2.3165

> <Gold.Chemscore.Rot.Weighted>
3.1325

> <Gold.Chemscore.Internal.Correction.Weighted>
   9.000000E+99

> <Gold.Protein.RotatedTorsions>
[ 6907 6896 6895 6894 ] final -153.01 input  -60.11 | X-H torsion
[ 7974 7965 7964 7962 ] final   10.36 input  175.53 | X-H torsion
[ 8008 7997 7996 7995 ] final -152.32 input   59.86 | X-H torsion
[ 10167 10162 10161 10158 ] final   44.32 input  -65.29 | X-H torsion
[ 10718 10713 10712 10709 ] final -140.46 input   66.30 | X-H torsion
[ 10763 10752 10751 10750 ] final -103.22 input  -60.55 | X-H torsion
[ 11005 11000 10999 10996 ] final  103.26 input  -57.11 | X-H torsion

> <Gold.Protein.ActiveResidues>
 VAL166  LYS551  ARG553  GLY616  TRP617  ASP618  TYR619  PRO620  LYS621  CYS622 
 ASP623  PHE694  ASN695  SER759  ASP760  ASP761  ALA762  ILE779  LEU786  VAL792 
 PHE793  MET794  SER795  GLU796  ALA797  LYS798  CYS799  TRP800  GLU811  SER814 

> <Gold.Protein.RotatedAtoms>
  151.2362  133.4424  159.2605 H   0  0  0  0  0  0  0  0  0  0  0  0  # atno 6907 bound_to 6896
  151.0748  134.9821  159.8337 H   0  0  0  0  0  0  0  0  0  0  0  0  # atno 6908 bound_to 6896
  152.5417  134.2305  159.8876 H   0  0  0  0  0  0  0  0  0  0  0  0  # atno 6909 bound_to 6896
  146.2389  139.9646  142.8454 H   0  0  0  0  0  0  0  0  0  0  0  0  # atno 7974 bound_to 7965
  155.6533  140.0714  157.2579 H   0  0  0  0  0  0  0  0  0  0  0  0  # atno 8008 bound_to 7997
  154.4158  140.1729  156.1748 H   0  0  0  0  0  0  0  0  0  0  0  0  # atno 8009 bound_to 7997
  155.9759  140.3358  155.6621 H   0  0  0  0  0  0  0  0  0  0  0  0  # atno 8010 bound_to 7997
  140.3355  144.2536  150.6162 H   0  0  0  0  0  0  0  0  0  0  0  0  # atno 10167 bound_to 10162
  156.3225  130.7542  151.1643 H   0  0  0  0  0  0  0  0  0  0  0  0  # atno 10718 bound_to 10713
  154.7791  135.4831  153.9807 H   0  0  0  0  0  0  0  0  0  0  0  0  # atno 10763 bound_to 10752
  153.1470  135.6784  153.8947 H   0  0  0  0  0  0  0  0  0  0  0  0  # atno 10764 bound_to 10752
  153.8604  135.3156  155.3416 H   0  0  0  0  0  0  0  0  0  0  0  0  # atno 10765 bound_to 10752
  139.8782  134.9256  156.5182 H   0  0  0  0  0  0  0  0  0  0  0  0  # atno 11005 bound_to 11000
  145.1739  140.9734  143.4306 LP  0  0  0  0  0  0  0  0  0  0  0  0  # atno 17320 bound_to 7965
  145.0003  139.3604  143.6170 LP  0  0  0  0  0  0  0  0  0  0  0  0  # atno 17321 bound_to 7965
  140.5358  143.2233  151.8165 LP  0  0  0  0  0  0  0  0  0  0  0  0  # atno 17342 bound_to 10162
  139.4849  144.4663  151.9480 LP  0  0  0  0  0  0  0  0  0  0  0  0  # atno 17343 bound_to 10162
  157.7415  131.0503  150.5095 LP  0  0  0  0  0  0  0  0  0  0  0  0  # atno 17370 bound_to 10713
  156.5249  130.4171  149.6231 LP  0  0  0  0  0  0  0  0  0  0  0  0  # atno 17371 bound_to 10713
  140.8470  133.8161  155.9131 LP  0  0  0  0  0  0  0  0  0  0  0  0  # atno 17394 bound_to 11000
  140.9182  134.2175  157.4943 LP  0  0  0  0  0  0  0  0  0  0  0  0  # atno 17395 bound_to 11000

$$$$
