AV-unprocessed.smi:1793|AV-procd|sdf|7227|dock2
  -GOLD-   22720 8473D 1   1.00000     0.00000
 Structure written by MMmdl.
 46 48  0  0  0  0  0  0  0  0  1 V2000
  151.5751  144.6118  161.8962 C   0  0  0  0  0  0  0  0  0  0  0  0
  150.5856  143.7444  161.1023 C   0  0  1  0  0  0  0  0  0  0  0  0
  149.3733  144.5046  160.8065 N   0  0  0  0  0  0  0  0  0  0  0  0
  148.1444  144.2258  161.2607 C   0  0  0  0  0  0  0  0  0  0  0  0
  147.8869  143.2783  162.0034 O   0  0  0  0  0  0  0  0  0  0  0  0
  147.2516  145.1228  160.8125 N   0  0  0  0  0  0  0  0  0  0  0  0
  145.8682  145.2090  161.1320 C   0  0  0  0  0  0  0  0  0  0  0  0
  145.1702  144.1046  161.6778 C   0  0  0  0  0  0  0  0  0  0  0  0
  143.7885  144.2101  161.9114 C   0  0  0  0  0  0  0  0  0  0  0  0
  143.1483  145.4143  161.5750 C   0  0  0  0  0  0  0  0  0  0  0  0
  143.7961  146.4696  161.0420 N   0  0  0  0  0  0  0  0  0  0  0  0
  145.1321  146.3891  160.8244 C   0  0  0  0  0  0  0  0  0  0  0  0
  145.7612  147.5334  160.2810 N   0  0  0  0  0  0  0  0  0  0  0  0
  144.9988  148.4943  159.4903 C   0  0  0  0  0  0  0  0  0  0  0  0
  145.8750  149.7423  159.4302 C   0  0  0  0  0  0  0  0  0  0  0  0
  146.5385  149.7396  160.8036 C   0  0  0  0  0  0  0  0  0  0  0  0
  146.7265  148.2504  161.1096 C   0  0  0  0  0  0  0  0  0  0  0  0
  151.2030  143.2006  159.7986 C   0  0  1  0  0  0  0  0  0  0  0  0
  152.5460  142.4700  159.9806 C   0  0  0  0  0  0  0  0  0  0  0  0
  152.2952  141.0822  159.4185 C   0  0  0  0  0  0  0  0  0  0  0  0
  151.1145  141.3079  158.4854 C   0  0  0  0  0  0  0  0  0  0  0  0
  150.3285  142.2480  159.1975 O   0  0  0  0  0  0  0  0  0  0  0  0
  152.4807  144.0539  162.1345 H   0  0  0  0  0  0  0  0  0  0  0  0
  151.1382  144.9451  162.8382 H   0  0  0  0  0  0  0  0  0  0  0  0
  151.8686  145.4985  161.3337 H   0  0  0  0  0  0  0  0  0  0  0  0
  150.3279  142.8834  161.7215 H   0  0  0  0  0  0  0  0  0  0  0  0
  149.4848  145.3072  160.2043 H   0  0  0  0  0  0  0  0  0  0  0  0
  147.6250  145.9005  160.2884 H   0  0  0  0  0  0  0  0  0  0  0  0
  145.6691  143.1731  161.8984 H   0  0  0  0  0  0  0  0  0  0  0  0
  143.2316  143.3831  162.3264 H   0  0  0  0  0  0  0  0  0  0  0  0
  142.0864  145.5325  161.7327 H   0  0  0  0  0  0  0  0  0  0  0  0
  144.7782  148.1051  158.4962 H   0  0  0  0  0  0  0  0  0  0  0  0
  144.0559  148.7383  159.9813 H   0  0  0  0  0  0  0  0  0  0  0  0
  146.6304  149.6326  158.6510 H   0  0  0  0  0  0  0  0  0  0  0  0
  145.3075  150.6514  159.2297 H   0  0  0  0  0  0  0  0  0  0  0  0
  147.4742  150.2986  160.8276 H   0  0  0  0  0  0  0  0  0  0  0  0
  145.8631  150.1820  161.5369 H   0  0  0  0  0  0  0  0  0  0  0  0
  146.5950  148.0418  162.1723 H   0  0  0  0  0  0  0  0  0  0  0  0
  147.7317  147.9388  160.8254 H   0  0  0  0  0  0  0  0  0  0  0  0
  151.3455  144.0193  159.0914 H   0  0  0  0  0  0  0  0  0  0  0  0
  153.3238  142.9770  159.4085 H   0  0  0  0  0  0  0  0  0  0  0  0
  152.8800  142.4277  161.0180 H   0  0  0  0  0  0  0  0  0  0  0  0
  153.1644  140.6606  158.9129 H   0  0  0  0  0  0  0  0  0  0  0  0
  152.0054  140.4041  160.2221 H   0  0  0  0  0  0  0  0  0  0  0  0
  151.4400  141.7421  157.5387 H   0  0  0  0  0  0  0  0  0  0  0  0
  150.5596  140.3932  158.2768 H   0  0  0  0  0  0  0  0  0  0  0  0
  1  2  1  0  0  0  0
  1 23  1  0  0  0  0
  1 24  1  0  0  0  0
  1 25  1  0  0  0  0
  2  3  1  0  0  0  0
  2 18  1  0  0  0  0
  2 26  1  0  0  0  0
  3  4  1  0  0  0  0
  3 27  1  0  0  0  0
  4  5  2  0  0  0  0
  4  6  1  0  0  0  0
  6  7  1  0  0  0  0
  6 28  1  0  0  0  0
  7 12  1  0  0  0  0
  7  8  2  0  0  0  0
  8  9  1  0  0  0  0
  8 29  1  0  0  0  0
  9 10  2  0  0  0  0
  9 30  1  0  0  0  0
 10 11  1  0  0  0  0
 10 31  1  0  0  0  0
 11 12  2  0  0  0  0
 12 13  1  0  0  0  0
 13 17  1  0  0  0  0
 13 14  1  0  0  0  0
 14 15  1  0  0  0  0
 14 32  1  0  0  0  0
 14 33  1  0  0  0  0
 15 16  1  0  0  0  0
 15 34  1  0  0  0  0
 15 35  1  0  0  0  0
 16 17  1  0  0  0  0
 16 36  1  0  0  0  0
 16 37  1  0  0  0  0
 17 38  1  0  0  0  0
 17 39  1  0  0  0  0
 18 22  1  0  0  0  0
 18 19  1  0  0  0  0
 18 40  1  0  0  0  0
 19 20  1  0  0  0  0
 19 41  1  0  0  0  0
 19 42  1  0  0  0  0
 20 21  1  0  0  0  0
 20 43  1  0  0  0  0
 20 44  1  0  0  0  0
 21 22  1  0  0  0  0
 21 45  1  0  0  0  0
 21 46  1  0  0  0  0
M  END
> <s_m_source_file>
AV-unprocessed.smi

> <i_m_source_file_index>
1793

> <i_lp_mmshare_version>
43012

> <i_f3d_flags>
0

> <s_epik_input>
TzFbQ0gyXVtDSDJdW0NIMl1bQ0BIXTFbQ0BIXShbQ0gzXSlbTkhdQyg9TylbTkhdYzJbY0hdW2NIXVtjSF1uYzJOM1tDSDJdW0NIMl1bQ0gyXVtDSDJdMw==

> <s_epik_cmdline>
J2VwaWtfcHl0aG9uJywgJy1waCcsICc3LjAnLCAnLXRuJywgJzgnLCAnLW1hJywgJzIwMCcsICctbWV0YWxfYmluZGluZycsICctaW1hZScsICc8aW5maWxlLm1hZT4nLCAnLW9tYWUnLCAnPG91dGZpbGUubWFlPic=

> <r_lp_tautomer_probability>
1

> <r_epik_Ionization_Penalty>
0.0992086

> <r_epik_Ionization_Penalty_Charging>
0

> <r_epik_Ionization_Penalty_Neutral>
0.0992086

> <r_epik_State_Penalty>
0.0887141

> <r_epik_Charging_Adjusted_Penalty>
0.0887141

> <i_epik_Tot_Q>
0

> <i_epik_Tot_abs_Q>
0

> <r_epik_Metal_State_Penalty>
0.075945

> <b_epik_Metal_Only>
0

> <s_lp_Force_Field>
OPLS_2005

> <r_lp_Energy>
46.9131

> <b_lp_Chiralities_Consistent>
1

> <s_lp_Variant>
AV-unprocessed.smi:1793-4

> <Gold.Version>
5.8.1

> <Gold.Id.Protein>
6NUR|6NUR_protein|mol2

> <Gold.PLP.Fitness>
49.2339

> <Gold.PLP.PLP>
-41.1257

> <Gold.PLP.part.hbond>
-3.9983

> <Gold.PLP.part.metal>
0.0000

> <Gold.PLP.part.buried>
-2.2306

> <Gold.PLP.part.nonpolar>
-35.8417

> <Gold.PLP.part.repulsive>
0.9954

> <Gold.PLP.ligand.clash>
0.0000

> <Gold.PLP.ligand.torsion>
0.5042

> <Gold.PLP.Chemscore.Hbond>
2.9190

> <Gold.PLP.Chemscore.CHOScore>
0.0000

> <Gold.PLP.Chemscore.Metal>
0.0000

> <Gold.Chemscore.Hbonds>
donor molecule, donor type, donor heavy atom, donor atom, acceptor molecule, acceptor atom, score
      P1  H  6933  6944       L1     5  0.15

> <Gold.PLP.Chemscore.Internal.Correction>
0.3596

> <Gold.Rescore>
     Score         DG    S(hbond)    S(metal)    S(lipo)     H(rot)  DE(clash)    DE(int)     intcor
     21.12     -23.46       2.89        0.00     100.96       1.36       0.05       2.28       ----

> <Gold.Chemscore.Fitness>
21.1220

> <Gold.Chemscore.DG>
-23.4564

> <Gold.Chemscore.ZeroCoef>
-5.4800

> <Gold.Chemscore.Hbond>
2.8866

> <Gold.Chemscore.Metal>
0.0000

> <Gold.Chemscore.Lipo>
100.9597

> <Gold.Chemscore.Internal_Hbond>
0.0000

> <Gold.Chemscore.DEClash>
0.0503

> <Gold.Chemscore.DEInternal>
2.2841

> <Gold.Chemscore.Rot>
1.3582

> <Gold.Chemscore.Internal.Correction>
   9.000000E+99

> <Gold.Chemscore.Hbonds>
donor molecule, donor type, donor heavy atom, donor atom, acceptor molecule, acceptor atom, score
      P1  H  6933  6944       L1     5  0.06

> <Gold.Chemscore.Hbond.Weighted>
-9.6412

> <Gold.Chemscore.Metal.Weighted>
-0.0000

> <Gold.Chemscore.Lipo.Weighted>
-11.8123

> <Gold.Chemscore.Internal_Hbond.Weighted>
0.0000

> <Gold.Chemscore.DEClash.Weighted>
0.0503

> <Gold.Chemscore.DEInternal.Weighted>
2.2841

> <Gold.Chemscore.Rot.Weighted>
3.4771

> <Gold.Chemscore.Internal.Correction.Weighted>
   9.000000E+99

> <Gold.Protein.RotatedTorsions>
[ 6907 6896 6895 6894 ] final  -89.85 input  -60.11 | X-H torsion
[ 7974 7965 7964 7962 ] final  -49.88 input  175.53 | X-H torsion
[ 8008 7997 7996 7995 ] final   26.84 input   59.86 | X-H torsion
[ 10167 10162 10161 10158 ] final  -34.04 input  -65.29 | X-H torsion
[ 10718 10713 10712 10709 ] final   44.82 input   66.30 | X-H torsion
[ 10763 10752 10751 10750 ] final  -92.22 input  -60.55 | X-H torsion
[ 11005 11000 10999 10996 ] final -111.41 input  -57.11 | X-H torsion

> <Gold.Protein.ActiveResidues>
 VAL166  LYS551  ARG553  GLY616  TRP617  ASP618  TYR619  PRO620  LYS621  CYS622 
 ASP623  PHE694  ASN695  SER759  ASP760  ASP761  ALA762  ILE779  LEU786  VAL792 
 PHE793  MET794  SER795  GLU796  ALA797  LYS798  CYS799  TRP800  GLU811  SER814 

> <Gold.Protein.RotatedAtoms>
  150.6877  134.2523  159.4515 H   0  0  0  0  0  0  0  0  0  0  0  0  # atno 6907 bound_to 6896
  152.0460  134.9680  160.0583 H   0  0  0  0  0  0  0  0  0  0  0  0  # atno 6908 bound_to 6896
  152.1163  133.4294  159.4691 H   0  0  0  0  0  0  0  0  0  0  0  0  # atno 6909 bound_to 6896
  145.9358  140.7707  142.9576 H   0  0  0  0  0  0  0  0  0  0  0  0  # atno 7974 bound_to 7965
  155.0336  140.3161  155.4749 H   0  0  0  0  0  0  0  0  0  0  0  0  # atno 8008 bound_to 7997
  156.2869  140.2176  156.5400 H   0  0  0  0  0  0  0  0  0  0  0  0  # atno 8009 bound_to 7997
  154.7350  140.0478  157.0748 H   0  0  0  0  0  0  0  0  0  0  0  0  # atno 8010 bound_to 7997
  140.7193  143.3577  151.2026 H   0  0  0  0  0  0  0  0  0  0  0  0  # atno 10167 bound_to 10162
  157.4309  130.8024  149.7603 H   0  0  0  0  0  0  0  0  0  0  0  0  # atno 10718 bound_to 10713
  154.6839  135.5239  153.8300 H   0  0  0  0  0  0  0  0  0  0  0  0  # atno 10763 bound_to 10752
  153.0584  135.6559  154.0532 H   0  0  0  0  0  0  0  0  0  0  0  0  # atno 10764 bound_to 10752
  154.0415  135.2977  155.3334 H   0  0  0  0  0  0  0  0  0  0  0  0  # atno 10765 bound_to 10752
  141.0736  133.9339  157.2435 H   0  0  0  0  0  0  0  0  0  0  0  0  # atno 11005 bound_to 11000
  144.6771  140.2201  143.7367 LP  0  0  0  0  0  0  0  0  0  0  0  0  # atno 17320 bound_to 7965
  145.8365  139.2110  143.1852 LP  0  0  0  0  0  0  0  0  0  0  0  0  # atno 17321 bound_to 7965
  139.7122  143.9359  152.2952 LP  0  0  0  0  0  0  0  0  0  0  0  0  # atno 17342 bound_to 10162
  139.9087  144.6869  150.8585 LP  0  0  0  0  0  0  0  0  0  0  0  0  # atno 17343 bound_to 10162
  155.9913  130.3938  150.2990 LP  0  0  0  0  0  0  0  0  0  0  0  0  # atno 17370 bound_to 10713
  157.1147  131.0231  151.3034 LP  0  0  0  0  0  0  0  0  0  0  0  0  # atno 17371 bound_to 10713
  139.9548  135.0168  156.9098 LP  0  0  0  0  0  0  0  0  0  0  0  0  # atno 17394 bound_to 11000
  140.5621  134.0525  155.7402 LP  0  0  0  0  0  0  0  0  0  0  0  0  # atno 17395 bound_to 11000

$$$$
