AV-unprocessed.smi:221|AV-procd|sdf|1699|dock4
  -GOLD-   2262020153D 1   1.00000     0.00000
 Structure written by MMmdl.
 50 53  0  0  0  0  0  0  0  0  1 V2000
  146.4848  136.8235  161.1391 N   0  0  0  0  0  0  0  0  0  0  0  0
  147.7024  136.3013  161.3050 C   0  0  0  0  0  0  0  0  0  0  0  0
  148.7242  136.9453  161.0717 O   0  0  0  0  0  0  0  0  0  0  0  0
  147.7665  134.8451  161.8032 C   0  0  1  0  0  0  0  0  0  0  0  0
  147.0625  134.6702  163.1614 C   0  0  0  0  0  0  0  0  0  0  0  0
  145.6273  134.2740  162.8136 C   0  0  1  0  0  0  0  0  0  0  0  0
  144.8960  135.3646  162.5785 F   0  0  0  0  0  0  0  0  0  0  0  0
  145.7869  133.4688  161.5232 C   0  0  0  0  0  0  0  0  0  0  0  0
  147.0422  133.9209  160.9295 N   0  0  0  0  0  0  0  0  0  0  0  0
  147.4977  133.4414  159.7382 C   0  0  0  0  0  0  0  0  0  0  0  0
  148.8413  133.4461  159.5274 N   0  0  0  0  0  0  0  0  0  0  0  0
  149.3581  132.9880  158.3850 C   0  0  0  0  0  0  0  0  0  0  0  0
  148.7232  132.4861  157.3265 N   0  0  0  0  0  0  0  0  0  0  0  0
  147.3742  132.4780  157.5210 C   0  0  0  0  0  0  0  0  0  0  0  0
  146.6806  132.9327  158.6816 C   0  0  0  0  0  0  0  0  0  0  0  0
  145.3120  132.7644  158.4915 N   0  0  0  0  0  0  0  0  0  0  0  0
  145.2049  132.2446  157.3004 C   0  0  0  0  0  0  0  0  0  0  0  0
  146.3954  132.0431  156.6446 N   0  0  0  0  0  0  0  0  0  0  0  0
  146.5666  131.4857  155.3147 C   0  0  0  0  0  0  0  0  0  0  0  0
  147.4994  132.3192  154.3968 C   0  0  1  0  0  0  0  0  0  0  0  0
  148.9414  131.7516  154.3456 C   0  0  0  0  0  0  0  0  0  0  0  0
  148.9567  130.3860  153.9831 O   0  0  0  0  0  0  0  0  0  0  0  0
  146.8956  132.4303  152.9724 C   0  0  1  0  0  0  0  0  0  0  0  0
  146.3276  131.1363  152.4130 C   0  0  0  0  0  0  0  0  0  0  0  0
  145.4280  131.6400  151.2924 C   0  0  0  0  0  0  0  0  0  0  0  0
  144.8805  132.8577  151.7785 O   0  0  0  0  0  0  0  0  0  0  0  0
  145.6684  133.3469  152.8603 C   0  0  0  0  0  0  0  0  0  0  0  0
  148.8078  134.5400  161.9090 H   0  0  0  0  0  0  0  0  0  0  0  0
  145.1301  133.7160  163.6074 H   0  0  0  0  0  0  0  0  0  0  0  0
  146.3888  137.7760  160.8185 H   0  0  0  0  0  0  0  0  0  0  0  0
  145.6660  136.2676  161.3382 H   0  0  0  0  0  0  0  0  0  0  0  0
  147.5370  133.8536  163.7071 H   0  0  0  0  0  0  0  0  0  0  0  0
  147.1112  135.5535  163.8002 H   0  0  0  0  0  0  0  0  0  0  0  0
  145.8668  132.4046  161.7491 H   0  0  0  0  0  0  0  0  0  0  0  0
  144.9377  133.6135  160.8537 H   0  0  0  0  0  0  0  0  0  0  0  0
  150.4347  133.0296  158.3089 H   0  0  0  0  0  0  0  0  0  0  0  0
  144.2489  131.9981  156.8618 H   0  0  0  0  0  0  0  0  0  0  0  0
  146.9483  130.4686  155.4110 H   0  0  0  0  0  0  0  0  0  0  0  0
  145.5733  131.3980  154.8746 H   0  0  0  0  0  0  0  0  0  0  0  0
  147.5526  133.3311  154.8022 H   0  0  0  0  0  0  0  0  0  0  0  0
  149.5585  132.3231  153.6517 H   0  0  0  0  0  0  0  0  0  0  0  0
  149.4284  131.8130  155.3176 H   0  0  0  0  0  0  0  0  0  0  0  0
  149.1758  130.3212  153.0660 H   0  0  0  0  0  0  0  0  0  0  0  0
  147.6611  132.7915  152.2832 H   0  0  0  0  0  0  0  0  0  0  0  0
  147.0921  130.4490  152.0501 H   0  0  0  0  0  0  0  0  0  0  0  0
  145.7321  130.6207  153.1679 H   0  0  0  0  0  0  0  0  0  0  0  0
  146.0164  131.8522  150.3990 H   0  0  0  0  0  0  0  0  0  0  0  0
  144.6477  130.9271  151.0258 H   0  0  0  0  0  0  0  0  0  0  0  0
  145.0632  133.3028  153.7667 H   0  0  0  0  0  0  0  0  0  0  0  0
  145.9446  134.3880  152.6913 H   0  0  0  0  0  0  0  0  0  0  0  0
  1  2  1  0  0  0  0
  1 30  1  0  0  0  0
  1 31  1  0  0  0  0
  2  3  2  0  0  0  0
  2  4  1  0  0  0  0
  4 28  1  0  0  0  0
  4  9  1  0  0  0  0
  4  5  1  0  0  0  0
  5  6  1  0  0  0  0
  5 32  1  0  0  0  0
  5 33  1  0  0  0  0
  6 29  1  0  0  0  0
  6  7  1  0  0  0  0
  6  8  1  0  0  0  0
  8  9  1  0  0  0  0
  8 34  1  0  0  0  0
  8 35  1  0  0  0  0
  9 10  1  0  0  0  0
 10 15  1  0  0  0  0
 10 11  2  0  0  0  0
 11 12  1  0  0  0  0
 12 13  2  0  0  0  0
 12 36  1  0  0  0  0
 13 14  1  0  0  0  0
 14 18  1  0  0  0  0
 14 15  2  0  0  0  0
 15 16  1  0  0  0  0
 16 17  2  0  0  0  0
 17 18  1  0  0  0  0
 17 37  1  0  0  0  0
 18 19  1  0  0  0  0
 19 20  1  0  0  0  0
 19 38  1  0  0  0  0
 19 39  1  0  0  0  0
 20 21  1  0  0  0  0
 20 23  1  0  0  0  0
 20 40  1  0  0  0  0
 21 22  1  0  0  0  0
 21 41  1  0  0  0  0
 21 42  1  0  0  0  0
 22 43  1  0  0  0  0
 23 27  1  0  0  0  0
 23 24  1  0  0  0  0
 23 44  1  0  0  0  0
 24 25  1  0  0  0  0
 24 45  1  0  0  0  0
 24 46  1  0  0  0  0
 25 26  1  0  0  0  0
 25 47  1  0  0  0  0
 25 48  1  0  0  0  0
 26 27  1  0  0  0  0
 27 49  1  0  0  0  0
 27 50  1  0  0  0  0
M  END
> <s_m_source_file>
AV-unprocessed.smi

> <i_m_source_file_index>
221

> <i_lp_mmshare_version>
43012

> <i_f3d_flags>
0

> <s_epik_input>
W05IMl1DKD1PKVtDQEBIXTFbQ0gyXVtDQEBIXShGKVtDSDJdTjFjKG5bY0hdbjIpYyhjMjMpbltjSF1uM1tDSDJdW0NASF0oW0NIMl1bT0hdKVtDQEBIXTRbQ0gyXVtDSDJdT1tDSDJdNA==

> <s_epik_cmdline>
J2VwaWtfcHl0aG9uJywgJy1waCcsICc3LjAnLCAnLXRuJywgJzgnLCAnLW1hJywgJzIwMCcsICctbWV0YWxfYmluZGluZycsICctaW1hZScsICc8aW5maWxlLm1hZT4nLCAnLW9tYWUnLCAnPG91dGZpbGUubWFlPic=

> <r_lp_tautomer_probability>
1

> <r_epik_Ionization_Penalty>
0.000818822

> <r_epik_Ionization_Penalty_Charging>
0

> <r_epik_Ionization_Penalty_Neutral>
0.000818822

> <r_epik_State_Penalty>
0.000440551

> <r_epik_Charging_Adjusted_Penalty>
0.000440551

> <i_epik_Tot_Q>
0

> <i_epik_Tot_abs_Q>
0

> <r_epik_Metal_State_Penalty>
-0

> <b_epik_Metal_Only>
0

> <s_lp_Force_Field>
OPLS_2005

> <r_lp_Energy>
47.9731

> <b_lp_Chiralities_Consistent>
1

> <s_lp_Variant>
AV-unprocessed.smi:221-14

> <Gold.Version>
5.8.1

> <Gold.Id.Protein>
6NUR|6NUR_protein|mol2

> <Gold.PLP.Fitness>
44.8738

> <Gold.PLP.PLP>
-34.7028

> <Gold.PLP.part.hbond>
-4.0000

> <Gold.PLP.part.metal>
0.0000

> <Gold.PLP.part.buried>
-4.5523

> <Gold.PLP.part.nonpolar>
-26.7125

> <Gold.PLP.part.repulsive>
0.3016

> <Gold.PLP.ligand.clash>
0.0000

> <Gold.PLP.ligand.torsion>
1.2701

> <Gold.PLP.Chemscore.Hbond>
3.2090

> <Gold.PLP.Chemscore.CHOScore>
1.0000

> <Gold.PLP.Chemscore.Metal>
0.0000

> <Gold.Chemscore.Hbonds>
donor molecule, donor type, donor heavy atom, donor atom, acceptor molecule, acceptor atom, score
      P1  H  6931  6943       L1     3  1.00
      L1  C    17    37       P1 10957  0.92

> <Gold.PLP.Chemscore.Internal.Correction>
0.0843

> <Gold.Rescore>
     Score         DG    S(hbond)    S(metal)    S(lipo)     H(rot)  DE(clash)    DE(int)     intcor
     10.88     -13.81       2.63        0.00      68.59       3.31       0.00       2.93       ----

> <Gold.Chemscore.Fitness>
10.8806

> <Gold.Chemscore.DG>
-13.8111

> <Gold.Chemscore.ZeroCoef>
-5.4800

> <Gold.Chemscore.Hbond>
2.6277

> <Gold.Chemscore.Metal>
0.0000

> <Gold.Chemscore.Lipo>
68.5924

> <Gold.Chemscore.Internal_Hbond>
0.0000

> <Gold.Chemscore.DEClash>
0.0009

> <Gold.Chemscore.DEInternal>
2.9296

> <Gold.Chemscore.Rot>
3.3089

> <Gold.Chemscore.Internal.Correction>
   9.000000E+99

> <Gold.Chemscore.Hbonds>
donor molecule, donor type, donor heavy atom, donor atom, acceptor molecule, acceptor atom, score
      P1  H  6931  6943       L1     3  0.92

> <Gold.Chemscore.Hbond.Weighted>
-8.7766

> <Gold.Chemscore.Metal.Weighted>
-0.0000

> <Gold.Chemscore.Lipo.Weighted>
-8.0253

> <Gold.Chemscore.Internal_Hbond.Weighted>
0.0000

> <Gold.Chemscore.DEClash.Weighted>
0.0009

> <Gold.Chemscore.DEInternal.Weighted>
2.9296

> <Gold.Chemscore.Rot.Weighted>
8.4709

> <Gold.Chemscore.Internal.Correction.Weighted>
   9.000000E+99

> <Gold.Protein.RotatedTorsions>
[ 6907 6896 6895 6894 ] final  -84.85 input  -60.11 | X-H torsion
[ 7974 7965 7964 7962 ] final  -42.80 input  175.53 | X-H torsion
[ 8008 7997 7996 7995 ] final  -10.61 input   59.86 | X-H torsion
[ 10167 10162 10161 10158 ] final  176.20 input  -65.29 | X-H torsion
[ 10718 10713 10712 10709 ] final  117.96 input   66.30 | X-H torsion
[ 10763 10752 10751 10750 ] final   78.41 input  -60.55 | X-H torsion
[ 11005 11000 10999 10996 ] final    6.57 input  -57.11 | X-H torsion

> <Gold.Protein.ActiveResidues>
 VAL166  LYS551  ARG553  GLY616  TRP617  ASP618  TYR619  PRO620  LYS621  CYS622 
 ASP623  PHE694  ASN695  SER759  ASP760  ASP761  ALA762  ILE779  LEU786  VAL792 
 PHE793  MET794  SER795  GLU796  ALA797  LYS798  CYS799  TRP800  GLU811  SER814 

> <Gold.Protein.RotatedAtoms>
  150.6873  134.3295  159.4820 H   0  0  0  0  0  0  0  0  0  0  0  0  # atno 6907 bound_to 6896
  152.1161  134.9237  160.0574 H   0  0  0  0  0  0  0  0  0  0  0  0  # atno 6908 bound_to 6896
  152.0460  133.3963  159.4394 H   0  0  0  0  0  0  0  0  0  0  0  0  # atno 6909 bound_to 6896
  146.0080  140.6997  142.9238 H   0  0  0  0  0  0  0  0  0  0  0  0  # atno 7974 bound_to 7965
  154.5539  140.2324  155.8441 H   0  0  0  0  0  0  0  0  0  0  0  0  # atno 8008 bound_to 7997
  156.1971  140.3062  155.9410 H   0  0  0  0  0  0  0  0  0  0  0  0  # atno 8009 bound_to 7997
  155.3017  140.0431  157.3020 H   0  0  0  0  0  0  0  0  0  0  0  0  # atno 8010 bound_to 7997
  139.5205  144.2943  152.0436 H   0  0  0  0  0  0  0  0  0  0  0  0  # atno 10167 bound_to 10162
  157.6062  131.1043  150.7689 H   0  0  0  0  0  0  0  0  0  0  0  0  # atno 10718 bound_to 10713
  153.0872  135.4878  154.8620 H   0  0  0  0  0  0  0  0  0  0  0  0  # atno 10763 bound_to 10752
  154.7225  135.3042  154.9026 H   0  0  0  0  0  0  0  0  0  0  0  0  # atno 10764 bound_to 10752
  153.9686  135.6804  153.4799 H   0  0  0  0  0  0  0  0  0  0  0  0  # atno 10765 bound_to 10752
  140.5580  134.0219  155.7961 H   0  0  0  0  0  0  0  0  0  0  0  0  # atno 11005 bound_to 11000
  144.6943  140.3349  143.7209 LP  0  0  0  0  0  0  0  0  0  0  0  0  # atno 17320 bound_to 7965
  145.7385  139.1757  143.2389 LP  0  0  0  0  0  0  0  0  0  0  0  0  # atno 17321 bound_to 7965
  140.2393  144.4287  150.6267 LP  0  0  0  0  0  0  0  0  0  0  0  0  # atno 17342 bound_to 10162
  140.6302  143.2186  151.6512 LP  0  0  0  0  0  0  0  0  0  0  0  0  # atno 17343 bound_to 10162
  156.8076  130.4942  149.5360 LP  0  0  0  0  0  0  0  0  0  0  0  0  # atno 17370 bound_to 10713
  156.1149  130.6067  151.0105 LP  0  0  0  0  0  0  0  0  0  0  0  0  # atno 17371 bound_to 10713
  141.1131  133.9583  157.2872 LP  0  0  0  0  0  0  0  0  0  0  0  0  # atno 17394 bound_to 11000
  139.9422  135.0189  156.8742 LP  0  0  0  0  0  0  0  0  0  0  0  0  # atno 17395 bound_to 11000

$$$$
