AV-unprocessed.smi:2397|AV-procd|sdf|9495|dock10
  -GOLD-   2272013123D 1   1.00000     0.00000
 Structure written by MMmdl.
 37 38  0  0  0  0  0  0  0  0  2 V2000
  145.9120  137.1583  154.7981 C   0  0  0  0  0  0  0  0  0  0  0  0
  145.7768  138.3012  153.7802 C   0  0  0  0  0  0  0  0  0  0  0  0
  145.8940  137.8263  152.3239 C   0  0  0  0  0  0  0  0  0  0  0  0
  146.7328  139.4451  154.0844 C   0  0  0  0  0  0  0  0  0  0  0  0
  146.4218  140.6841  153.6723 N   0  3  0  0  0  0  0  0  0  0  0  0
  147.2608  141.7124  153.9457 C   0  0  0  0  0  0  0  0  0  0  0  0
  148.4514  141.4894  154.6619 C   0  0  0  0  0  0  0  0  0  0  0  0
  148.7175  140.1687  155.0719 C   0  0  0  0  0  0  0  0  0  0  0  0
  149.8964  139.8733  155.7904 N   0  0  0  0  0  0  0  0  0  0  0  0
  150.2223  140.9625  156.7106 C   0  0  0  0  0  0  0  0  0  0  0  0
  151.4105  140.5900  157.6074 C   0  0  0  0  0  0  0  0  0  0  0  0
  152.5149  140.2416  156.7866 O   0  0  0  0  0  0  0  0  0  0  0  0
  152.2358  139.0891  156.0026 C   0  0  0  0  0  0  0  0  0  0  0  0
  151.0545  139.3524  155.0379 C   0  0  1  0  0  0  0  0  0  0  0  0
  150.8162  138.0579  154.2325 C   0  0  0  0  0  0  0  0  0  0  0  0
  149.9397  138.0882  153.2230 N   0  0  0  0  0  0  0  0  0  0  0  0
  151.4399  137.0378  154.5151 O   0  0  0  0  0  0  0  0  0  0  0  0
  147.8547  139.1735  154.7644 N   0  0  0  0  0  0  0  0  0  0  0  0
  145.7501  137.5178  155.8147 H   0  0  0  0  0  0  0  0  0  0  0  0
  146.9031  136.7043  154.7594 H   0  0  0  0  0  0  0  0  0  0  0  0
  145.1810  136.3726  154.6059 H   0  0  0  0  0  0  0  0  0  0  0  0
  144.7650  138.6942  153.8933 H   0  0  0  0  0  0  0  0  0  0  0  0
  145.7227  138.6483  151.6281 H   0  0  0  0  0  0  0  0  0  0  0  0
  145.1606  137.0500  152.1038 H   0  0  0  0  0  0  0  0  0  0  0  0
  146.8824  137.4145  152.1170 H   0  0  0  0  0  0  0  0  0  0  0  0
  146.9497  142.6818  153.5850 H   0  0  0  0  0  0  0  0  0  0  0  0
  149.1263  142.3015  154.8911 H   0  0  0  0  0  0  0  0  0  0  0  0
  150.4622  141.8593  156.1363 H   0  0  0  0  0  0  0  0  0  0  0  0
  149.3680  141.2090  157.3420 H   0  0  0  0  0  0  0  0  0  0  0  0
  151.6883  141.4373  158.2343 H   0  0  0  0  0  0  0  0  0  0  0  0
  151.1571  139.7666  158.2775 H   0  0  0  0  0  0  0  0  0  0  0  0
  153.1364  138.8354  155.4420 H   0  0  0  0  0  0  0  0  0  0  0  0
  152.0285  138.2430  156.6611 H   0  0  0  0  0  0  0  0  0  0  0  0
  151.3724  140.1250  154.3351 H   0  0  0  0  0  0  0  0  0  0  0  0
  149.7816  137.2602  152.6675 H   0  0  0  0  0  0  0  0  0  0  0  0
  149.4544  138.9473  153.0074 H   0  0  0  0  0  0  0  0  0  0  0  0
  145.5594  140.8597  153.1561 H   0  0  0  0  0  0  0  0  0  0  0  0
  1  2  1  0  0  0  0
  1 19  1  0  0  0  0
  1 20  1  0  0  0  0
  1 21  1  0  0  0  0
  2  3  1  0  0  0  0
  2  4  1  0  0  0  0
  2 22  1  0  0  0  0
  3 23  1  0  0  0  0
  3 24  1  0  0  0  0
  3 25  1  0  0  0  0
  4 18  1  0  0  0  0
  4  5  2  0  0  0  0
  5  6  1  0  0  0  0
  5 37  1  0  0  0  0
  6  7  2  0  0  0  0
  6 26  1  0  0  0  0
  7  8  1  0  0  0  0
  7 27  1  0  0  0  0
  8  9  1  0  0  0  0
  8 18  2  0  0  0  0
  9 14  1  0  0  0  0
  9 10  1  0  0  0  0
 10 11  1  0  0  0  0
 10 28  1  0  0  0  0
 10 29  1  0  0  0  0
 11 12  1  0  0  0  0
 11 30  1  0  0  0  0
 11 31  1  0  0  0  0
 12 13  1  0  0  0  0
 13 14  1  0  0  0  0
 13 32  1  0  0  0  0
 13 33  1  0  0  0  0
 14 15  1  0  0  0  0
 14 34  1  0  0  0  0
 15 16  1  0  0  0  0
 15 17  2  0  0  0  0
 16 35  1  0  0  0  0
 16 36  1  0  0  0  0
M  CHG  1   5   1
M  END
> <s_m_source_file>
AV-unprocessed.smi

> <i_m_source_file_index>
2397

> <i_lp_mmshare_version>
43012

> <i_f3d_flags>
0

> <s_epik_input>
W0NIM11bQ0hdKFtDSDNdKWMxbltjSF1bY0hdYyhuMSlOMltDSDJdW0NIMl1PW0NIMl1bQ0BIXTJDKD1PKVtOSDJd

> <s_epik_cmdline>
J2VwaWtfcHl0aG9uJywgJy1waCcsICc3LjAnLCAnLXRuJywgJzgnLCAnLW1hJywgJzIwMCcsICctbWV0YWxfYmluZGluZycsICctaW1hZScsICc8aW5maWxlLm1hZT4nLCAnLW9tYWUnLCAnPG91dGZpbGUubWFlPic=

> <r_lp_tautomer_probability>
0.999336

> <r_epik_Ionization_Penalty>
1.74009

> <r_epik_Ionization_Penalty_Charging>
1.74009

> <r_epik_Ionization_Penalty_Neutral>
2.46902e-07

> <r_epik_State_Penalty>
1.8491

> <r_epik_Charging_Adjusted_Penalty>
3.5892

> <i_epik_Tot_Q>
1

> <i_epik_Tot_abs_Q>
1

> <r_epik_Metal_State_Penalty>
1.87997

> <b_epik_Metal_Only>
0

> <s_lp_Force_Field>
OPLS_2005

> <r_lp_Energy>
12.3684

> <b_lp_Chiralities_Consistent>
1

> <s_lp_Variant>
AV-unprocessed.smi:2397-3

> <Gold.Version>
5.8.1

> <Gold.Id.Protein>
6NUR|6NUR_protein|mol2

> <Gold.PLP.Fitness>
39.5121

> <Gold.PLP.PLP>
-27.0643

> <Gold.PLP.part.hbond>
-5.8240

> <Gold.PLP.part.metal>
0.0000

> <Gold.PLP.part.buried>
-0.9381

> <Gold.PLP.part.nonpolar>
-21.7452

> <Gold.PLP.part.repulsive>
0.3757

> <Gold.PLP.ligand.clash>
0.0000

> <Gold.PLP.ligand.torsion>
1.3107

> <Gold.PLP.Chemscore.Hbond>
4.9329

> <Gold.PLP.Chemscore.CHOScore>
0.0000

> <Gold.PLP.Chemscore.Metal>
0.0000

> <Gold.Chemscore.Hbonds>
donor molecule, donor type, donor heavy atom, donor atom, acceptor molecule, acceptor atom, score
      L1  H     5    37       P1 10175  2.00
      L1  H    16    35       P1  7948  0.82
      L1  H    16    36       P1  7957  0.35
      P1  H  7997  8009       L1    12  0.76
      P1  H 10752 10765       L1    17  0.98

> <Gold.PLP.Chemscore.Internal.Correction>
0.2704

> <Gold.Rescore>
     Score         DG    S(hbond)    S(metal)    S(lipo)     H(rot)  DE(clash)    DE(int)     intcor
     11.52     -14.24       2.25        0.00      49.39       1.77       0.27       2.45       ----

> <Gold.Chemscore.Fitness>
11.5212

> <Gold.Chemscore.DG>
-14.2392

> <Gold.Chemscore.ZeroCoef>
-5.4800

> <Gold.Chemscore.Hbond>
2.2502

> <Gold.Chemscore.Metal>
0.0000

> <Gold.Chemscore.Lipo>
49.3944

> <Gold.Chemscore.Internal_Hbond>
0.0000

> <Gold.Chemscore.DEClash>
0.2666

> <Gold.Chemscore.DEInternal>
2.4514

> <Gold.Chemscore.Rot>
1.7717

> <Gold.Chemscore.Internal.Correction>
   9.000000E+99

> <Gold.Chemscore.Hbonds>
donor molecule, donor type, donor heavy atom, donor atom, acceptor molecule, acceptor atom, score
      L1  H     5    37       P1 10175  0.56
      L1  H    16    35       P1  7948  0.15
      L1  H    16    36       P1  7957  0.35
      P1  H  7997  8009       L1    12  0.11
      P1  H 10752 10765       L1    17  0.91

> <Gold.Chemscore.Hbond.Weighted>
-7.5158

> <Gold.Chemscore.Metal.Weighted>
-0.0000

> <Gold.Chemscore.Lipo.Weighted>
-5.7792

> <Gold.Chemscore.Internal_Hbond.Weighted>
0.0000

> <Gold.Chemscore.DEClash.Weighted>
0.2666

> <Gold.Chemscore.DEInternal.Weighted>
2.4514

> <Gold.Chemscore.Rot.Weighted>
4.5357

> <Gold.Chemscore.Internal.Correction.Weighted>
   9.000000E+99

> <Gold.Protein.RotatedTorsions>
[ 6907 6896 6895 6894 ] final  -94.15 input  -60.11 | X-H torsion
[ 7974 7965 7964 7962 ] final  126.88 input  175.53 | X-H torsion
[ 8008 7997 7996 7995 ] final  175.87 input   59.86 | X-H torsion
[ 10167 10162 10161 10158 ] final -148.94 input  -65.29 | X-H torsion
[ 10718 10713 10712 10709 ] final   44.89 input   66.30 | X-H torsion
[ 10763 10752 10751 10750 ] final  164.77 input  -60.55 | X-H torsion
[ 11005 11000 10999 10996 ] final -106.90 input  -57.11 | X-H torsion

> <Gold.Protein.ActiveResidues>
 VAL166  LYS551  ARG553  GLY616  TRP617  ASP618  TYR619  PRO620  LYS621  CYS622 
 ASP623  PHE694  ASN695  SER759  ASP760  ASP761  ALA762  ILE779  LEU786  VAL792 
 PHE793  MET794  SER795  GLU796  ALA797  LYS798  CYS799  TRP800  GLU811  SER814 

> <Gold.Protein.RotatedAtoms>
  150.6936  134.1856  159.4265 H   0  0  0  0  0  0  0  0  0  0  0  0  # atno 6907 bound_to 6896
  151.9829  135.0017  160.0567 H   0  0  0  0  0  0  0  0  0  0  0  0  # atno 6908 bound_to 6896
  152.1739  133.4626  159.4960 H   0  0  0  0  0  0  0  0  0  0  0  0  # atno 6909 bound_to 6896
  145.0568  139.3838  143.5026 H   0  0  0  0  0  0  0  0  0  0  0  0  # atno 7974 bound_to 7965
  156.0824  140.1398  156.9695 H   0  0  0  0  0  0  0  0  0  0  0  0  # atno 8008 bound_to 7997
  154.4593  140.0949  156.6896 H   0  0  0  0  0  0  0  0  0  0  0  0  # atno 8009 bound_to 7997
  155.5053  140.3452  155.4380 H   0  0  0  0  0  0  0  0  0  0  0  0  # atno 8010 bound_to 7997
  139.7487  143.8551  152.2581 H   0  0  0  0  0  0  0  0  0  0  0  0  # atno 10167 bound_to 10162
  157.4317  130.8029  149.7609 H   0  0  0  0  0  0  0  0  0  0  0  0  # atno 10718 bound_to 10713
  154.3139  135.2757  155.2552 H   0  0  0  0  0  0  0  0  0  0  0  0  # atno 10763 bound_to 10752
  154.4935  135.5827  153.6481 H   0  0  0  0  0  0  0  0  0  0  0  0  # atno 10764 bound_to 10752
  152.9884  135.6140  154.3318 H   0  0  0  0  0  0  0  0  0  0  0  0  # atno 10765 bound_to 10752
  141.0981  133.8933  157.1911 H   0  0  0  0  0  0  0  0  0  0  0  0  # atno 11005 bound_to 11000
  146.3522  140.0246  142.8655 LP  0  0  0  0  0  0  0  0  0  0  0  0  # atno 17320 bound_to 7965
  145.1458  140.9596  143.4461 LP  0  0  0  0  0  0  0  0  0  0  0  0  # atno 17321 bound_to 7965
  139.8523  144.7158  150.9199 LP  0  0  0  0  0  0  0  0  0  0  0  0  # atno 17342 bound_to 10162
  140.7795  143.3888  151.1346 LP  0  0  0  0  0  0  0  0  0  0  0  0  # atno 17343 bound_to 10162
  155.9916  130.3937  150.2979 LP  0  0  0  0  0  0  0  0  0  0  0  0  # atno 17370 bound_to 10713
  157.1137  131.0228  151.3038 LP  0  0  0  0  0  0  0  0  0  0  0  0  # atno 17371 bound_to 10713
  139.9824  135.0093  156.9782 LP  0  0  0  0  0  0  0  0  0  0  0  0  # atno 17394 bound_to 11000
  140.5089  134.1022  155.7266 LP  0  0  0  0  0  0  0  0  0  0  0  0  # atno 17395 bound_to 11000

$$$$
