#       Name:                AV-unprocessed.smi:1252
#       Creating user name   scv26
#       Creation time:       Fri Mar 27 04:38:06 2020


#       File generated by GOLD software.
#

@<TRIPOS>MOLECULE
AV-unprocessed.smi:1252
    50    51     1
SMALL
NO_CHARGES


@<TRIPOS>ATOM
      1 ****        -3.4371   2.1288   1.9917 C.3            1 S1                 0.0000
      2 ****        -2.4609   0.9701   1.7154 C.3            1 S1                 0.0000
      3 ****        -0.9859   1.3734   1.8604 C.2            1 S1                 0.0000
      4 ****        -0.6559   2.5542   1.9711 O.2            1 S1                 0.0000
      5 ****        -0.1031   0.3643   1.8117 N.am           1 S1                 0.0000
      6 ****         1.3499   0.4941   1.7311 C.3            1 S1                 0.0000
      7 ****         1.8813   0.4828   0.2651 C.3            1 S1                 0.0000
      8 ****         1.5928   1.8742  -0.3520 C.3            1 S1                 0.0000
      9 ****         3.4153   0.2952   0.3034 C.3            1 S1                 0.0000
     10 ****         1.2049  -0.5987  -0.5408 N.4            1 S1                 1.0000
     11 ****         1.4481  -0.5702  -2.0106 C.3            1 S1                 0.0000
     12 ****         0.5763  -1.6165  -2.7264 C.3            1 S1                 0.0000
     13 ****         0.8246  -2.9073  -2.1879 O.3            1 S1                 0.0000
     14 ****         0.5049  -2.9706  -0.8056 C.3            1 S1                 0.0000
     15 ****         1.3936  -1.9855  -0.0303 C.3            1 S1                 0.0000
     16 ****        -2.6802   0.4011   0.3913 N.pl3          1 S1                 0.0000
     17 ****        -2.6363   0.9625  -0.8202 C.2            1 S1                 0.0000
     18 ****        -2.8412   0.1101  -1.8142 N.2            1 S1                 0.0000
     19 ****        -3.0283  -1.0369  -1.0968 C.2            1 S1                 0.0000
     20 ****        -2.9231  -0.9215   0.2268 N.2            1 S1                 0.0000
     21 ****        -3.3072   2.5206   3.0013 H              1 S1                 0.0000
     22 ****        -4.4712   1.7946   1.9031 H              1 S1                 0.0000
     23 ****        -3.2969   2.9546   1.2930 H              1 S1                 0.0000
     24 ****        -2.6560   0.1915   2.4551 H              1 S1                 0.0000
     25 ****        -0.4754  -0.5725   1.7497 H              1 S1                 0.0000
     26 ****         1.6863   1.3870   2.2612 H              1 S1                 0.0000
     27 ****         1.7739  -0.3368   2.2949 H              1 S1                 0.0000
     28 ****         1.9017   2.6777   0.3175 H              1 S1                 0.0000
     29 ****         0.5317   2.0139  -0.5604 H              1 S1                 0.0000
     30 ****         2.1355   2.0331  -1.2839 H              1 S1                 0.0000
     31 ****         3.8901   1.1043   0.8598 H              1 S1                 0.0000
     32 ****         3.8545   0.2965  -0.6939 H              1 S1                 0.0000
     33 ****         3.7064  -0.6338   0.7929 H              1 S1                 0.0000
     34 ****         1.2062   0.4010  -2.4380 H              1 S1                 0.0000
     35 ****         2.5001  -0.7643  -2.2209 H              1 S1                 0.0000
     36 ****        -0.4818  -1.3697  -2.6353 H              1 S1                 0.0000
     37 ****         0.8067  -1.6301  -3.7918 H              1 S1                 0.0000
     38 ****        -0.5524  -2.7513  -0.6489 H              1 S1                 0.0000
     39 ****         0.6748  -3.9876  -0.4519 H              1 S1                 0.0000
     40 ****         2.4366  -2.2861  -0.1333 H              1 S1                 0.0000
     41 ****         1.1419  -2.0594   1.0260 H              1 S1                 0.0000
     42 ****        -2.4359   2.0123  -0.9781 H              1 S1                 0.0000
     43 ****        -3.2286  -1.9894  -1.5648 H              1 S1                 0.0000
     44 ****         0.2180  -0.4095  -0.4381 H              1 S1                 0.0000
     45 ****        -1.3534   3.2707   1.9677 LP             1 S1                 0.0000
     46 ****         0.3097   2.7969   2.0645 LP             1 S1                 0.0000
     47 ****         1.7928  -3.1273  -2.3069 LP             1 S1                 0.0000
     48 ****         0.2678  -3.5764  -2.6802 LP             1 S1                 0.0000
     49 ****        -2.8548   0.2625  -2.8024 LP             1 S1                 0.0000
     50 ****        -3.0034  -1.6335   0.9244 LP             1 S1                 0.0000
@<TRIPOS>BOND
    1    1    2 1     
    2    1   21 1     
    3    1   22 1     
    4    1   23 1     
    5    2    3 1     
    6    2   16 1     
    7    2   24 1     
    8    3    4 2     
    9    3    5 am    
   10    5    6 1     
   11    5   25 1     
   12    6    7 1     
   13    6   26 1     
   14    6   27 1     
   15    7    8 1     
   16    7    9 1     
   17    7   10 1     
   18    8   28 1     
   19    8   29 1     
   20    8   30 1     
   21    9   31 1     
   22    9   32 1     
   23    9   33 1     
   24   10   15 1     
   25   10   11 1     
   26   10   44 1     
   27   11   12 1     
   28   11   34 1     
   29   11   35 1     
   30   12   13 1     
   31   12   36 1     
   32   12   37 1     
   33   13   14 1     
   34   14   15 1     
   35   14   38 1     
   36   14   39 1     
   37   15   40 1     
   38   15   41 1     
   39   16   20 1     
   40   16   17 1     
   41   17   18 2     
   42   17   42 1     
   43   18   19 1     
   44   19   20 2     
   45   19   43 1     
   46    4   45 1     
   47    4   46 1     
   48   13   47 1     
   49   13   48 1     
   50   18   49 1     
   51   20   50 1     
@<TRIPOS>SUBSTRUCTURE
      1 S1             1
@<TRIPOS>SET
LONE_PAIRS      STATIC     ATOMS    <user>   **** ""
6 45 46 47 48 49 50
DONOR_HYDROGENS      STATIC     ATOMS    <user>   **** ""
2 25 44
ATOM$BLUE        STATIC     ATOMS    COLORGROUP SYSTEM
6 45 46 47 48 49 50
ATOM$RED        STATIC     ATOMS    COLORGROUP SYSTEM
2 25 44
