AV-unprocessed.smi:1643|AV-procd|sdf|6573|dock9
  -GOLD-   22720 7263D 1   1.00000     0.00000
 Structure written by MMmdl.
 54 56  0  0  0  0  0  0  0  0  2 V2000
  143.8555  131.9965  150.2977 C   0  0  0  0  0  0  0  0  0  0  0  0
  145.0166  132.3315  151.2387 C   0  0  0  0  0  0  0  0  0  0  0  0
  145.9240  131.5073  151.3530 O   0  0  0  0  0  0  0  0  0  0  0  0
  145.0089  133.5136  151.9032 N   0  0  0  0  0  0  0  0  0  0  0  0
  143.8808  134.4484  151.7697 C   0  0  0  0  0  0  0  0  0  0  0  0
  144.2011  135.5730  150.7689 C   0  0  0  0  0  0  0  0  0  0  0  0
  145.6767  136.0260  150.7665 C   0  0  0  0  0  0  0  0  0  0  0  0
  146.1834  136.4616  152.0974 N   0  3  1  0  0  0  0  0  0  0  0  0
  145.6427  137.7863  152.5110 C   0  0  0  0  0  0  0  0  0  0  0  0
  146.7248  138.7332  153.0835 C   0  0  2  0  0  0  0  0  0  0  0  0
  147.6816  139.0318  152.0875 O   0  0  0  0  0  0  0  0  0  0  0  0
  147.5025  138.1423  154.2786 C   0  0  0  0  0  0  0  0  0  0  0  0
  148.6762  138.9206  154.6321 N   0  0  0  0  0  0  0  0  0  0  0  0
  149.9168  138.8005  154.1203 C   0  0  0  0  0  0  0  0  0  0  0  0
  150.8530  139.6158  154.5958 N   0  0  0  0  0  0  0  0  0  0  0  0
  150.1333  140.3636  155.5114 C   0  0  0  0  0  0  0  0  0  0  0  0
  150.5428  141.4144  156.3606 C   0  0  0  0  0  0  0  0  0  0  0  0
  149.6225  142.0473  157.2261 C   0  0  0  0  0  0  0  0  0  0  0  0
  150.1049  143.1779  158.1179 C   0  0  0  0  0  0  0  0  0  0  0  0
  148.2678  141.6285  157.2520 C   0  0  0  0  0  0  0  0  0  0  0  0
  147.2606  142.2969  158.1707 C   0  0  0  0  0  0  0  0  0  0  0  0
  147.8424  140.5780  156.4122 C   0  0  0  0  0  0  0  0  0  0  0  0
  148.7677  139.9565  155.5552 C   0  0  0  0  0  0  0  0  0  0  0  0
  146.1428  135.4376  153.1882 C   0  0  0  0  0  0  0  0  0  0  0  0
  146.1432  133.9488  152.7464 C   0  0  0  0  0  0  0  0  0  0  0  0
  143.6850  132.7994  149.5802 H   0  0  0  0  0  0  0  0  0  0  0  0
  142.9385  131.8227  150.8606 H   0  0  0  0  0  0  0  0  0  0  0  0
  144.0733  131.0900  149.7316 H   0  0  0  0  0  0  0  0  0  0  0  0
  142.9638  133.9440  151.4605 H   0  0  0  0  0  0  0  0  0  0  0  0
  143.6202  134.8623  152.7426 H   0  0  0  0  0  0  0  0  0  0  0  0
  143.9573  135.2240  149.7649 H   0  0  0  0  0  0  0  0  0  0  0  0
  143.5433  136.4223  150.9550 H   0  0  0  0  0  0  0  0  0  0  0  0
  146.3178  135.2306  150.3853 H   0  0  0  0  0  0  0  0  0  0  0  0
  145.8030  136.8360  150.0470 H   0  0  0  0  0  0  0  0  0  0  0  0
  145.2182  138.2534  151.6231 H   0  0  0  0  0  0  0  0  0  0  0  0
  144.8093  137.6679  153.2051 H   0  0  0  0  0  0  0  0  0  0  0  0
  146.2579  139.6683  153.3956 H   0  0  0  0  0  0  0  0  0  0  0  0
  148.1157  138.2312  151.8337 H   0  0  0  0  0  0  0  0  0  0  0  0
  146.8561  138.0709  155.1549 H   0  0  0  0  0  0  0  0  0  0  0  0
  147.8310  137.1272  154.0502 H   0  0  0  0  0  0  0  0  0  0  0  0
  150.1488  138.0656  153.3631 H   0  0  0  0  0  0  0  0  0  0  0  0
  151.5745  141.7345  156.3397 H   0  0  0  0  0  0  0  0  0  0  0  0
  149.9285  142.9409  159.1673 H   0  0  0  0  0  0  0  0  0  0  0  0
  149.5795  144.1027  157.8779 H   0  0  0  0  0  0  0  0  0  0  0  0
  151.1732  143.3575  157.9905 H   0  0  0  0  0  0  0  0  0  0  0  0
  146.2693  141.8559  158.0624 H   0  0  0  0  0  0  0  0  0  0  0  0
  147.1809  143.3597  157.9413 H   0  0  0  0  0  0  0  0  0  0  0  0
  147.5623  142.1886  159.2127 H   0  0  0  0  0  0  0  0  0  0  0  0
  146.8131  140.2514  156.4207 H   0  0  0  0  0  0  0  0  0  0  0  0
  147.0224  135.6019  153.8110 H   0  0  0  0  0  0  0  0  0  0  0  0
  145.2973  135.6233  153.8502 H   0  0  0  0  0  0  0  0  0  0  0  0
  146.1601  133.3238  153.6404 H   0  0  0  0  0  0  0  0  0  0  0  0
  147.0825  133.7622  152.2242 H   0  0  0  0  0  0  0  0  0  0  0  0
  147.1665  136.6233  151.9304 H   0  0  0  0  0  0  0  0  0  0  0  0
  1  2  1  0  0  0  0
  1 26  1  0  0  0  0
  1 27  1  0  0  0  0
  1 28  1  0  0  0  0
  2  3  2  0  0  0  0
  2  4  1  0  0  0  0
  4 25  1  0  0  0  0
  4  5  1  0  0  0  0
  5  6  1  0  0  0  0
  5 29  1  0  0  0  0
  5 30  1  0  0  0  0
  6  7  1  0  0  0  0
  6 31  1  0  0  0  0
  6 32  1  0  0  0  0
  7  8  1  0  0  0  0
  7 33  1  0  0  0  0
  7 34  1  0  0  0  0
  8  9  1  0  0  0  0
  8 24  1  0  0  0  0
  8 54  1  0  0  0  0
  9 10  1  0  0  0  0
  9 35  1  0  0  0  0
  9 36  1  0  0  0  0
 10 11  1  0  0  0  0
 10 12  1  0  0  0  0
 10 37  1  0  0  0  0
 11 38  1  0  0  0  0
 12 13  1  0  0  0  0
 12 39  1  0  0  0  0
 12 40  1  0  0  0  0
 13 23  1  0  0  0  0
 13 14  1  0  0  0  0
 14 15  2  0  0  0  0
 14 41  1  0  0  0  0
 15 16  1  0  0  0  0
 16 23  2  0  0  0  0
 16 17  1  0  0  0  0
 17 18  2  0  0  0  0
 17 42  1  0  0  0  0
 18 19  1  0  0  0  0
 18 20  1  0  0  0  0
 19 43  1  0  0  0  0
 19 44  1  0  0  0  0
 19 45  1  0  0  0  0
 20 21  1  0  0  0  0
 20 22  2  0  0  0  0
 21 46  1  0  0  0  0
 21 47  1  0  0  0  0
 21 48  1  0  0  0  0
 22 23  1  0  0  0  0
 22 49  1  0  0  0  0
 24 25  1  0  0  0  0
 24 50  1  0  0  0  0
 24 51  1  0  0  0  0
 25 52  1  0  0  0  0
 25 53  1  0  0  0  0
M  CHG  1   8   1
M  END
> <s_m_source_file>
AV-unprocessed.smi

> <i_m_source_file_index>
1643

> <i_lp_mmshare_version>
43012

> <i_f3d_flags>
0

> <s_epik_input>
W0NIM11DKD1PKU4xW0NIMl1bQ0gyXVtDSDJdTihbQ0gyXVtDSDJdMSlbQ0gyXVtDQEhdKFtPSF0pW0NIMl1uKFtjSF1uMiljKGMyMylbY0hdYyhbQ0gzXSljKFtjSF0zKVtDSDNd

> <s_epik_cmdline>
J2VwaWtfcHl0aG9uJywgJy1waCcsICc3LjAnLCAnLXRuJywgJzgnLCAnLW1hJywgJzIwMCcsICctbWV0YWxfYmluZGluZycsICctaW1hZScsICc8aW5maWxlLm1hZT4nLCAnLW9tYWUnLCAnPG91dGZpbGUubWFlPic=

> <r_epik_Ionization_Penalty>
0.189467

> <r_epik_Ionization_Penalty_Charging>
0.101761

> <r_epik_Ionization_Penalty_Neutral>
0.0877056

> <r_epik_State_Penalty>
0.170758

> <r_epik_Charging_Adjusted_Penalty>
0.272519

> <i_epik_Tot_Q>
1

> <i_epik_Tot_abs_Q>
1

> <r_epik_Metal_State_Penalty>
0.0948013

> <b_epik_Metal_Only>
0

> <s_lp_Force_Field>
OPLS_2005

> <r_lp_Energy>
50.1894

> <b_lp_Chiralities_Consistent>
1

> <s_lp_Variant>
AV-unprocessed.smi:1643-2

> <Gold.Version>
5.8.1

> <Gold.Id.Protein>
6NUR|6NUR_protein|mol2

> <Gold.PLP.Fitness>
54.7949

> <Gold.PLP.PLP>
-41.5811

> <Gold.PLP.part.hbond>
-3.4542

> <Gold.PLP.part.metal>
0.0000

> <Gold.PLP.part.buried>
-6.0676

> <Gold.PLP.part.nonpolar>
-32.4973

> <Gold.PLP.part.repulsive>
0.2802

> <Gold.PLP.ligand.clash>
0.0000

> <Gold.PLP.ligand.torsion>
0.9754

> <Gold.PLP.Chemscore.Hbond>
3.9413

> <Gold.PLP.Chemscore.CHOScore>
1.0771

> <Gold.PLP.Chemscore.Metal>
0.0000

> <Gold.Chemscore.Hbonds>
donor molecule, donor type, donor heavy atom, donor atom, acceptor molecule, acceptor atom, score
      L1  H     8    54       P1  7948  2.00
      L1  H    11    38       P1  7948  0.75
      P1  H  7989  7998       L1    15  1.00
      L1  C    14    41       P1  7948  0.81

> <Gold.PLP.Chemscore.Internal.Correction>
0.1094

> <Gold.Rescore>
     Score         DG    S(hbond)    S(metal)    S(lipo)     H(rot)  DE(clash)    DE(int)     intcor
     17.83     -19.11       2.88        0.00      80.55       2.12       0.31       0.96       ----

> <Gold.Chemscore.Fitness>
17.8345

> <Gold.Chemscore.DG>
-19.1119

> <Gold.Chemscore.ZeroCoef>
-5.4800

> <Gold.Chemscore.Hbond>
2.8829

> <Gold.Chemscore.Metal>
0.0000

> <Gold.Chemscore.Lipo>
80.5503

> <Gold.Chemscore.Internal_Hbond>
0.0000

> <Gold.Chemscore.DEClash>
0.3129

> <Gold.Chemscore.DEInternal>
0.9645

> <Gold.Chemscore.Rot>
2.1178

> <Gold.Chemscore.Internal.Correction>
   9.000000E+99

> <Gold.Chemscore.Hbonds>
donor molecule, donor type, donor heavy atom, donor atom, acceptor molecule, acceptor atom, score
      L1  H     8    54       P1  7948  0.99
      L1  H    11    38       P1  7948  0.75
      P1  H  7989  7998       L1    15  0.49

> <Gold.Chemscore.Hbond.Weighted>
-9.6290

> <Gold.Chemscore.Metal.Weighted>
-0.0000

> <Gold.Chemscore.Lipo.Weighted>
-9.4244

> <Gold.Chemscore.Internal_Hbond.Weighted>
0.0000

> <Gold.Chemscore.DEClash.Weighted>
0.3129

> <Gold.Chemscore.DEInternal.Weighted>
0.9645

> <Gold.Chemscore.Rot.Weighted>
5.4215

> <Gold.Chemscore.Internal.Correction.Weighted>
   9.000000E+99

> <Gold.Protein.RotatedTorsions>
[ 6907 6896 6895 6894 ] final -103.40 input  -60.11 | X-H torsion
[ 7974 7965 7964 7962 ] final   83.63 input  175.53 | X-H torsion
[ 8008 7997 7996 7995 ] final   -6.07 input   59.86 | X-H torsion
[ 10167 10162 10161 10158 ] final   44.86 input  -65.29 | X-H torsion
[ 10718 10713 10712 10709 ] final  -25.76 input   66.30 | X-H torsion
[ 10763 10752 10751 10750 ] final   35.89 input  -60.55 | X-H torsion
[ 11005 11000 10999 10996 ] final -172.72 input  -57.11 | X-H torsion

> <Gold.Protein.ActiveResidues>
 VAL166  LYS551  ARG553  GLY616  TRP617  ASP618  TYR619  PRO620  LYS621  CYS622 
 ASP623  PHE694  ASN695  SER759  ASP760  ASP761  ALA762  ILE779  LEU786  VAL792 
 PHE793  MET794  SER795  GLU796  ALA797  LYS798  CYS799  TRP800  GLU811  SER814 

> <Gold.Protein.RotatedAtoms>
  150.7239  134.0435  159.3773 H   0  0  0  0  0  0  0  0  0  0  0  0  # atno 6907 bound_to 6896
  151.8409  135.0588  160.0457 H   0  0  0  0  0  0  0  0  0  0  0  0  # atno 6908 bound_to 6896
  152.2863  133.5482  159.5566 H   0  0  0  0  0  0  0  0  0  0  0  0  # atno 6909 bound_to 6896
  145.6094  139.2365  143.2201 H   0  0  0  0  0  0  0  0  0  0  0  0  # atno 7974 bound_to 7965
  154.5974  140.2442  155.7838 H   0  0  0  0  0  0  0  0  0  0  0  0  # atno 8008 bound_to 7997
  156.2288  140.2973  156.0089 H   0  0  0  0  0  0  0  0  0  0  0  0  # atno 8009 bound_to 7997
  155.2269  140.0402  157.2947 H   0  0  0  0  0  0  0  0  0  0  0  0  # atno 8010 bound_to 7997
  140.3300  144.2600  150.6169 H   0  0  0  0  0  0  0  0  0  0  0  0  # atno 10167 bound_to 10162
  156.4601  130.4502  149.6934 H   0  0  0  0  0  0  0  0  0  0  0  0  # atno 10718 bound_to 10713
  153.0100  135.6321  154.1899 H   0  0  0  0  0  0  0  0  0  0  0  0  # atno 10763 bound_to 10752
  154.1641  135.2822  155.3102 H   0  0  0  0  0  0  0  0  0  0  0  0  # atno 10764 bound_to 10752
  154.5959  135.5603  153.7385 H   0  0  0  0  0  0  0  0  0  0  0  0  # atno 10765 bound_to 10752
  140.4938  134.5959  157.4964 H   0  0  0  0  0  0  0  0  0  0  0  0  # atno 11005 bound_to 11000
  146.1516  140.6917  142.9319 LP  0  0  0  0  0  0  0  0  0  0  0  0  # atno 17320 bound_to 7965
  144.7276  140.4574  143.6961 LP  0  0  0  0  0  0  0  0  0  0  0  0  # atno 17321 bound_to 7965
  140.5405  143.2224  151.8092 LP  0  0  0  0  0  0  0  0  0  0  0  0  # atno 17342 bound_to 10162
  139.4858  144.4606  151.9546 LP  0  0  0  0  0  0  0  0  0  0  0  0  # atno 17343 bound_to 10162
  156.3725  130.7538  151.2522 LP  0  0  0  0  0  0  0  0  0  0  0  0  # atno 17370 bound_to 10713
  157.7498  131.0319  150.4202 LP  0  0  0  0  0  0  0  0  0  0  0  0  # atno 17371 bound_to 10713
  139.9753  134.7225  155.9961 LP  0  0  0  0  0  0  0  0  0  0  0  0  # atno 17394 bound_to 11000
  141.1470  133.6554  156.3899 LP  0  0  0  0  0  0  0  0  0  0  0  0  # atno 17395 bound_to 11000

$$$$
