#       Name:                AV-unprocessed.smi:3181
#       Creating user name   scv26
#       Creation time:       Fri Mar 27 17:58:20 2020


#       File generated by GOLD software.
#

@<TRIPOS>MOLECULE
AV-unprocessed.smi:3181
    44    45     1
SMALL
NO_CHARGES


@<TRIPOS>ATOM
      1 ****        -1.5912  -2.9890   0.6942 C.3            1 S1                 0.0000
      2 ****        -1.1953  -1.6998  -0.0447 C.3            1 S1                 0.0000
      3 ****        -1.6403  -1.7123  -1.5254 C.3            1 S1                 0.0000
      4 ****        -3.0706  -1.8994  -1.6836 N.pl3          1 S1                 0.0000
      5 ****        -3.7642  -2.9181  -2.1950 C.2            1 S1                 0.0000
      6 ****        -5.0763  -2.7313  -2.1812 N.2            1 S1                 0.0000
      7 ****        -5.1249  -1.4876  -1.6176 C.2            1 S1                 0.0000
      8 ****        -3.9494  -0.9430  -1.3028 N.2            1 S1                 0.0000
      9 ****         0.2695  -1.5060   0.0648 N.4            1 S1                 1.0000
     10 ****         0.7644  -0.1195  -0.1016 C.3            1 S1                 0.0000
     11 ****         2.2554  -0.1448  -0.4712 C.3            1 S1                 0.0000
     12 ****         2.8109   1.2767  -0.6320 C.3            1 S1                 0.0000
     13 ****         2.6086   2.1232   0.6409 C.3            1 S1                 0.0000
     14 ****         3.1939   3.5309   0.4298 C.3            1 S1                 0.0000
     15 ****         1.1119   2.1438   1.0499 C.3            1 S1                 0.0000
     16 ****         0.8585   2.9218   2.3537 C.3            1 S1                 0.0000
     17 ****         0.5606   0.7084   1.1831 C.3            1 S1                 0.0000
     18 ****        -2.6729  -3.1246   0.7147 H              1 S1                 0.0000
     19 ****        -1.2516  -2.9666   1.7303 H              1 S1                 0.0000
     20 ****        -1.1545  -3.8690   0.2203 H              1 S1                 0.0000
     21 ****        -1.6940  -0.8754   0.4648 H              1 S1                 0.0000
     22 ****        -1.3721  -0.7815  -2.0252 H              1 S1                 0.0000
     23 ****        -1.1293  -2.5114  -2.0645 H              1 S1                 0.0000
     24 ****        -3.3019  -3.8150  -2.5810 H              1 S1                 0.0000
     25 ****        -6.0539  -0.9681  -1.4342 H              1 S1                 0.0000
     26 ****         0.5677  -1.8256   0.9755 H              1 S1                 0.0000
     27 ****         0.2247   0.3567  -0.9203 H              1 S1                 0.0000
     28 ****         2.8233  -0.6718   0.2971 H              1 S1                 0.0000
     29 ****         2.4011  -0.6995  -1.3991 H              1 S1                 0.0000
     30 ****         3.8719   1.2228  -0.8786 H              1 S1                 0.0000
     31 ****         2.3242   1.7623  -1.4792 H              1 S1                 0.0000
     32 ****         3.1739   1.6508   1.4458 H              1 S1                 0.0000
     33 ****         2.6283   4.0884  -0.3173 H              1 S1                 0.0000
     34 ****         4.2281   3.4763   0.0887 H              1 S1                 0.0000
     35 ****         3.1972   4.1120   1.3515 H              1 S1                 0.0000
     36 ****         0.5502   2.6413   0.2576 H              1 S1                 0.0000
     37 ****         1.4510   2.5207   3.1766 H              1 S1                 0.0000
     38 ****        -0.1910   2.8671   2.6443 H              1 S1                 0.0000
     39 ****         1.1010   3.9789   2.2489 H              1 S1                 0.0000
     40 ****        -0.4990   0.7584   1.4340 H              1 S1                 0.0000
     41 ****         1.0485   0.2080   2.0212 H              1 S1                 0.0000
     42 ****         0.7076  -2.0896  -0.6336 H              1 S1                 0.0000
     43 ****        -5.8161  -3.3276  -2.4929 LP             1 S1                 0.0000
     44 ****        -3.7636  -0.0517  -0.8892 LP             1 S1                 0.0000
@<TRIPOS>BOND
    1    1    2 1     
    2    1   18 1     
    3    1   19 1     
    4    1   20 1     
    5    2    3 1     
    6    2    9 1     
    7    2   21 1     
    8    3    4 1     
    9    3   22 1     
   10    3   23 1     
   11    4    8 1     
   12    4    5 1     
   13    5    6 2     
   14    5   24 1     
   15    6    7 1     
   16    7    8 2     
   17    7   25 1     
   18    9   10 1     
   19    9   26 1     
   20    9   42 1     
   21   10   17 1     
   22   10   11 1     
   23   10   27 1     
   24   11   12 1     
   25   11   28 1     
   26   11   29 1     
   27   12   13 1     
   28   12   30 1     
   29   12   31 1     
   30   13   14 1     
   31   13   15 1     
   32   13   32 1     
   33   14   33 1     
   34   14   34 1     
   35   14   35 1     
   36   15   16 1     
   37   15   17 1     
   38   15   36 1     
   39   16   37 1     
   40   16   38 1     
   41   16   39 1     
   42   17   40 1     
   43   17   41 1     
   44    6   43 1     
   45    8   44 1     
@<TRIPOS>SUBSTRUCTURE
      1 S1             1
@<TRIPOS>SET
LONE_PAIRS      STATIC     ATOMS    <user>   **** ""
2 43 44
DONOR_HYDROGENS      STATIC     ATOMS    <user>   **** ""
2 26 42
ATOM$BLUE        STATIC     ATOMS    COLORGROUP SYSTEM
2 43 44
ATOM$RED        STATIC     ATOMS    COLORGROUP SYSTEM
2 26 42
