#       Name:                AV-unprocessed.smi:115
#       Creating user name   scv26
#       Creation time:       Thu Mar 26 18:25:07 2020


#       File generated by GOLD software.
#

@<TRIPOS>MOLECULE
AV-unprocessed.smi:115
    65    67     1
SMALL
NO_CHARGES


@<TRIPOS>ATOM
      1 ****        -6.5058   2.1195   2.7895 C.3            1 S1                 0.0000
      2 ****        -6.2986   1.0243   1.9099 O.3            1 S1                 0.0000
      3 ****        -4.9331   0.6627   1.7468 C.3            1 S1                 0.0000
      4 ****        -4.2588   1.4860   0.6242 C.3            1 S1                 0.0000
      5 ****        -4.6927   1.0707  -0.7920 C.3            1 S1                 0.0000
      6 ****        -2.7933   1.5573   0.7503 N.pl3          1 S1                 0.0000
      7 ****        -2.0659   2.7445   0.6867 C.2            1 S1                 0.0000
      8 ****        -2.6896   4.0882   0.4752 C.3            1 S1                 0.0000
      9 ****        -0.7496   2.4402   0.8571 C.2            1 S1                 0.0000
     10 ****        -0.6220   1.0329   1.0074 C.2            1 S1                 0.0000
     11 ****         0.6098   0.2331   1.2537 C.2            1 S1                 0.0000
     12 ****         0.5874  -0.9242   1.6713 O.2            1 S1                 0.0000
     13 ****         1.9652   0.9055   0.9734 C.3            1 S1                 0.0000
     14 ****         2.6471   0.2825  -0.1532 N.am           1 S1                 0.0000
     15 ****         2.3305   0.7525  -1.4530 C.2            1 S1                 0.0000
     16 ****         1.5093   1.6518  -1.6415 O.2            1 S1                 0.0000
     17 ****         3.0455   0.0809  -2.5329 C.2            1 S1                 0.0000
     18 ****         2.8165   0.4418  -3.8069 F              1 S1                 0.0000
     19 ****         3.9345  -0.9021  -2.2746 C.2            1 S1                 0.0000
     20 ****         4.2290  -1.3371  -0.9939 N.am           1 S1                 0.0000
     21 ****         5.2274  -2.4476  -0.7613 C.3            1 S1                 0.0000
     22 ****         4.5342  -3.8132  -0.8402 C.3            1 S1                 0.0000
     23 ****         4.8696  -4.2599  -2.2472 C.3            1 S1                 0.0000
     24 ****         6.2534  -3.6523  -2.4413 C.3            1 S1                 0.0000
     25 ****         6.1979  -2.3996  -1.7674 O.3            1 S1                 0.0000
     26 ****         3.5679  -0.7607   0.1128 C.2            1 S1                 0.0000
     27 ****         3.7819  -1.1659   1.2576 O.2            1 S1                 0.0000
     28 ****        -1.8877   0.4966   0.9080 C.2            1 S1                 0.0000
     29 ****        -2.3276  -0.9413   0.9511 C.3            1 S1                 0.0000
     30 ****        -7.5720   2.3373   2.8523 H              1 S1                 0.0000
     31 ****        -6.0019   3.0235   2.4475 H              1 S1                 0.0000
     32 ****        -6.1546   1.8856   3.7953 H              1 S1                 0.0000
     33 ****        -4.3971   0.7677   2.6921 H              1 S1                 0.0000
     34 ****        -4.9216  -0.3976   1.5028 H              1 S1                 0.0000
     35 ****        -4.6329   2.4980   0.7515 H              1 S1                 0.0000
     36 ****        -5.7764   1.1280  -0.8963 H              1 S1                 0.0000
     37 ****        -4.3957   0.0547  -1.0439 H              1 S1                 0.0000
     38 ****        -4.2587   1.7340  -1.5407 H              1 S1                 0.0000
     39 ****        -1.9249   4.8583   0.3708 H              1 S1                 0.0000
     40 ****        -3.3225   4.3638   1.3192 H              1 S1                 0.0000
     41 ****        -3.2953   4.1014  -0.4312 H              1 S1                 0.0000
     42 ****         0.0420   3.1741   0.8755 H              1 S1                 0.0000
     43 ****         1.8922   1.9710   0.7597 H              1 S1                 0.0000
     44 ****         2.6109   0.8415   1.8499 H              1 S1                 0.0000
     45 ****         4.4293  -1.3661  -3.1149 H              1 S1                 0.0000
     46 ****         5.6992  -2.2502   0.2023 H              1 S1                 0.0000
     47 ****         4.9937  -4.4784  -0.1080 H              1 S1                 0.0000
     48 ****         3.4642  -3.7494  -0.6372 H              1 S1                 0.0000
     49 ****         4.8587  -5.3434  -2.3673 H              1 S1                 0.0000
     50 ****         4.1640  -3.8297  -2.9587 H              1 S1                 0.0000
     51 ****         7.0135  -4.2750  -1.9676 H              1 S1                 0.0000
     52 ****         6.5177  -3.5304  -3.4918 H              1 S1                 0.0000
     53 ****        -1.5529  -1.6095   0.5788 H              1 S1                 0.0000
     54 ****        -3.1917  -1.1315   0.3216 H              1 S1                 0.0000
     55 ****        -2.5704  -1.2425   1.9700 H              1 S1                 0.0000
     56 ****        -6.6687   1.2670   1.0132 LP             1 S1                 0.0000
     57 ****        -6.7922   0.2332   2.2712 LP             1 S1                 0.0000
     58 ****        -0.2871  -1.3703   1.8616 LP             1 S1                 0.0000
     59 ****         1.4438  -1.4187   1.8203 LP             1 S1                 0.0000
     60 ****         1.0428   2.0738  -0.8642 LP             1 S1                 0.0000
     61 ****         1.3095   1.9595  -2.5718 LP             1 S1                 0.0000
     62 ****         7.0894  -2.2017  -1.3600 LP             1 S1                 0.0000
     63 ****         5.9633  -1.6805  -2.4215 LP             1 S1                 0.0000
     64 ****         3.2990  -0.7561   2.0315 LP             1 S1                 0.0000
     65 ****         4.4383  -1.9043   1.4121 LP             1 S1                 0.0000
@<TRIPOS>BOND
    1    1    2 1     
    2    1   30 1     
    3    1   31 1     
    4    1   32 1     
    5    2    3 1     
    6    3    4 1     
    7    3   33 1     
    8    3   34 1     
    9    4    5 1     
   10    4    6 1     
   11    4   35 1     
   12    5   36 1     
   13    5   37 1     
   14    5   38 1     
   15    6   28 1     
   16    6    7 1     
   17    7    8 1     
   18    7    9 2     
   19    8   39 1     
   20    8   40 1     
   21    8   41 1     
   22    9   10 1     
   23    9   42 1     
   24   10   11 1     
   25   10   28 2     
   26   11   12 2     
   27   11   13 1     
   28   13   14 1     
   29   13   43 1     
   30   13   44 1     
   31   14   26 am    
   32   14   15 am    
   33   15   16 2     
   34   15   17 1     
   35   17   18 1     
   36   17   19 2     
   37   19   20 1     
   38   19   45 1     
   39   20   21 1     
   40   20   26 am    
   41   21   25 1     
   42   21   22 1     
   43   21   46 1     
   44   22   23 1     
   45   22   47 1     
   46   22   48 1     
   47   23   24 1     
   48   23   49 1     
   49   23   50 1     
   50   24   25 1     
   51   24   51 1     
   52   24   52 1     
   53   26   27 2     
   54   28   29 1     
   55   29   53 1     
   56   29   54 1     
   57   29   55 1     
   58    2   56 1     
   59    2   57 1     
   60   12   58 1     
   61   12   59 1     
   62   16   60 1     
   63   16   61 1     
   64   25   62 1     
   65   25   63 1     
   66   27   64 1     
   67   27   65 1     
@<TRIPOS>SUBSTRUCTURE
      1 S1             1
@<TRIPOS>SET
LONE_PAIRS      STATIC     ATOMS    <user>   **** ""
10 56 57 58 59 60 61 62 63 64 65
ATOM$BLUE        STATIC     ATOMS    COLORGROUP SYSTEM
10 56 57 58 59 60 61 62 63 64 65
