AV-unprocessed.smi:720|AV-procd|sdf|3501|dock6
  -GOLD-   22720 0493D 1   1.00000     0.00000
 Structure written by MMmdl.
 46 48  0  0  0  0  0  0  0  0  1 V2000
  149.1416  141.2261  157.3965 C   0  0  0  0  0  0  0  0  0  0  0  0
  150.5391  140.8106  157.4174 N   0  0  0  0  0  0  0  0  0  0  0  0
  151.2762  141.7398  158.2637 C   0  0  0  0  0  0  0  0  0  0  0  0
  151.1331  140.8129  156.0795 C   0  0  0  0  0  0  0  0  0  0  0  0
  150.5424  139.7412  155.1381 C   0  0  0  0  0  0  0  0  0  0  0  0
  149.2399  140.0971  154.6011 N   0  0  0  0  0  0  0  0  0  0  0  0
  148.7087  141.3567  154.4027 C   0  0  0  0  0  0  0  0  0  0  0  0
  147.4695  141.1995  153.8501 C   0  0  0  0  0  0  0  0  0  0  0  0
  147.3387  139.7881  153.7384 C   0  0  0  0  0  0  0  0  0  0  0  0
  146.1627  139.2125  153.1944 N   0  0  0  0  0  0  0  0  0  0  0  0
  145.8740  137.9038  153.0532 C   0  0  0  0  0  0  0  0  0  0  0  0
  146.6060  136.9839  153.4140 O   0  0  0  0  0  0  0  0  0  0  0  0
  144.6794  137.6612  152.4845 N   0  0  0  0  0  0  0  0  0  0  0  0
  144.0684  136.3631  152.1901 C   0  0  2  0  0  0  0  0  0  0  0  0
  144.2129  135.3470  153.3476 C   0  0  0  0  0  0  0  0  0  0  0  0
  144.9486  134.1702  152.6807 C   0  0  1  0  0  0  0  0  0  0  0  0
  144.0102  133.4791  151.6720 C   0  0  0  0  0  0  0  0  0  0  0  0
  143.9348  134.4998  150.5191 C   0  0  0  0  0  0  0  0  0  0  0  0
  144.8120  135.6548  151.0367 C   0  0  2  0  0  0  0  0  0  0  0  0
  145.9204  134.8962  151.7610 C   0  0  0  0  0  0  0  0  0  0  0  0
  148.4019  139.1273  154.1743 N   0  0  0  0  0  0  0  0  0  0  0  0
  148.5232  140.5020  156.8697 H   0  0  0  0  0  0  0  0  0  0  0  0
  149.0211  142.1988  156.9173 H   0  0  0  0  0  0  0  0  0  0  0  0
  148.7488  141.2960  158.4114 H   0  0  0  0  0  0  0  0  0  0  0  0
  152.3236  141.4454  158.3399 H   0  0  0  0  0  0  0  0  0  0  0  0
  150.8653  141.7483  159.2739 H   0  0  0  0  0  0  0  0  0  0  0  0
  151.2345  142.7564  157.8695 H   0  0  0  0  0  0  0  0  0  0  0  0
  151.0874  141.8075  155.6332 H   0  0  0  0  0  0  0  0  0  0  0  0
  152.1932  140.5822  156.1933 H   0  0  0  0  0  0  0  0  0  0  0  0
  151.2102  139.6117  154.2857 H   0  0  0  0  0  0  0  0  0  0  0  0
  150.4904  138.7704  155.6345 H   0  0  0  0  0  0  0  0  0  0  0  0
  149.2516  142.2512  154.6703 H   0  0  0  0  0  0  0  0  0  0  0  0
  146.7699  141.9727  153.5688 H   0  0  0  0  0  0  0  0  0  0  0  0
  145.4608  139.8649  152.8778 H   0  0  0  0  0  0  0  0  0  0  0  0
  144.1207  138.4701  152.2537 H   0  0  0  0  0  0  0  0  0  0  0  0
  143.0212  136.5133  151.9216 H   0  0  0  0  0  0  0  0  0  0  0  0
  144.8110  135.7517  154.1658 H   0  0  0  0  0  0  0  0  0  0  0  0
  143.2479  135.0506  153.7600 H   0  0  0  0  0  0  0  0  0  0  0  0
  145.4111  133.4843  153.3911 H   0  0  0  0  0  0  0  0  0  0  0  0
  144.4378  132.5383  151.3233 H   0  0  0  0  0  0  0  0  0  0  0  0
  143.0312  133.2634  152.1015 H   0  0  0  0  0  0  0  0  0  0  0  0
  144.3528  134.0762  149.6049 H   0  0  0  0  0  0  0  0  0  0  0  0
  142.9126  134.8133  150.3037 H   0  0  0  0  0  0  0  0  0  0  0  0
  145.1510  136.3256  150.2465 H   0  0  0  0  0  0  0  0  0  0  0  0
  146.6164  135.5465  152.2937 H   0  0  0  0  0  0  0  0  0  0  0  0
  146.4845  134.2260  151.1097 H   0  0  0  0  0  0  0  0  0  0  0  0
  1  2  1  0  0  0  0
  1 22  1  0  0  0  0
  1 23  1  0  0  0  0
  1 24  1  0  0  0  0
  2  3  1  0  0  0  0
  2  4  1  0  0  0  0
  3 25  1  0  0  0  0
  3 26  1  0  0  0  0
  3 27  1  0  0  0  0
  4  5  1  0  0  0  0
  4 28  1  0  0  0  0
  4 29  1  0  0  0  0
  5  6  1  0  0  0  0
  5 30  1  0  0  0  0
  5 31  1  0  0  0  0
  6 21  1  0  0  0  0
  6  7  1  0  0  0  0
  7  8  2  0  0  0  0
  7 32  1  0  0  0  0
  8  9  1  0  0  0  0
  8 33  1  0  0  0  0
  9 10  1  0  0  0  0
  9 21  2  0  0  0  0
 10 11  1  0  0  0  0
 10 34  1  0  0  0  0
 11 12  2  0  0  0  0
 11 13  1  0  0  0  0
 13 14  1  0  0  0  0
 13 35  1  0  0  0  0
 14 19  1  0  0  0  0
 14 15  1  0  0  0  0
 14 36  1  0  0  0  0
 15 16  1  0  0  0  0
 15 37  1  0  0  0  0
 15 38  1  0  0  0  0
 16 20  1  0  0  0  0
 16 17  1  0  0  0  0
 16 39  1  0  0  0  0
 17 18  1  0  0  0  0
 17 40  1  0  0  0  0
 17 41  1  0  0  0  0
 18 19  1  0  0  0  0
 18 42  1  0  0  0  0
 18 43  1  0  0  0  0
 19 20  1  0  0  0  0
 19 44  1  0  0  0  0
 20 45  1  0  0  0  0
 20 46  1  0  0  0  0
M  END
> <s_m_source_file>
AV-unprocessed.smi

> <i_m_source_file_index>
720

> <i_lp_mmshare_version>
43012

> <i_f3d_flags>
0

> <s_epik_input>
W0NIM11OKFtDSDNdKVtDSDJdW0NIMl1uMVtjSF1bY0hdYyhuMSlbTkhdQyg9TylbTkhdW0NASF0oW0NIMl1bQ0BIXTIzKVtDQEhdKFtDSDJdMylbQ0gyXVtDSDJdMg==

> <s_epik_cmdline>
J2VwaWtfcHl0aG9uJywgJy1waCcsICc3LjAnLCAnLXRuJywgJzgnLCAnLW1hJywgJzIwMCcsICctbWV0YWxfYmluZGluZycsICctaW1hZScsICc8aW5maWxlLm1hZT4nLCAnLW9tYWUnLCAnPG91dGZpbGUubWFlPic=

> <r_lp_tautomer_probability>
1

> <r_epik_Ionization_Penalty>
1.83819

> <r_epik_Ionization_Penalty_Charging>
0

> <r_epik_Ionization_Penalty_Neutral>
1.83819

> <r_epik_State_Penalty>
1.95467

> <r_epik_Charging_Adjusted_Penalty>
1.95467

> <i_epik_Tot_Q>
0

> <i_epik_Tot_abs_Q>
0

> <r_epik_Metal_State_Penalty>
1.95467

> <b_epik_Metal_Only>
0

> <s_lp_Force_Field>
OPLS_2005

> <r_lp_Energy>
62.6494

> <b_lp_Chiralities_Consistent>
1

> <s_lp_Variant>
AV-unprocessed.smi:720-7

> <Gold.Version>
5.8.1

> <Gold.Id.Protein>
6NUR|6NUR_protein|mol2

> <Gold.PLP.Fitness>
42.7793

> <Gold.PLP.PLP>
-35.2461

> <Gold.PLP.part.hbond>
-3.0000

> <Gold.PLP.part.metal>
0.0000

> <Gold.PLP.part.buried>
-2.6809

> <Gold.PLP.part.nonpolar>
-29.8261

> <Gold.PLP.part.repulsive>
1.3854

> <Gold.PLP.ligand.clash>
0.0088

> <Gold.PLP.ligand.torsion>
0.5993

> <Gold.PLP.Chemscore.Hbond>
1.9120

> <Gold.PLP.Chemscore.CHOScore>
0.9887

> <Gold.PLP.Chemscore.Metal>
0.0000

> <Gold.Chemscore.Hbonds>
donor molecule, donor type, donor heavy atom, donor atom, acceptor molecule, acceptor atom, score
      L1  H    10    34       P1 10175  1.00
      L1  H    13    35       P1 10175  1.00
      L1  C     7    32       P1  8028  0.65

> <Gold.PLP.Chemscore.Internal.Correction>
0.0384

> <Gold.Rescore>
     Score         DG    S(hbond)    S(metal)    S(lipo)     H(rot)  DE(clash)    DE(int)     intcor
     11.39     -16.23       1.87        0.00      72.05       1.53       0.11       4.73       ----

> <Gold.Chemscore.Fitness>
11.3888

> <Gold.Chemscore.DG>
-16.2325

> <Gold.Chemscore.ZeroCoef>
-5.4800

> <Gold.Chemscore.Hbond>
1.8691

> <Gold.Chemscore.Metal>
0.0000

> <Gold.Chemscore.Lipo>
72.0467

> <Gold.Chemscore.Internal_Hbond>
0.0000

> <Gold.Chemscore.DEClash>
0.1089

> <Gold.Chemscore.DEInternal>
4.7348

> <Gold.Chemscore.Rot>
1.5312

> <Gold.Chemscore.Internal.Correction>
   9.000000E+99

> <Gold.Chemscore.Hbonds>
donor molecule, donor type, donor heavy atom, donor atom, acceptor molecule, acceptor atom, score
      L1  H    10    34       P1 10175  0.98
      L1  H    13    35       P1 10175  0.90

> <Gold.Chemscore.Hbond.Weighted>
-6.2430

> <Gold.Chemscore.Metal.Weighted>
-0.0000

> <Gold.Chemscore.Lipo.Weighted>
-8.4295

> <Gold.Chemscore.Internal_Hbond.Weighted>
0.0000

> <Gold.Chemscore.DEClash.Weighted>
0.1089

> <Gold.Chemscore.DEInternal.Weighted>
4.7348

> <Gold.Chemscore.Rot.Weighted>
3.9199

> <Gold.Chemscore.Internal.Correction.Weighted>
   9.000000E+99

> <Gold.Protein.RotatedTorsions>
[ 6907 6896 6895 6894 ] final  122.38 input  -60.11 | X-H torsion
[ 7974 7965 7964 7962 ] final   22.16 input  175.53 | X-H torsion
[ 8008 7997 7996 7995 ] final -129.85 input   59.86 | X-H torsion
[ 10167 10162 10161 10158 ] final   33.44 input  -65.29 | X-H torsion
[ 10718 10713 10712 10709 ] final   84.49 input   66.30 | X-H torsion
[ 10763 10752 10751 10750 ] final  -62.00 input  -60.55 | X-H torsion
[ 11005 11000 10999 10996 ] final   61.03 input  -57.11 | X-H torsion

> <Gold.Protein.ActiveResidues>
 VAL166  LYS551  ARG553  GLY616  TRP617  ASP618  TYR619  PRO620  LYS621  CYS622 
 ASP623  PHE694  ASN695  SER759  ASP760  ASP761  ALA762  ILE779  LEU786  VAL792 
 PHE793  MET794  SER795  GLU796  ALA797  LYS798  CYS799  TRP800  GLU811  SER814 

> <Gold.Protein.RotatedAtoms>
  152.4247  133.7175  159.6514 H   0  0  0  0  0  0  0  0  0  0  0  0  # atno 6907 bound_to 6896
  150.8123  133.8388  159.3182 H   0  0  0  0  0  0  0  0  0  0  0  0  # atno 6908 bound_to 6896
  151.6094  135.1043  160.0129 H   0  0  0  0  0  0  0  0  0  0  0  0  # atno 6909 bound_to 6896
  146.2040  139.7924  142.8739 H   0  0  0  0  0  0  0  0  0  0  0  0  # atno 7974 bound_to 7965
  155.2861  140.0446  157.3019 H   0  0  0  0  0  0  0  0  0  0  0  0  # atno 8008 bound_to 7997
  154.5568  140.2334  155.8365 H   0  0  0  0  0  0  0  0  0  0  0  0  # atno 8009 bound_to 7997
  156.2014  140.3024  155.9542 H   0  0  0  0  0  0  0  0  0  0  0  0  # atno 8010 bound_to 7997
  140.4407  144.1192  150.6173 H   0  0  0  0  0  0  0  0  0  0  0  0  # atno 10167 bound_to 10162
  157.6899  131.0135  150.2680 H   0  0  0  0  0  0  0  0  0  0  0  0  # atno 10718 bound_to 10713
  154.2932  135.6249  153.5394 H   0  0  0  0  0  0  0  0  0  0  0  0  # atno 10763 bound_to 10752
  152.9850  135.5660  154.5367 H   0  0  0  0  0  0  0  0  0  0  0  0  # atno 10764 bound_to 10752
  154.4982  135.2870  155.1418 H   0  0  0  0  0  0  0  0  0  0  0  0  # atno 10765 bound_to 10752
  140.0190  134.6182  155.9668 H   0  0  0  0  0  0  0  0  0  0  0  0  # atno 11005 bound_to 11000
  145.3383  141.0282  143.3407 LP  0  0  0  0  0  0  0  0  0  0  0  0  # atno 17320 bound_to 7965
  144.8750  139.4984  143.6750 LP  0  0  0  0  0  0  0  0  0  0  0  0  # atno 17321 bound_to 7965
  140.4322  143.2563  151.9581 LP  0  0  0  0  0  0  0  0  0  0  0  0  # atno 17342 bound_to 10162
  139.4789  144.5733  151.8052 LP  0  0  0  0  0  0  0  0  0  0  0  0  # atno 17343 bound_to 10162
  156.3248  130.3791  149.7543 LP  0  0  0  0  0  0  0  0  0  0  0  0  # atno 17370 bound_to 10713
  156.5102  130.8168  151.3166 LP  0  0  0  0  0  0  0  0  0  0  0  0  # atno 17371 bound_to 10713
  141.1761  133.6540  156.4835 LP  0  0  0  0  0  0  0  0  0  0  0  0  # atno 17394 bound_to 11000
  140.4421  134.7006  157.4997 LP  0  0  0  0  0  0  0  0  0  0  0  0  # atno 17395 bound_to 11000

$$$$
