AV-unprocessed.smi:906|AV-procd|sdf|4104|dock3
  -GOLD-   22720 1593D 1   1.00000     0.00000
 Structure written by MMmdl.
 48 49  0  0  0  0  0  0  0  0  2 V2000
  153.1071  142.8178  162.1911 C   0  0  0  0  0  0  0  0  0  0  0  0
  152.4447  142.8624  160.8302 C   0  0  0  0  0  0  0  0  0  0  0  0
  152.1944  144.0928  160.1865 C   0  0  0  0  0  0  0  0  0  0  0  0
  151.5787  144.0738  158.9202 C   0  0  0  0  0  0  0  0  0  0  0  0
  151.2384  142.8309  158.3482 C   0  0  0  0  0  0  0  0  0  0  0  0
  150.5829  142.7555  156.9837 C   0  0  0  0  0  0  0  0  0  0  0  0
  150.2892  141.3054  156.5659 C   0  0  0  0  0  0  0  0  0  0  0  0
  149.0093  141.1927  155.8770 N   0  0  0  0  0  0  0  0  0  0  0  0
  148.8514  141.0686  154.5484 C   0  0  0  0  0  0  0  0  0  0  0  0
  149.8084  141.0153  153.7752 O   0  0  0  0  0  0  0  0  0  0  0  0
  147.5640  140.9337  154.1435 N   0  0  0  0  0  0  0  0  0  0  0  0
  147.1075  140.1962  152.9564 C   0  0  0  0  0  0  0  0  0  0  0  0
  146.4956  138.8558  153.4049 C   0  0  0  0  0  0  0  0  0  0  0  0
  145.3986  139.0662  154.3935 N   0  3  0  0  0  0  0  0  0  0  0  0
  144.6711  137.8358  154.8300 C   0  0  2  0  0  0  0  0  0  0  0  0
  145.6064  136.6944  155.2795 C   0  0  0  0  0  0  0  0  0  0  0  0
  143.6333  137.3735  153.7830 C   0  0  0  0  0  0  0  0  0  0  0  0
  142.7288  138.3337  153.5890 F   0  0  0  0  0  0  0  0  0  0  0  0
  144.2024  137.0735  152.6162 F   0  0  0  0  0  0  0  0  0  0  0  0
  143.0008  136.2902  154.2330 F   0  0  0  0  0  0  0  0  0  0  0  0
  145.8038  139.9411  155.5288 C   0  0  0  0  0  0  0  0  0  0  0  0
  146.4380  141.2505  155.0260 C   0  0  0  0  0  0  0  0  0  0  0  0
  151.5306  141.6581  159.0759 C   0  0  0  0  0  0  0  0  0  0  0  0
  152.1210  141.6666  160.2904 N   0  0  0  0  0  0  0  0  0  0  0  0
  153.2962  143.8218  162.5719 H   0  0  0  0  0  0  0  0  0  0  0  0
  154.0603  142.2917  162.1319 H   0  0  0  0  0  0  0  0  0  0  0  0
  152.4702  142.2971  162.9067 H   0  0  0  0  0  0  0  0  0  0  0  0
  152.4676  145.0300  160.6488 H   0  0  0  0  0  0  0  0  0  0  0  0
  151.3748  144.9972  158.3983 H   0  0  0  0  0  0  0  0  0  0  0  0
  149.6616  143.3392  157.0055 H   0  0  0  0  0  0  0  0  0  0  0  0
  151.2323  143.2337  156.2491 H   0  0  0  0  0  0  0  0  0  0  0  0
  151.0670  140.9505  155.8891 H   0  0  0  0  0  0  0  0  0  0  0  0
  150.3072  140.6444  157.4344 H   0  0  0  0  0  0  0  0  0  0  0  0
  148.1812  141.1992  156.4545 H   0  0  0  0  0  0  0  0  0  0  0  0
  146.3569  140.7914  152.4342 H   0  0  0  0  0  0  0  0  0  0  0  0
  147.8925  140.0103  152.2232 H   0  0  0  0  0  0  0  0  0  0  0  0
  146.1237  138.3274  152.5291 H   0  0  0  0  0  0  0  0  0  0  0  0
  147.2810  138.2384  153.8422 H   0  0  0  0  0  0  0  0  0  0  0  0
  144.0851  138.1231  155.7045 H   0  0  0  0  0  0  0  0  0  0  0  0
  145.0332  135.8747  155.7129 H   0  0  0  0  0  0  0  0  0  0  0  0
  146.3140  137.0276  156.0384 H   0  0  0  0  0  0  0  0  0  0  0  0
  146.1755  136.2809  154.4470 H   0  0  0  0  0  0  0  0  0  0  0  0
  144.9351  140.1773  156.1443 H   0  0  0  0  0  0  0  0  0  0  0  0
  146.5120  139.4118  156.1677 H   0  0  0  0  0  0  0  0  0  0  0  0
  146.7303  141.8754  155.8713 H   0  0  0  0  0  0  0  0  0  0  0  0
  145.7020  141.8345  154.4712 H   0  0  0  0  0  0  0  0  0  0  0  0
  151.2877  140.6862  158.6718 H   0  0  0  0  0  0  0  0  0  0  0  0
  144.7044  139.6090  153.8996 H   0  0  0  0  0  0  0  0  0  0  0  0
  1  2  1  0  0  0  0
  1 25  1  0  0  0  0
  1 26  1  0  0  0  0
  1 27  1  0  0  0  0
  2 24  1  0  0  0  0
  2  3  2  0  0  0  0
  3  4  1  0  0  0  0
  3 28  1  0  0  0  0
  4  5  2  0  0  0  0
  4 29  1  0  0  0  0
  5  6  1  0  0  0  0
  5 23  1  0  0  0  0
  6  7  1  0  0  0  0
  6 30  1  0  0  0  0
  6 31  1  0  0  0  0
  7  8  1  0  0  0  0
  7 32  1  0  0  0  0
  7 33  1  0  0  0  0
  8  9  1  0  0  0  0
  8 34  1  0  0  0  0
  9 10  2  0  0  0  0
  9 11  1  0  0  0  0
 11 22  1  0  0  0  0
 11 12  1  0  0  0  0
 12 13  1  0  0  0  0
 12 35  1  0  0  0  0
 12 36  1  0  0  0  0
 13 14  1  0  0  0  0
 13 37  1  0  0  0  0
 13 38  1  0  0  0  0
 14 15  1  0  0  0  0
 14 21  1  0  0  0  0
 14 48  1  0  0  0  0
 15 16  1  0  0  0  0
 15 17  1  0  0  0  0
 15 39  1  0  0  0  0
 16 40  1  0  0  0  0
 16 41  1  0  0  0  0
 16 42  1  0  0  0  0
 17 18  1  0  0  0  0
 17 19  1  0  0  0  0
 17 20  1  0  0  0  0
 21 22  1  0  0  0  0
 21 43  1  0  0  0  0
 21 44  1  0  0  0  0
 22 45  1  0  0  0  0
 22 46  1  0  0  0  0
 23 24  2  0  0  0  0
 23 47  1  0  0  0  0
M  CHG  1  14   1
M  END
> <s_m_source_file>
AV-unprocessed.smi

> <i_m_source_file_index>
906

> <i_lp_mmshare_version>
43012

> <i_f3d_flags>
0

> <s_epik_input>
W0NIM11jMVtjSF1bY0hdYyhbY0hdbjEpW0NIMl1bQ0gyXVtOSF1DKD1PKU4yW0NIMl1bQ0gyXU4oW0NASF0oW0NIM10pQyhGKShGKUYpW0NIMl1bQ0gyXTI=

> <s_epik_cmdline>
J2VwaWtfcHl0aG9uJywgJy1waCcsICc3LjAnLCAnLXRuJywgJzgnLCAnLW1hJywgJzIwMCcsICctbWV0YWxfYmluZGluZycsICctaW1hZScsICc8aW5maWxlLm1hZT4nLCAnLW9tYWUnLCAnPG91dGZpbGUubWFlPic=

> <r_epik_Ionization_Penalty>
2.02136

> <r_epik_Ionization_Penalty_Charging>
1.96814

> <r_epik_Ionization_Penalty_Neutral>
0.0532286

> <r_epik_State_Penalty>
2.14285

> <r_epik_Charging_Adjusted_Penalty>
4.11098

> <i_epik_Tot_Q>
1

> <i_epik_Tot_abs_Q>
1

> <r_epik_Metal_State_Penalty>
2.1406

> <b_epik_Metal_Only>
0

> <s_lp_Force_Field>
OPLS_2005

> <r_lp_Energy>
50.8751

> <b_lp_Chiralities_Consistent>
1

> <s_lp_Variant>
AV-unprocessed.smi:906-5

> <Gold.Version>
5.8.1

> <Gold.Id.Protein>
6NUR|6NUR_protein|mol2

> <Gold.PLP.Fitness>
43.5580

> <Gold.PLP.PLP>
-36.5182

> <Gold.PLP.part.hbond>
-2.9210

> <Gold.PLP.part.metal>
0.0000

> <Gold.PLP.part.buried>
2.4708

> <Gold.PLP.part.nonpolar>
-37.2205

> <Gold.PLP.part.repulsive>
2.3847

> <Gold.PLP.ligand.clash>
1.4792

> <Gold.PLP.ligand.torsion>
1.0887

> <Gold.PLP.Chemscore.Hbond>
3.3120

> <Gold.PLP.Chemscore.CHOScore>
0.0000

> <Gold.PLP.Chemscore.Metal>
0.0000

> <Gold.Chemscore.Hbonds>
donor molecule, donor type, donor heavy atom, donor atom, acceptor molecule, acceptor atom, score
      L1  H    14    48       P1 10175  2.00
      P1  H  7989  7998       L1    10  0.37
      P1  H  8011  8017       L1    10  0.91

> <Gold.PLP.Chemscore.Internal.Correction>
0.7604

> <Gold.Rescore>
     Score         DG    S(hbond)    S(metal)    S(lipo)     H(rot)  DE(clash)    DE(int)     intcor
     16.43     -20.19       2.11        0.00     100.87       1.62       2.55       1.21       ----

> <Gold.Chemscore.Fitness>
16.4334

> <Gold.Chemscore.DG>
-20.1903

> <Gold.Chemscore.ZeroCoef>
-5.4800

> <Gold.Chemscore.Hbond>
2.1102

> <Gold.Chemscore.Metal>
0.0000

> <Gold.Chemscore.Lipo>
100.8712

> <Gold.Chemscore.Internal_Hbond>
0.0000

> <Gold.Chemscore.DEClash>
2.5464

> <Gold.Chemscore.DEInternal>
1.2105

> <Gold.Chemscore.Rot>
1.6171

> <Gold.Chemscore.Internal.Correction>
   9.000000E+99

> <Gold.Chemscore.Hbonds>
donor molecule, donor type, donor heavy atom, donor atom, acceptor molecule, acceptor atom, score
      L1  H    14    48       P1 10175  0.99
      P1  H  7989  7998       L1    10  0.36
      P1  H  8011  8017       L1    10  0.77

> <Gold.Chemscore.Hbond.Weighted>
-7.0482

> <Gold.Chemscore.Metal.Weighted>
-0.0000

> <Gold.Chemscore.Lipo.Weighted>
-11.8019

> <Gold.Chemscore.Internal_Hbond.Weighted>
0.0000

> <Gold.Chemscore.DEClash.Weighted>
2.5464

> <Gold.Chemscore.DEInternal.Weighted>
1.2105

> <Gold.Chemscore.Rot.Weighted>
4.1398

> <Gold.Chemscore.Internal.Correction.Weighted>
   9.000000E+99

> <Gold.Protein.RotatedTorsions>
[ 6907 6896 6895 6894 ] final   46.49 input  -60.11 | X-H torsion
[ 7974 7965 7964 7962 ] final  -21.07 input  175.53 | X-H torsion
[ 8008 7997 7996 7995 ] final   21.70 input   59.86 | X-H torsion
[ 10167 10162 10161 10158 ] final   74.22 input  -65.29 | X-H torsion
[ 10718 10713 10712 10709 ] final  -95.68 input   66.30 | X-H torsion
[ 10763 10752 10751 10750 ] final   73.41 input  -60.55 | X-H torsion
[ 11005 11000 10999 10996 ] final  -53.48 input  -57.11 | X-H torsion

> <Gold.Protein.ActiveResidues>
 VAL166  LYS551  ARG553  GLY616  TRP617  ASP618  TYR619  PRO620  LYS621  CYS622 
 ASP623  PHE694  ASN695  SER759  ASP760  ASP761  ALA762  ILE779  LEU786  VAL792 
 PHE793  MET794  SER795  GLU796  ALA797  LYS798  CYS799  TRP800  GLU811  SER814 

> <Gold.Protein.RotatedAtoms>
  152.2571  134.8073  160.0436 H   0  0  0  0  0  0  0  0  0  0  0  0  # atno 6907 bound_to 6896
  151.8733  133.3475  159.3750 H   0  0  0  0  0  0  0  0  0  0  0  0  # atno 6908 bound_to 6896
  150.7103  134.5018  159.5609 H   0  0  0  0  0  0  0  0  0  0  0  0  # atno 6909 bound_to 6896
  146.1753  140.4290  142.8516 H   0  0  0  0  0  0  0  0  0  0  0  0  # atno 7974 bound_to 7965
  154.9546  140.3070  155.5059 H   0  0  0  0  0  0  0  0  0  0  0  0  # atno 8008 bound_to 7997
  156.2983  140.2312  156.4564 H   0  0  0  0  0  0  0  0  0  0  0  0  # atno 8009 bound_to 7997
  154.8023  140.0433  157.1270 H   0  0  0  0  0  0  0  0  0  0  0  0  # atno 8010 bound_to 7997
  140.0161  144.5577  150.7619 H   0  0  0  0  0  0  0  0  0  0  0  0  # atno 10167 bound_to 10162
  156.0048  130.5119  150.6112 H   0  0  0  0  0  0  0  0  0  0  0  0  # atno 10718 bound_to 10713
  153.0520  135.5064  154.7889 H   0  0  0  0  0  0  0  0  0  0  0  0  # atno 10763 bound_to 10752
  154.6744  135.2958  154.9700 H   0  0  0  0  0  0  0  0  0  0  0  0  # atno 10764 bound_to 10752
  154.0508  135.6704  153.4853 H   0  0  0  0  0  0  0  0  0  0  0  0  # atno 10765 bound_to 10752
  141.0978  133.6622  156.4179 H   0  0  0  0  0  0  0  0  0  0  0  0  # atno 11005 bound_to 11000
  144.8227  140.6577  143.6342 LP  0  0  0  0  0  0  0  0  0  0  0  0  # atno 17320 bound_to 7965
  145.4228  139.1561  143.4065 LP  0  0  0  0  0  0  0  0  0  0  0  0  # atno 17321 bound_to 7965
  140.7362  143.2750  151.3771 LP  0  0  0  0  0  0  0  0  0  0  0  0  # atno 17342 bound_to 10162
  139.6172  144.0980  152.2356 LP  0  0  0  0  0  0  0  0  0  0  0  0  # atno 17343 bound_to 10162
  157.3944  131.0800  151.1365 LP  0  0  0  0  0  0  0  0  0  0  0  0  # atno 17370 bound_to 10713
  157.2046  130.6410  149.5751 LP  0  0  0  0  0  0  0  0  0  0  0  0  # atno 17371 bound_to 10713
  140.5097  134.6407  157.5279 LP  0  0  0  0  0  0  0  0  0  0  0  0  # atno 17394 bound_to 11000
  139.9820  134.7122  155.9842 LP  0  0  0  0  0  0  0  0  0  0  0  0  # atno 17395 bound_to 11000

$$$$
