AV-unprocessed.smi:11|AV-procd|sdf|56|dock5
  -GOLD-   2262015173D 1   1.00000     0.00000
 Structure written by MMmdl.
 33 35  0  0  0  0  0  0  0  0  1 V2000
  151.8877  145.2725  158.9028 C   0  0  0  0  0  0  0  0  0  0  0  0
  152.7853  144.0911  159.3094 C   0  0  0  0  0  0  0  0  0  0  0  0
  152.0525  142.9033  159.9820 C   0  0  2  0  0  0  0  0  0  0  0  0
  151.4069  143.3722  161.1498 O   0  0  0  0  0  0  0  0  0  0  0  0
  153.0279  141.7763  160.3490 C   0  0  0  0  0  0  0  0  0  0  0  0
  153.0879  140.9349  159.0759 C   0  0  0  0  0  0  0  0  0  0  0  0
  151.7543  141.0393  158.5018 N   0  0  0  0  0  0  0  0  0  0  0  0
  151.4857  140.5881  157.1935 C   0  0  0  0  0  0  0  0  0  0  0  0
  152.4437  139.8639  156.5589 N   0  0  0  0  0  0  0  0  0  0  0  0
  152.2331  139.4218  155.3161 C   0  0  0  0  0  0  0  0  0  0  0  0
  151.1565  139.5833  154.5437 N   0  0  0  0  0  0  0  0  0  0  0  0
  150.1888  140.2964  155.1851 C   0  0  0  0  0  0  0  0  0  0  0  0
  148.9475  140.6417  154.6933 N   0  0  0  0  0  0  0  0  0  0  0  0
  148.2368  141.3565  155.6411 C   0  0  0  0  0  0  0  0  0  0  0  0
  149.0065  141.4908  156.7684 C   0  0  0  0  0  0  0  0  0  0  0  0
  150.2622  140.8329  156.5036 C   0  0  0  0  0  0  0  0  0  0  0  0
  151.0528  142.1932  159.0482 C   0  0  0  0  0  0  0  0  0  0  0  0
  148.5834  140.4134  153.7795 H   0  0  0  0  0  0  0  0  0  0  0  0
  152.4857  146.0717  158.4647 H   0  0  0  0  0  0  0  0  0  0  0  0
  151.3639  145.6925  159.7615 H   0  0  0  0  0  0  0  0  0  0  0  0
  151.1423  144.9846  158.1626 H   0  0  0  0  0  0  0  0  0  0  0  0
  153.3164  143.7393  158.4242 H   0  0  0  0  0  0  0  0  0  0  0  0
  153.5542  144.4648  159.9870 H   0  0  0  0  0  0  0  0  0  0  0  0
  150.8853  144.1263  160.9209 H   0  0  0  0  0  0  0  0  0  0  0  0
  154.0074  142.1317  160.6709 H   0  0  0  0  0  0  0  0  0  0  0  0
  152.6167  141.1672  161.1559 H   0  0  0  0  0  0  0  0  0  0  0  0
  153.8246  141.3445  158.3836 H   0  0  0  0  0  0  0  0  0  0  0  0
  153.3532  139.8987  159.2879 H   0  0  0  0  0  0  0  0  0  0  0  0
  153.0435  138.8588  154.8771 H   0  0  0  0  0  0  0  0  0  0  0  0
  147.2368  141.7102  155.4368 H   0  0  0  0  0  0  0  0  0  0  0  0
  148.7262  141.9939  157.6814 H   0  0  0  0  0  0  0  0  0  0  0  0
  150.1917  141.8262  159.6082 H   0  0  0  0  0  0  0  0  0  0  0  0
  150.6847  142.8535  158.2642 H   0  0  0  0  0  0  0  0  0  0  0  0
  1  2  1  0  0  0  0
  1 19  1  0  0  0  0
  1 20  1  0  0  0  0
  1 21  1  0  0  0  0
  2  3  1  0  0  0  0
  2 22  1  0  0  0  0
  2 23  1  0  0  0  0
  3 17  1  0  0  0  0
  3  4  1  0  0  0  0
  3  5  1  0  0  0  0
  4 24  1  0  0  0  0
  5  6  1  0  0  0  0
  5 25  1  0  0  0  0
  5 26  1  0  0  0  0
  6  7  1  0  0  0  0
  6 27  1  0  0  0  0
  6 28  1  0  0  0  0
  7  8  1  0  0  0  0
  7 17  1  0  0  0  0
  8 16  1  0  0  0  0
  8  9  2  0  0  0  0
  9 10  1  0  0  0  0
 10 11  2  0  0  0  0
 10 29  1  0  0  0  0
 11 12  1  0  0  0  0
 12 16  2  0  0  0  0
 12 13  1  0  0  0  0
 13 18  1  0  0  0  0
 13 14  1  0  0  0  0
 14 15  2  0  0  0  0
 14 30  1  0  0  0  0
 15 16  1  0  0  0  0
 15 31  1  0  0  0  0
 17 32  1  0  0  0  0
 17 33  1  0  0  0  0
M  END
> <s_m_source_file>
AV-unprocessed.smi

> <i_m_source_file_index>
11

> <i_lp_mmshare_version>
43012

> <i_f3d_flags>
0

> <s_epik_input>
W0NIM11bQ0gyXVtDQEBdMShbT0hdKVtDSDJdW0NIMl1OKFtDSDJdMSljKG5bY0hdbjIpYyhjMjMpW2NIXVtjSF1bbkhdMw==

> <s_epik_cmdline>
J2VwaWtfcHl0aG9uJywgJy1waCcsICc3LjAnLCAnLXRuJywgJzgnLCAnLW1hJywgJzIwMCcsICctbWV0YWxfYmluZGluZycsICctaW1hZScsICc8aW5maWxlLm1hZT4nLCAnLW9tYWUnLCAnPG91dGZpbGUubWFlPic=

> <r_lp_tautomer_probability>
0.999998

> <r_epik_Ionization_Penalty>
0.0511253

> <r_epik_Ionization_Penalty_Charging>
0

> <r_epik_Ionization_Penalty_Neutral>
0.0511253

> <r_epik_State_Penalty>
0.0394181

> <r_epik_Charging_Adjusted_Penalty>
0.0394181

> <i_epik_Tot_Q>
0

> <i_epik_Tot_abs_Q>
0

> <r_epik_Metal_State_Penalty>
0.0367127

> <b_epik_Metal_Only>
0

> <s_lp_Force_Field>
OPLS_2005

> <r_lp_Energy>
27.4112

> <b_lp_Chiralities_Consistent>
1

> <s_lp_Variant>
AV-unprocessed.smi:11-2

> <Gold.Version>
5.8.1

> <Gold.Id.Protein>
6NUR|6NUR_protein|mol2

> <Gold.PLP.Fitness>
42.9006

> <Gold.PLP.PLP>
-36.8471

> <Gold.PLP.part.hbond>
-3.0000

> <Gold.PLP.part.metal>
0.0000

> <Gold.PLP.part.buried>
-4.1532

> <Gold.PLP.part.nonpolar>
-30.4091

> <Gold.PLP.part.repulsive>
0.2269

> <Gold.PLP.ligand.clash>
0.0000

> <Gold.PLP.ligand.torsion>
0.1489

> <Gold.PLP.Chemscore.Hbond>
2.0319

> <Gold.PLP.Chemscore.CHOScore>
0.0000

> <Gold.PLP.Chemscore.Metal>
0.0000

> <Gold.Chemscore.Hbonds>
donor molecule, donor type, donor heavy atom, donor atom, acceptor molecule, acceptor atom, score
      P1  H  6933  6945       L1     4  0.06
      P1  H  7989  7998       L1    11  0.80
      P1  H  7997  8008       L1     9  1.00

> <Gold.PLP.Chemscore.Internal.Correction>
0.2557

> <Gold.Rescore>
     Score         DG    S(hbond)    S(metal)    S(lipo)     H(rot)  DE(clash)    DE(int)     intcor
     13.36     -13.65       0.78        0.00      78.98       1.43       0.12       0.17       ----

> <Gold.Chemscore.Fitness>
13.3638

> <Gold.Chemscore.DG>
-13.6538

> <Gold.Chemscore.ZeroCoef>
-5.4800

> <Gold.Chemscore.Hbond>
0.7755

> <Gold.Chemscore.Metal>
0.0000

> <Gold.Chemscore.Lipo>
78.9766

> <Gold.Chemscore.Internal_Hbond>
0.0000

> <Gold.Chemscore.DEClash>
0.1191

> <Gold.Chemscore.DEInternal>
0.1710

> <Gold.Chemscore.Rot>
1.4283

> <Gold.Chemscore.Internal.Correction>
   9.000000E+99

> <Gold.Chemscore.Hbonds>
donor molecule, donor type, donor heavy atom, donor atom, acceptor molecule, acceptor atom, score
      P1  H  6933  6945       L1     4  0.04
      P1  H  7989  7998       L1    11  0.04
      P1  H  7997  8008       L1     9  0.39

> <Gold.Chemscore.Hbond.Weighted>
-2.5902

> <Gold.Chemscore.Metal.Weighted>
-0.0000

> <Gold.Chemscore.Lipo.Weighted>
-9.2403

> <Gold.Chemscore.Internal_Hbond.Weighted>
0.0000

> <Gold.Chemscore.DEClash.Weighted>
0.1191

> <Gold.Chemscore.DEInternal.Weighted>
0.1710

> <Gold.Chemscore.Rot.Weighted>
3.6566

> <Gold.Chemscore.Internal.Correction.Weighted>
   9.000000E+99

> <Gold.Protein.RotatedTorsions>
[ 6907 6896 6895 6894 ] final -102.94 input  -60.11 | X-H torsion
[ 7974 7965 7964 7962 ] final  177.88 input  175.53 | X-H torsion
[ 8008 7997 7996 7995 ] final  -61.27 input   59.86 | X-H torsion
[ 10167 10162 10161 10158 ] final   59.79 input  -65.29 | X-H torsion
[ 10718 10713 10712 10709 ] final   -7.15 input   66.30 | X-H torsion
[ 10763 10752 10751 10750 ] final  111.53 input  -60.55 | X-H torsion
[ 11005 11000 10999 10996 ] final  165.05 input  -57.11 | X-H torsion

> <Gold.Protein.ActiveResidues>
 VAL166  LYS551  ARG553  GLY616  TRP617  ASP618  TYR619  PRO620  LYS621  CYS622 
 ASP623  PHE694  ASN695  SER759  ASP760  ASP761  ALA762  ILE779  LEU786  VAL792 
 PHE793  MET794  SER795  GLU796  ALA797  LYS798  CYS799  TRP800  GLU811  SER814 

> <Gold.Protein.RotatedAtoms>
  150.7218  134.0505  159.3796 H   0  0  0  0  0  0  0  0  0  0  0  0  # atno 6907 bound_to 6896
  151.8482  135.0564  160.0465 H   0  0  0  0  0  0  0  0  0  0  0  0  # atno 6908 bound_to 6896
  152.2810  133.5435  159.5534 H   0  0  0  0  0  0  0  0  0  0  0  0  # atno 6909 bound_to 6896
  144.7163  140.0314  143.6439 H   0  0  0  0  0  0  0  0  0  0  0  0  # atno 7974 bound_to 7965
  154.4439  140.1021  156.6405 H   0  0  0  0  0  0  0  0  0  0  0  0  # atno 8008 bound_to 7997
  155.5507  140.3485  155.4449 H   0  0  0  0  0  0  0  0  0  0  0  0  # atno 8009 bound_to 7997
  156.0531  140.1308  157.0017 H   0  0  0  0  0  0  0  0  0  0  0  0  # atno 8010 bound_to 7997
  140.1726  144.4262  150.6654 H   0  0  0  0  0  0  0  0  0  0  0  0  # atno 10167 bound_to 10162
  156.7215  130.5152  149.5867 H   0  0  0  0  0  0  0  0  0  0  0  0  # atno 10718 bound_to 10713
  153.4647  135.3714  155.2358 H   0  0  0  0  0  0  0  0  0  0  0  0  # atno 10763 bound_to 10752
  154.8757  135.3917  154.3883 H   0  0  0  0  0  0  0  0  0  0  0  0  # atno 10764 bound_to 10752
  153.4462  135.7085  153.6202 H   0  0  0  0  0  0  0  0  0  0  0  0  # atno 10765 bound_to 10752
  140.2521  134.7968  157.3512 H   0  0  0  0  0  0  0  0  0  0  0  0  # atno 11005 bound_to 11000
  146.0099  139.3161  143.0876 LP  0  0  0  0  0  0  0  0  0  0  0  0  # atno 17320 bound_to 7965
  145.8694  140.9429  143.0658 LP  0  0  0  0  0  0  0  0  0  0  0  0  # atno 17321 bound_to 7965
  140.6572  143.2241  151.5940 LP  0  0  0  0  0  0  0  0  0  0  0  0  # atno 17342 bound_to 10162
  139.5331  144.2858  152.1192 LP  0  0  0  0  0  0  0  0  0  0  0  0  # atno 17343 bound_to 10162
  156.1591  130.6362  151.0696 LP  0  0  0  0  0  0  0  0  0  0  0  0  # atno 17370 bound_to 10713
  157.6896  131.0814  150.7145 LP  0  0  0  0  0  0  0  0  0  0  0  0  # atno 17371 bound_to 10713
  140.1547  134.4804  155.7936 LP  0  0  0  0  0  0  0  0  0  0  0  0  # atno 17394 bound_to 11000
  141.2200  133.6877  156.7440 LP  0  0  0  0  0  0  0  0  0  0  0  0  # atno 17395 bound_to 11000

$$$$
