AV-unprocessed.smi:2485|AV-procd|sdf|9788|dock9
  -GOLD-   2272013423D 1   1.00000     0.00000
 Structure written by MMmdl.
 39 40  0  0  0  0  0  0  0  0  1 V2000
  148.7042  140.6915  154.0742 C   0  0  0  0  0  0  0  0  0  0  0  0
  149.7543  140.4395  155.1666 C   0  0  0  0  0  0  0  0  0  0  0  0
  150.4026  141.7582  155.6215 C   0  0  0  0  0  0  0  0  0  0  0  0
  149.1849  139.6411  156.3455 C   0  0  0  0  0  0  0  0  0  0  0  0
  150.3531  138.7748  156.7719 C   0  0  1  0  0  0  0  0  0  0  0  0
  149.9032  137.5792  157.4818 N   0  0  0  0  0  0  0  0  0  0  0  0
  149.2633  137.5750  158.6593 C   0  0  0  0  0  0  0  0  0  0  0  0
  148.9555  138.5984  159.2703 O   0  0  0  0  0  0  0  0  0  0  0  0
  149.0142  136.3198  159.0698 N   0  0  0  0  0  0  0  0  0  0  0  0
  148.3825  135.9008  160.2698 C   0  0  0  0  0  0  0  0  0  0  0  0
  147.9929  134.5451  160.3050 C   0  0  0  0  0  0  0  0  0  0  0  0
  147.3630  134.0624  161.4647 C   0  0  0  0  0  0  0  0  0  0  0  0
  147.1656  134.9734  162.5164 C   0  0  0  0  0  0  0  0  0  0  0  0
  147.5559  136.2640  162.4397 N   0  0  0  0  0  0  0  0  0  0  0  0
  148.1541  136.7167  161.3322 N   0  0  0  0  0  0  0  0  0  0  0  0
  151.0552  138.4781  155.4284 C   0  0  0  0  0  0  0  0  0  0  0  0
  152.5793  138.3526  155.5814 C   0  0  0  0  0  0  0  0  0  0  0  0
  150.4822  137.2650  154.6655 C   0  0  0  0  0  0  0  0  0  0  0  0
  150.7900  139.6241  154.6205 O   0  0  0  0  0  0  0  0  0  0  0  0
  147.8813  141.2992  154.4514 H   0  0  0  0  0  0  0  0  0  0  0  0
  148.2851  139.7551  153.7044 H   0  0  0  0  0  0  0  0  0  0  0  0
  149.1405  141.2132  153.2218 H   0  0  0  0  0  0  0  0  0  0  0  0
  149.6664  142.4266  156.0686 H   0  0  0  0  0  0  0  0  0  0  0  0
  150.8572  142.2822  154.7802 H   0  0  0  0  0  0  0  0  0  0  0  0
  151.1859  141.5863  156.3600 H   0  0  0  0  0  0  0  0  0  0  0  0
  148.8089  140.2728  157.1511 H   0  0  0  0  0  0  0  0  0  0  0  0
  148.3577  139.0122  156.0120 H   0  0  0  0  0  0  0  0  0  0  0  0
  151.0026  139.3752  157.4118 H   0  0  0  0  0  0  0  0  0  0  0  0
  150.1148  136.6909  157.0517 H   0  0  0  0  0  0  0  0  0  0  0  0
  149.3200  135.5782  158.4575 H   0  0  0  0  0  0  0  0  0  0  0  0
  148.1704  133.8893  159.4653 H   0  0  0  0  0  0  0  0  0  0  0  0
  147.0433  133.0339  161.5446 H   0  0  0  0  0  0  0  0  0  0  0  0
  146.6876  134.6633  163.4336 H   0  0  0  0  0  0  0  0  0  0  0  0
  152.8471  137.4894  156.1909 H   0  0  0  0  0  0  0  0  0  0  0  0
  153.0037  139.2386  156.0546 H   0  0  0  0  0  0  0  0  0  0  0  0
  153.0639  138.2352  154.6119 H   0  0  0  0  0  0  0  0  0  0  0  0
  150.6814  136.3296  155.1892 H   0  0  0  0  0  0  0  0  0  0  0  0
  150.9297  137.1825  153.6746 H   0  0  0  0  0  0  0  0  0  0  0  0
  149.4039  137.3482  154.5291 H   0  0  0  0  0  0  0  0  0  0  0  0
  1  2  1  0  0  0  0
  1 20  1  0  0  0  0
  1 21  1  0  0  0  0
  1 22  1  0  0  0  0
  2 19  1  0  0  0  0
  2  3  1  0  0  0  0
  2  4  1  0  0  0  0
  3 23  1  0  0  0  0
  3 24  1  0  0  0  0
  3 25  1  0  0  0  0
  4  5  1  0  0  0  0
  4 26  1  0  0  0  0
  4 27  1  0  0  0  0
  5  6  1  0  0  0  0
  5 16  1  0  0  0  0
  5 28  1  0  0  0  0
  6  7  1  0  0  0  0
  6 29  1  0  0  0  0
  7  8  2  0  0  0  0
  7  9  1  0  0  0  0
  9 10  1  0  0  0  0
  9 30  1  0  0  0  0
 10 15  1  0  0  0  0
 10 11  2  0  0  0  0
 11 12  1  0  0  0  0
 11 31  1  0  0  0  0
 12 13  2  0  0  0  0
 12 32  1  0  0  0  0
 13 14  1  0  0  0  0
 13 33  1  0  0  0  0
 14 15  2  0  0  0  0
 16 17  1  0  0  0  0
 16 18  1  0  0  0  0
 16 19  1  0  0  0  0
 17 34  1  0  0  0  0
 17 35  1  0  0  0  0
 17 36  1  0  0  0  0
 18 37  1  0  0  0  0
 18 38  1  0  0  0  0
 18 39  1  0  0  0  0
M  END
> <s_m_source_file>
AV-unprocessed.smi

> <i_m_source_file_index>
2485

> <i_lp_mmshare_version>
43012

> <i_f3d_flags>
0

> <s_epik_input>
W0NIM11DMShbQ0gzXSlbQ0gyXVtDQEhdKEMoTzEpKFtDSDNdKVtDSDNdKVtOSF1DKD1PKVtOSF1jMltjSF1bY0hdW2NIXW5uMg==

> <s_epik_cmdline>
J2VwaWtfcHl0aG9uJywgJy1waCcsICc3LjAnLCAnLXRuJywgJzgnLCAnLW1hJywgJzIwMCcsICctbWV0YWxfYmluZGluZycsICctaW1hZScsICc8aW5maWxlLm1hZT4nLCAnLW9tYWUnLCAnPG91dGZpbGUubWFlPic=

> <r_lp_tautomer_probability>
1

> <r_epik_Ionization_Penalty>
0.00480341

> <r_epik_Ionization_Penalty_Charging>
0

> <r_epik_Ionization_Penalty_Neutral>
0.00480341

> <r_epik_State_Penalty>
-0

> <r_epik_Charging_Adjusted_Penalty>
0

> <i_epik_Tot_Q>
0

> <i_epik_Tot_abs_Q>
0

> <r_epik_Metal_State_Penalty>
-0

> <b_epik_Metal_Only>
0

> <s_lp_Force_Field>
OPLS_2005

> <r_lp_Energy>
24.1228

> <b_lp_Chiralities_Consistent>
1

> <s_lp_Variant>
AV-unprocessed.smi:2485-1

> <Gold.Version>
5.8.1

> <Gold.Id.Protein>
6NUR|6NUR_protein|mol2

> <Gold.PLP.Fitness>
34.3639

> <Gold.PLP.PLP>
-28.4518

> <Gold.PLP.part.hbond>
-4.0149

> <Gold.PLP.part.metal>
0.0000

> <Gold.PLP.part.buried>
-1.9401

> <Gold.PLP.part.nonpolar>
-23.0410

> <Gold.PLP.part.repulsive>
0.2848

> <Gold.PLP.ligand.clash>
0.0000

> <Gold.PLP.ligand.torsion>
0.0495

> <Gold.PLP.Chemscore.Hbond>
2.0000

> <Gold.PLP.Chemscore.CHOScore>
0.0000

> <Gold.PLP.Chemscore.Metal>
0.0000

> <Gold.Chemscore.Hbonds>
donor molecule, donor type, donor heavy atom, donor atom, acceptor molecule, acceptor atom, score
      P1  H  6931  6943       L1    15  1.00
      P1  H  7989  7998       L1    19  1.00

> <Gold.PLP.Chemscore.Internal.Correction>
0.0111

> <Gold.Rescore>
     Score         DG    S(hbond)    S(metal)    S(lipo)     H(rot)  DE(clash)    DE(int)     intcor
     13.19     -15.95       1.59        0.00      66.09       1.00       1.46       1.31       ----

> <Gold.Chemscore.Fitness>
13.1883

> <Gold.Chemscore.DG>
-15.9542

> <Gold.Chemscore.ZeroCoef>
-5.4800

> <Gold.Chemscore.Hbond>
1.5875

> <Gold.Chemscore.Metal>
0.0000

> <Gold.Chemscore.Lipo>
66.0850

> <Gold.Chemscore.Internal_Hbond>
0.0000

> <Gold.Chemscore.DEClash>
1.4566

> <Gold.Chemscore.DEInternal>
1.3093

> <Gold.Chemscore.Rot>
1.0000

> <Gold.Chemscore.Internal.Correction>
   9.000000E+99

> <Gold.Chemscore.Hbonds>
donor molecule, donor type, donor heavy atom, donor atom, acceptor molecule, acceptor atom, score
      P1  H  6931  6943       L1    15  0.45
      P1  H  7989  7998       L1    19  0.26

> <Gold.Chemscore.Hbond.Weighted>
-5.3022

> <Gold.Chemscore.Metal.Weighted>
-0.0000

> <Gold.Chemscore.Lipo.Weighted>
-7.7319

> <Gold.Chemscore.Internal_Hbond.Weighted>
0.0000

> <Gold.Chemscore.DEClash.Weighted>
1.4566

> <Gold.Chemscore.DEInternal.Weighted>
1.3093

> <Gold.Chemscore.Rot.Weighted>
2.5600

> <Gold.Chemscore.Internal.Correction.Weighted>
   9.000000E+99

> <Gold.Protein.RotatedTorsions>
[ 6907 6896 6895 6894 ] final  -99.82 input  -60.11 | X-H torsion
[ 7974 7965 7964 7962 ] final   81.49 input  175.53 | X-H torsion
[ 8008 7997 7996 7995 ] final -112.26 input   59.86 | X-H torsion
[ 10167 10162 10161 10158 ] final  129.34 input  -65.29 | X-H torsion
[ 10718 10713 10712 10709 ] final  174.79 input   66.30 | X-H torsion
[ 10763 10752 10751 10750 ] final  -28.45 input  -60.55 | X-H torsion
[ 11005 11000 10999 10996 ] final  114.18 input  -57.11 | X-H torsion

> <Gold.Protein.ActiveResidues>
 VAL166  LYS551  ARG553  GLY616  TRP617  ASP618  TYR619  PRO620  LYS621  CYS622 
 ASP623  PHE694  ASN695  SER759  ASP760  ASP761  ALA762  ILE779  LEU786  VAL792 
 PHE793  MET794  SER795  GLU796  ALA797  LYS798  CYS799  TRP800  GLU811  SER814 

> <Gold.Protein.RotatedAtoms>
  150.7093  134.0982  159.3955 H   0  0  0  0  0  0  0  0  0  0  0  0  # atno 6907 bound_to 6896
  151.8968  135.0392  160.0512 H   0  0  0  0  0  0  0  0  0  0  0  0  # atno 6908 bound_to 6896
  152.2447  133.5129  159.5327 H   0  0  0  0  0  0  0  0  0  0  0  0  # atno 6909 bound_to 6896
  145.6375  139.2418  143.2049 H   0  0  0  0  0  0  0  0  0  0  0  0  # atno 7974 bound_to 7965
  155.0024  140.0394  157.2366 H   0  0  0  0  0  0  0  0  0  0  0  0  # atno 8008 bound_to 7997
  154.7532  140.2770  155.6252 H   0  0  0  0  0  0  0  0  0  0  0  0  # atno 8009 bound_to 7997
  156.2889  140.2643  156.2291 H   0  0  0  0  0  0  0  0  0  0  0  0  # atno 8010 bound_to 7997
  139.5482  144.6791  151.4405 H   0  0  0  0  0  0  0  0  0  0  0  0  # atno 10167 bound_to 10162
  156.9445  131.0011  151.2961 H   0  0  0  0  0  0  0  0  0  0  0  0  # atno 10718 bound_to 10713
  153.7485  135.6927  153.4951 H   0  0  0  0  0  0  0  0  0  0  0  0  # atno 10763 bound_to 10752
  153.2020  135.4433  155.0276 H   0  0  0  0  0  0  0  0  0  0  0  0  # atno 10764 bound_to 10752
  154.8196  135.3415  154.7007 H   0  0  0  0  0  0  0  0  0  0  0  0  # atno 10765 bound_to 10752
  139.8973  134.9563  156.6852 H   0  0  0  0  0  0  0  0  0  0  0  0  # atno 11005 bound_to 11000
  146.1307  140.7188  142.9413 LP  0  0  0  0  0  0  0  0  0  0  0  0  # atno 17320 bound_to 7965
  144.7170  140.4243  143.7037 LP  0  0  0  0  0  0  0  0  0  0  0  0  # atno 17321 bound_to 7965
  140.6737  143.8236  150.7032 LP  0  0  0  0  0  0  0  0  0  0  0  0  # atno 17342 bound_to 10162
  140.1668  143.4228  152.2028 LP  0  0  0  0  0  0  0  0  0  0  0  0  # atno 17343 bound_to 10162
  157.5763  130.8345  149.8460 LP  0  0  0  0  0  0  0  0  0  0  0  0  # atno 17370 bound_to 10713
  156.0390  130.3744  150.1485 LP  0  0  0  0  0  0  0  0  0  0  0  0  # atno 17371 bound_to 10713
  140.7268  133.9093  155.8184 LP  0  0  0  0  0  0  0  0  0  0  0  0  # atno 17394 bound_to 11000
  141.0184  134.0923  157.4147 LP  0  0  0  0  0  0  0  0  0  0  0  0  # atno 17395 bound_to 11000

$$$$
