AV-unprocessed.smi:2691|AV-procd|sdf|10391|dock3
  -GOLD-   2272014423D 1   1.00000     0.00000
 Structure written by MMmdl.
 49 51  0  0  0  0  0  0  0  0  1 V2000
  153.1658  143.3035  162.6396 C   0  0  0  0  0  0  0  0  0  0  0  0
  152.7383  142.8401  161.2582 C   0  0  0  0  0  0  0  0  0  0  0  0
  151.7710  143.5894  160.5509 C   0  0  0  0  0  0  0  0  0  0  0  0
  151.3475  143.1933  159.2634 C   0  0  0  0  0  0  0  0  0  0  0  0
  150.4269  143.7676  158.4031 N   0  0  0  0  0  0  0  0  0  0  0  0
  150.4757  142.9369  157.3656 C   0  0  0  0  0  0  0  0  0  0  0  0
  151.3205  141.8915  157.4522 N   0  0  0  0  0  0  0  0  0  0  0  0
  151.5530  140.8625  156.4551 C   0  0  0  0  0  0  0  0  0  0  0  0
  150.4425  140.8147  155.3877 C   0  0  1  0  0  0  0  0  0  0  0  0
  150.8742  139.9786  154.3312 O   0  0  0  0  0  0  0  0  0  0  0  0
  149.1242  140.2504  155.9600 C   0  0  0  0  0  0  0  0  0  0  0  0
  147.9727  141.1126  155.6502 N   0  0  0  0  0  0  0  0  0  0  0  0
  147.6399  141.2496  154.2894 C   0  0  0  0  0  0  0  0  0  0  0  0
  146.6381  141.9728  153.9023 N   0  0  0  0  0  0  0  0  0  0  0  0
  145.8583  142.6474  154.8505 C   0  0  0  0  0  0  0  0  0  0  0  0
  144.6944  143.4890  154.3427 C   0  0  0  0  0  0  0  0  0  0  0  0
  145.1296  144.3916  153.1785 C   0  0  0  0  0  0  0  0  0  0  0  0
  144.0372  144.3008  155.4712 C   0  0  0  0  0  0  0  0  0  0  0  0
  146.1523  142.5619  156.1699 C   0  0  0  0  0  0  0  0  0  0  0  0
  147.2790  141.7533  156.6359 C   0  0  0  0  0  0  0  0  0  0  0  0
  147.5799  141.6578  157.8262 O   0  0  0  0  0  0  0  0  0  0  0  0
  151.9242  142.0189  158.6979 C   0  0  0  0  0  0  0  0  0  0  0  0
  152.8874  141.2648  159.3912 C   0  0  0  0  0  0  0  0  0  0  0  0
  153.2969  141.6728  160.6778 C   0  0  0  0  0  0  0  0  0  0  0  0
  154.3348  140.8496  161.4201 C   0  0  0  0  0  0  0  0  0  0  0  0
  152.6832  144.2428  162.9112 H   0  0  0  0  0  0  0  0  0  0  0  0
  154.2440  143.4603  162.6747 H   0  0  0  0  0  0  0  0  0  0  0  0
  152.8983  142.5600  163.3908 H   0  0  0  0  0  0  0  0  0  0  0  0
  151.3447  144.4779  160.9926 H   0  0  0  0  0  0  0  0  0  0  0  0
  149.8612  143.0969  156.4917 H   0  0  0  0  0  0  0  0  0  0  0  0
  152.5261  141.0321  155.9914 H   0  0  0  0  0  0  0  0  0  0  0  0
  151.6168  139.9052  156.9739 H   0  0  0  0  0  0  0  0  0  0  0  0
  150.2881  141.8205  154.9946 H   0  0  0  0  0  0  0  0  0  0  0  0
  150.1189  139.7125  153.8295 H   0  0  0  0  0  0  0  0  0  0  0  0
  148.9700  139.2203  155.6318 H   0  0  0  0  0  0  0  0  0  0  0  0
  149.2039  140.1729  157.0460 H   0  0  0  0  0  0  0  0  0  0  0  0
  148.2830  140.7093  153.5926 H   0  0  0  0  0  0  0  0  0  0  0  0
  143.9363  142.8056  153.9574 H   0  0  0  0  0  0  0  0  0  0  0  0
  145.5701  143.8058  152.3712 H   0  0  0  0  0  0  0  0  0  0  0  0
  145.8692  145.1266  153.4981 H   0  0  0  0  0  0  0  0  0  0  0  0
  144.2795  144.9348  152.7652 H   0  0  0  0  0  0  0  0  0  0  0  0
  143.7208  143.6514  156.2880 H   0  0  0  0  0  0  0  0  0  0  0  0
  143.1541  144.8280  155.1093 H   0  0  0  0  0  0  0  0  0  0  0  0
  144.7193  145.0461  155.8820 H   0  0  0  0  0  0  0  0  0  0  0  0
  145.5513  143.0909  156.8952 H   0  0  0  0  0  0  0  0  0  0  0  0
  153.3050  140.3783  158.9361 H   0  0  0  0  0  0  0  0  0  0  0  0
  154.6012  139.9505  160.8637 H   0  0  0  0  0  0  0  0  0  0  0  0
  153.9540  140.5383  162.3931 H   0  0  0  0  0  0  0  0  0  0  0  0
  155.2436  141.4320  161.5733 H   0  0  0  0  0  0  0  0  0  0  0  0
  1  2  1  0  0  0  0
  1 26  1  0  0  0  0
  1 27  1  0  0  0  0
  1 28  1  0  0  0  0
  2 24  1  0  0  0  0
  2  3  2  0  0  0  0
  3  4  1  0  0  0  0
  3 29  1  0  0  0  0
  4 22  2  0  0  0  0
  4  5  1  0  0  0  0
  5  6  2  0  0  0  0
  6  7  1  0  0  0  0
  6 30  1  0  0  0  0
  7  8  1  0  0  0  0
  7 22  1  0  0  0  0
  8  9  1  0  0  0  0
  8 31  1  0  0  0  0
  8 32  1  0  0  0  0
  9 10  1  0  0  0  0
  9 11  1  0  0  0  0
  9 33  1  0  0  0  0
 10 34  1  0  0  0  0
 11 12  1  0  0  0  0
 11 35  1  0  0  0  0
 11 36  1  0  0  0  0
 12 20  1  0  0  0  0
 12 13  1  0  0  0  0
 13 14  2  0  0  0  0
 13 37  1  0  0  0  0
 14 15  1  0  0  0  0
 15 16  1  0  0  0  0
 15 19  2  0  0  0  0
 16 17  1  0  0  0  0
 16 18  1  0  0  0  0
 16 38  1  0  0  0  0
 17 39  1  0  0  0  0
 17 40  1  0  0  0  0
 17 41  1  0  0  0  0
 18 42  1  0  0  0  0
 18 43  1  0  0  0  0
 18 44  1  0  0  0  0
 19 20  1  0  0  0  0
 19 45  1  0  0  0  0
 20 21  2  0  0  0  0
 22 23  1  0  0  0  0
 23 24  2  0  0  0  0
 23 46  1  0  0  0  0
 24 25  1  0  0  0  0
 25 47  1  0  0  0  0
 25 48  1  0  0  0  0
 25 49  1  0  0  0  0
M  END
> <s_m_source_file>
AV-unprocessed.smi

> <i_m_source_file_index>
2691

> <i_lp_mmshare_version>
43012

> <i_f3d_flags>
0

> <s_epik_input>
W0NIM11jKFtjSF0xKWMoW0NIM10pW2NIXWMoYzEyKW4oW2NIXW4yKVtDSDJdW0NASF0oW09IXSlbQ0gyXW4zW2NIXW5jKFtDSF0oW0NIM10pW0NIM10pW2NIXWMzPU8=

> <s_epik_cmdline>
J2VwaWtfcHl0aG9uJywgJy1waCcsICc3LjAnLCAnLXRuJywgJzgnLCAnLW1hJywgJzIwMCcsICctbWV0YWxfYmluZGluZycsICctaW1hZScsICc8aW5maWxlLm1hZT4nLCAnLW9tYWUnLCAnPG91dGZpbGUubWFlPic=

> <r_lp_tautomer_probability>
1

> <r_epik_Ionization_Penalty>
0.113357

> <r_epik_Ionization_Penalty_Charging>
3.84185e-08

> <r_epik_Ionization_Penalty_Neutral>
0.113357

> <r_epik_State_Penalty>
0.103025

> <r_epik_Charging_Adjusted_Penalty>
0.103025

> <i_epik_Tot_Q>
0

> <i_epik_Tot_abs_Q>
0

> <r_epik_Metal_State_Penalty>
0.0863451

> <b_epik_Metal_Only>
0

> <s_lp_Force_Field>
OPLS_2005

> <r_lp_Energy>
17.2292

> <b_lp_Chiralities_Consistent>
1

> <s_lp_Variant>
AV-unprocessed.smi:2691-2

> <Gold.Version>
5.8.1

> <Gold.Id.Protein>
6NUR|6NUR_protein|mol2

> <Gold.PLP.Fitness>
54.3210

> <Gold.PLP.PLP>
-49.6433

> <Gold.PLP.part.hbond>
-1.0000

> <Gold.PLP.part.metal>
0.0000

> <Gold.PLP.part.buried>
-3.6642

> <Gold.PLP.part.nonpolar>
-44.8775

> <Gold.PLP.part.repulsive>
0.4755

> <Gold.PLP.ligand.clash>
0.0000

> <Gold.PLP.ligand.torsion>
1.1644

> <Gold.PLP.Chemscore.Hbond>
1.0000

> <Gold.PLP.Chemscore.CHOScore>
1.2890

> <Gold.PLP.Chemscore.Metal>
0.0000

> <Gold.Chemscore.Hbonds>
donor molecule, donor type, donor heavy atom, donor atom, acceptor molecule, acceptor atom, score
      P1  H  7989  7998       L1    10  0.76
      L1  C     6    30       P1  8028  1.00
      L1  C    13    37       P1  7957  0.21

> <Gold.PLP.Chemscore.Internal.Correction>
0.1396

> <Gold.Rescore>
     Score         DG    S(hbond)    S(metal)    S(lipo)     H(rot)  DE(clash)    DE(int)     intcor
     12.71     -14.22       0.12        0.00     125.04       2.45       0.50       1.00       ----

> <Gold.Chemscore.Fitness>
12.7087

> <Gold.Chemscore.DG>
-14.2155

> <Gold.Chemscore.ZeroCoef>
-5.4800

> <Gold.Chemscore.Hbond>
0.1158

> <Gold.Chemscore.Metal>
0.0000

> <Gold.Chemscore.Lipo>
125.0418

> <Gold.Chemscore.Internal_Hbond>
0.0000

> <Gold.Chemscore.DEClash>
0.5046

> <Gold.Chemscore.DEInternal>
1.0022

> <Gold.Chemscore.Rot>
2.4536

> <Gold.Chemscore.Internal.Correction>
   9.000000E+99

> <Gold.Chemscore.Hbonds>
donor molecule, donor type, donor heavy atom, donor atom, acceptor molecule, acceptor atom, score
      P1  H  7989  7998       L1    10  0.18

> <Gold.Chemscore.Hbond.Weighted>
-0.3869

> <Gold.Chemscore.Metal.Weighted>
-0.0000

> <Gold.Chemscore.Lipo.Weighted>
-14.6299

> <Gold.Chemscore.Internal_Hbond.Weighted>
0.0000

> <Gold.Chemscore.DEClash.Weighted>
0.5046

> <Gold.Chemscore.DEInternal.Weighted>
1.0022

> <Gold.Chemscore.Rot.Weighted>
6.2812

> <Gold.Chemscore.Internal.Correction.Weighted>
   9.000000E+99

> <Gold.Protein.RotatedTorsions>
[ 6907 6896 6895 6894 ] final   64.19 input  -60.11 | X-H torsion
[ 7974 7965 7964 7962 ] final -104.11 input  175.53 | X-H torsion
[ 8008 7997 7996 7995 ] final   41.54 input   59.86 | X-H torsion
[ 10167 10162 10161 10158 ] final -152.02 input  -65.29 | X-H torsion
[ 10718 10713 10712 10709 ] final -126.03 input   66.30 | X-H torsion
[ 10763 10752 10751 10750 ] final -159.03 input  -60.55 | X-H torsion
[ 11005 11000 10999 10996 ] final  -61.06 input  -57.11 | X-H torsion

> <Gold.Protein.ActiveResidues>
 VAL166  LYS551  ARG553  GLY616  TRP617  ASP618  TYR619  PRO620  LYS621  CYS622 
 ASP623  PHE694  ASN695  SER759  ASP760  ASP761  ALA762  ILE779  LEU786  VAL792 
 PHE793  MET794  SER795  GLU796  ALA797  LYS798  CYS799  TRP800  GLU811  SER814 

> <Gold.Protein.RotatedAtoms>
  152.4312  134.5774  159.9938 H   0  0  0  0  0  0  0  0  0  0  0  0  # atno 6907 bound_to 6896
  151.5897  133.3362  159.3033 H   0  0  0  0  0  0  0  0  0  0  0  0  # atno 6908 bound_to 6896
  150.8205  134.7446  159.6833 H   0  0  0  0  0  0  0  0  0  0  0  0  # atno 6909 bound_to 6896
  145.2473  140.9226  143.3115 H   0  0  0  0  0  0  0  0  0  0  0  0  # atno 7974 bound_to 7965
  155.2712  140.3366  155.4265 H   0  0  0  0  0  0  0  0  0  0  0  0  # atno 8008 bound_to 7997
  156.2131  140.1778  156.7691 H   0  0  0  0  0  0  0  0  0  0  0  0  # atno 8009 bound_to 7997
  154.5715  140.0669  156.8956 H   0  0  0  0  0  0  0  0  0  0  0  0  # atno 8010 bound_to 7997
  139.7217  143.8947  152.2505 H   0  0  0  0  0  0  0  0  0  0  0  0  # atno 10167 bound_to 10162
  156.1729  130.6679  151.0203 H   0  0  0  0  0  0  0  0  0  0  0  0  # atno 10718 bound_to 10713
  154.7509  135.3092  154.8560 H   0  0  0  0  0  0  0  0  0  0  0  0  # atno 10763 bound_to 10752
  153.9348  135.6781  153.4749 H   0  0  0  0  0  0  0  0  0  0  0  0  # atno 10764 bound_to 10752
  153.1105  135.4869  154.8954 H   0  0  0  0  0  0  0  0  0  0  0  0  # atno 10765 bound_to 10752
  141.1310  133.6627  156.5317 H   0  0  0  0  0  0  0  0  0  0  0  0  # atno 11005 bound_to 11000
  144.9535  139.4057  143.6391 LP  0  0  0  0  0  0  0  0  0  0  0  0  # atno 17320 bound_to 7965
  146.3312  139.8553  142.8866 LP  0  0  0  0  0  0  0  0  0  0  0  0  # atno 17321 bound_to 7965
  139.8844  144.7000  150.8840 LP  0  0  0  0  0  0  0  0  0  0  0  0  # atno 17342 bound_to 10162
  140.7755  143.3635  151.1783 LP  0  0  0  0  0  0  0  0  0  0  0  0  # atno 17343 bound_to 10162
  157.6815  131.0836  150.7357 LP  0  0  0  0  0  0  0  0  0  0  0  0  # atno 17370 bound_to 10713
  156.7415  130.4740  149.5476 LP  0  0  0  0  0  0  0  0  0  0  0  0  # atno 17371 bound_to 10713
  140.4210  134.7187  157.4890 LP  0  0  0  0  0  0  0  0  0  0  0  0  # atno 17394 bound_to 11000
  140.0360  134.6337  155.9043 LP  0  0  0  0  0  0  0  0  0  0  0  0  # atno 17395 bound_to 11000

$$$$
