AV-unprocessed.smi:1532|AV-procd|sdf|6161|dock1
  -GOLD-   22720 6313D 1   1.00000     0.00000
 Structure written by MMmdl.
 38 40  0  0  0  0  0  0  0  0  1 V2000
  152.2975  137.7976  157.9383 O   0  0  0  0  0  0  0  0  0  0  0  0
  152.2349  138.9590  158.3428 C   0  0  0  0  0  0  0  0  0  0  0  0
  153.0982  139.4944  159.4069 C   0  0  0  0  0  0  0  0  0  0  0  0
  154.1000  138.5464  160.0609 C   0  0  0  0  0  0  0  0  0  0  0  0
  154.8251  139.1630  160.9953 F   0  0  0  0  0  0  0  0  0  0  0  0
  153.4721  137.5240  160.6430 F   0  0  0  0  0  0  0  0  0  0  0  0
  154.9403  138.0555  159.1495 F   0  0  0  0  0  0  0  0  0  0  0  0
  152.9820  140.7895  159.7897 C   0  0  0  0  0  0  0  0  0  0  0  0
  152.0126  141.6566  159.1514 C   0  0  0  0  0  0  0  0  0  0  0  0
  151.8452  143.1054  159.5097 C   0  0  0  0  0  0  0  0  0  0  0  0
  151.7665  144.1798  158.4502 C   0  0  0  0  0  0  0  0  0  0  0  0
  152.9685  144.1060  159.3629 C   0  0  0  0  0  0  0  0  0  0  0  0
  151.2481  141.1818  158.2269 N   0  0  0  0  0  0  0  0  0  0  0  0
  151.3492  139.8627  157.8293 N   0  0  0  0  0  0  0  0  0  0  0  0
  150.4187  139.4948  156.7546 C   0  0  0  0  0  0  0  0  0  0  0  0
  150.6298  140.3505  155.4864 C   0  0  1  0  0  0  0  0  0  0  0  0
  151.6150  139.7405  154.6760 O   0  0  0  0  0  0  0  0  0  0  0  0
  149.3237  140.5263  154.7267 C   0  0  0  0  0  0  0  0  0  0  0  0
  148.7185  141.7981  154.6178 C   0  0  0  0  0  0  0  0  0  0  0  0
  147.5144  141.9526  153.9037 C   0  0  0  0  0  0  0  0  0  0  0  0
  146.9105  140.8381  153.2910 C   0  0  0  0  0  0  0  0  0  0  0  0
  147.5119  139.5692  153.3916 C   0  0  0  0  0  0  0  0  0  0  0  0
  146.9340  138.4975  152.7992 F   0  0  0  0  0  0  0  0  0  0  0  0
  148.7151  139.4138  154.1072 C   0  0  0  0  0  0  0  0  0  0  0  0
  153.6028  141.1990  160.5725 H   0  0  0  0  0  0  0  0  0  0  0  0
  151.1981  143.2155  160.3779 H   0  0  0  0  0  0  0  0  0  0  0  0
  151.9079  143.8844  157.4121 H   0  0  0  0  0  0  0  0  0  0  0  0
  151.0605  144.9919  158.6113 H   0  0  0  0  0  0  0  0  0  0  0  0
  153.0630  144.8699  160.1320 H   0  0  0  0  0  0  0  0  0  0  0  0
  153.9058  143.7699  158.9231 H   0  0  0  0  0  0  0  0  0  0  0  0
  150.4445  138.4288  156.5203 H   0  0  0  0  0  0  0  0  0  0  0  0
  149.4095  139.6695  157.1334 H   0  0  0  0  0  0  0  0  0  0  0  0
  150.9989  141.3392  155.7632 H   0  0  0  0  0  0  0  0  0  0  0  0
  152.1888  139.2350  155.2313 H   0  0  0  0  0  0  0  0  0  0  0  0
  149.1776  142.6597  155.0802 H   0  0  0  0  0  0  0  0  0  0  0  0
  147.0551  142.9268  153.8245 H   0  0  0  0  0  0  0  0  0  0  0  0
  145.9878  140.9569  152.7424 H   0  0  0  0  0  0  0  0  0  0  0  0
  149.1700  138.4368  154.1760 H   0  0  0  0  0  0  0  0  0  0  0  0
  1  2  2  0  0  0  0
  2 14  1  0  0  0  0
  2  3  1  0  0  0  0
  3  4  1  0  0  0  0
  3  8  2  0  0  0  0
  4  5  1  0  0  0  0
  4  6  1  0  0  0  0
  4  7  1  0  0  0  0
  8  9  1  0  0  0  0
  8 25  1  0  0  0  0
  9 10  1  0  0  0  0
  9 13  2  0  0  0  0
 10 12  1  0  0  0  0
 10 11  1  0  0  0  0
 10 26  1  0  0  0  0
 11 12  1  0  0  0  0
 11 27  1  0  0  0  0
 11 28  1  0  0  0  0
 12 29  1  0  0  0  0
 12 30  1  0  0  0  0
 13 14  1  0  0  0  0
 14 15  1  0  0  0  0
 15 16  1  0  0  0  0
 15 31  1  0  0  0  0
 15 32  1  0  0  0  0
 16 17  1  0  0  0  0
 16 18  1  0  0  0  0
 16 33  1  0  0  0  0
 17 34  1  0  0  0  0
 18 24  1  0  0  0  0
 18 19  2  0  0  0  0
 19 20  1  0  0  0  0
 19 35  1  0  0  0  0
 20 21  2  0  0  0  0
 20 36  1  0  0  0  0
 21 22  1  0  0  0  0
 21 37  1  0  0  0  0
 22 23  1  0  0  0  0
 22 24  2  0  0  0  0
 24 38  1  0  0  0  0
M  END
> <s_m_source_file>
AV-unprocessed.smi

> <i_m_source_file_index>
1532

> <i_lp_mmshare_version>
43012

> <i_f3d_flags>
0

> <s_epik_input>
Tz1jMWMoQyhGKShGKUYpW2NIXWMoW0NIXTJbQ0gyXVtDSDJdMilubjFbQ0gyXVtDQEhdKFtPSF0pYzNbY0hdW2NIXVtjSF1jKEYpW2NIXTM=

> <s_epik_cmdline>
J2VwaWtfcHl0aG9uJywgJy1waCcsICc3LjAnLCAnLXRuJywgJzgnLCAnLW1hJywgJzIwMCcsICctbWV0YWxfYmluZGluZycsICctaW1hZScsICc8aW5maWxlLm1hZT4nLCAnLW9tYWUnLCAnPG91dGZpbGUubWFlPic=

> <r_lp_tautomer_probability>
1

> <r_epik_Ionization_Penalty>
1.69012e-07

> <r_epik_Ionization_Penalty_Charging>
9.677e-10

> <r_epik_Ionization_Penalty_Neutral>
1.68044e-07

> <r_epik_State_Penalty>
-0

> <r_epik_Charging_Adjusted_Penalty>
9.677e-10

> <i_epik_Tot_Q>
0

> <i_epik_Tot_abs_Q>
0

> <r_epik_Metal_State_Penalty>
-0

> <b_epik_Metal_Only>
0

> <s_lp_Force_Field>
OPLS_2005

> <r_lp_Energy>
33.2113

> <b_lp_Chiralities_Consistent>
1

> <s_lp_Variant>
AV-unprocessed.smi:1532-2

> <Gold.Version>
5.8.1

> <Gold.Id.Protein>
6NUR|6NUR_protein|mol2

> <Gold.PLP.Fitness>
46.6392

> <Gold.PLP.PLP>
-44.5354

> <Gold.PLP.part.hbond>
-1.0000

> <Gold.PLP.part.metal>
0.0000

> <Gold.PLP.part.buried>
-4.0272

> <Gold.PLP.part.nonpolar>
-40.0089

> <Gold.PLP.part.repulsive>
0.0000

> <Gold.PLP.ligand.clash>
0.4404

> <Gold.PLP.ligand.torsion>
0.5757

> <Gold.PLP.Chemscore.Hbond>
1.0000

> <Gold.PLP.Chemscore.CHOScore>
0.0000

> <Gold.PLP.Chemscore.Metal>
0.0000

> <Gold.Chemscore.Hbonds>
donor molecule, donor type, donor heavy atom, donor atom, acceptor molecule, acceptor atom, score
      P1  H  7989  7998       L1    17  0.90

> <Gold.PLP.Chemscore.Internal.Correction>
0.6957

> <Gold.Rescore>
     Score         DG    S(hbond)    S(metal)    S(lipo)     H(rot)  DE(clash)    DE(int)     intcor
     12.56     -15.54       0.96        0.00     106.62       2.20       0.02       2.96       ----

> <Gold.Chemscore.Fitness>
12.5640

> <Gold.Chemscore.DG>
-15.5429

> <Gold.Chemscore.ZeroCoef>
-5.4800

> <Gold.Chemscore.Hbond>
0.9646

> <Gold.Chemscore.Metal>
0.0000

> <Gold.Chemscore.Lipo>
106.6164

> <Gold.Chemscore.Internal_Hbond>
0.0000

> <Gold.Chemscore.DEClash>
0.0170

> <Gold.Chemscore.DEInternal>
2.9620

> <Gold.Chemscore.Rot>
2.2003

> <Gold.Chemscore.Internal.Correction>
   9.000000E+99

> <Gold.Chemscore.Hbonds>
donor molecule, donor type, donor heavy atom, donor atom, acceptor molecule, acceptor atom, score
      P1  H  7989  7998       L1    17  0.18

> <Gold.Chemscore.Hbond.Weighted>
-3.2216

> <Gold.Chemscore.Metal.Weighted>
-0.0000

> <Gold.Chemscore.Lipo.Weighted>
-12.4741

> <Gold.Chemscore.Internal_Hbond.Weighted>
0.0000

> <Gold.Chemscore.DEClash.Weighted>
0.0170

> <Gold.Chemscore.DEInternal.Weighted>
2.9620

> <Gold.Chemscore.Rot.Weighted>
5.6328

> <Gold.Chemscore.Internal.Correction.Weighted>
   9.000000E+99

> <Gold.Protein.RotatedTorsions>
[ 6907 6896 6895 6894 ] final  173.43 input  -60.11 | X-H torsion
[ 7974 7965 7964 7962 ] final  144.47 input  175.53 | X-H torsion
[ 8008 7997 7996 7995 ] final  122.81 input   59.86 | X-H torsion
[ 10167 10162 10161 10158 ] final  138.82 input  -65.29 | X-H torsion
[ 10718 10713 10712 10709 ] final -123.04 input   66.30 | X-H torsion
[ 10763 10752 10751 10750 ] final -135.27 input  -60.55 | X-H torsion
[ 11005 11000 10999 10996 ] final -130.22 input  -57.11 | X-H torsion

> <Gold.Protein.ActiveResidues>
 VAL166  LYS551  ARG553  GLY616  TRP617  ASP618  TYR619  PRO620  LYS621  CYS622 
 ASP623  PHE694  ASN695  SER759  ASP760  ASP761  ALA762  ILE779  LEU786  VAL792 
 PHE793  MET794  SER795  GLU796  ALA797  LYS798  CYS799  TRP800  GLU811  SER814 

> <Gold.Protein.RotatedAtoms>
  151.7684  133.3339  159.3437 H   0  0  0  0  0  0  0  0  0  0  0  0  # atno 6907 bound_to 6896
  150.7471  134.6042  159.6061 H   0  0  0  0  0  0  0  0  0  0  0  0  # atno 6908 bound_to 6896
  152.3358  134.7201  160.0329 H   0  0  0  0  0  0  0  0  0  0  0  0  # atno 6909 bound_to 6896
  144.8833  139.5666  143.5833 H   0  0  0  0  0  0  0  0  0  0  0  0  # atno 7974 bound_to 7965
  156.2742  140.2777  156.1528 H   0  0  0  0  0  0  0  0  0  0  0  0  # atno 8008 bound_to 7997
  155.0836  140.0388  157.2664 H   0  0  0  0  0  0  0  0  0  0  0  0  # atno 8009 bound_to 7997
  154.6945  140.2636  155.6786 H   0  0  0  0  0  0  0  0  0  0  0  0  # atno 8010 bound_to 7997
  139.5098  144.6331  151.5767 H   0  0  0  0  0  0  0  0  0  0  0  0  # atno 10167 bound_to 10162
  156.1469  130.6506  150.9855 H   0  0  0  0  0  0  0  0  0  0  0  0  # atno 10718 bound_to 10713
  154.8706  135.3708  154.4872 H   0  0  0  0  0  0  0  0  0  0  0  0  # atno 10763 bound_to 10752
  153.5521  135.7024  153.5591 H   0  0  0  0  0  0  0  0  0  0  0  0  # atno 10764 bound_to 10752
  153.3705  135.4022  155.1749 H   0  0  0  0  0  0  0  0  0  0  0  0  # atno 10765 bound_to 10752
  140.9365  134.1250  157.4189 H   0  0  0  0  0  0  0  0  0  0  0  0  # atno 11005 bound_to 11000
  146.3008  139.7421  142.9092 LP  0  0  0  0  0  0  0  0  0  0  0  0  # atno 17320 bound_to 7965
  145.3915  141.0373  143.3121 LP  0  0  0  0  0  0  0  0  0  0  0  0  # atno 17321 bound_to 7965
  140.6070  143.9506  150.6426 LP  0  0  0  0  0  0  0  0  0  0  0  0  # atno 17342 bound_to 10162
  140.2736  143.3438  152.1215 LP  0  0  0  0  0  0  0  0  0  0  0  0  # atno 17343 bound_to 10162
  157.6624  131.0878  150.7807 LP  0  0  0  0  0  0  0  0  0  0  0  0  # atno 17370 bound_to 10713
  156.7878  130.4880  149.5390 LP  0  0  0  0  0  0  0  0  0  0  0  0  # atno 17371 bound_to 10713
  139.8809  135.0022  156.6115 LP  0  0  0  0  0  0  0  0  0  0  0  0  # atno 17394 bound_to 11000
  140.7792  133.8674  155.8554 LP  0  0  0  0  0  0  0  0  0  0  0  0  # atno 17395 bound_to 11000

$$$$
