AV-unprocessed.smi:2331|AV-procd|sdf|9316|dock4
  -GOLD-   2272012533D 1   1.00000     0.00000
 Structure written by MMmdl.
 50 51  0  0  0  0  0  0  0  0  2 V2000
  146.2497  133.2102  150.3953 C   0  0  0  0  0  0  0  0  0  0  0  0
  145.4104  133.3907  151.6837 C   0  0  0  0  0  0  0  0  0  0  0  0
  144.1424  132.5272  151.5103 C   0  0  0  0  0  0  0  0  0  0  0  0
  146.2202  132.8480  152.8937 C   0  0  0  0  0  0  0  0  0  0  0  0
  146.8498  131.5564  152.6256 N   0  0  0  0  0  0  0  0  0  0  0  0
  147.0542  130.5760  153.5215 C   0  0  0  0  0  0  0  0  0  0  0  0
  146.8006  130.7056  154.7184 O   0  0  0  0  0  0  0  0  0  0  0  0
  147.6399  129.4781  152.9901 N   0  0  0  0  0  0  0  0  0  0  0  0
  147.4270  129.0697  151.5961 C   0  0  0  0  0  0  0  0  0  0  0  0
  147.3984  127.5476  151.6166 C   0  0  0  0  0  0  0  0  0  0  0  0
  148.3271  127.2018  152.7649 C   0  0  0  0  0  0  0  0  0  0  0  0
  148.1434  128.3401  153.7878 C   0  0  1  0  0  0  0  0  0  0  0  0
  149.4446  128.6427  154.6050 C   0  0  0  0  0  0  0  0  0  0  0  0
  149.9615  127.3922  155.3463 C   0  0  0  0  0  0  0  0  0  0  0  0
  150.5720  129.2830  153.7697 C   0  0  0  0  0  0  0  0  0  0  0  0
  149.1233  129.5360  155.6528 O   0  0  0  0  0  0  0  0  0  0  0  0
  145.0060  134.8594  151.9264 C   0  0  0  0  0  0  0  0  0  0  0  0
  143.6617  135.2559  152.1506 C   0  0  0  0  0  0  0  0  0  0  0  0
  143.3553  136.6182  152.3434 C   0  0  0  0  0  0  0  0  0  0  0  0
  144.3389  137.5413  152.3159 N   0  3  0  0  0  0  0  0  0  0  0  0
  145.6321  137.2194  152.1077 C   0  0  0  0  0  0  0  0  0  0  0  0
  145.9964  135.8730  151.9065 C   0  0  0  0  0  0  0  0  0  0  0  0
  146.5268  132.1656  150.2494 H   0  0  0  0  0  0  0  0  0  0  0  0
  147.1780  133.7804  150.4211 H   0  0  0  0  0  0  0  0  0  0  0  0
  145.6954  133.5198  149.5084 H   0  0  0  0  0  0  0  0  0  0  0  0
  144.3973  131.4849  151.3141 H   0  0  0  0  0  0  0  0  0  0  0  0
  143.5366  132.8777  150.6739 H   0  0  0  0  0  0  0  0  0  0  0  0
  143.5108  132.5366  152.3985 H   0  0  0  0  0  0  0  0  0  0  0  0
  147.0281  133.5376  153.1398 H   0  0  0  0  0  0  0  0  0  0  0  0
  145.5964  132.8025  153.7882 H   0  0  0  0  0  0  0  0  0  0  0  0
  147.1319  131.3802  151.6725 H   0  0  0  0  0  0  0  0  0  0  0  0
  146.5042  129.4608  151.1633 H   0  0  0  0  0  0  0  0  0  0  0  0
  148.2623  129.4307  150.9947 H   0  0  0  0  0  0  0  0  0  0  0  0
  146.3892  127.1988  151.8406 H   0  0  0  0  0  0  0  0  0  0  0  0
  147.7077  127.1039  150.6700 H   0  0  0  0  0  0  0  0  0  0  0  0
  148.1187  126.2187  153.1881 H   0  0  0  0  0  0  0  0  0  0  0  0
  149.3480  127.1860  152.3827 H   0  0  0  0  0  0  0  0  0  0  0  0
  147.3493  128.0315  154.4714 H   0  0  0  0  0  0  0  0  0  0  0  0
  150.3392  126.6358  154.6585 H   0  0  0  0  0  0  0  0  0  0  0  0
  149.1743  126.9312  155.9445 H   0  0  0  0  0  0  0  0  0  0  0  0
  150.7820  127.6396  156.0213 H   0  0  0  0  0  0  0  0  0  0  0  0
  150.8618  128.6434  152.9364 H   0  0  0  0  0  0  0  0  0  0  0  0
  151.4635  129.4527  154.3745 H   0  0  0  0  0  0  0  0  0  0  0  0
  150.2778  130.2482  153.3576 H   0  0  0  0  0  0  0  0  0  0  0  0
  148.1868  129.6609  155.6665 H   0  0  0  0  0  0  0  0  0  0  0  0
  142.8512  134.5441  152.1750 H   0  0  0  0  0  0  0  0  0  0  0  0
  142.3575  136.9942  152.5168 H   0  0  0  0  0  0  0  0  0  0  0  0
  146.3319  138.0424  152.1054 H   0  0  0  0  0  0  0  0  0  0  0  0
  147.0336  135.6282  151.7324 H   0  0  0  0  0  0  0  0  0  0  0  0
  144.0947  138.5218  152.4581 H   0  0  0  0  0  0  0  0  0  0  0  0
  1  2  1  0  0  0  0
  1 23  1  0  0  0  0
  1 24  1  0  0  0  0
  1 25  1  0  0  0  0
  2  3  1  0  0  0  0
  2  4  1  0  0  0  0
  2 17  1  0  0  0  0
  3 26  1  0  0  0  0
  3 27  1  0  0  0  0
  3 28  1  0  0  0  0
  4  5  1  0  0  0  0
  4 29  1  0  0  0  0
  4 30  1  0  0  0  0
  5  6  1  0  0  0  0
  5 31  1  0  0  0  0
  6  7  2  0  0  0  0
  6  8  1  0  0  0  0
  8 12  1  0  0  0  0
  8  9  1  0  0  0  0
  9 10  1  0  0  0  0
  9 32  1  0  0  0  0
  9 33  1  0  0  0  0
 10 11  1  0  0  0  0
 10 34  1  0  0  0  0
 10 35  1  0  0  0  0
 11 12  1  0  0  0  0
 11 36  1  0  0  0  0
 11 37  1  0  0  0  0
 12 13  1  0  0  0  0
 12 38  1  0  0  0  0
 13 14  1  0  0  0  0
 13 15  1  0  0  0  0
 13 16  1  0  0  0  0
 14 39  1  0  0  0  0
 14 40  1  0  0  0  0
 14 41  1  0  0  0  0
 15 42  1  0  0  0  0
 15 43  1  0  0  0  0
 15 44  1  0  0  0  0
 16 45  1  0  0  0  0
 17 22  1  0  0  0  0
 17 18  2  0  0  0  0
 18 19  1  0  0  0  0
 18 46  1  0  0  0  0
 19 20  2  0  0  0  0
 19 47  1  0  0  0  0
 20 21  1  0  0  0  0
 20 50  1  0  0  0  0
 21 22  2  0  0  0  0
 21 48  1  0  0  0  0
 22 49  1  0  0  0  0
M  CHG  1  20   1
M  END
> <s_m_source_file>
AV-unprocessed.smi

> <i_m_source_file_index>
2331

> <i_lp_mmshare_version>
43012

> <i_f3d_flags>
0

> <s_epik_input>
W2NIXTFbY0hdbltjSF1bY0hdYzFDKFtDSDNdKShbQ0gzXSlbQ0gyXVtOSF1DKD1PKU4yW0NIMl1bQ0gyXVtDSDJdW0NASF0yQyhbQ0gzXSkoW0NIM10pW09IXQ==

> <s_epik_cmdline>
J2VwaWtfcHl0aG9uJywgJy1waCcsICc3LjAnLCAnLXRuJywgJzgnLCAnLW1hJywgJzIwMCcsICctbWV0YWxfYmluZGluZycsICctaW1hZScsICc8aW5maWxlLm1hZT4nLCAnLW9tYWUnLCAnPG91dGZpbGUubWFlPic=

> <r_epik_Ionization_Penalty>
1.40501

> <r_epik_Ionization_Penalty_Charging>
1.40494

> <r_epik_Ionization_Penalty_Neutral>
7.00889e-05

> <r_epik_State_Penalty>
1.48741

> <r_epik_Charging_Adjusted_Penalty>
2.89235

> <i_epik_Tot_Q>
1

> <i_epik_Tot_abs_Q>
1

> <r_epik_Metal_State_Penalty>
1.54092

> <b_epik_Metal_Only>
0

> <s_lp_Force_Field>
OPLS_2005

> <r_lp_Energy>
55.517

> <b_lp_Chiralities_Consistent>
1

> <s_lp_Variant>
AV-unprocessed.smi:2331-3

> <Gold.Version>
5.8.1

> <Gold.Id.Protein>
6NUR|6NUR_protein|mol2

> <Gold.PLP.Fitness>
35.0236

> <Gold.PLP.PLP>
-30.1596

> <Gold.PLP.part.hbond>
-2.0000

> <Gold.PLP.part.metal>
0.0000

> <Gold.PLP.part.buried>
-0.5784

> <Gold.PLP.part.nonpolar>
-26.3769

> <Gold.PLP.part.repulsive>
0.1677

> <Gold.PLP.ligand.clash>
0.0000

> <Gold.PLP.ligand.torsion>
0.8102

> <Gold.PLP.Chemscore.Hbond>
2.0000

> <Gold.PLP.Chemscore.CHOScore>
0.0000

> <Gold.PLP.Chemscore.Metal>
0.0000

> <Gold.Chemscore.Hbonds>
donor molecule, donor type, donor heavy atom, donor atom, acceptor molecule, acceptor atom, score
      L1  H     5    31       P1 10747  0.13
      L1  H    20    50       P1 10175  2.00

> <Gold.PLP.Chemscore.Internal.Correction>
0.4845

> <Gold.Rescore>
     Score         DG    S(hbond)    S(metal)    S(lipo)     H(rot)  DE(clash)    DE(int)     intcor
     11.31     -13.82       1.02        0.00      86.38       2.02       1.53       0.97       ----

> <Gold.Chemscore.Fitness>
11.3144

> <Gold.Chemscore.DG>
-13.8177

> <Gold.Chemscore.ZeroCoef>
-5.4800

> <Gold.Chemscore.Hbond>
1.0182

> <Gold.Chemscore.Metal>
0.0000

> <Gold.Chemscore.Lipo>
86.3779

> <Gold.Chemscore.Internal_Hbond>
0.0000

> <Gold.Chemscore.DEClash>
1.5302

> <Gold.Chemscore.DEInternal>
0.9731

> <Gold.Chemscore.Rot>
2.0192

> <Gold.Chemscore.Internal.Correction>
   9.000000E+99

> <Gold.Chemscore.Hbonds>
donor molecule, donor type, donor heavy atom, donor atom, acceptor molecule, acceptor atom, score
      L1  H     5    31       P1 10747  0.14
      L1  H    20    50       P1 10175  0.98

> <Gold.Chemscore.Hbond.Weighted>
-3.4007

> <Gold.Chemscore.Metal.Weighted>
-0.0000

> <Gold.Chemscore.Lipo.Weighted>
-10.1062

> <Gold.Chemscore.Internal_Hbond.Weighted>
0.0000

> <Gold.Chemscore.DEClash.Weighted>
1.5302

> <Gold.Chemscore.DEInternal.Weighted>
0.9731

> <Gold.Chemscore.Rot.Weighted>
5.1691

> <Gold.Chemscore.Internal.Correction.Weighted>
   9.000000E+99

> <Gold.Protein.RotatedTorsions>
[ 6907 6896 6895 6894 ] final  -76.48 input  -60.11 | X-H torsion
[ 7974 7965 7964 7962 ] final   47.45 input  175.53 | X-H torsion
[ 8008 7997 7996 7995 ] final  -88.52 input   59.86 | X-H torsion
[ 10167 10162 10161 10158 ] final  124.36 input  -65.29 | X-H torsion
[ 10718 10713 10712 10709 ] final  130.79 input   66.30 | X-H torsion
[ 10763 10752 10751 10750 ] final  -56.51 input  -60.55 | X-H torsion
[ 11005 11000 10999 10996 ] final  109.99 input  -57.11 | X-H torsion

> <Gold.Protein.ActiveResidues>
 VAL166  LYS551  ARG553  GLY616  TRP617  ASP618  TYR619  PRO620  LYS621  CYS622 
 ASP623  PHE694  ASN695  SER759  ASP760  ASP761  ALA762  ILE779  LEU786  VAL792 
 PHE793  MET794  SER795  GLU796  ALA797  LYS798  CYS799  TRP800  GLU811  SER814 

> <Gold.Protein.RotatedAtoms>
  150.7026  134.4565  159.5360 H   0  0  0  0  0  0  0  0  0  0  0  0  # atno 6907 bound_to 6896
  152.2248  134.8376  160.0490 H   0  0  0  0  0  0  0  0  0  0  0  0  # atno 6908 bound_to 6896
  151.9213  133.3551  159.3935 H   0  0  0  0  0  0  0  0  0  0  0  0  # atno 6909 bound_to 6896
  146.0296  139.4748  142.9846 H   0  0  0  0  0  0  0  0  0  0  0  0  # atno 7974 bound_to 7965
  154.6758  140.0552  157.0214 H   0  0  0  0  0  0  0  0  0  0  0  0  # atno 8008 bound_to 7997
  155.1022  140.3230  155.4525 H   0  0  0  0  0  0  0  0  0  0  0  0  # atno 8009 bound_to 7997
  156.2675  140.2029  156.6148 H   0  0  0  0  0  0  0  0  0  0  0  0  # atno 8010 bound_to 7997
  139.5746  144.6957  151.3687 H   0  0  0  0  0  0  0  0  0  0  0  0  # atno 10167 bound_to 10162
  157.5028  131.1094  150.9403 H   0  0  0  0  0  0  0  0  0  0  0  0  # atno 10718 bound_to 10713
  154.2077  135.6400  153.5106 H   0  0  0  0  0  0  0  0  0  0  0  0  # atno 10763 bound_to 10752
  152.9997  135.5466  154.6248 H   0  0  0  0  0  0  0  0  0  0  0  0  # atno 10764 bound_to 10752
  154.5677  135.2914  155.0831 H   0  0  0  0  0  0  0  0  0  0  0  0  # atno 10765 bound_to 10752
  139.8873  134.9472  156.6210 H   0  0  0  0  0  0  0  0  0  0  0  0  # atno 11005 bound_to 11000
  145.7061  141.0121  143.1478 LP  0  0  0  0  0  0  0  0  0  0  0  0  # atno 17320 bound_to 7965
  144.7025  139.8702  143.7440 LP  0  0  0  0  0  0  0  0  0  0  0  0  # atno 17321 bound_to 7965
  140.7029  143.7586  150.7433 LP  0  0  0  0  0  0  0  0  0  0  0  0  # atno 17342 bound_to 10162
  140.1102  143.4706  152.2374 LP  0  0  0  0  0  0  0  0  0  0  0  0  # atno 17343 bound_to 10162
  157.0068  130.5621  149.5317 LP  0  0  0  0  0  0  0  0  0  0  0  0  # atno 17370 bound_to 10713
  156.0240  130.5334  150.8355 LP  0  0  0  0  0  0  0  0  0  0  0  0  # atno 17371 bound_to 10713
  140.7739  133.8715  155.8513 LP  0  0  0  0  0  0  0  0  0  0  0  0  # atno 17394 bound_to 11000
  140.9818  134.1395  157.4487 LP  0  0  0  0  0  0  0  0  0  0  0  0  # atno 17395 bound_to 11000

$$$$
