AV-unprocessed.smi:34|AV-procd|sdf|231|dock8
  -GOLD-   2262015563D 1   1.00000     0.00000
 Structure written by MMmdl.
 54 58  0  0  0  0  0  0  0  0  2 V2000
  151.1603  140.2374  155.3220 O   0  0  0  0  0  0  0  0  0  0  0  0
  151.5598  140.1460  156.4847 C   0  0  0  0  0  0  0  0  0  0  0  0
  151.7742  139.0171  157.2065 N   0  5  0  0  0  0  0  0  0  0  0  0
  150.8099  138.0893  157.3021 C   0  0  0  0  0  0  0  0  0  0  0  0
  149.9289  138.1163  158.3348 N   0  0  0  0  0  0  0  0  0  0  0  0
  148.9745  137.1832  158.4340 C   0  0  0  0  0  0  0  0  0  0  0  0
  148.7272  136.1443  157.6298 N   0  0  0  0  0  0  0  0  0  0  0  0
  149.6136  136.1015  156.5928 C   0  0  0  0  0  0  0  0  0  0  0  0
  150.6712  137.0290  156.3653 C   0  0  0  0  0  0  0  0  0  0  0  0
  151.3824  136.6922  155.2238 N   0  0  0  0  0  0  0  0  0  0  0  0
  150.7401  135.5983  154.8202 C   0  0  0  0  0  0  0  0  0  0  0  0
  149.6921  135.1813  155.5622 N   0  0  0  0  0  0  0  0  0  0  0  0
  148.7969  133.9987  155.3625 C   0  0  2  0  0  0  0  0  0  0  0  0
  149.2707  132.9582  156.1680 O   0  0  0  0  0  0  0  0  0  0  0  0
  149.9217  131.9827  155.3588 C   0  0  1  0  0  0  0  0  0  0  0  0
  149.9657  130.6251  156.0693 C   0  0  0  0  0  0  0  0  0  0  0  0
  151.1578  129.9560  155.6927 O   0  0  0  0  0  0  0  0  0  0  0  0
  152.3571  130.5046  155.9624 C   0  0  0  0  0  0  0  0  0  0  0  0
  152.4985  131.6055  156.4981 O   0  0  0  0  0  0  0  0  0  0  0  0
  153.4973  129.6378  155.5454 C   0  0  0  0  0  0  0  0  0  0  0  0
  154.7231  130.2363  155.1715 C   0  0  0  0  0  0  0  0  0  0  0  0
  155.8155  129.4432  154.7695 C   0  0  0  0  0  0  0  0  0  0  0  0
  155.6956  128.0419  154.7360 C   0  0  0  0  0  0  0  0  0  0  0  0
  154.4814  127.4343  155.1053 C   0  0  0  0  0  0  0  0  0  0  0  0
  153.3880  128.2256  155.5078 C   0  0  0  0  0  0  0  0  0  0  0  0
  149.0811  132.0143  154.0852 C   0  0  1  0  0  0  0  0  0  0  0  0
  147.9214  131.3912  154.3176 F   0  0  0  0  0  0  0  0  0  0  0  0
  148.8672  133.5106  153.9058 C   0  0  1  0  0  0  0  0  0  0  0  0
  147.6928  133.7677  153.1633 O   0  0  0  0  0  0  0  0  0  0  0  0
  151.7963  141.4064  157.2722 C   0  0  0  0  0  0  0  0  0  0  0  0
  151.3474  142.6460  156.7624 C   0  0  0  0  0  0  0  0  0  0  0  0
  151.5809  143.8395  157.4729 C   0  0  0  0  0  0  0  0  0  0  0  0
  152.2755  143.8076  158.6965 C   0  0  0  0  0  0  0  0  0  0  0  0
  152.7400  142.5812  159.2073 C   0  0  0  0  0  0  0  0  0  0  0  0
  152.5058  141.3869  158.4979 C   0  0  0  0  0  0  0  0  0  0  0  0
  148.3148  137.2822  159.2831 H   0  0  0  0  0  0  0  0  0  0  0  0
  151.0592  135.0751  153.9327 H   0  0  0  0  0  0  0  0  0  0  0  0
  147.8054  134.3122  155.6915 H   0  0  0  0  0  0  0  0  0  0  0  0
  150.9354  132.3072  155.1227 H   0  0  0  0  0  0  0  0  0  0  0  0
  149.9239  130.7521  157.1520 H   0  0  0  0  0  0  0  0  0  0  0  0
  149.1071  130.0217  155.7715 H   0  0  0  0  0  0  0  0  0  0  0  0
  154.8391  131.3104  155.1884 H   0  0  0  0  0  0  0  0  0  0  0  0
  156.7464  129.9115  154.4855 H   0  0  0  0  0  0  0  0  0  0  0  0
  156.5331  127.4342  154.4268 H   0  0  0  0  0  0  0  0  0  0  0  0
  154.3872  126.3589  155.0786 H   0  0  0  0  0  0  0  0  0  0  0  0
  152.4701  127.7264  155.7819 H   0  0  0  0  0  0  0  0  0  0  0  0
  149.5598  131.5353  153.2308 H   0  0  0  0  0  0  0  0  0  0  0  0
  149.7296  133.9528  153.4040 H   0  0  0  0  0  0  0  0  0  0  0  0
  147.8094  134.5784  152.6916 H   0  0  0  0  0  0  0  0  0  0  0  0
  150.8145  142.6879  155.8234 H   0  0  0  0  0  0  0  0  0  0  0  0
  151.2279  144.7802  157.0773 H   0  0  0  0  0  0  0  0  0  0  0  0
  152.4553  144.7228  159.2406 H   0  0  0  0  0  0  0  0  0  0  0  0
  153.2791  142.5551  160.1427 H   0  0  0  0  0  0  0  0  0  0  0  0
  152.8797  140.4574  158.9023 H   0  0  0  0  0  0  0  0  0  0  0  0
  1  2  2  0  0  0  0
  2  3  1  0  0  0  0
  2 30  1  0  0  0  0
  3  4  1  0  0  0  0
  4  9  1  0  0  0  0
  4  5  2  0  0  0  0
  5  6  1  0  0  0  0
  6  7  2  0  0  0  0
  6 36  1  0  0  0  0
  7  8  1  0  0  0  0
  8 12  1  0  0  0  0
  8  9  2  0  0  0  0
  9 10  1  0  0  0  0
 10 11  2  0  0  0  0
 11 12  1  0  0  0  0
 11 37  1  0  0  0  0
 12 13  1  0  0  0  0
 13 28  1  0  0  0  0
 13 14  1  0  0  0  0
 13 38  1  0  0  0  0
 14 15  1  0  0  0  0
 15 16  1  0  0  0  0
 15 26  1  0  0  0  0
 15 39  1  0  0  0  0
 16 17  1  0  0  0  0
 16 40  1  0  0  0  0
 16 41  1  0  0  0  0
 17 18  1  0  0  0  0
 18 19  2  0  0  0  0
 18 20  1  0  0  0  0
 20 25  1  0  0  0  0
 20 21  2  0  0  0  0
 21 22  1  0  0  0  0
 21 42  1  0  0  0  0
 22 23  2  0  0  0  0
 22 43  1  0  0  0  0
 23 24  1  0  0  0  0
 23 44  1  0  0  0  0
 24 25  2  0  0  0  0
 24 45  1  0  0  0  0
 25 46  1  0  0  0  0
 26 27  1  0  0  0  0
 26 28  1  0  0  0  0
 26 47  1  0  0  0  0
 28 29  1  0  0  0  0
 28 48  1  0  0  0  0
 29 49  1  0  0  0  0
 30 35  1  0  0  0  0
 30 31  2  0  0  0  0
 31 32  1  0  0  0  0
 31 50  1  0  0  0  0
 32 33  2  0  0  0  0
 32 51  1  0  0  0  0
 33 34  1  0  0  0  0
 33 52  1  0  0  0  0
 34 35  2  0  0  0  0
 34 53  1  0  0  0  0
 35 54  1  0  0  0  0
M  CHG  1   3  -1
M  END
> <s_m_source_file>
AV-unprocessed.smi

> <i_m_source_file_index>
34

> <i_lp_mmshare_version>
43012

> <i_f3d_flags>
0

> <s_epik_input>
W2NIXTFbY0hdW2NIXVtjSF1bY0hdYzFDKD1PKVtOSF1jKG5bY0hdbjIpYyhjMjMpbltjSF1uM1tDQEBIXTRPW0NASF0oW0NAQEhdKEYpW0NASF00W09IXSlbQ0gyXU9DKD1PKWM1W2NIXVtjSF1bY0hdW2NIXVtjSF01

> <s_epik_cmdline>
J2VwaWtfcHl0aG9uJywgJy1waCcsICc3LjAnLCAnLXRuJywgJzgnLCAnLW1hJywgJzIwMCcsICctbWV0YWxfYmluZGluZycsICctaW1hZScsICc8aW5maWxlLm1hZT4nLCAnLW9tYWUnLCAnPG91dGZpbGUubWFlPic=

> <r_lp_tautomer_probability>
1

> <r_epik_Ionization_Penalty>
4.33227

> <r_epik_Ionization_Penalty_Charging>
3.41027

> <r_epik_Ionization_Penalty_Neutral>
0.922001

> <r_epik_State_Penalty>
3.41358

> <r_epik_Charging_Adjusted_Penalty>
6.82385

> <i_epik_Tot_Q>
-1

> <i_epik_Tot_abs_Q>
1

> <r_epik_Metal_State_Penalty>
0.496292

> <b_epik_Metal_Only>
1

> <s_epik_Chemistry_Notes>
This compound has an ester and may undergo hydrolysis at high or low pH. This compound contains an acetal/aminal-like group ( X-CH(R)-Y where X, Y are N, S, or O) that may be acid/base labile, releasing an aldehyde.

> <s_lp_Force_Field>
OPLS_2005

> <r_lp_Energy>
43.1366

> <b_lp_Chiralities_Consistent>
1

> <s_lp_Variant>
AV-unprocessed.smi:34-17

> <Gold.Version>
5.8.1

> <Gold.Id.Protein>
6NUR|6NUR_protein|mol2

> <Gold.PLP.Fitness>
53.9352

> <Gold.PLP.PLP>
-50.6179

> <Gold.PLP.part.hbond>
-3.0000

> <Gold.PLP.part.metal>
0.0000

> <Gold.PLP.part.buried>
-5.3015

> <Gold.PLP.part.nonpolar>
-41.8796

> <Gold.PLP.part.repulsive>
0.1702

> <Gold.PLP.ligand.clash>
0.0000

> <Gold.PLP.ligand.torsion>
2.7488

> <Gold.PLP.Chemscore.Hbond>
2.0238

> <Gold.PLP.Chemscore.CHOScore>
0.8247

> <Gold.PLP.Chemscore.Metal>
0.0000

> <Gold.Chemscore.Hbonds>
donor molecule, donor type, donor heavy atom, donor atom, acceptor molecule, acceptor atom, score
      L1  H    29    49       P1  7948  0.73
      P1  H  7989  7998       L1     1  1.00
      P1  H 10752 10765       L1    10  0.05
      L1  C    11    37       P1  7949  0.69

> <Gold.PLP.Chemscore.Internal.Correction>
0.2697

> <Gold.Rescore>
     Score         DG    S(hbond)    S(metal)    S(lipo)     H(rot)  DE(clash)    DE(int)     intcor
     13.81     -18.05       1.72        0.00     117.39       2.69       0.36       3.87       ----

> <Gold.Chemscore.Fitness>
13.8132

> <Gold.Chemscore.DG>
-18.0491

> <Gold.Chemscore.ZeroCoef>
-5.4800

> <Gold.Chemscore.Hbond>
1.7162

> <Gold.Chemscore.Metal>
0.0000

> <Gold.Chemscore.Lipo>
117.3899

> <Gold.Chemscore.Internal_Hbond>
0.0000

> <Gold.Chemscore.DEClash>
0.3640

> <Gold.Chemscore.DEInternal>
3.8719

> <Gold.Chemscore.Rot>
2.6944

> <Gold.Chemscore.Internal.Correction>
   9.000000E+99

> <Gold.Chemscore.Hbonds>
donor molecule, donor type, donor heavy atom, donor atom, acceptor molecule, acceptor atom, score
      L1  H    29    49       P1  7948  0.56
      P1  H  7989  7998       L1     1  0.94

> <Gold.Chemscore.Hbond.Weighted>
-5.7321

> <Gold.Chemscore.Metal.Weighted>
-0.0000

> <Gold.Chemscore.Lipo.Weighted>
-13.7346

> <Gold.Chemscore.Internal_Hbond.Weighted>
0.0000

> <Gold.Chemscore.DEClash.Weighted>
0.3640

> <Gold.Chemscore.DEInternal.Weighted>
3.8719

> <Gold.Chemscore.Rot.Weighted>
6.8975

> <Gold.Chemscore.Internal.Correction.Weighted>
   9.000000E+99

> <Gold.Protein.RotatedTorsions>
[ 6907 6896 6895 6894 ] final   68.21 input  -60.11 | X-H torsion
[ 7974 7965 7964 7962 ] final   42.25 input  175.53 | X-H torsion
[ 8008 7997 7996 7995 ] final  127.89 input   59.86 | X-H torsion
[ 10167 10162 10161 10158 ] final  157.25 input  -65.29 | X-H torsion
[ 10718 10713 10712 10709 ] final   14.64 input   66.30 | X-H torsion
[ 10763 10752 10751 10750 ] final -172.89 input  -60.55 | X-H torsion
[ 11005 11000 10999 10996 ] final    5.55 input  -57.11 | X-H torsion

> <Gold.Protein.ActiveResidues>
 VAL166  LYS551  ARG553  GLY616  TRP617  ASP618  TYR619  PRO620  LYS621  CYS622 
 ASP623  PHE694  ASN695  SER759  ASP760  ASP761  ALA762  ILE779  LEU786  VAL792 
 PHE793  MET794  SER795  GLU796  ALA797  LYS798  CYS799  TRP800  GLU811  SER814 

> <Gold.Protein.RotatedAtoms>
  152.4605  134.5196  159.9778 H   0  0  0  0  0  0  0  0  0  0  0  0  # atno 6907 bound_to 6896
  151.5246  133.3454  159.2915 H   0  0  0  0  0  0  0  0  0  0  0  0  # atno 6908 bound_to 6896
  150.8565  134.7935  159.7112 H   0  0  0  0  0  0  0  0  0  0  0  0  # atno 6909 bound_to 6896
  146.0756  139.5322  142.9570 H   0  0  0  0  0  0  0  0  0  0  0  0  # atno 7974 bound_to 7965
  156.2902  140.2658  156.2346 H   0  0  0  0  0  0  0  0  0  0  0  0  # atno 8008 bound_to 7997
  155.0038  140.0387  157.2389 H   0  0  0  0  0  0  0  0  0  0  0  0  # atno 8009 bound_to 7997
  154.7578  140.2755  155.6244 H   0  0  0  0  0  0  0  0  0  0  0  0  # atno 8010 bound_to 7997
  139.4822  144.4935  151.8274 H   0  0  0  0  0  0  0  0  0  0  0  0  # atno 10167 bound_to 10162
  157.0420  130.6235  149.5752 H   0  0  0  0  0  0  0  0  0  0  0  0  # atno 10718 bound_to 10713
  154.6141  135.2868  155.0399 H   0  0  0  0  0  0  0  0  0  0  0  0  # atno 10763 bound_to 10752
  154.1618  135.6487  153.4991 H   0  0  0  0  0  0  0  0  0  0  0  0  # atno 10764 bound_to 10752
  153.0207  135.5380  154.6906 H   0  0  0  0  0  0  0  0  0  0  0  0  # atno 10765 bound_to 10752
  140.5694  134.0117  155.8002 H   0  0  0  0  0  0  0  0  0  0  0  0  # atno 11005 bound_to 11000
  145.6312  141.0303  143.1862 LP  0  0  0  0  0  0  0  0  0  0  0  0  # atno 17320 bound_to 7965
  144.7259  139.7877  143.7365 LP  0  0  0  0  0  0  0  0  0  0  0  0  # atno 17321 bound_to 7965
  140.4421  144.1972  150.5892 LP  0  0  0  0  0  0  0  0  0  0  0  0  # atno 17342 bound_to 10162
  140.4672  143.2426  151.9139 LP  0  0  0  0  0  0  0  0  0  0  0  0  # atno 17343 bound_to 10162
  156.0035  130.5118  150.7748 LP  0  0  0  0  0  0  0  0  0  0  0  0  # atno 17370 bound_to 10713
  157.5097  131.0924  151.0213 LP  0  0  0  0  0  0  0  0  0  0  0  0  # atno 17371 bound_to 10713
  141.1065  133.9684  157.2987 LP  0  0  0  0  0  0  0  0  0  0  0  0  # atno 17394 bound_to 11000
  139.9369  135.0195  156.8584 LP  0  0  0  0  0  0  0  0  0  0  0  0  # atno 17395 bound_to 11000

$$$$
