#       Name:                AV-unprocessed.smi:2396
#       Creating user name   scv26
#       Creation time:       Fri Mar 27 13:12:19 2020


#       File generated by GOLD software.
#

@<TRIPOS>MOLECULE
AV-unprocessed.smi:2396
    37    37     1
SMALL
NO_CHARGES


@<TRIPOS>ATOM
      1 ****        -3.7942   2.2113   1.3247 C.3            1 S1                 0.0000
      2 ****        -4.3113   1.2725   0.2267 C.3            1 S1                 0.0000
      3 ****        -3.4937   0.0698   0.1206 N.am           1 S1                 0.0000
      4 ****        -2.3292  -0.0149  -0.5408 C.2            1 S1                 0.0000
      5 ****        -1.8241   0.9354  -1.1401 O.2            1 S1                 0.0000
      6 ****        -1.6391  -1.3834  -0.5218 C.3            1 S1                 0.0000
      7 ****        -0.1914  -1.2655  -0.4714 N.pl3          1 S1                 0.0000
      8 ****         0.6083  -0.9708   0.6090 C.2            1 S1                 0.0000
      9 ****         1.9051  -0.9582   0.1778 C.2            1 S1                 0.0000
     10 ****         3.1290  -0.6616   1.0076 C.3            1 S1                 0.0000
     11 ****         3.4631   0.8378   1.0328 C.3            1 S1                 0.0000
     12 ****         3.9574   1.2638  -0.2194 O.3            1 S1                 0.0000
     13 ****         1.8004  -1.2740  -1.2154 C.2            1 S1                 0.0000
     14 ****         2.8759  -1.3989  -2.2697 C.3            1 S1                 0.0000
     15 ****         2.7639  -0.3936  -3.1376 F              1 S1                 0.0000
     16 ****         4.0991  -1.3718  -1.7451 F              1 S1                 0.0000
     17 ****         2.7313  -2.5501  -2.9269 F              1 S1                 0.0000
     18 ****         0.5391  -1.4518  -1.5883 N.2            1 S1                 0.0000
     19 ****        -4.4320   3.0910   1.4131 H              1 S1                 0.0000
     20 ****        -2.7828   2.5575   1.1088 H              1 S1                 0.0000
     21 ****        -3.7791   1.7131   2.2944 H              1 S1                 0.0000
     22 ****        -5.3337   0.9696   0.4541 H              1 S1                 0.0000
     23 ****        -4.3478   1.7922  -0.7320 H              1 S1                 0.0000
     24 ****        -3.8395  -0.7591   0.5822 H              1 S1                 0.0000
     25 ****        -1.9657  -1.9611   0.3441 H              1 S1                 0.0000
     26 ****        -1.9282  -1.9448  -1.4114 H              1 S1                 0.0000
     27 ****         0.1914  -0.7864   1.5883 H              1 S1                 0.0000
     28 ****         2.9583  -0.9844   2.0351 H              1 S1                 0.0000
     29 ****         3.9958  -1.2340   0.6785 H              1 S1                 0.0000
     30 ****         2.5903   1.4301   1.3098 H              1 S1                 0.0000
     31 ****         4.2334   1.0323   1.7794 H              1 S1                 0.0000
     32 ****         4.1501   2.1876  -0.1686 H              1 S1                 0.0000
     33 ****        -2.2848   1.8229  -1.1487 LP             1 S1                 0.0000
     34 ****        -0.9534   0.8194  -1.6179 LP             1 S1                 0.0000
     35 ****         3.2690   1.1015  -0.9263 LP             1 S1                 0.0000
     36 ****         4.7904   0.7576  -0.4428 LP             1 S1                 0.0000
     37 ****         0.2027  -1.6761  -2.5029 LP             1 S1                 0.0000
@<TRIPOS>BOND
    1    1    2 1     
    2    1   19 1     
    3    1   20 1     
    4    1   21 1     
    5    2    3 1     
    6    2   22 1     
    7    2   23 1     
    8    3    4 am    
    9    3   24 1     
   10    4    5 2     
   11    4    6 1     
   12    6    7 1     
   13    6   25 1     
   14    6   26 1     
   15    7   18 1     
   16    7    8 1     
   17    8    9 2     
   18    8   27 1     
   19    9   10 1     
   20    9   13 1     
   21   10   11 1     
   22   10   28 1     
   23   10   29 1     
   24   11   12 1     
   25   11   30 1     
   26   11   31 1     
   27   12   32 1     
   28   13   14 1     
   29   13   18 2     
   30   14   15 1     
   31   14   16 1     
   32   14   17 1     
   33    5   33 1     
   34    5   34 1     
   35   12   35 1     
   36   12   36 1     
   37   18   37 1     
@<TRIPOS>SUBSTRUCTURE
      1 S1             1
@<TRIPOS>SET
LONE_PAIRS      STATIC     ATOMS    <user>   **** ""
5 33 34 35 36 37
DONOR_HYDROGENS      STATIC     ATOMS    <user>   **** ""
2 24 32
ATOM$BLUE        STATIC     ATOMS    COLORGROUP SYSTEM
5 33 34 35 36 37
ATOM$RED        STATIC     ATOMS    COLORGROUP SYSTEM
2 24 32
