#       Name:                AV-unprocessed.smi:2683
#       Creating user name   scv26
#       Creation time:       Fri Mar 27 14:40:45 2020


#       File generated by GOLD software.
#

@<TRIPOS>MOLECULE
AV-unprocessed.smi:2683
    38    39     1
SMALL
NO_CHARGES


@<TRIPOS>ATOM
      1 ****        -2.5633  -1.6336  -2.2472 C.3            1 S1                 0.0000
      2 ****        -2.0193  -0.8492  -1.0457 C.3            1 S1                 0.0000
      3 ****        -2.4474  -1.5121   0.2800 C.3            1 S1                 0.0000
      4 ****        -2.0582  -0.7403   1.4464 N.pl3          1 S1                 0.0000
      5 ****        -2.7126   0.3254   2.0273 C.2            1 S1                 0.0000
      6 ****        -1.9594   0.7322   3.0912 C.2            1 S1                 0.0000
      7 ****        -0.8515  -0.1607   3.0834 C.2            1 S1                 0.0000
      8 ****        -0.9131  -1.0405   2.0967 N.2            1 S1                 0.0000
      9 ****        -0.5447  -0.7580  -1.1442 N.4            1 S1                 1.0000
     10 ****         0.0140   0.5904  -0.9115 C.3            1 S1                 0.0000
     11 ****         1.5502   0.5625  -0.9174 C.3            1 S1                 0.0000
     12 ****         2.1683  -0.1590   0.2841 C.3            1 S1                 0.0000
     13 ****         3.6132   0.3460   0.3478 C.3            1 S1                 0.0000
     14 ****         3.6210   1.7103  -0.3590 C.3            1 S1                 0.0000
     15 ****         2.1867   1.9525  -0.8431 C.3            1 S1                 0.0000
     16 ****        -3.6510  -1.7010  -2.2123 H              1 S1                 0.0000
     17 ****        -2.1681  -2.6500  -2.2716 H              1 S1                 0.0000
     18 ****        -2.2958  -1.1487  -3.1868 H              1 S1                 0.0000
     19 ****        -2.4475   0.1537  -1.0935 H              1 S1                 0.0000
     20 ****        -3.5317  -1.6288   0.3059 H              1 S1                 0.0000
     21 ****        -2.0274  -2.5163   0.3611 H              1 S1                 0.0000
     22 ****        -3.6468   0.7034   1.6384 H              1 S1                 0.0000
     23 ****        -2.1691   1.5429   3.7732 H              1 S1                 0.0000
     24 ****        -0.0097  -0.1947   3.7593 H              1 S1                 0.0000
     25 ****        -0.1415  -1.3995  -0.4758 H              1 S1                 0.0000
     26 ****        -0.3462   1.2537  -1.6987 H              1 S1                 0.0000
     27 ****        -0.3505   0.9931   0.0339 H              1 S1                 0.0000
     28 ****         1.8995   0.0810  -1.8326 H              1 S1                 0.0000
     29 ****         1.6476   0.1280   1.1988 H              1 S1                 0.0000
     30 ****         2.1105  -1.2446   0.1995 H              1 S1                 0.0000
     31 ****         3.9665   0.4160   1.3771 H              1 S1                 0.0000
     32 ****         4.2749  -0.3437  -0.1776 H              1 S1                 0.0000
     33 ****         3.9553   2.5098   0.3028 H              1 S1                 0.0000
     34 ****         4.3061   1.6822  -1.2073 H              1 S1                 0.0000
     35 ****         2.1541   2.4788  -1.7977 H              1 S1                 0.0000
     36 ****         1.6575   2.5651  -0.1114 H              1 S1                 0.0000
     37 ****        -0.2700  -1.0476  -2.0720 H              1 S1                 0.0000
     38 ****        -0.2586  -1.7651   1.8809 LP             1 S1                 0.0000
@<TRIPOS>BOND
    1    1    2 1     
    2    1   16 1     
    3    1   17 1     
    4    1   18 1     
    5    2    3 1     
    6    2    9 1     
    7    2   19 1     
    8    3    4 1     
    9    3   20 1     
   10    3   21 1     
   11    4    8 1     
   12    4    5 1     
   13    5    6 2     
   14    5   22 1     
   15    6    7 1     
   16    6   23 1     
   17    7    8 2     
   18    7   24 1     
   19    9   10 1     
   20    9   25 1     
   21    9   37 1     
   22   10   11 1     
   23   10   26 1     
   24   10   27 1     
   25   11   15 1     
   26   11   12 1     
   27   11   28 1     
   28   12   13 1     
   29   12   29 1     
   30   12   30 1     
   31   13   14 1     
   32   13   31 1     
   33   13   32 1     
   34   14   15 1     
   35   14   33 1     
   36   14   34 1     
   37   15   35 1     
   38   15   36 1     
   39    8   38 1     
@<TRIPOS>SUBSTRUCTURE
      1 S1             1
@<TRIPOS>SET
LONE_PAIRS      STATIC     ATOMS    <user>   **** ""
1 38
DONOR_HYDROGENS      STATIC     ATOMS    <user>   **** ""
2 25 37
ATOM$BLUE        STATIC     ATOMS    COLORGROUP SYSTEM
1 38
ATOM$RED        STATIC     ATOMS    COLORGROUP SYSTEM
2 25 37
