#       Name:                AV-unprocessed.smi:1986
#       Creating user name   scv26
#       Creation time:       Fri Mar 27 10:25:38 2020


#       File generated by GOLD software.
#

@<TRIPOS>MOLECULE
AV-unprocessed.smi:1986
    57    58     1
SMALL
NO_CHARGES


@<TRIPOS>ATOM
      1 ****        -0.8102   0.9682  -2.8842 C.3            1 S1                 0.0000
      2 ****        -1.1276   0.8738  -1.3801 C.3            1 S1                 0.0000
      3 ****        -0.2640   1.7420  -0.4038 C.3            1 S1                 0.0000
      4 ****        -0.6134   3.2343  -0.6234 C.3            1 S1                 0.0000
      5 ****         1.2463   1.5253  -0.7275 C.3            1 S1                 0.0000
      6 ****         1.6403   0.1288  -0.5629 N.am           1 S1                 0.0000
      7 ****         2.3186  -0.3941   0.4719 C.2            1 S1                 0.0000
      8 ****         2.7937   0.2886   1.3779 O.2            1 S1                 0.0000
      9 ****         2.4393  -1.9260   0.5380 C.3            1 S1                 0.0000
     10 ****         1.4336  -2.6479  -0.2606 N.am           1 S1                 0.0000
     11 ****         1.9223  -3.1770  -1.4448 N.2            1 S1                 0.0000
     12 ****         1.1330  -3.8166  -2.2401 C.2            1 S1                 0.0000
     13 ****         1.6582  -4.3215  -3.4042 O.3            1 S1                 0.0000
     14 ****        -0.2660  -3.9979  -1.9198 C.2            1 S1                 0.0000
     15 ****        -0.7339  -3.4789  -0.7636 C.2            1 S1                 0.0000
     16 ****         0.1329  -2.7431   0.1579 C.2            1 S1                 0.0000
     17 ****        -0.2720  -2.2337   1.2029 O.2            1 S1                 0.0000
     18 ****        -0.5262   1.3350   1.0299 N.4            1 S1                 1.0000
     19 ****         0.0980   2.2033   2.0686 C.3            1 S1                 0.0000
     20 ****        -0.0261   1.5546   3.4543 C.3            1 S1                 0.0000
     21 ****        -1.4018   1.3770   3.7576 O.3            1 S1                 0.0000
     22 ****        -2.0315   0.4996   2.8355 C.3            1 S1                 0.0000
     23 ****        -1.9442   1.0680   1.4069 C.3            1 S1                 0.0000
     24 ****         0.9392  -4.7523  -3.8406 H              1 S1                 0.0000
     25 ****        -1.5343   0.3885  -3.4568 H              1 S1                 0.0000
     26 ****         0.1728   0.5624  -3.1221 H              1 S1                 0.0000
     27 ****        -0.8560   1.9921  -3.2529 H              1 S1                 0.0000
     28 ****        -2.1782   1.1447  -1.2728 H              1 S1                 0.0000
     29 ****        -1.0578  -0.1773  -1.0971 H              1 S1                 0.0000
     30 ****        -0.4605   3.5353  -1.6591 H              1 S1                 0.0000
     31 ****         0.0117   3.8972  -0.0255 H              1 S1                 0.0000
     32 ****        -1.6539   3.4459  -0.3764 H              1 S1                 0.0000
     33 ****         1.4654   1.8151  -1.7545 H              1 S1                 0.0000
     34 ****         1.8857   2.1789  -0.1352 H              1 S1                 0.0000
     35 ****         1.3060  -0.5147  -1.2662 H              1 S1                 0.0000
     36 ****         3.4460  -2.1963   0.2142 H              1 S1                 0.0000
     37 ****         2.3733  -2.2425   1.5805 H              1 S1                 0.0000
     38 ****        -0.9140  -4.5382  -2.5941 H              1 S1                 0.0000
     39 ****        -1.7764  -3.6073  -0.5122 H              1 S1                 0.0000
     40 ****         1.1510   2.3842   1.8672 H              1 S1                 0.0000
     41 ****        -0.3925   3.1769   2.0917 H              1 S1                 0.0000
     42 ****         0.5030   0.6006   3.4913 H              1 S1                 0.0000
     43 ****         0.4208   2.1984   4.2122 H              1 S1                 0.0000
     44 ****        -1.5704  -0.4874   2.8900 H              1 S1                 0.0000
     45 ****        -3.0750   0.3757   3.1255 H              1 S1                 0.0000
     46 ****        -2.5277   1.9862   1.3310 H              1 S1                 0.0000
     47 ****        -2.4085   0.3325   0.7528 H              1 S1                 0.0000
     48 ****        -0.0673   0.4395   1.1211 H              1 S1                 0.0000
     49 ****         2.6829   1.2824   1.3659 LP             1 S1                 0.0000
     50 ****         3.2907  -0.1501   2.1266 LP             1 S1                 0.0000
     51 ****         2.8868  -3.0630  -1.6828 LP             1 S1                 0.0000
     52 ****         2.3874  -4.9757  -3.2035 LP             1 S1                 0.0000
     53 ****         2.0201  -3.5831  -3.9732 LP             1 S1                 0.0000
     54 ****         0.3587  -1.7234   1.7876 LP             1 S1                 0.0000
     55 ****        -1.2317  -2.3302   1.4672 LP             1 S1                 0.0000
     56 ****        -1.8589   2.2658   3.7239 LP             1 S1                 0.0000
     57 ****        -1.4845   0.9944   4.6779 LP             1 S1                 0.0000
@<TRIPOS>BOND
    1    1    2 1     
    2    1   25 1     
    3    1   26 1     
    4    1   27 1     
    5    2    3 1     
    6    2   28 1     
    7    2   29 1     
    8    3    4 1     
    9    3    5 1     
   10    3   18 1     
   11    4   30 1     
   12    4   31 1     
   13    4   32 1     
   14    5    6 1     
   15    5   33 1     
   16    5   34 1     
   17    6    7 am    
   18    6   35 1     
   19    7    8 2     
   20    7    9 1     
   21    9   36 1     
   22    9   37 1     
   23    9   10 1     
   24   10   11 1     
   25   10   16 am    
   26   11   12 2     
   27   12   13 1     
   28   12   14 1     
   29   13   24 1     
   30   14   38 1     
   31   14   15 2     
   32   15   39 1     
   33   15   16 1     
   34   16   17 2     
   35   18   23 1     
   36   18   19 1     
   37   18   48 1     
   38   19   20 1     
   39   19   40 1     
   40   19   41 1     
   41   20   21 1     
   42   20   42 1     
   43   20   43 1     
   44   21   22 1     
   45   22   23 1     
   46   22   44 1     
   47   22   45 1     
   48   23   46 1     
   49   23   47 1     
   50    8   49 1     
   51    8   50 1     
   52   11   51 1     
   53   13   52 1     
   54   13   53 1     
   55   17   54 1     
   56   17   55 1     
   57   21   56 1     
   58   21   57 1     
@<TRIPOS>SUBSTRUCTURE
      1 S1             1
@<TRIPOS>SET
LONE_PAIRS      STATIC     ATOMS    <user>   **** ""
9 49 50 51 52 53 54 55 56 57
DONOR_HYDROGENS      STATIC     ATOMS    <user>   **** ""
3 35 24 48
ATOM$BLUE        STATIC     ATOMS    COLORGROUP SYSTEM
9 49 50 51 52 53 54 55 56 57
ATOM$RED        STATIC     ATOMS    COLORGROUP SYSTEM
3 35 24 48
