AV-unprocessed.smi:288|AV-procd|sdf|2210|dock8
  -GOLD-   2262022 43D 1   1.00000     0.00000
 Structure written by MMmdl.
 33 34  0  0  0  0  0  0  0  0  1 V2000
  150.7439  139.5860  154.2441 O   0  0  0  0  0  0  0  0  0  0  0  0
  150.9089  140.2047  155.2970 C   0  0  0  0  0  0  0  0  0  0  0  0
  150.0441  141.2964  155.7313 C   0  0  0  0  0  0  0  0  0  0  0  0
  149.0211  141.6838  154.9507 F   0  0  0  0  0  0  0  0  0  0  0  0
  150.2518  141.9262  156.9079 C   0  0  0  0  0  0  0  0  0  0  0  0
  151.2792  141.5885  157.7743 N   0  0  0  0  0  0  0  0  0  0  0  0
  151.4867  142.3049  159.0916 C   0  0  1  0  0  0  0  0  0  0  0  0
  152.7950  143.1156  159.0646 C   0  0  0  0  0  0  0  0  0  0  0  0
  152.3517  144.4766  159.5615 C   0  0  0  0  0  0  0  0  0  0  0  0
  150.9120  144.5334  159.0730 C   0  0  0  0  0  0  0  0  0  0  0  0
  150.4433  143.2120  159.3100 O   0  0  0  0  0  0  0  0  0  0  0  0
  152.1661  140.5437  157.4345 C   0  0  0  0  0  0  0  0  0  0  0  0
  153.0761  140.2166  158.1999 O   0  0  0  0  0  0  0  0  0  0  0  0
  151.9602  139.8945  156.1948 N   0  0  0  0  0  0  0  0  0  0  0  0
  152.8595  138.8107  155.8342 C   0  0  0  0  0  0  0  0  0  0  0  0
  152.5932  137.5084  156.6224 C   0  0  2  0  0  0  0  0  0  0  0  0
  153.6495  136.6026  156.3664 O   0  0  0  0  0  0  0  0  0  0  0  0
  151.2743  136.8281  156.2064 C   0  0  0  0  0  0  0  0  0  0  0  0
  150.2329  137.5504  156.6204 F   0  0  0  0  0  0  0  0  0  0  0  0
  151.2151  136.7506  154.8768 F   0  0  0  0  0  0  0  0  0  0  0  0
  151.1924  135.5952  156.7090 F   0  0  0  0  0  0  0  0  0  0  0  0
  149.5729  142.7238  157.1670 H   0  0  0  0  0  0  0  0  0  0  0  0
  151.4553  141.5321  159.8618 H   0  0  0  0  0  0  0  0  0  0  0  0
  153.5570  142.6521  159.6919 H   0  0  0  0  0  0  0  0  0  0  0  0
  153.1718  143.1892  158.0429 H   0  0  0  0  0  0  0  0  0  0  0  0
  152.3789  144.5061  160.6517 H   0  0  0  0  0  0  0  0  0  0  0  0
  152.9657  145.2929  159.1800 H   0  0  0  0  0  0  0  0  0  0  0  0
  150.3135  145.2727  159.6052 H   0  0  0  0  0  0  0  0  0  0  0  0
  150.8735  144.7609  158.0069 H   0  0  0  0  0  0  0  0  0  0  0  0
  152.7369  138.6558  154.7612 H   0  0  0  0  0  0  0  0  0  0  0  0
  153.8896  139.1575  155.9327 H   0  0  0  0  0  0  0  0  0  0  0  0
  152.5592  137.7091  157.6942 H   0  0  0  0  0  0  0  0  0  0  0  0
  154.0815  136.4066  157.1838 H   0  0  0  0  0  0  0  0  0  0  0  0
  1  2  2  0  0  0  0
  2 14  1  0  0  0  0
  2  3  1  0  0  0  0
  3  4  1  0  0  0  0
  3  5  2  0  0  0  0
  5  6  1  0  0  0  0
  5 22  1  0  0  0  0
  6  7  1  0  0  0  0
  6 12  1  0  0  0  0
  7 11  1  0  0  0  0
  7  8  1  0  0  0  0
  7 23  1  0  0  0  0
  8  9  1  0  0  0  0
  8 24  1  0  0  0  0
  8 25  1  0  0  0  0
  9 10  1  0  0  0  0
  9 26  1  0  0  0  0
  9 27  1  0  0  0  0
 10 11  1  0  0  0  0
 10 28  1  0  0  0  0
 10 29  1  0  0  0  0
 12 13  2  0  0  0  0
 12 14  1  0  0  0  0
 14 15  1  0  0  0  0
 15 16  1  0  0  0  0
 15 30  1  0  0  0  0
 15 31  1  0  0  0  0
 16 17  1  0  0  0  0
 16 18  1  0  0  0  0
 16 32  1  0  0  0  0
 17 33  1  0  0  0  0
 18 19  1  0  0  0  0
 18 20  1  0  0  0  0
 18 21  1  0  0  0  0
M  END
> <s_m_source_file>
AV-unprocessed.smi

> <i_m_source_file_index>
288

> <i_lp_mmshare_version>
43012

> <i_f3d_flags>
0

> <s_epik_input>
TzFbQ0gyXVtDSDJdW0NIMl1bQ0BIXTFuKFtjSF1jKEYpYzI9TyljKD1PKW4yW0NIMl1bQ0BIXShbT0hdKUMoRikoRilG

> <s_epik_cmdline>
J2VwaWtfcHl0aG9uJywgJy1waCcsICc3LjAnLCAnLXRuJywgJzgnLCAnLW1hJywgJzIwMCcsICctbWV0YWxfYmluZGluZycsICctaW1hZScsICc8aW5maWxlLm1hZT4nLCAnLW9tYWUnLCAnPG91dGZpbGUubWFlPic=

> <r_lp_tautomer_probability>
1

> <r_epik_Ionization_Penalty>
0.000551119

> <r_epik_Ionization_Penalty_Charging>
2.51184e-08

> <r_epik_Ionization_Penalty_Neutral>
0.000551094

> <r_epik_State_Penalty>
0.000345115

> <r_epik_Charging_Adjusted_Penalty>
0.00034514

> <i_epik_Tot_Q>
0

> <i_epik_Tot_abs_Q>
0

> <r_epik_Metal_State_Penalty>
-0

> <b_epik_Metal_Only>
0

> <s_epik_Chemistry_Notes>
This compound contains an acetal/aminal-like group ( X-CH(R)-Y where X, Y are N, S, or O) that may be acid/base labile, releasing an aldehyde.

> <s_lp_Force_Field>
OPLS_2005

> <r_lp_Energy>
35.1555

> <b_lp_Chiralities_Consistent>
1

> <s_lp_Variant>
AV-unprocessed.smi:288-2

> <Gold.Version>
5.8.1

> <Gold.Id.Protein>
6NUR|6NUR_protein|mol2

> <Gold.PLP.Fitness>
46.8699

> <Gold.PLP.PLP>
-38.0412

> <Gold.PLP.part.hbond>
-2.9794

> <Gold.PLP.part.metal>
0.0000

> <Gold.PLP.part.buried>
-0.6435

> <Gold.PLP.part.nonpolar>
-33.7252

> <Gold.PLP.part.repulsive>
0.2306

> <Gold.PLP.ligand.clash>
0.0000

> <Gold.PLP.ligand.torsion>
0.5075

> <Gold.PLP.Chemscore.Hbond>
2.2780

> <Gold.PLP.Chemscore.CHOScore>
1.0000

> <Gold.PLP.Chemscore.Metal>
0.0000

> <Gold.Chemscore.Hbonds>
donor molecule, donor type, donor heavy atom, donor atom, acceptor molecule, acceptor atom, score
      P1  H  7989  7998       L1     1  0.35
      P1  H  7997  8008       L1    13  0.96
      P1  H 10752 10765       L1    17  0.77
      L1  C     5    22       P1  8028  0.80

> <Gold.PLP.Chemscore.Internal.Correction>
0.0098

> <Gold.Rescore>
     Score         DG    S(hbond)    S(metal)    S(lipo)     H(rot)  DE(clash)    DE(int)     intcor
      8.09     -11.39       1.35        0.00      68.11       2.57       0.81       2.49       ----

> <Gold.Chemscore.Fitness>
8.0906

> <Gold.Chemscore.DG>
-11.3887

> <Gold.Chemscore.ZeroCoef>
-5.4800

> <Gold.Chemscore.Hbond>
1.3497

> <Gold.Chemscore.Metal>
0.0000

> <Gold.Chemscore.Lipo>
68.1072

> <Gold.Chemscore.Internal_Hbond>
0.0000

> <Gold.Chemscore.DEClash>
0.8122

> <Gold.Chemscore.DEInternal>
2.4859

> <Gold.Chemscore.Rot>
2.5656

> <Gold.Chemscore.Internal.Correction>
   9.000000E+99

> <Gold.Chemscore.Hbonds>
donor molecule, donor type, donor heavy atom, donor atom, acceptor molecule, acceptor atom, score
      P1  H  7989  7998       L1     1  0.01
      P1  H  7997  8008       L1    13  0.36
      P1  H 10752 10765       L1    17  0.59

> <Gold.Chemscore.Hbond.Weighted>
-4.5081

> <Gold.Chemscore.Metal.Weighted>
-0.0000

> <Gold.Chemscore.Lipo.Weighted>
-7.9685

> <Gold.Chemscore.Internal_Hbond.Weighted>
0.0000

> <Gold.Chemscore.DEClash.Weighted>
0.8122

> <Gold.Chemscore.DEInternal.Weighted>
2.4859

> <Gold.Chemscore.Rot.Weighted>
6.5679

> <Gold.Chemscore.Internal.Correction.Weighted>
   9.000000E+99

> <Gold.Protein.RotatedTorsions>
[ 6907 6896 6895 6894 ] final   82.57 input  -60.11 | X-H torsion
[ 7974 7965 7964 7962 ] final   83.74 input  175.53 | X-H torsion
[ 8008 7997 7996 7995 ] final  -86.28 input   59.86 | X-H torsion
[ 10167 10162 10161 10158 ] final  158.57 input  -65.29 | X-H torsion
[ 10718 10713 10712 10709 ] final  -57.67 input   66.30 | X-H torsion
[ 10763 10752 10751 10750 ] final -109.28 input  -60.55 | X-H torsion
[ 11005 11000 10999 10996 ] final   54.21 input  -57.11 | X-H torsion

> <Gold.Protein.ActiveResidues>
 VAL166  LYS551  ARG553  GLY616  TRP617  ASP618  TYR619  PRO620  LYS621  CYS622 
 ASP623  PHE694  ASN695  SER759  ASP760  ASP761  ALA762  ILE779  LEU786  VAL792 
 PHE793  MET794  SER795  GLU796  ALA797  LYS798  CYS799  TRP800  GLU811  SER814 

> <Gold.Protein.RotatedAtoms>
  152.5303  134.3030  159.9085 H   0  0  0  0  0  0  0  0  0  0  0  0  # atno 6907 bound_to 6896
  151.2980  133.4128  159.2645 H   0  0  0  0  0  0  0  0  0  0  0  0  # atno 6908 bound_to 6896
  151.0143  134.9437  159.8081 H   0  0  0  0  0  0  0  0  0  0  0  0  # atno 6909 bound_to 6896
  145.6080  139.2363  143.2208 H   0  0  0  0  0  0  0  0  0  0  0  0  # atno 7974 bound_to 7965
  154.6501  140.0580  156.9945 H   0  0  0  0  0  0  0  0  0  0  0  0  # atno 8008 bound_to 7997
  155.1385  140.3263  155.4439 H   0  0  0  0  0  0  0  0  0  0  0  0  # atno 8009 bound_to 7997
  156.2572  140.1968  156.6501 H   0  0  0  0  0  0  0  0  0  0  0  0  # atno 8010 bound_to 7997
  139.4827  144.4812  151.8441 H   0  0  0  0  0  0  0  0  0  0  0  0  # atno 10167 bound_to 10162
  156.1193  130.4167  150.0472 H   0  0  0  0  0  0  0  0  0  0  0  0  # atno 10718 bound_to 10713
  154.8184  135.4607  154.0708 H   0  0  0  0  0  0  0  0  0  0  0  0  # atno 10763 bound_to 10752
  153.2082  135.6878  153.8153 H   0  0  0  0  0  0  0  0  0  0  0  0  # atno 10764 bound_to 10752
  153.7613  135.3283  155.3314 H   0  0  0  0  0  0  0  0  0  0  0  0  # atno 10765 bound_to 10752
  140.0704  134.5477  155.9052 H   0  0  0  0  0  0  0  0  0  0  0  0  # atno 11005 bound_to 11000
  146.1526  140.6903  142.9315 LP  0  0  0  0  0  0  0  0  0  0  0  0  # atno 17320 bound_to 7965
  144.7282  140.4590  143.6957 LP  0  0  0  0  0  0  0  0  0  0  0  0  # atno 17321 bound_to 7965
  140.4289  144.2143  150.5887 LP  0  0  0  0  0  0  0  0  0  0  0  0  # atno 17342 bound_to 10162
  140.4800  143.2382  151.8969 LP  0  0  0  0  0  0  0  0  0  0  0  0  # atno 17343 bound_to 10162
  156.8415  130.9427  151.3631 LP  0  0  0  0  0  0  0  0  0  0  0  0  # atno 17370 bound_to 10713
  157.6376  130.8780  149.9389 LP  0  0  0  0  0  0  0  0  0  0  0  0  # atno 17371 bound_to 10713
  141.2010  133.6615  156.5925 LP  0  0  0  0  0  0  0  0  0  0  0  0  # atno 17394 bound_to 11000
  140.3635  134.7667  157.4550 LP  0  0  0  0  0  0  0  0  0  0  0  0  # atno 17395 bound_to 11000

$$$$
