AV-unprocessed.smi:3056|AV-procd|sdf|11648|dock3
  -GOLD-   2272017 43D 1   1.00000     0.00000
 Structure written by MMmdl.
 48 49  0  0  0  0  0  0  0  0  2 V2000
  151.8891  145.3762  160.0344 C   0  0  0  0  0  0  0  0  0  0  0  0
  151.7479  144.1133  159.2344 C   0  0  0  0  0  0  0  0  0  0  0  0
  152.3751  142.8573  159.4659 C   0  0  0  0  0  0  0  0  0  0  0  0
  152.0320  141.9431  158.5744 N   0  0  0  0  0  0  0  0  0  0  0  0
  151.1824  142.5780  157.7349 N   0  0  0  0  0  0  0  0  0  0  0  0
  150.5599  141.8772  156.6142 C   0  0  1  0  0  0  0  0  0  0  0  0
  151.3009  140.5746  156.2358 C   0  0  0  0  0  0  0  0  0  0  0  0
  149.0298  141.6962  156.8197 C   0  0  1  0  0  0  0  0  0  0  0  0
  148.7111  140.7897  158.0195 C   0  0  0  0  0  0  0  0  0  0  0  0
  148.3112  142.9837  156.9744 N   0  3  0  0  0  0  0  0  0  0  0  0
  146.8539  142.8822  157.2031 C   0  0  0  0  0  0  0  0  0  0  0  0
  146.4245  143.6618  158.4504 C   0  0  0  0  0  0  0  0  0  0  0  0
  146.7815  143.2276  159.5452 O   0  0  0  0  0  0  0  0  0  0  0  0
  145.6717  144.7812  158.3231 N   0  0  0  0  0  0  0  0  0  0  0  0
  145.1113  145.5042  159.4670 C   0  0  0  0  0  0  0  0  0  0  0  0
  143.5776  145.3854  159.3999 C   0  0  0  0  0  0  0  0  0  0  0  0
  143.1070  145.8966  158.1539 O   0  0  0  0  0  0  0  0  0  0  0  0
  143.6659  145.2392  157.0171 C   0  0  1  0  0  0  0  0  0  0  0  0
  143.0715  145.8747  155.7557 C   0  0  0  0  0  0  0  0  0  0  0  0
  145.1999  145.3746  157.0696 C   0  0  0  0  0  0  0  0  0  0  0  0
  150.9920  143.8899  158.1189 C   0  0  0  0  0  0  0  0  0  0  0  0
  152.6997  145.3085  160.7603 H   0  0  0  0  0  0  0  0  0  0  0  0
  150.9790  145.6037  160.5894 H   0  0  0  0  0  0  0  0  0  0  0  0
  152.1016  146.2347  159.3971 H   0  0  0  0  0  0  0  0  0  0  0  0
  153.0618  142.5831  160.2532 H   0  0  0  0  0  0  0  0  0  0  0  0
  150.6828  142.5485  155.7629 H   0  0  0  0  0  0  0  0  0  0  0  0
  150.9147  140.1475  155.3110 H   0  0  0  0  0  0  0  0  0  0  0  0
  151.2151  139.8133  157.0118 H   0  0  0  0  0  0  0  0  0  0  0  0
  152.3629  140.7642  156.0759 H   0  0  0  0  0  0  0  0  0  0  0  0
  148.6254  141.1817  155.9464 H   0  0  0  0  0  0  0  0  0  0  0  0
  149.2094  139.8241  157.9276 H   0  0  0  0  0  0  0  0  0  0  0  0
  147.6399  140.5966  158.0872 H   0  0  0  0  0  0  0  0  0  0  0  0
  149.0206  141.2371  158.9641 H   0  0  0  0  0  0  0  0  0  0  0  0
  148.6965  143.4452  157.7861 H   0  0  0  0  0  0  0  0  0  0  0  0
  146.2837  143.2200  156.3400 H   0  0  0  0  0  0  0  0  0  0  0  0
  146.5921  141.8329  157.3474 H   0  0  0  0  0  0  0  0  0  0  0  0
  145.4680  145.1277  160.4265 H   0  0  0  0  0  0  0  0  0  0  0  0
  145.4119  146.5519  159.4210 H   0  0  0  0  0  0  0  0  0  0  0  0
  143.2635  144.3469  159.5171 H   0  0  0  0  0  0  0  0  0  0  0  0
  143.1182  145.9516  160.2102 H   0  0  0  0  0  0  0  0  0  0  0  0
  143.3883  144.1838  157.0416 H   0  0  0  0  0  0  0  0  0  0  0  0
  143.4641  145.4044  154.8545 H   0  0  0  0  0  0  0  0  0  0  0  0
  143.3017  146.9392  155.7043 H   0  0  0  0  0  0  0  0  0  0  0  0
  141.9866  145.7676  155.7400 H   0  0  0  0  0  0  0  0  0  0  0  0
  145.4850  146.4275  157.0434 H   0  0  0  0  0  0  0  0  0  0  0  0
  145.6470  144.9313  156.1840 H   0  0  0  0  0  0  0  0  0  0  0  0
  150.3374  144.5520  157.5713 H   0  0  0  0  0  0  0  0  0  0  0  0
  148.4890  143.5625  156.1660 H   0  0  0  0  0  0  0  0  0  0  0  0
  1  2  1  0  0  0  0
  1 22  1  0  0  0  0
  1 23  1  0  0  0  0
  1 24  1  0  0  0  0
  2 21  2  0  0  0  0
  2  3  1  0  0  0  0
  3  4  2  0  0  0  0
  3 25  1  0  0  0  0
  4  5  1  0  0  0  0
  5  6  1  0  0  0  0
  5 21  1  0  0  0  0
  6  7  1  0  0  0  0
  6  8  1  0  0  0  0
  6 26  1  0  0  0  0
  7 27  1  0  0  0  0
  7 28  1  0  0  0  0
  7 29  1  0  0  0  0
  8  9  1  0  0  0  0
  8 10  1  0  0  0  0
  8 30  1  0  0  0  0
  9 31  1  0  0  0  0
  9 32  1  0  0  0  0
  9 33  1  0  0  0  0
 10 11  1  0  0  0  0
 10 34  1  0  0  0  0
 10 48  1  0  0  0  0
 11 12  1  0  0  0  0
 11 35  1  0  0  0  0
 11 36  1  0  0  0  0
 12 13  2  0  0  0  0
 12 14  1  0  0  0  0
 14 20  1  0  0  0  0
 14 15  1  0  0  0  0
 15 16  1  0  0  0  0
 15 37  1  0  0  0  0
 15 38  1  0  0  0  0
 16 17  1  0  0  0  0
 16 39  1  0  0  0  0
 16 40  1  0  0  0  0
 17 18  1  0  0  0  0
 18 19  1  0  0  0  0
 18 20  1  0  0  0  0
 18 41  1  0  0  0  0
 19 42  1  0  0  0  0
 19 43  1  0  0  0  0
 19 44  1  0  0  0  0
 20 45  1  0  0  0  0
 20 46  1  0  0  0  0
 21 47  1  0  0  0  0
M  CHG  1  10   1
M  END
> <s_m_source_file>
AV-unprocessed.smi

> <i_m_source_file_index>
3056

> <i_lp_mmshare_version>
43012

> <i_f3d_flags>
0

> <s_epik_input>
W0NIM11jMVtjSF1ubihbY0hdMSlbQ0BIXShbQ0gzXSlbQ0BIXShbQ0gzXSlbTkhdW0NIMl1DKD1PKU4yW0NIMl1bQ0gyXU9bQ0BASF0oW0NIM10pW0NIMl0y

> <s_epik_cmdline>
J2VwaWtfcHl0aG9uJywgJy1waCcsICc3LjAnLCAnLXRuJywgJzgnLCAnLW1hJywgJzIwMCcsICctbWV0YWxfYmluZGluZycsICctaW1hZScsICc8aW5maWxlLm1hZT4nLCAnLW9tYWUnLCAnPG91dGZpbGUubWFlPic=

> <r_lp_tautomer_probability>
1

> <r_epik_Ionization_Penalty>
0.233715

> <r_epik_Ionization_Penalty_Charging>
0.233698

> <r_epik_Ionization_Penalty_Neutral>
1.68157e-05

> <r_epik_State_Penalty>
0.225221

> <r_epik_Charging_Adjusted_Penalty>
0.458919

> <i_epik_Tot_Q>
1

> <i_epik_Tot_abs_Q>
1

> <r_epik_Metal_State_Penalty>
0.225535

> <b_epik_Metal_Only>
0

> <s_lp_Force_Field>
OPLS_2005

> <r_lp_Energy>
30.0079

> <b_lp_Chiralities_Consistent>
1

> <s_lp_Variant>
AV-unprocessed.smi:3056-4

> <Gold.Version>
5.8.1

> <Gold.Id.Protein>
6NUR|6NUR_protein|mol2

> <Gold.PLP.Fitness>
44.8978

> <Gold.PLP.PLP>
-32.4118

> <Gold.PLP.part.hbond>
-3.5151

> <Gold.PLP.part.metal>
0.0000

> <Gold.PLP.part.buried>
-1.6049

> <Gold.PLP.part.nonpolar>
-28.0321

> <Gold.PLP.part.repulsive>
0.0888

> <Gold.PLP.ligand.clash>
0.0000

> <Gold.PLP.ligand.torsion>
0.7913

> <Gold.PLP.Chemscore.Hbond>
3.5258

> <Gold.PLP.Chemscore.CHOScore>
1.0770

> <Gold.PLP.Chemscore.Metal>
0.0000

> <Gold.Chemscore.Hbonds>
donor molecule, donor type, donor heavy atom, donor atom, acceptor molecule, acceptor atom, score
      L1  H    10    48       P1  8028  0.89
      L1  C    21    47       P1  8028  1.00
      L1  C    21    47       P1  8029  0.03

> <Gold.PLP.Chemscore.Internal.Correction>
0.2600

> <Gold.Rescore>
     Score         DG    S(hbond)    S(metal)    S(lipo)     H(rot)  DE(clash)    DE(int)     intcor
     15.99     -17.06       1.86        0.00      83.75       1.74       0.01       1.07       ----

> <Gold.Chemscore.Fitness>
15.9860

> <Gold.Chemscore.DG>
-17.0636

> <Gold.Chemscore.ZeroCoef>
-5.4800

> <Gold.Chemscore.Hbond>
1.8644

> <Gold.Chemscore.Metal>
0.0000

> <Gold.Chemscore.Lipo>
83.7543

> <Gold.Chemscore.Internal_Hbond>
0.0000

> <Gold.Chemscore.DEClash>
0.0059

> <Gold.Chemscore.DEInternal>
1.0717

> <Gold.Chemscore.Rot>
1.7354

> <Gold.Chemscore.Internal.Correction>
   9.000000E+99

> <Gold.Chemscore.Hbonds>
donor molecule, donor type, donor heavy atom, donor atom, acceptor molecule, acceptor atom, score
      L1  H    10    48       P1  8028  0.30

> <Gold.Chemscore.Hbond.Weighted>
-6.2270

> <Gold.Chemscore.Metal.Weighted>
-0.0000

> <Gold.Chemscore.Lipo.Weighted>
-9.7992

> <Gold.Chemscore.Internal_Hbond.Weighted>
0.0000

> <Gold.Chemscore.DEClash.Weighted>
0.0059

> <Gold.Chemscore.DEInternal.Weighted>
1.0717

> <Gold.Chemscore.Rot.Weighted>
4.4426

> <Gold.Chemscore.Internal.Correction.Weighted>
   9.000000E+99

> <Gold.Protein.RotatedTorsions>
[ 6907 6896 6895 6894 ] final -146.94 input  -60.11 | X-H torsion
[ 7974 7965 7964 7962 ] final  -55.42 input  175.53 | X-H torsion
[ 8008 7997 7996 7995 ] final  -82.14 input   59.86 | X-H torsion
[ 10167 10162 10161 10158 ] final  108.10 input  -65.29 | X-H torsion
[ 10718 10713 10712 10709 ] final  -21.63 input   66.30 | X-H torsion
[ 10763 10752 10751 10750 ] final  -78.16 input  -60.55 | X-H torsion
[ 11005 11000 10999 10996 ] final  -28.19 input  -57.11 | X-H torsion

> <Gold.Protein.ActiveResidues>
 VAL166  LYS551  ARG553  GLY616  TRP617  ASP618  TYR619  PRO620  LYS621  CYS622 
 ASP623  PHE694  ASN695  SER759  ASP760  ASP761  ALA762  ILE779  LEU786  VAL792 
 PHE793  MET794  SER795  GLU796  ALA797  LYS798  CYS799  TRP800  GLU811  SER814 

> <Gold.Protein.RotatedAtoms>
  151.1487  133.4922  159.2595 H   0  0  0  0  0  0  0  0  0  0  0  0  # atno 6907 bound_to 6896
  151.1577  135.0258  159.8706 H   0  0  0  0  0  0  0  0  0  0  0  0  # atno 6908 bound_to 6896
  152.5463  134.1364  159.8514 H   0  0  0  0  0  0  0  0  0  0  0  0  # atno 6909 bound_to 6896
  145.8743  140.8192  142.9872 H   0  0  0  0  0  0  0  0  0  0  0  0  # atno 7974 bound_to 7965
  154.6055  140.0637  156.9425 H   0  0  0  0  0  0  0  0  0  0  0  0  # atno 8008 bound_to 7997
  155.2060  140.3319  155.4317 H   0  0  0  0  0  0  0  0  0  0  0  0  # atno 8009 bound_to 7997
  156.2345  140.1856  156.7140 H   0  0  0  0  0  0  0  0  0  0  0  0  # atno 8010 bound_to 7997
  139.6873  144.7112  151.1409 H   0  0  0  0  0  0  0  0  0  0  0  0  # atno 10167 bound_to 10162
  156.5155  130.4620  149.6625 H   0  0  0  0  0  0  0  0  0  0  0  0  # atno 10718 bound_to 10713
  154.5224  135.5739  153.6691 H   0  0  0  0  0  0  0  0  0  0  0  0  # atno 10763 bound_to 10752
  152.9920  135.6185  154.2737 H   0  0  0  0  0  0  0  0  0  0  0  0  # atno 10764 bound_to 10752
  154.2659  135.2855  155.2738 H   0  0  0  0  0  0  0  0  0  0  0  0  # atno 10765 bound_to 10752
  140.9186  133.7413  156.0770 H   0  0  0  0  0  0  0  0  0  0  0  0  # atno 11005 bound_to 11000
  144.6726  140.1287  143.7445 LP  0  0  0  0  0  0  0  0  0  0  0  0  # atno 17320 bound_to 7965
  145.9099  139.2481  143.1443 LP  0  0  0  0  0  0  0  0  0  0  0  0  # atno 17321 bound_to 7965
  140.7672  143.5610  150.9099 LP  0  0  0  0  0  0  0  0  0  0  0  0  # atno 17342 bound_to 10162
  139.9286  143.6520  152.3081 LP  0  0  0  0  0  0  0  0  0  0  0  0  # atno 17343 bound_to 10162
  156.3199  130.7275  151.2185 LP  0  0  0  0  0  0  0  0  0  0  0  0  # atno 17370 bound_to 10713
  157.7444  131.0458  150.4863 LP  0  0  0  0  0  0  0  0  0  0  0  0  # atno 17371 bound_to 10713
  140.8017  134.3501  157.5437 LP  0  0  0  0  0  0  0  0  0  0  0  0  # atno 17394 bound_to 11000
  139.8771  134.9201  156.3244 LP  0  0  0  0  0  0  0  0  0  0  0  0  # atno 17395 bound_to 11000

$$$$
