AV-unprocessed.smi:496|AV-procd|sdf|2720|dock6
  -GOLD-   2262023163D 1   1.00000     0.00000
 Structure written by MMmdl.
 41 43  0  0  0  0  0  0  0  0  2 V2000
  153.2621  137.4224  160.7284 C   0  0  0  0  0  0  0  0  0  0  0  0
  152.4907  136.9891  159.6228 O   0  0  0  0  0  0  0  0  0  0  0  0
  151.8657  138.0645  158.9405 C   0  0  0  0  0  0  0  0  0  0  0  0
  152.9148  139.1246  158.5717 C   0  0  0  0  0  0  0  0  0  0  0  0
  152.3120  140.3287  157.9930 N   0  0  0  0  0  0  0  0  0  0  0  0
  151.6850  140.5187  156.7905 C   0  0  0  0  0  0  0  0  0  0  0  0
  151.4758  139.4331  155.7477 C   0  0  2  0  0  0  0  0  0  0  0  0
  152.8067  138.9786  155.1306 C   0  0  0  0  0  0  0  0  0  0  0  0
  150.5649  139.8552  154.6815 N   0  5  0  0  0  0  0  0  0  0  0  0
  149.3089  139.3537  154.5095 C   0  0  0  0  0  0  0  0  0  0  0  0
  148.9267  138.1791  154.4644 O   0  0  0  0  0  0  0  0  0  0  0  0
  148.3053  140.4251  154.3179 C   0  0  0  0  0  0  0  0  0  0  0  0
  148.4175  141.7923  154.2907 C   0  0  0  0  0  0  0  0  0  0  0  0
  147.1064  142.3091  154.0996 C   0  0  0  0  0  0  0  0  0  0  0  0
  146.2823  141.2231  154.0341 C   0  0  0  0  0  0  0  0  0  0  0  0
  146.9938  140.0717  154.1729 O   0  0  0  0  0  0  0  0  0  0  0  0
  151.2294  141.7586  156.5806 N   0  0  0  0  0  0  0  0  0  0  0  0
  151.6016  142.4328  157.7242 C   0  0  0  0  0  0  0  0  0  0  0  0
  151.4109  143.7832  158.0952 C   0  0  0  0  0  0  0  0  0  0  0  0
  151.8907  144.2581  159.3330 C   0  0  0  0  0  0  0  0  0  0  0  0
  152.5668  143.3907  160.2148 C   0  0  0  0  0  0  0  0  0  0  0  0
  152.7652  142.0414  159.8635 C   0  0  0  0  0  0  0  0  0  0  0  0
  152.2831  141.5708  158.6263 C   0  0  0  0  0  0  0  0  0  0  0  0
  153.7197  136.5612  161.2150 H   0  0  0  0  0  0  0  0  0  0  0  0
  152.6416  137.9344  161.4650 H   0  0  0  0  0  0  0  0  0  0  0  0
  154.0601  138.0955  160.4128 H   0  0  0  0  0  0  0  0  0  0  0  0
  151.3713  137.6968  158.0405 H   0  0  0  0  0  0  0  0  0  0  0  0
  151.0968  138.5105  159.5728 H   0  0  0  0  0  0  0  0  0  0  0  0
  153.5223  139.3906  159.4370 H   0  0  0  0  0  0  0  0  0  0  0  0
  153.6144  138.7055  157.8488 H   0  0  0  0  0  0  0  0  0  0  0  0
  151.0751  138.5559  156.2554 H   0  0  0  0  0  0  0  0  0  0  0  0
  153.4881  138.6181  155.9016 H   0  0  0  0  0  0  0  0  0  0  0  0
  153.3041  139.7931  154.6027 H   0  0  0  0  0  0  0  0  0  0  0  0
  152.6551  138.1655  154.4199 H   0  0  0  0  0  0  0  0  0  0  0  0
  149.3352  142.3526  154.3953 H   0  0  0  0  0  0  0  0  0  0  0  0
  146.8052  143.3433  154.0236 H   0  0  0  0  0  0  0  0  0  0  0  0
  145.2181  141.0948  153.9026 H   0  0  0  0  0  0  0  0  0  0  0  0
  150.8950  144.4535  157.4240 H   0  0  0  0  0  0  0  0  0  0  0  0
  151.7404  145.2921  159.6063 H   0  0  0  0  0  0  0  0  0  0  0  0
  152.9334  143.7611  161.1608 H   0  0  0  0  0  0  0  0  0  0  0  0
  153.2856  141.3773  160.5370 H   0  0  0  0  0  0  0  0  0  0  0  0
  1  2  1  0  0  0  0
  1 24  1  0  0  0  0
  1 25  1  0  0  0  0
  1 26  1  0  0  0  0
  2  3  1  0  0  0  0
  3  4  1  0  0  0  0
  3 27  1  0  0  0  0
  3 28  1  0  0  0  0
  4  5  1  0  0  0  0
  4 29  1  0  0  0  0
  4 30  1  0  0  0  0
  5 23  1  0  0  0  0
  5  6  1  0  0  0  0
  6  7  1  0  0  0  0
  6 17  2  0  0  0  0
  7  8  1  0  0  0  0
  7  9  1  0  0  0  0
  7 31  1  0  0  0  0
  8 32  1  0  0  0  0
  8 33  1  0  0  0  0
  8 34  1  0  0  0  0
  9 10  1  0  0  0  0
 10 11  2  0  0  0  0
 10 12  1  0  0  0  0
 12 16  1  0  0  0  0
 12 13  2  0  0  0  0
 13 14  1  0  0  0  0
 13 35  1  0  0  0  0
 14 15  2  0  0  0  0
 14 36  1  0  0  0  0
 15 16  1  0  0  0  0
 15 37  1  0  0  0  0
 17 18  1  0  0  0  0
 18 23  2  0  0  0  0
 18 19  1  0  0  0  0
 19 20  2  0  0  0  0
 19 38  1  0  0  0  0
 20 21  1  0  0  0  0
 20 39  1  0  0  0  0
 21 22  2  0  0  0  0
 21 40  1  0  0  0  0
 22 23  1  0  0  0  0
 22 41  1  0  0  0  0
M  CHG  1   9  -1
M  END
> <s_m_source_file>
AV-unprocessed.smi

> <i_m_source_file_index>
496

> <i_lp_mmshare_version>
43012

> <i_f3d_flags>
0

> <s_epik_input>
W2NIXTFbY0hdW2NIXVtjSF1jKGMxMiluKFtDSDJdW0NIMl1PW0NIM10pYyhuMilbQ0BIXShbQ0gzXSlbTkhdQyg9TyljM1tjSF1bY0hdW2NIXW8z

> <s_epik_cmdline>
J2VwaWtfcHl0aG9uJywgJy1waCcsICc3LjAnLCAnLXRuJywgJzgnLCAnLW1hJywgJzIwMCcsICctbWV0YWxfYmluZGluZycsICctaW1hZScsICc8aW5maWxlLm1hZT4nLCAnLW9tYWUnLCAnPG91dGZpbGUubWFlPic=

> <r_epik_Ionization_Penalty>
7.3423

> <r_epik_Ionization_Penalty_Charging>
6.43826

> <r_epik_Ionization_Penalty_Neutral>
0.90404

> <r_epik_State_Penalty>
6.54438

> <r_epik_Charging_Adjusted_Penalty>
12.9826

> <i_epik_Tot_Q>
-1

> <i_epik_Tot_abs_Q>
1

> <r_epik_Metal_State_Penalty>
2.56942

> <b_epik_Metal_Only>
1

> <s_lp_Force_Field>
OPLS_2005

> <r_lp_Energy>
15.948

> <b_lp_Chiralities_Consistent>
1

> <s_lp_Variant>
AV-unprocessed.smi:496-5

> <Gold.Version>
5.8.1

> <Gold.Id.Protein>
6NUR|6NUR_protein|mol2

> <Gold.PLP.Fitness>
54.3834

> <Gold.PLP.PLP>
-46.6563

> <Gold.PLP.part.hbond>
-2.0000

> <Gold.PLP.part.metal>
0.0000

> <Gold.PLP.part.buried>
-2.9557

> <Gold.PLP.part.nonpolar>
-42.3225

> <Gold.PLP.part.repulsive>
0.4462

> <Gold.PLP.ligand.clash>
0.0000

> <Gold.PLP.ligand.torsion>
0.7304

> <Gold.PLP.Chemscore.Hbond>
2.0000

> <Gold.PLP.Chemscore.CHOScore>
1.0000

> <Gold.PLP.Chemscore.Metal>
0.0000

> <Gold.Chemscore.Hbonds>
donor molecule, donor type, donor heavy atom, donor atom, acceptor molecule, acceptor atom, score
      P1  H  6896  6909       L1     2  1.00
      P1  H  7989  7998       L1     9  1.00
      L1  C    15    37       P1 10175  1.00

> <Gold.PLP.Chemscore.Internal.Correction>
0.1879

> <Gold.Rescore>
     Score         DG    S(hbond)    S(metal)    S(lipo)     H(rot)  DE(clash)    DE(int)     intcor
     19.45     -20.54       1.56        0.00     123.27       1.78       0.19       0.90       ----

> <Gold.Chemscore.Fitness>
19.4540

> <Gold.Chemscore.DG>
-20.5399

> <Gold.Chemscore.ZeroCoef>
-5.4800

> <Gold.Chemscore.Hbond>
1.5567

> <Gold.Chemscore.Metal>
0.0000

> <Gold.Chemscore.Lipo>
123.2670

> <Gold.Chemscore.Internal_Hbond>
0.0000

> <Gold.Chemscore.DEClash>
0.1862

> <Gold.Chemscore.DEInternal>
0.8998

> <Gold.Chemscore.Rot>
1.7819

> <Gold.Chemscore.Internal.Correction>
   9.000000E+99

> <Gold.Chemscore.Hbonds>
donor molecule, donor type, donor heavy atom, donor atom, acceptor molecule, acceptor atom, score
      P1  H  6896  6909       L1     2  0.53
      P1  H  7989  7998       L1     9  0.50

> <Gold.Chemscore.Hbond.Weighted>
-5.1994

> <Gold.Chemscore.Metal.Weighted>
-0.0000

> <Gold.Chemscore.Lipo.Weighted>
-14.4222

> <Gold.Chemscore.Internal_Hbond.Weighted>
0.0000

> <Gold.Chemscore.DEClash.Weighted>
0.1862

> <Gold.Chemscore.DEInternal.Weighted>
0.8998

> <Gold.Chemscore.Rot.Weighted>
4.5617

> <Gold.Chemscore.Internal.Correction.Weighted>
   9.000000E+99

> <Gold.Protein.RotatedTorsions>
[ 6907 6896 6895 6894 ] final  139.51 input  -60.11 | X-H torsion
[ 7974 7965 7964 7962 ] final   13.95 input  175.53 | X-H torsion
[ 8008 7997 7996 7995 ] final   63.76 input   59.86 | X-H torsion
[ 10167 10162 10161 10158 ] final  -58.25 input  -65.29 | X-H torsion
[ 10718 10713 10712 10709 ] final -175.75 input   66.30 | X-H torsion
[ 10763 10752 10751 10750 ] final -164.83 input  -60.55 | X-H torsion
[ 11005 11000 10999 10996 ] final  -37.97 input  -57.11 | X-H torsion

> <Gold.Protein.ActiveResidues>
 VAL166  LYS551  ARG553  GLY616  TRP617  ASP618  TYR619  PRO620  LYS621  CYS622 
 ASP623  PHE694  ASN695  SER759  ASP760  ASP761  ALA762  ILE779  LEU786  VAL792 
 PHE793  MET794  SER795  GLU796  ALA797  LYS798  CYS799  TRP800  GLU811  SER814 

> <Gold.Protein.RotatedAtoms>
  152.2541  133.5240  159.5342 H   0  0  0  0  0  0  0  0  0  0  0  0  # atno 6907 bound_to 6896
  150.7103  134.0920  159.3944 H   0  0  0  0  0  0  0  0  0  0  0  0  # atno 6908 bound_to 6896
  151.8839  135.0443  160.0542 H   0  0  0  0  0  0  0  0  0  0  0  0  # atno 6909 bound_to 6896
  146.2317  139.9113  142.8524 H   0  0  0  0  0  0  0  0  0  0  0  0  # atno 7974 bound_to 7965
  155.6353  140.3496  155.4696 H   0  0  0  0  0  0  0  0  0  0  0  0  # atno 8008 bound_to 7997
  155.9970  140.1205  157.0607 H   0  0  0  0  0  0  0  0  0  0  0  0  # atno 8009 bound_to 7997
  154.4236  140.1108  156.5630 H   0  0  0  0  0  0  0  0  0  0  0  0  # atno 8010 bound_to 7997
  140.6209  143.2419  151.5483 H   0  0  0  0  0  0  0  0  0  0  0  0  # atno 10167 bound_to 10162
  156.8046  130.9564  151.3118 H   0  0  0  0  0  0  0  0  0  0  0  0  # atno 10718 bound_to 10713
  154.6991  135.2984  154.9368 H   0  0  0  0  0  0  0  0  0  0  0  0  # atno 10763 bound_to 10752
  154.0306  135.6670  153.4784 H   0  0  0  0  0  0  0  0  0  0  0  0  # atno 10764 bound_to 10752
  153.0667  135.5084  154.8124 H   0  0  0  0  0  0  0  0  0  0  0  0  # atno 10765 bound_to 10752
  140.9992  133.6964  156.1991 H   0  0  0  0  0  0  0  0  0  0  0  0  # atno 11005 bound_to 11000
  145.2227  140.9941  143.4036 LP  0  0  0  0  0  0  0  0  0  0  0  0  # atno 17320 bound_to 7965
  144.9596  139.3994  143.6362 LP  0  0  0  0  0  0  0  0  0  0  0  0  # atno 17321 bound_to 7965
  139.5438  144.2576  152.1402 LP  0  0  0  0  0  0  0  0  0  0  0  0  # atno 17342 bound_to 10162
  140.1796  144.4857  150.6535 LP  0  0  0  0  0  0  0  0  0  0  0  0  # atno 17343 bound_to 10162
  157.6537  130.8906  149.9684 LP  0  0  0  0  0  0  0  0  0  0  0  0  # atno 17370 bound_to 10713
  156.1081  130.3651  150.0098 LP  0  0  0  0  0  0  0  0  0  0  0  0  # atno 17371 bound_to 10713
  140.6916  134.4659  157.5588 LP  0  0  0  0  0  0  0  0  0  0  0  0  # atno 17394 bound_to 11000
  139.9030  134.8512  156.1818 LP  0  0  0  0  0  0  0  0  0  0  0  0  # atno 17395 bound_to 11000

$$$$
