AV-unprocessed.smi:1978|AV-procd|sdf|7998|dock5
  -GOLD-   2272010183D 1   1.00000     0.00000
 Structure written by MMmdl.
 45 46  0  0  0  0  0  0  0  0  2 V2000
  153.7271  137.7038  157.1977 C   0  0  0  0  0  0  0  0  0  0  0  0
  152.6566  138.0194  156.2102 C   0  0  0  0  0  0  0  0  0  0  0  0
  151.5875  137.3102  155.7393 C   0  0  0  0  0  0  0  0  0  0  0  0
  150.9845  138.2122  154.8228 C   0  0  0  0  0  0  0  0  0  0  0  0
  149.8137  137.8510  154.1086 N   0  0  0  0  0  0  0  0  0  0  0  0
  148.5481  137.8509  154.5602 C   0  0  0  0  0  0  0  0  0  0  0  0
  148.1961  138.1907  155.6901 O   0  0  0  0  0  0  0  0  0  0  0  0
  147.6928  137.4228  153.6204 N   0  0  0  0  0  0  0  0  0  0  0  0
  146.2492  137.2946  153.8029 C   0  0  0  0  0  0  0  0  0  0  0  0
  145.5225  136.6819  152.5698 C   0  0  2  0  0  0  0  0  0  0  0  0
  144.0036  136.5866  152.8698 C   0  0  0  0  0  0  0  0  0  0  0  0
  146.1218  135.3591  152.1735 N   0  3  2  0  0  0  0  0  0  0  0  0
  145.3744  134.6545  151.0866 C   0  0  0  0  0  0  0  0  0  0  0  0
  146.1545  133.4420  150.5518 C   0  0  0  0  0  0  0  0  0  0  0  0
  146.5001  132.4596  151.6724 C   0  0  0  0  0  0  0  0  0  0  0  0
  147.2402  133.2004  152.7913 C   0  0  0  0  0  0  0  0  0  0  0  0
  146.4505  134.4242  153.3026 C   0  0  2  0  0  0  0  0  0  0  0  0
  145.2172  134.0070  154.1362 C   0  0  0  0  0  0  0  0  0  0  0  0
  151.6287  139.3661  154.7391 N   0  0  0  0  0  0  0  0  0  0  0  0
  152.7042  139.2481  155.6273 O   0  0  0  0  0  0  0  0  0  0  0  0
  153.4293  136.8772  157.8430 H   0  0  0  0  0  0  0  0  0  0  0  0
  153.9383  138.5661  157.8305 H   0  0  0  0  0  0  0  0  0  0  0  0
  154.6492  137.4217  156.6896 H   0  0  0  0  0  0  0  0  0  0  0  0
  151.2878  136.3090  156.0111 H   0  0  0  0  0  0  0  0  0  0  0  0
  149.9578  137.5506  153.1558 H   0  0  0  0  0  0  0  0  0  0  0  0
  148.0645  137.1651  152.7177 H   0  0  0  0  0  0  0  0  0  0  0  0
  146.1049  136.7102  154.7093 H   0  0  0  0  0  0  0  0  0  0  0  0
  145.8482  138.2869  154.0123 H   0  0  0  0  0  0  0  0  0  0  0  0
  145.6496  137.3603  151.7249 H   0  0  0  0  0  0  0  0  0  0  0  0
  143.5906  137.5401  153.1978 H   0  0  0  0  0  0  0  0  0  0  0  0
  143.8007  135.8576  153.6548 H   0  0  0  0  0  0  0  0  0  0  0  0
  143.4168  136.3128  151.9945 H   0  0  0  0  0  0  0  0  0  0  0  0
  144.3902  134.3498  151.4434 H   0  0  0  0  0  0  0  0  0  0  0  0
  145.1967  135.3021  150.2332 H   0  0  0  0  0  0  0  0  0  0  0  0
  145.5727  132.9348  149.7812 H   0  0  0  0  0  0  0  0  0  0  0  0
  147.0719  133.7834  150.0702 H   0  0  0  0  0  0  0  0  0  0  0  0
  145.5913  131.9973  152.0586 H   0  0  0  0  0  0  0  0  0  0  0  0
  147.1181  131.6493  151.2847 H   0  0  0  0  0  0  0  0  0  0  0  0
  147.4523  132.5160  153.6137 H   0  0  0  0  0  0  0  0  0  0  0  0
  148.2103  133.5309  152.4171 H   0  0  0  0  0  0  0  0  0  0  0  0
  147.1434  134.9270  153.9754 H   0  0  0  0  0  0  0  0  0  0  0  0
  145.5144  133.3609  154.9626 H   0  0  0  0  0  0  0  0  0  0  0  0
  144.4834  133.4569  153.5484 H   0  0  0  0  0  0  0  0  0  0  0  0
  144.7065  134.8636  154.5741 H   0  0  0  0  0  0  0  0  0  0  0  0
  147.0172  135.5945  151.7700 H   0  0  0  0  0  0  0  0  0  0  0  0
  1  2  1  0  0  0  0
  1 21  1  0  0  0  0
  1 22  1  0  0  0  0
  1 23  1  0  0  0  0
  2 20  1  0  0  0  0
  2  3  2  0  0  0  0
  3  4  1  0  0  0  0
  3 24  1  0  0  0  0
  4  5  1  0  0  0  0
  4 19  2  0  0  0  0
  5  6  1  0  0  0  0
  5 25  1  0  0  0  0
  6  7  2  0  0  0  0
  6  8  1  0  0  0  0
  8  9  1  0  0  0  0
  8 26  1  0  0  0  0
  9 10  1  0  0  0  0
  9 27  1  0  0  0  0
  9 28  1  0  0  0  0
 10 11  1  0  0  0  0
 10 12  1  0  0  0  0
 10 29  1  0  0  0  0
 11 30  1  0  0  0  0
 11 31  1  0  0  0  0
 11 32  1  0  0  0  0
 12 17  1  0  0  0  0
 12 13  1  0  0  0  0
 12 45  1  0  0  0  0
 13 14  1  0  0  0  0
 13 33  1  0  0  0  0
 13 34  1  0  0  0  0
 14 15  1  0  0  0  0
 14 35  1  0  0  0  0
 14 36  1  0  0  0  0
 15 16  1  0  0  0  0
 15 37  1  0  0  0  0
 15 38  1  0  0  0  0
 16 17  1  0  0  0  0
 16 39  1  0  0  0  0
 16 40  1  0  0  0  0
 17 18  1  0  0  0  0
 17 41  1  0  0  0  0
 18 42  1  0  0  0  0
 18 43  1  0  0  0  0
 18 44  1  0  0  0  0
 19 20  1  0  0  0  0
M  CHG  1  12   1
M  END
> <s_m_source_file>
AV-unprocessed.smi

> <i_m_source_file_index>
1978

> <i_lp_mmshare_version>
43012

> <i_f3d_flags>
0

> <s_epik_input>
W0NIM11jMVtjSF1jKG5vMSlbTkhdQyg9TylbTkhdW0NIMl1bQ0BIXShbQ0gzXSlOMltDSDJdW0NIMl1bQ0gyXVtDSDJdW0NASF0yW0NIM10=

> <s_epik_cmdline>
J2VwaWtfcHl0aG9uJywgJy1waCcsICc3LjAnLCAnLXRuJywgJzgnLCAnLW1hJywgJzIwMCcsICctbWV0YWxfYmluZGluZycsICctaW1hZScsICc8aW5maWxlLm1hZT4nLCAnLW9tYWUnLCAnPG91dGZpbGUubWFlPic=

> <r_epik_Ionization_Penalty>
0.00265971

> <r_epik_Ionization_Penalty_Charging>
0.00262393

> <r_epik_Ionization_Penalty_Neutral>
3.57846e-05

> <r_epik_State_Penalty>
0.00182566

> <r_epik_Charging_Adjusted_Penalty>
0.00444959

> <i_epik_Tot_Q>
1

> <i_epik_Tot_abs_Q>
1

> <r_epik_Metal_State_Penalty>
0.0216344

> <b_epik_Metal_Only>
0

> <s_lp_Force_Field>
OPLS_2005

> <r_lp_Energy>
22.9215

> <b_lp_Chiralities_Consistent>
1

> <s_lp_Variant>
AV-unprocessed.smi:1978-7

> <Gold.Version>
5.8.1

> <Gold.Id.Protein>
6NUR|6NUR_protein|mol2

> <Gold.PLP.Fitness>
41.7240

> <Gold.PLP.PLP>
-26.5601

> <Gold.PLP.part.hbond>
-4.7693

> <Gold.PLP.part.metal>
0.0000

> <Gold.PLP.part.buried>
-4.2006

> <Gold.PLP.part.nonpolar>
-18.7688

> <Gold.PLP.part.repulsive>
0.1612

> <Gold.PLP.ligand.clash>
0.0000

> <Gold.PLP.ligand.torsion>
0.9387

> <Gold.PLP.Chemscore.Hbond>
5.6472

> <Gold.PLP.Chemscore.CHOScore>
0.0000

> <Gold.PLP.Chemscore.Metal>
0.0000

> <Gold.Chemscore.Hbonds>
donor molecule, donor type, donor heavy atom, donor atom, acceptor molecule, acceptor atom, score
      L1  H     5    25       P1  7948  0.68
      L1  H     8    26       P1  7948  1.00
      L1  H    12    45       P1  7948  2.00
      P1  H  7989  7998       L1    19  1.00
      P1  H  7997  8009       L1    20  1.00

> <Gold.PLP.Chemscore.Internal.Correction>
0.0996

> <Gold.Rescore>
     Score         DG    S(hbond)    S(metal)    S(lipo)     H(rot)  DE(clash)    DE(int)     intcor
     20.24     -21.14       3.97        0.00      54.51       1.55       0.00       0.90       ----

> <Gold.Chemscore.Fitness>
20.2412

> <Gold.Chemscore.DG>
-21.1435

> <Gold.Chemscore.ZeroCoef>
-5.4800

> <Gold.Chemscore.Hbond>
3.9663

> <Gold.Chemscore.Metal>
0.0000

> <Gold.Chemscore.Lipo>
54.5071

> <Gold.Chemscore.Internal_Hbond>
0.0000

> <Gold.Chemscore.DEClash>
0.0000

> <Gold.Chemscore.DEInternal>
0.9023

> <Gold.Chemscore.Rot>
1.5474

> <Gold.Chemscore.Internal.Correction>
   9.000000E+99

> <Gold.Chemscore.Hbonds>
donor molecule, donor type, donor heavy atom, donor atom, acceptor molecule, acceptor atom, score
      L1  H     5    25       P1  7948  0.22
      L1  H     8    26       P1  7948  0.89
      L1  H    12    45       P1  7948  0.94
      P1  H  7989  7998       L1    19  0.93
      P1  H  7997  8009       L1    20  0.83

> <Gold.Chemscore.Hbond.Weighted>
-13.2474

> <Gold.Chemscore.Metal.Weighted>
-0.0000

> <Gold.Chemscore.Lipo.Weighted>
-6.3773

> <Gold.Chemscore.Internal_Hbond.Weighted>
0.0000

> <Gold.Chemscore.DEClash.Weighted>
0.0000

> <Gold.Chemscore.DEInternal.Weighted>
0.9023

> <Gold.Chemscore.Rot.Weighted>
3.9612

> <Gold.Chemscore.Internal.Correction.Weighted>
   9.000000E+99

> <Gold.Protein.RotatedTorsions>
[ 6907 6896 6895 6894 ] final    5.52 input  -60.11 | X-H torsion
[ 7974 7965 7964 7962 ] final  -68.19 input  175.53 | X-H torsion
[ 8008 7997 7996 7995 ] final -138.21 input   59.86 | X-H torsion
[ 10167 10162 10161 10158 ] final   11.05 input  -65.29 | X-H torsion
[ 10718 10713 10712 10709 ] final -136.64 input   66.30 | X-H torsion
[ 10763 10752 10751 10750 ] final -143.82 input  -60.55 | X-H torsion
[ 11005 11000 10999 10996 ] final  -34.30 input  -57.11 | X-H torsion

> <Gold.Protein.ActiveResidues>
 VAL166  LYS551  ARG553  GLY616  TRP617  ASP618  TYR619  PRO620  LYS621  CYS622 
 ASP623  PHE694  ASN695  SER759  ASP760  ASP761  ALA762  ILE779  LEU786  VAL792 
 PHE793  MET794  SER795  GLU796  ALA797  LYS798  CYS799  TRP800  GLU811  SER814 

> <Gold.Protein.RotatedAtoms>
  151.6589  135.0992  160.0175 H   0  0  0  0  0  0  0  0  0  0  0  0  # atno 6907 bound_to 6896
  152.3958  133.6740  159.6283 H   0  0  0  0  0  0  0  0  0  0  0  0  # atno 6908 bound_to 6896
  150.7865  133.8793  159.3322 H   0  0  0  0  0  0  0  0  0  0  0  0  # atno 6909 bound_to 6896
  145.7196  140.9044  143.0637 H   0  0  0  0  0  0  0  0  0  0  0  0  # atno 7974 bound_to 7965
  155.4246  140.0521  157.3023 H   0  0  0  0  0  0  0  0  0  0  0  0  # atno 8008 bound_to 7997
  154.4887  140.2111  155.9555 H   0  0  0  0  0  0  0  0  0  0  0  0  # atno 8009 bound_to 7997
  156.1312  140.3171  155.8356 H   0  0  0  0  0  0  0  0  0  0  0  0  # atno 8010 bound_to 7997
  140.6156  143.8314  150.7115 H   0  0  0  0  0  0  0  0  0  0  0  0  # atno 10167 bound_to 10162
  156.2793  130.7311  151.1303 H   0  0  0  0  0  0  0  0  0  0  0  0  # atno 10718 bound_to 10713
  154.8454  135.3457  154.6247 H   0  0  0  0  0  0  0  0  0  0  0  0  # atno 10763 bound_to 10752
  153.6857  135.6977  153.5109 H   0  0  0  0  0  0  0  0  0  0  0  0  # atno 10764 bound_to 10752
  153.2634  135.4315  155.0872 H   0  0  0  0  0  0  0  0  0  0  0  0  # atno 10765 bound_to 10752
  140.9705  133.7112  156.1516 H   0  0  0  0  0  0  0  0  0  0  0  0  # atno 11005 bound_to 11000
  144.6920  139.9185  143.7467 LP  0  0  0  0  0  0  0  0  0  0  0  0  # atno 17320 bound_to 7965
  146.0637  139.3629  143.0565 LP  0  0  0  0  0  0  0  0  0  0  0  0  # atno 17321 bound_to 7965
  140.1893  143.4050  152.1875 LP  0  0  0  0  0  0  0  0  0  0  0  0  # atno 17342 bound_to 10162
  139.5396  144.7244  151.4778 LP  0  0  0  0  0  0  0  0  0  0  0  0  # atno 17343 bound_to 10162
  157.7309  131.0612  150.5703 LP  0  0  0  0  0  0  0  0  0  0  0  0  # atno 17370 bound_to 10713
  156.5807  130.4303  149.5978 LP  0  0  0  0  0  0  0  0  0  0  0  0  # atno 17371 bound_to 10713
  140.7336  134.4228  157.5563 LP  0  0  0  0  0  0  0  0  0  0  0  0  # atno 17394 bound_to 11000
  139.8910  134.8789  156.2339 LP  0  0  0  0  0  0  0  0  0  0  0  0  # atno 17395 bound_to 11000

$$$$
