AV-unprocessed.smi:109|AV-procd|sdf|1041|dock3
  -GOLD-   2262018 73D 1   1.00000     0.00000
 Structure written by MMmdl.
 58 61  0  0  0  0  0  0  0  0  1 V2000
  151.5486  137.0152  159.5984 O   0  0  0  0  0  0  0  0  0  0  0  0
  151.2201  138.0364  158.6813 C   0  0  0  0  0  0  0  0  0  0  0  0
  152.0348  139.3029  158.9956 C   0  0  0  0  0  0  0  0  0  0  0  0
  151.5047  140.5895  158.3151 C   0  0  2  0  0  0  0  0  0  0  0  0
  151.5091  140.4108  156.8611 N   0  0  0  0  0  0  0  0  0  0  0  0
  150.3998  140.5865  156.1083 C   0  0  0  0  0  0  0  0  0  0  0  0
  150.2939  140.0537  154.8635 N   0  0  0  0  0  0  0  0  0  0  0  0
  149.1868  140.2516  154.1429 C   0  0  0  0  0  0  0  0  0  0  0  0
  148.0900  140.9363  154.4720 N   0  0  0  0  0  0  0  0  0  0  0  0
  148.1876  141.4740  155.7221 C   0  0  0  0  0  0  0  0  0  0  0  0
  149.3031  141.3432  156.5961 C   0  0  0  0  0  0  0  0  0  0  0  0
  149.0528  142.0170  157.7840 N   0  0  0  0  0  0  0  0  0  0  0  0
  147.8569  142.5142  157.6180 C   0  0  0  0  0  0  0  0  0  0  0  0
  147.2604  142.2349  156.4081 N   0  0  0  0  0  0  0  0  0  0  0  0
  145.9016  142.6721  155.9479 C   0  0  1  0  0  0  0  0  0  0  0  0
  145.3789  143.5990  156.8536 O   0  0  0  0  0  0  0  0  0  0  0  0
  145.0923  144.8311  156.1965 C   0  0  2  0  0  0  0  0  0  0  0  0
  143.9221  145.5586  156.8818 C   0  0  0  0  0  0  0  0  0  0  0  0
  143.4832  146.6418  156.0897 O   0  0  0  0  0  0  0  0  0  0  0  0
  144.9124  144.4552  154.7183 C   0  0  2  0  0  0  0  0  0  0  0  0
  143.5966  144.0051  154.4530 O   0  0  0  0  0  0  0  0  0  0  0  0
  145.9063  143.3176  154.5465 C   0  0  1  0  0  0  0  0  0  0  0  0
  147.1708  143.8146  154.1446 O   0  0  0  0  0  0  0  0  0  0  0  0
  152.3209  141.8626  158.6823 C   0  0  0  0  0  0  0  0  0  0  0  0
  152.3107  142.1757  160.2002 C   0  0  0  0  0  0  0  0  0  0  0  0
  153.0928  143.4545  160.5429 C   0  0  0  0  0  0  0  0  0  0  0  0
  152.5697  144.6617  159.7555 C   0  0  0  0  0  0  0  0  0  0  0  0
  152.5996  144.3769  158.2495 C   0  0  0  0  0  0  0  0  0  0  0  0
  151.8064  143.1056  157.9104 C   0  0  0  0  0  0  0  0  0  0  0  0
  145.2934  141.7677  155.9888 H   0  0  0  0  0  0  0  0  0  0  0  0
  145.9849  145.4521  156.2812 H   0  0  0  0  0  0  0  0  0  0  0  0
  145.1199  145.2961  154.0553 H   0  0  0  0  0  0  0  0  0  0  0  0
  145.5822  142.5863  153.8048 H   0  0  0  0  0  0  0  0  0  0  0  0
  152.1802  137.3558  160.2132 H   0  0  0  0  0  0  0  0  0  0  0  0
  151.4237  137.6737  157.6738 H   0  0  0  0  0  0  0  0  0  0  0  0
  150.1511  138.2404  158.7478 H   0  0  0  0  0  0  0  0  0  0  0  0
  152.0185  139.4231  160.0773 H   0  0  0  0  0  0  0  0  0  0  0  0
  153.0784  139.1460  158.7194 H   0  0  0  0  0  0  0  0  0  0  0  0
  150.4904  140.7610  158.6749 H   0  0  0  0  0  0  0  0  0  0  0  0
  152.4097  140.1999  156.4558 H   0  0  0  0  0  0  0  0  0  0  0  0
  149.1782  139.7967  153.1635 H   0  0  0  0  0  0  0  0  0  0  0  0
  147.3710  143.1030  158.3826 H   0  0  0  0  0  0  0  0  0  0  0  0
  143.0887  144.8834  157.0771 H   0  0  0  0  0  0  0  0  0  0  0  0
  144.2451  145.9494  157.8471 H   0  0  0  0  0  0  0  0  0  0  0  0
  144.1793  147.2792  156.0399 H   0  0  0  0  0  0  0  0  0  0  0  0
  143.5612  143.7031  153.5581 H   0  0  0  0  0  0  0  0  0  0  0  0
  147.7959  143.6290  154.8285 H   0  0  0  0  0  0  0  0  0  0  0  0
  153.3578  141.6926  158.3872 H   0  0  0  0  0  0  0  0  0  0  0  0
  151.2816  142.2734  160.5487 H   0  0  0  0  0  0  0  0  0  0  0  0
  152.7554  141.3614  160.7697 H   0  0  0  0  0  0  0  0  0  0  0  0
  153.0265  143.6540  161.6129 H   0  0  0  0  0  0  0  0  0  0  0  0
  154.1505  143.3050  160.3225 H   0  0  0  0  0  0  0  0  0  0  0  0
  151.5499  144.8907  160.0668 H   0  0  0  0  0  0  0  0  0  0  0  0
  153.1702  145.5435  159.9812 H   0  0  0  0  0  0  0  0  0  0  0  0
  152.1906  145.2269  157.7026 H   0  0  0  0  0  0  0  0  0  0  0  0
  153.6323  144.2634  157.9173 H   0  0  0  0  0  0  0  0  0  0  0  0
  151.8667  142.9470  156.8336 H   0  0  0  0  0  0  0  0  0  0  0  0
  150.7512  143.2652  158.1357 H   0  0  0  0  0  0  0  0  0  0  0  0
  1  2  1  0  0  0  0
  1 34  1  0  0  0  0
  2  3  1  0  0  0  0
  2 35  1  0  0  0  0
  2 36  1  0  0  0  0
  3  4  1  0  0  0  0
  3 37  1  0  0  0  0
  3 38  1  0  0  0  0
  4  5  1  0  0  0  0
  4 24  1  0  0  0  0
  4 39  1  0  0  0  0
  5  6  1  0  0  0  0
  5 40  1  0  0  0  0
  6 11  1  0  0  0  0
  6  7  2  0  0  0  0
  7  8  1  0  0  0  0
  8  9  2  0  0  0  0
  8 41  1  0  0  0  0
  9 10  1  0  0  0  0
 10 14  1  0  0  0  0
 10 11  2  0  0  0  0
 11 12  1  0  0  0  0
 12 13  2  0  0  0  0
 13 14  1  0  0  0  0
 13 42  1  0  0  0  0
 14 15  1  0  0  0  0
 15 30  1  0  0  0  0
 15 22  1  0  0  0  0
 15 16  1  0  0  0  0
 16 17  1  0  0  0  0
 17 31  1  0  0  0  0
 17 18  1  0  0  0  0
 17 20  1  0  0  0  0
 18 19  1  0  0  0  0
 18 43  1  0  0  0  0
 18 44  1  0  0  0  0
 19 45  1  0  0  0  0
 20 32  1  0  0  0  0
 20 21  1  0  0  0  0
 20 22  1  0  0  0  0
 21 46  1  0  0  0  0
 22 33  1  0  0  0  0
 22 23  1  0  0  0  0
 23 47  1  0  0  0  0
 24 29  1  0  0  0  0
 24 25  1  0  0  0  0
 24 48  1  0  0  0  0
 25 26  1  0  0  0  0
 25 49  1  0  0  0  0
 25 50  1  0  0  0  0
 26 27  1  0  0  0  0
 26 51  1  0  0  0  0
 26 52  1  0  0  0  0
 27 28  1  0  0  0  0
 27 53  1  0  0  0  0
 27 54  1  0  0  0  0
 28 29  1  0  0  0  0
 28 55  1  0  0  0  0
 28 56  1  0  0  0  0
 29 57  1  0  0  0  0
 29 58  1  0  0  0  0
M  END
> <s_m_source_file>
AV-unprocessed.smi

> <i_m_source_file_index>
109

> <i_lp_mmshare_version>
43012

> <i_f3d_flags>
0

> <s_epik_input>
W0NIMl0xW0NIMl1bQ0gyXVtDSDJdW0NIMl1bQ0hdMVtDQEhdKFtDSDJdW0NIMl1bT0hdKVtOSF1jKG5bY0hdbjIpYyhjMjMpbltjSF1uM1tDQEBIXTRPW0NASF0oW0NIMl1bT0hdKVtDQEBIXShbT0hdKVtDQEhdNFtPSF0=

> <s_epik_cmdline>
J2VwaWtfcHl0aG9uJywgJy1waCcsICc3LjAnLCAnLXRuJywgJzgnLCAnLW1hJywgJzIwMCcsICctbWV0YWxfYmluZGluZycsICctaW1hZScsICc8aW5maWxlLm1hZT4nLCAnLW9tYWUnLCAnPG91dGZpbGUubWFlPic=

> <r_lp_tautomer_probability>
1

> <r_epik_Ionization_Penalty>
0.000793976

> <r_epik_Ionization_Penalty_Charging>
0

> <r_epik_Ionization_Penalty_Neutral>
0.000793976

> <r_epik_State_Penalty>
-0

> <r_epik_Charging_Adjusted_Penalty>
0

> <i_epik_Tot_Q>
0

> <i_epik_Tot_abs_Q>
0

> <r_epik_Metal_State_Penalty>
-0

> <b_epik_Metal_Only>
0

> <s_epik_Chemistry_Notes>
This compound contains an acetal/aminal-like group ( X-CH(R)-Y where X, Y are N, S, or O) that may be acid/base labile, releasing an aldehyde.

> <s_lp_Force_Field>
OPLS_2005

> <r_lp_Energy>
56.0983

> <b_lp_Chiralities_Consistent>
1

> <s_lp_Variant>
AV-unprocessed.smi:109-11

> <Gold.Version>
5.8.1

> <Gold.Id.Protein>
6NUR|6NUR_protein|mol2

> <Gold.PLP.Fitness>
58.3740

> <Gold.PLP.PLP>
-45.7941

> <Gold.PLP.part.hbond>
-5.0000

> <Gold.PLP.part.metal>
0.0000

> <Gold.PLP.part.buried>
-3.8880

> <Gold.PLP.part.nonpolar>
-38.2656

> <Gold.PLP.part.repulsive>
0.5098

> <Gold.PLP.ligand.clash>
0.0000

> <Gold.PLP.ligand.torsion>
0.4548

> <Gold.PLP.Chemscore.Hbond>
3.4620

> <Gold.PLP.Chemscore.CHOScore>
0.9628

> <Gold.PLP.Chemscore.Metal>
0.0000

> <Gold.Chemscore.Hbonds>
donor molecule, donor type, donor heavy atom, donor atom, acceptor molecule, acceptor atom, score
      L1  H    21    46       P1 10174  0.89
      L1  H    23    47       P1  8028  0.54
      P1  H  6896  6909       L1     1  1.00
      P1  H  7989  7998       L1     7  0.75
      L1  C     8    41       P1  7957  1.00

> <Gold.PLP.Chemscore.Internal.Correction>
0.2152

> <Gold.Rescore>
     Score         DG    S(hbond)    S(metal)    S(lipo)     H(rot)  DE(clash)    DE(int)     intcor
      6.56      -9.57       1.81        0.00     102.72       5.47       0.17       2.83       ----

> <Gold.Chemscore.Fitness>
6.5587

> <Gold.Chemscore.DG>
-9.5666

> <Gold.Chemscore.ZeroCoef>
-5.4800

> <Gold.Chemscore.Hbond>
1.8148

> <Gold.Chemscore.Metal>
0.0000

> <Gold.Chemscore.Lipo>
102.7224

> <Gold.Chemscore.Internal_Hbond>
0.0000

> <Gold.Chemscore.DEClash>
0.1749

> <Gold.Chemscore.DEInternal>
2.8329

> <Gold.Chemscore.Rot>
5.4662

> <Gold.Chemscore.Internal.Correction>
   9.000000E+99

> <Gold.Chemscore.Hbonds>
donor molecule, donor type, donor heavy atom, donor atom, acceptor molecule, acceptor atom, score
      L1  H    21    46       P1 10174  0.74
      L1  H    23    47       P1  8028  0.19
      P1  H  6896  6909       L1     1  0.65
      P1  H  7989  7998       L1     7  0.11

> <Gold.Chemscore.Hbond.Weighted>
-6.0616

> <Gold.Chemscore.Metal.Weighted>
-0.0000

> <Gold.Chemscore.Lipo.Weighted>
-12.0185

> <Gold.Chemscore.Internal_Hbond.Weighted>
0.0000

> <Gold.Chemscore.DEClash.Weighted>
0.1749

> <Gold.Chemscore.DEInternal.Weighted>
2.8329

> <Gold.Chemscore.Rot.Weighted>
13.9935

> <Gold.Chemscore.Internal.Correction.Weighted>
   9.000000E+99

> <Gold.Protein.RotatedTorsions>
[ 6907 6896 6895 6894 ] final  106.03 input  -60.11 | X-H torsion
[ 7974 7965 7964 7962 ] final  -58.27 input  175.53 | X-H torsion
[ 8008 7997 7996 7995 ] final  115.45 input   59.86 | X-H torsion
[ 10167 10162 10161 10158 ] final  106.77 input  -65.29 | X-H torsion
[ 10718 10713 10712 10709 ] final   -4.38 input   66.30 | X-H torsion
[ 10763 10752 10751 10750 ] final   45.35 input  -60.55 | X-H torsion
[ 11005 11000 10999 10996 ] final  103.07 input  -57.11 | X-H torsion

> <Gold.Protein.ActiveResidues>
 VAL166  LYS551  ARG553  GLY616  TRP617  ASP618  TYR619  PRO620  LYS621  CYS622 
 ASP623  PHE694  ASN695  SER759  ASP760  ASP761  ALA762  ILE779  LEU786  VAL792 
 PHE793  MET794  SER795  GLU796  ALA797  LYS798  CYS799  TRP800  GLU811  SER814 

> <Gold.Protein.RotatedAtoms>
  152.5209  133.9441  159.7640 H   0  0  0  0  0  0  0  0  0  0  0  0  # atno 6907 bound_to 6896
  150.9765  133.6281  159.2736 H   0  0  0  0  0  0  0  0  0  0  0  0  # atno 6908 bound_to 6896
  151.3474  135.0883  159.9444 H   0  0  0  0  0  0  0  0  0  0  0  0  # atno 6909 bound_to 6896
  145.8413  140.8415  143.0033 H   0  0  0  0  0  0  0  0  0  0  0  0  # atno 7974 bound_to 7965
  156.2382  140.2938  156.0371 H   0  0  0  0  0  0  0  0  0  0  0  0  # atno 8008 bound_to 7997
  155.2029  140.0410  157.2937 H   0  0  0  0  0  0  0  0  0  0  0  0  # atno 8009 bound_to 7997
  154.6118  140.2454  155.7666 H   0  0  0  0  0  0  0  0  0  0  0  0  # atno 8010 bound_to 7997
  139.6982  144.7098  151.1231 H   0  0  0  0  0  0  0  0  0  0  0  0  # atno 10167 bound_to 10162
  156.7621  130.5273  149.5783 H   0  0  0  0  0  0  0  0  0  0  0  0  # atno 10718 bound_to 10713
  152.9826  135.6042  154.3422 H   0  0  0  0  0  0  0  0  0  0  0  0  # atno 10763 bound_to 10752
  154.3118  135.2771  155.2564 H   0  0  0  0  0  0  0  0  0  0  0  0  # atno 10764 bound_to 10752
  154.4770  135.5927  153.6418 H   0  0  0  0  0  0  0  0  0  0  0  0  # atno 10765 bound_to 10752
  139.8781  134.9249  156.5153 H   0  0  0  0  0  0  0  0  0  0  0  0  # atno 11005 bound_to 11000
  144.6733  140.0816  143.7469 LP  0  0  0  0  0  0  0  0  0  0  0  0  # atno 17320 bound_to 7965
  145.9462  139.2702  143.1239 LP  0  0  0  0  0  0  0  0  0  0  0  0  # atno 17321 bound_to 7965
  140.7702  143.5462  150.9256 LP  0  0  0  0  0  0  0  0  0  0  0  0  # atno 17342 bound_to 10162
  139.9142  143.6683  152.3109 LP  0  0  0  0  0  0  0  0  0  0  0  0  # atno 17343 bound_to 10162
  156.1332  130.6193  151.0363 LP  0  0  0  0  0  0  0  0  0  0  0  0  # atno 17370 bound_to 10713
  157.6730  131.0857  150.7566 LP  0  0  0  0  0  0  0  0  0  0  0  0  # atno 17371 bound_to 10713
  140.8490  133.8146  155.9150 LP  0  0  0  0  0  0  0  0  0  0  0  0  # atno 17394 bound_to 11000
  140.9163  134.2198  157.4955 LP  0  0  0  0  0  0  0  0  0  0  0  0  # atno 17395 bound_to 11000

$$$$
