#       Name:                AV-unprocessed.smi:3248
#       Creating user name   scv26
#       Creation time:       Fri Mar 27 18:29:59 2020


#       File generated by GOLD software.
#

@<TRIPOS>MOLECULE
AV-unprocessed.smi:3248
    43    44     1
SMALL
NO_CHARGES


@<TRIPOS>ATOM
      1 ****        -3.3420  -0.8600  -1.5931 C.3            1 S1                 0.0000
      2 ****        -2.4153  -0.4000  -0.4600 C.3            1 S1                 0.0000
      3 ****        -2.6049  -1.2575   0.8086 C.3            1 S1                 0.0000
      4 ****        -1.8074  -0.7822   1.9259 N.pl3          1 S1                 0.0000
      5 ****        -2.0345   0.3097   2.7366 C.2            1 S1                 0.0000
      6 ****        -1.0069   0.3700   3.6334 C.2            1 S1                 0.0000
      7 ****        -0.1909  -0.7433   3.2884 C.2            1 S1                 0.0000
      8 ****        -0.6738  -1.4329   2.2678 N.2            1 S1                 0.0000
      9 ****        -1.0288  -0.4650  -0.9195 N.am           1 S1                 0.0000
     10 ****        -0.0889   0.4769  -0.7261 C.2            1 S1                 0.0000
     11 ****        -0.3411   1.5754  -0.2311 O.2            1 S1                 0.0000
     12 ****         1.1230   0.1297  -1.2231 N.am           1 S1                 0.0000
     13 ****         1.7324  -1.1612  -0.8709 C.3            1 S1                 0.0000
     14 ****         2.6506  -0.9486   0.3486 C.3            1 S1                 0.0000
     15 ****         3.6423   0.0292   0.0439 O.3            1 S1                 0.0000
     16 ****         3.0950   1.2845  -0.3547 C.3            1 S1                 0.0000
     17 ****         2.1927   1.0787  -1.5882 C.3            1 S1                 0.0000
     18 ****         1.7142   2.4094  -2.2058 C.3            1 S1                 0.0000
     19 ****        -4.3883  -0.7977  -1.2926 H              1 S1                 0.0000
     20 ****        -3.1388  -1.8924  -1.8796 H              1 S1                 0.0000
     21 ****        -3.2176  -0.2370  -2.4795 H              1 S1                 0.0000
     22 ****        -2.6838   0.6311  -0.2235 H              1 S1                 0.0000
     23 ****        -3.6511  -1.2434   1.1166 H              1 S1                 0.0000
     24 ****        -2.3546  -2.3007   0.6077 H              1 S1                 0.0000
     25 ****        -2.8952   0.9487   2.6042 H              1 S1                 0.0000
     26 ****        -0.8589   1.0996   4.4154 H              1 S1                 0.0000
     27 ****         0.7322  -1.0682   3.7451 H              1 S1                 0.0000
     28 ****        -0.7447  -1.3191  -1.3767 H              1 S1                 0.0000
     29 ****         0.9989  -1.9348  -0.6403 H              1 S1                 0.0000
     30 ****         2.3077  -1.5417  -1.7158 H              1 S1                 0.0000
     31 ****         2.0749  -0.6317   1.2193 H              1 S1                 0.0000
     32 ****         3.1454  -1.8820   0.6165 H              1 S1                 0.0000
     33 ****         2.5403   1.7321   0.4715 H              1 S1                 0.0000
     34 ****         3.9169   1.9603  -0.5919 H              1 S1                 0.0000
     35 ****         2.7927   0.5996  -2.3641 H              1 S1                 0.0000
     36 ****         2.5568   2.9552  -2.6310 H              1 S1                 0.0000
     37 ****         1.2523   3.0693  -1.4720 H              1 S1                 0.0000
     38 ****         0.9988   2.2384  -3.0105 H              1 S1                 0.0000
     39 ****        -0.2866  -2.2519   1.8445 LP             1 S1                 0.0000
     40 ****        -1.2764   1.7965   0.0453 LP             1 S1                 0.0000
     41 ****         0.3893   2.2468  -0.1053 LP             1 S1                 0.0000
     42 ****         4.2127  -0.3187  -0.7001 LP             1 S1                 0.0000
     43 ****         4.2063   0.1730   0.8571 LP             1 S1                 0.0000
@<TRIPOS>BOND
    1    1    2 1     
    2    1   19 1     
    3    1   20 1     
    4    1   21 1     
    5    2    3 1     
    6    2    9 1     
    7    2   22 1     
    8    3    4 1     
    9    3   23 1     
   10    3   24 1     
   11    4    8 1     
   12    4    5 1     
   13    5    6 2     
   14    5   25 1     
   15    6    7 1     
   16    6   26 1     
   17    7    8 2     
   18    7   27 1     
   19    9   10 am    
   20    9   28 1     
   21   10   11 2     
   22   10   12 am    
   23   12   17 1     
   24   12   13 1     
   25   13   14 1     
   26   13   29 1     
   27   13   30 1     
   28   14   15 1     
   29   14   31 1     
   30   14   32 1     
   31   15   16 1     
   32   16   17 1     
   33   16   33 1     
   34   16   34 1     
   35   17   18 1     
   36   17   35 1     
   37   18   36 1     
   38   18   37 1     
   39   18   38 1     
   40    8   39 1     
   41   11   40 1     
   42   11   41 1     
   43   15   42 1     
   44   15   43 1     
@<TRIPOS>SUBSTRUCTURE
      1 S1             1
@<TRIPOS>SET
LONE_PAIRS      STATIC     ATOMS    <user>   **** ""
5 39 40 41 42 43
DONOR_HYDROGENS      STATIC     ATOMS    <user>   **** ""
1 28
ATOM$BLUE        STATIC     ATOMS    COLORGROUP SYSTEM
5 39 40 41 42 43
ATOM$RED        STATIC     ATOMS    COLORGROUP SYSTEM
1 28
