AV-unprocessed.smi:1679|AV-procd|sdf|6730|dock2
  -GOLD-   22720 7473D 1   1.00000     0.00000
 Structure written by MMmdl.
 45 46  0  0  0  0  0  0  0  0  1 V2000
  151.4390  145.1171  159.1622 C   0  0  0  0  0  0  0  0  0  0  0  0
  152.3898  144.1725  159.9139 C   0  0  1  0  0  0  0  0  0  0  0  0
  151.8247  143.7742  161.2941 C   0  0  0  0  0  0  0  0  0  0  0  0
  152.7965  142.8629  162.0615 C   0  0  0  0  0  0  0  0  0  0  0  0
  153.1816  141.6263  161.2350 C   0  0  0  0  0  0  0  0  0  0  0  0
  153.7392  142.0278  159.8609 C   0  0  0  0  0  0  0  0  0  0  0  0
  152.7442  142.9176  159.0834 C   0  0  1  0  0  0  0  0  0  0  0  0
  151.5223  142.2446  158.8031 O   0  0  0  0  0  0  0  0  0  0  0  0
  151.5597  141.2412  157.8002 C   0  0  0  0  0  0  0  0  0  0  0  0
  150.1426  140.6755  157.6144 C   0  0  0  0  0  0  0  0  0  0  0  0
  150.1286  139.5513  156.6821 N   0  0  0  0  0  0  0  0  0  0  0  0
  150.3482  139.6483  155.3608 C   0  0  0  0  0  0  0  0  0  0  0  0
  150.6397  140.7067  154.8019 O   0  0  0  0  0  0  0  0  0  0  0  0
  150.2416  138.3551  154.5431 C   0  0  0  0  0  0  0  0  0  0  0  0
  149.9048  137.2076  155.3973 N   0  0  0  0  0  0  0  0  0  0  0  0
  148.6025  137.0197  155.8385 C   0  0  0  0  0  0  0  0  0  0  0  0
  148.2341  136.0159  156.6695 C   0  0  0  0  0  0  0  0  0  0  0  0
  149.2224  135.0582  157.1537 C   0  0  0  0  0  0  0  0  0  0  0  0
  148.9889  134.1197  157.9122 O   0  0  0  0  0  0  0  0  0  0  0  0
  150.5196  135.2776  156.6834 N   0  0  0  0  0  0  0  0  0  0  0  0
  150.9052  136.3086  155.8256 C   0  0  0  0  0  0  0  0  0  0  0  0
  152.0796  136.4125  155.4747 O   0  0  0  0  0  0  0  0  0  0  0  0
  151.2380  134.6391  156.9925 H   0  0  0  0  0  0  0  0  0  0  0  0
  150.4719  144.6480  158.9781 H   0  0  0  0  0  0  0  0  0  0  0  0
  151.8565  145.4097  158.1985 H   0  0  0  0  0  0  0  0  0  0  0  0
  151.2597  146.0278  159.7338 H   0  0  0  0  0  0  0  0  0  0  0  0
  153.3147  144.7251  160.0848 H   0  0  0  0  0  0  0  0  0  0  0  0
  151.6187  144.6659  161.8865 H   0  0  0  0  0  0  0  0  0  0  0  0
  150.8684  143.2642  161.1698 H   0  0  0  0  0  0  0  0  0  0  0  0
  153.6961  143.4242  162.3160 H   0  0  0  0  0  0  0  0  0  0  0  0
  152.3490  142.5536  163.0061 H   0  0  0  0  0  0  0  0  0  0  0  0
  153.9172  141.0316  161.7768 H   0  0  0  0  0  0  0  0  0  0  0  0
  152.3094  140.9876  161.0975 H   0  0  0  0  0  0  0  0  0  0  0  0
  154.6713  142.5763  160.0023 H   0  0  0  0  0  0  0  0  0  0  0  0
  154.0071  141.1409  159.2878 H   0  0  0  0  0  0  0  0  0  0  0  0
  153.1980  143.2292  158.1413 H   0  0  0  0  0  0  0  0  0  0  0  0
  151.9131  141.6640  156.8589 H   0  0  0  0  0  0  0  0  0  0  0  0
  152.2430  140.4398  158.0812 H   0  0  0  0  0  0  0  0  0  0  0  0
  149.7207  140.3833  158.5775 H   0  0  0  0  0  0  0  0  0  0  0  0
  149.4890  141.4521  157.2165 H   0  0  0  0  0  0  0  0  0  0  0  0
  149.9021  138.6436  157.0620 H   0  0  0  0  0  0  0  0  0  0  0  0
  149.4703  138.4944  153.7842 H   0  0  0  0  0  0  0  0  0  0  0  0
  151.1627  138.1738  153.9853 H   0  0  0  0  0  0  0  0  0  0  0  0
  147.8396  137.7125  155.5126 H   0  0  0  0  0  0  0  0  0  0  0  0
  147.2037  135.9247  156.9815 H   0  0  0  0  0  0  0  0  0  0  0  0
  1  2  1  0  0  0  0
  1 24  1  0  0  0  0
  1 25  1  0  0  0  0
  1 26  1  0  0  0  0
  2  7  1  0  0  0  0
  2  3  1  0  0  0  0
  2 27  1  0  0  0  0
  3  4  1  0  0  0  0
  3 28  1  0  0  0  0
  3 29  1  0  0  0  0
  4  5  1  0  0  0  0
  4 30  1  0  0  0  0
  4 31  1  0  0  0  0
  5  6  1  0  0  0  0
  5 32  1  0  0  0  0
  5 33  1  0  0  0  0
  6  7  1  0  0  0  0
  6 34  1  0  0  0  0
  6 35  1  0  0  0  0
  7  8  1  0  0  0  0
  7 36  1  0  0  0  0
  8  9  1  0  0  0  0
  9 10  1  0  0  0  0
  9 37  1  0  0  0  0
  9 38  1  0  0  0  0
 10 11  1  0  0  0  0
 10 39  1  0  0  0  0
 10 40  1  0  0  0  0
 11 12  1  0  0  0  0
 11 41  1  0  0  0  0
 12 13  2  0  0  0  0
 12 14  1  0  0  0  0
 14 15  1  0  0  0  0
 14 42  1  0  0  0  0
 14 43  1  0  0  0  0
 15 21  1  0  0  0  0
 15 16  1  0  0  0  0
 16 17  2  0  0  0  0
 16 44  1  0  0  0  0
 17 18  1  0  0  0  0
 17 45  1  0  0  0  0
 18 19  2  0  0  0  0
 18 20  1  0  0  0  0
 20 23  1  0  0  0  0
 20 21  1  0  0  0  0
 21 22  2  0  0  0  0
M  END
> <s_m_source_file>
AV-unprocessed.smi

> <i_m_source_file_index>
1679

> <i_lp_mmshare_version>
43012

> <i_f3d_flags>
0

> <s_epik_input>
W0NIM11bQ0BASF0xW0NIMl1bQ0gyXVtDSDJdW0NIMl1bQ0BIXTFPW0NIMl1bQ0gyXVtOSF1DKD1PKVtDSDJdbjJbY0hdW2NIXWMoPU8pW25IXWMyPU8=

> <s_epik_cmdline>
J2VwaWtfcHl0aG9uJywgJy1waCcsICc3LjAnLCAnLXRuJywgJzgnLCAnLW1hJywgJzIwMCcsICctbWV0YWxfYmluZGluZycsICctaW1hZScsICc8aW5maWxlLm1hZT4nLCAnLW9tYWUnLCAnPG91dGZpbGUubWFlPic=

> <r_lp_tautomer_probability>
0.999537

> <r_epik_Ionization_Penalty>
0.0033132

> <r_epik_Ionization_Penalty_Charging>
0.00331317

> <r_epik_Ionization_Penalty_Neutral>
2.78599e-08

> <r_epik_State_Penalty>
0.002342

> <r_epik_Charging_Adjusted_Penalty>
0.00565517

> <i_epik_Tot_Q>
0

> <i_epik_Tot_abs_Q>
0

> <r_epik_Metal_State_Penalty>
0.365595

> <b_epik_Metal_Only>
0

> <s_lp_Force_Field>
OPLS_2005

> <r_lp_Energy>
9.24545

> <b_lp_Chiralities_Consistent>
1

> <s_lp_Variant>
AV-unprocessed.smi:1679-2

> <Gold.Version>
5.8.1

> <Gold.Id.Protein>
6NUR|6NUR_protein|mol2

> <Gold.PLP.Fitness>
49.4493

> <Gold.PLP.PLP>
-41.3378

> <Gold.PLP.part.hbond>
-2.6950

> <Gold.PLP.part.metal>
0.0000

> <Gold.PLP.part.buried>
-5.1463

> <Gold.PLP.part.nonpolar>
-33.3810

> <Gold.PLP.part.repulsive>
0.2983

> <Gold.PLP.ligand.clash>
0.0000

> <Gold.PLP.ligand.torsion>
0.3999

> <Gold.PLP.Chemscore.Hbond>
2.9360

> <Gold.PLP.Chemscore.CHOScore>
0.0000

> <Gold.PLP.Chemscore.Metal>
0.0000

> <Gold.Chemscore.Hbonds>
donor molecule, donor type, donor heavy atom, donor atom, acceptor molecule, acceptor atom, score
      P1  H  6896  6908       L1    19  0.50
      P1  H  7989  7998       L1    13  0.91
      P1  H 10752 10765       L1    22  0.80

> <Gold.PLP.Chemscore.Internal.Correction>
0.1032

> <Gold.Rescore>
     Score         DG    S(hbond)    S(metal)    S(lipo)     H(rot)  DE(clash)    DE(int)     intcor
     19.60     -20.18       2.68        0.00     104.09       2.52       0.08       0.49       ----

> <Gold.Chemscore.Fitness>
19.6009

> <Gold.Chemscore.DG>
-20.1792

> <Gold.Chemscore.ZeroCoef>
-5.4800

> <Gold.Chemscore.Hbond>
2.6850

> <Gold.Chemscore.Metal>
0.0000

> <Gold.Chemscore.Lipo>
104.0907

> <Gold.Chemscore.Internal_Hbond>
0.0000

> <Gold.Chemscore.DEClash>
0.0841

> <Gold.Chemscore.DEInternal>
0.4941

> <Gold.Chemscore.Rot>
2.5185

> <Gold.Chemscore.Internal.Correction>
   9.000000E+99

> <Gold.Chemscore.Hbonds>
donor molecule, donor type, donor heavy atom, donor atom, acceptor molecule, acceptor atom, score
      P1  H  6896  6908       L1    19  0.20
      P1  H  7989  7998       L1    13  0.88
      P1  H 10752 10765       L1    22  0.77

> <Gold.Chemscore.Hbond.Weighted>
-8.9678

> <Gold.Chemscore.Metal.Weighted>
-0.0000

> <Gold.Chemscore.Lipo.Weighted>
-12.1786

> <Gold.Chemscore.Internal_Hbond.Weighted>
0.0000

> <Gold.Chemscore.DEClash.Weighted>
0.0841

> <Gold.Chemscore.DEInternal.Weighted>
0.4941

> <Gold.Chemscore.Rot.Weighted>
6.4472

> <Gold.Chemscore.Internal.Correction.Weighted>
   9.000000E+99

> <Gold.Protein.RotatedTorsions>
[ 6907 6896 6895 6894 ] final  149.85 input  -60.11 | X-H torsion
[ 7974 7965 7964 7962 ] final  -39.48 input  175.53 | X-H torsion
[ 8008 7997 7996 7995 ] final  139.12 input   59.86 | X-H torsion
[ 10167 10162 10161 10158 ] final   19.14 input  -65.29 | X-H torsion
[ 10718 10713 10712 10709 ] final -172.94 input   66.30 | X-H torsion
[ 10763 10752 10751 10750 ] final -176.98 input  -60.55 | X-H torsion
[ 11005 11000 10999 10996 ] final  101.88 input  -57.11 | X-H torsion

> <Gold.Protein.ActiveResidues>
 VAL166  LYS551  ARG553  GLY616  TRP617  ASP618  TYR619  PRO620  LYS621  CYS622 
 ASP623  PHE694  ASN695  SER759  ASP760  ASP761  ALA762  ILE779  LEU786  VAL792 
 PHE793  MET794  SER795  GLU796  ALA797  LYS798  CYS799  TRP800  GLU811  SER814 

> <Gold.Protein.RotatedAtoms>
  152.1224  133.4361  159.4681 H   0  0  0  0  0  0  0  0  0  0  0  0  # atno 6907 bound_to 6896
  150.6873  134.2518  159.4523 H   0  0  0  0  0  0  0  0  0  0  0  0  # atno 6908 bound_to 6896
  152.0396  134.9719  160.0624 H   0  0  0  0  0  0  0  0  0  0  0  0  # atno 6909 bound_to 6896
  146.0392  140.6630  142.9095 H   0  0  0  0  0  0  0  0  0  0  0  0  # atno 7974 bound_to 7965
  156.2992  140.2376  156.4185 H   0  0  0  0  0  0  0  0  0  0  0  0  # atno 8008 bound_to 7997
  154.8376  140.0430  157.1540 H   0  0  0  0  0  0  0  0  0  0  0  0  # atno 8009 bound_to 7997
  154.9138  140.2994  155.5256 H   0  0  0  0  0  0  0  0  0  0  0  0  # atno 8010 bound_to 7997
  140.5601  143.9353  150.6636 H   0  0  0  0  0  0  0  0  0  0  0  0  # atno 10167 bound_to 10162
  156.7630  130.9420  151.3118 H   0  0  0  0  0  0  0  0  0  0  0  0  # atno 10718 bound_to 10713
  154.5657  135.2824  155.0876 H   0  0  0  0  0  0  0  0  0  0  0  0  # atno 10763 bound_to 10752
  154.2267  135.6381  153.5166 H   0  0  0  0  0  0  0  0  0  0  0  0  # atno 10764 bound_to 10752
  153.0042  135.5527  154.6265 H   0  0  0  0  0  0  0  0  0  0  0  0  # atno 10765 bound_to 10752
  139.8775  134.9201  156.4974 H   0  0  0  0  0  0  0  0  0  0  0  0  # atno 11005 bound_to 11000
  144.7066  140.3877  143.7113 LP  0  0  0  0  0  0  0  0  0  0  0  0  # atno 17320 bound_to 7965
  145.6912  139.1639  143.2646 LP  0  0  0  0  0  0  0  0  0  0  0  0  # atno 17321 bound_to 7965
  140.2801  143.3395  152.1159 LP  0  0  0  0  0  0  0  0  0  0  0  0  # atno 17342 bound_to 10162
  139.5066  144.6817  151.5992 LP  0  0  0  0  0  0  0  0  0  0  0  0  # atno 17343 bound_to 10162
  157.6726  130.9064  150.0075 LP  0  0  0  0  0  0  0  0  0  0  0  0  # atno 17370 bound_to 10713
  156.1326  130.3643  149.9707 LP  0  0  0  0  0  0  0  0  0  0  0  0  # atno 17371 bound_to 10713
  140.8614  133.8056  155.9269 LP  0  0  0  0  0  0  0  0  0  0  0  0  # atno 17394 bound_to 11000
  140.9045  134.2337  157.5022 LP  0  0  0  0  0  0  0  0  0  0  0  0  # atno 17395 bound_to 11000

$$$$
