AV-unprocessed.smi:3350|AV-procd|sdf|12942|dock7
  -GOLD-   2272019373D 1   1.00000     0.00000
 Structure written by MMmdl.
 41 42  0  0  0  0  0  0  0  0  1 V2000
  143.8189  136.8448  152.4601 C   0  0  0  0  0  0  0  0  0  0  0  0
  144.9126  135.7992  152.2048 C   0  0  1  0  0  0  0  0  0  0  0  0
  144.9011  135.3212  150.7379 C   0  0  0  0  0  0  0  0  0  0  0  0
  144.8576  133.8740  150.6204 N   0  0  0  0  0  0  0  0  0  0  0  0
  143.7623  133.0402  150.7025 C   0  0  0  0  0  0  0  0  0  0  0  0
  144.2121  131.7615  150.5385 C   0  0  0  0  0  0  0  0  0  0  0  0
  145.6150  131.9172  150.3585 C   0  0  0  0  0  0  0  0  0  0  0  0
  145.9982  133.1827  150.4049 N   0  0  0  0  0  0  0  0  0  0  0  0
  146.2102  136.3749  152.5555 N   0  0  0  0  0  0  0  0  0  0  0  0
  146.5046  136.9932  153.7085 C   0  0  0  0  0  0  0  0  0  0  0  0
  145.7030  137.1620  154.6276 O   0  0  0  0  0  0  0  0  0  0  0  0
  147.7820  137.3982  153.7384 N   0  0  0  0  0  0  0  0  0  0  0  0
  148.4265  138.0950  154.8488 C   0  0  1  0  0  0  0  0  0  0  0  0
  149.5515  137.2019  155.3941 C   0  0  0  0  0  0  0  0  0  0  0  0
  148.9463  139.4690  154.3767 C   0  0  2  0  0  0  0  0  0  0  0  0
  149.7703  140.2326  155.4158 C   0  0  0  0  0  0  0  0  0  0  0  0
  149.5908  141.6921  155.0246 C   0  0  0  0  0  0  0  0  0  0  0  0
  148.4292  141.6708  154.0283 C   0  0  0  0  0  0  0  0  0  0  0  0
  147.8735  140.3691  154.1424 O   0  0  0  0  0  0  0  0  0  0  0  0
  142.8302  136.4385  152.2453 H   0  0  0  0  0  0  0  0  0  0  0  0
  143.9583  137.7274  151.8349 H   0  0  0  0  0  0  0  0  0  0  0  0
  143.8213  137.1698  153.5012 H   0  0  0  0  0  0  0  0  0  0  0  0
  144.6975  134.9456  152.8504 H   0  0  0  0  0  0  0  0  0  0  0  0
  144.0267  135.7209  150.2229 H   0  0  0  0  0  0  0  0  0  0  0  0
  145.7743  135.7000  150.2038 H   0  0  0  0  0  0  0  0  0  0  0  0
  142.7666  133.4219  150.8740 H   0  0  0  0  0  0  0  0  0  0  0  0
  143.6283  130.8532  150.5476 H   0  0  0  0  0  0  0  0  0  0  0  0
  146.3611  131.1538  150.1947 H   0  0  0  0  0  0  0  0  0  0  0  0
  146.9447  136.2839  151.8691 H   0  0  0  0  0  0  0  0  0  0  0  0
  148.3561  137.2096  152.9300 H   0  0  0  0  0  0  0  0  0  0  0  0
  147.7062  138.2477  155.6547 H   0  0  0  0  0  0  0  0  0  0  0  0
  150.0248  137.6477  156.2691 H   0  0  0  0  0  0  0  0  0  0  0  0
  150.3263  137.0362  154.6449 H   0  0  0  0  0  0  0  0  0  0  0  0
  149.1659  136.2274  155.6959 H   0  0  0  0  0  0  0  0  0  0  0  0
  149.5215  139.3622  153.4546 H   0  0  0  0  0  0  0  0  0  0  0  0
  149.3602  140.0722  156.4140 H   0  0  0  0  0  0  0  0  0  0  0  0
  150.8165  139.9254  155.4296 H   0  0  0  0  0  0  0  0  0  0  0  0
  149.3582  142.3003  155.8993 H   0  0  0  0  0  0  0  0  0  0  0  0
  150.4899  142.0999  154.5617 H   0  0  0  0  0  0  0  0  0  0  0  0
  147.6835  142.4386  154.2359 H   0  0  0  0  0  0  0  0  0  0  0  0
  148.7939  141.8161  153.0103 H   0  0  0  0  0  0  0  0  0  0  0  0
  1  2  1  0  0  0  0
  1 20  1  0  0  0  0
  1 21  1  0  0  0  0
  1 22  1  0  0  0  0
  2  3  1  0  0  0  0
  2  9  1  0  0  0  0
  2 23  1  0  0  0  0
  3  4  1  0  0  0  0
  3 24  1  0  0  0  0
  3 25  1  0  0  0  0
  4  8  1  0  0  0  0
  4  5  1  0  0  0  0
  5  6  2  0  0  0  0
  5 26  1  0  0  0  0
  6  7  1  0  0  0  0
  6 27  1  0  0  0  0
  7  8  2  0  0  0  0
  7 28  1  0  0  0  0
  9 10  1  0  0  0  0
  9 29  1  0  0  0  0
 10 11  2  0  0  0  0
 10 12  1  0  0  0  0
 12 13  1  0  0  0  0
 12 30  1  0  0  0  0
 13 14  1  0  0  0  0
 13 15  1  0  0  0  0
 13 31  1  0  0  0  0
 14 32  1  0  0  0  0
 14 33  1  0  0  0  0
 14 34  1  0  0  0  0
 15 19  1  0  0  0  0
 15 16  1  0  0  0  0
 15 35  1  0  0  0  0
 16 17  1  0  0  0  0
 16 36  1  0  0  0  0
 16 37  1  0  0  0  0
 17 18  1  0  0  0  0
 17 38  1  0  0  0  0
 17 39  1  0  0  0  0
 18 19  1  0  0  0  0
 18 40  1  0  0  0  0
 18 41  1  0  0  0  0
M  END
> <s_m_source_file>
AV-unprocessed.smi

> <i_m_source_file_index>
3350

> <i_lp_mmshare_version>
43012

> <i_f3d_flags>
0

> <s_epik_input>
bjFbY0hdW2NIXVtjSF1uMVtDSDJdW0NAQEhdKFtDSDNdKVtOSF1DKD1PKVtOSF1bQ0BIXShbQ0gzXSlbQ0BASF0yW0NIMl1bQ0gyXVtDSDJdTzI=

> <s_epik_cmdline>
J2VwaWtfcHl0aG9uJywgJy1waCcsICc3LjAnLCAnLXRuJywgJzgnLCAnLW1hJywgJzIwMCcsICctbWV0YWxfYmluZGluZycsICctaW1hZScsICc8aW5maWxlLm1hZT4nLCAnLW9tYWUnLCAnPG91dGZpbGUubWFlPic=

> <r_lp_tautomer_probability>
1

> <r_epik_Ionization_Penalty>
6.42349e-05

> <r_epik_Ionization_Penalty_Charging>
0

> <r_epik_Ionization_Penalty_Neutral>
6.42349e-05

> <r_epik_State_Penalty>
-0

> <r_epik_Charging_Adjusted_Penalty>
0

> <i_epik_Tot_Q>
0

> <i_epik_Tot_abs_Q>
0

> <r_epik_Metal_State_Penalty>
-0

> <b_epik_Metal_Only>
0

> <s_lp_Force_Field>
OPLS_2005

> <r_lp_Energy>
15.8996

> <b_lp_Chiralities_Consistent>
1

> <s_lp_Variant>
AV-unprocessed.smi:3350-4

> <Gold.Version>
5.8.1

> <Gold.Id.Protein>
6NUR|6NUR_protein|mol2

> <Gold.PLP.Fitness>
40.9295

> <Gold.PLP.PLP>
-31.9277

> <Gold.PLP.part.hbond>
-1.9715

> <Gold.PLP.part.metal>
0.0000

> <Gold.PLP.part.buried>
-3.2660

> <Gold.PLP.part.nonpolar>
-27.1246

> <Gold.PLP.part.repulsive>
0.3889

> <Gold.PLP.ligand.clash>
0.0000

> <Gold.PLP.ligand.torsion>
1.1808

> <Gold.PLP.Chemscore.Hbond>
1.7680

> <Gold.PLP.Chemscore.CHOScore>
1.9959

> <Gold.PLP.Chemscore.Metal>
0.0000

> <Gold.Chemscore.Hbonds>
donor molecule, donor type, donor heavy atom, donor atom, acceptor molecule, acceptor atom, score
      L1  H     9    29       P1  7948  0.77
      L1  H    12    30       P1  7948  1.00
      L1  C     5    26       P1 10186  1.00
      L1  C     7    28       P1 10747  0.77

> <Gold.PLP.Chemscore.Internal.Correction>
0.0718

> <Gold.Rescore>
     Score         DG    S(hbond)    S(metal)    S(lipo)     H(rot)  DE(clash)    DE(int)     intcor
     13.37     -15.66       1.83        0.00      74.40       1.82       0.01       2.28       ----

> <Gold.Chemscore.Fitness>
13.3670

> <Gold.Chemscore.DG>
-15.6554

> <Gold.Chemscore.ZeroCoef>
-5.4800

> <Gold.Chemscore.Hbond>
1.8350

> <Gold.Chemscore.Metal>
0.0000

> <Gold.Chemscore.Lipo>
74.4013

> <Gold.Chemscore.Internal_Hbond>
0.0000

> <Gold.Chemscore.DEClash>
0.0115

> <Gold.Chemscore.DEInternal>
2.2768

> <Gold.Chemscore.Rot>
1.8197

> <Gold.Chemscore.Internal.Correction>
   9.000000E+99

> <Gold.Chemscore.Hbonds>
donor molecule, donor type, donor heavy atom, donor atom, acceptor molecule, acceptor atom, score
      L1  H     9    29       P1  7948  0.76
      L1  H    12    30       P1  7948  0.93

> <Gold.Chemscore.Hbond.Weighted>
-6.1287

> <Gold.Chemscore.Metal.Weighted>
-0.0000

> <Gold.Chemscore.Lipo.Weighted>
-8.7050

> <Gold.Chemscore.Internal_Hbond.Weighted>
0.0000

> <Gold.Chemscore.DEClash.Weighted>
0.0115

> <Gold.Chemscore.DEInternal.Weighted>
2.2768

> <Gold.Chemscore.Rot.Weighted>
4.6583

> <Gold.Chemscore.Internal.Correction.Weighted>
   9.000000E+99

> <Gold.Protein.RotatedTorsions>
[ 6907 6896 6895 6894 ] final  160.69 input  -60.11 | X-H torsion
[ 7974 7965 7964 7962 ] final   27.38 input  175.53 | X-H torsion
[ 8008 7997 7996 7995 ] final   54.73 input   59.86 | X-H torsion
[ 10167 10162 10161 10158 ] final  -17.45 input  -65.29 | X-H torsion
[ 10718 10713 10712 10709 ] final   51.59 input   66.30 | X-H torsion
[ 10763 10752 10751 10750 ] final  -48.87 input  -60.55 | X-H torsion
[ 11005 11000 10999 10996 ] final  -49.22 input  -57.11 | X-H torsion

> <Gold.Protein.ActiveResidues>
 VAL166  LYS551  ARG553  GLY616  TRP617  ASP618  TYR619  PRO620  LYS621  CYS622 
 ASP623  PHE694  ASN695  SER759  ASP760  ASP761  ALA762  ILE779  LEU786  VAL792 
 PHE793  MET794  SER795  GLU796  ALA797  LYS798  CYS799  TRP800  GLU811  SER814 

> <Gold.Protein.RotatedAtoms>
  151.9668  133.3713  159.4055 H   0  0  0  0  0  0  0  0  0  0  0  0  # atno 6907 bound_to 6896
  150.6955  134.4182  159.5202 H   0  0  0  0  0  0  0  0  0  0  0  0  # atno 6908 bound_to 6896
  152.1880  134.8697  160.0571 H   0  0  0  0  0  0  0  0  0  0  0  0  # atno 6909 bound_to 6896
  146.1787  139.7199  142.8916 H   0  0  0  0  0  0  0  0  0  0  0  0  # atno 7974 bound_to 7965
  155.4894  140.3471  155.4352 H   0  0  0  0  0  0  0  0  0  0  0  0  # atno 8008 bound_to 7997
  156.0987  140.1429  156.9525 H   0  0  0  0  0  0  0  0  0  0  0  0  # atno 8009 bound_to 7997
  154.4679  140.0911  156.7047 H   0  0  0  0  0  0  0  0  0  0  0  0  # atno 8010 bound_to 7997
  140.7247  143.5014  150.9864 H   0  0  0  0  0  0  0  0  0  0  0  0  # atno 10167 bound_to 10162
  157.4995  130.8428  149.8299 H   0  0  0  0  0  0  0  0  0  0  0  0  # atno 10718 bound_to 10713
  154.0848  135.6586  153.4843 H   0  0  0  0  0  0  0  0  0  0  0  0  # atno 10763 bound_to 10752
  153.0343  135.5188  154.7438 H   0  0  0  0  0  0  0  0  0  0  0  0  # atno 10764 bound_to 10752
  154.6544  135.3006  154.9914 H   0  0  0  0  0  0  0  0  0  0  0  0  # atno 10765 bound_to 10752
  141.0746  133.6669  156.3554 H   0  0  0  0  0  0  0  0  0  0  0  0  # atno 11005 bound_to 11000
  145.4138  141.0399  143.3002 LP  0  0  0  0  0  0  0  0  0  0  0  0  # atno 17320 bound_to 7965
  144.8279  139.5679  143.6957 LP  0  0  0  0  0  0  0  0  0  0  0  0  # atno 17321 bound_to 7965
  139.8724  143.7176  152.3165 LP  0  0  0  0  0  0  0  0  0  0  0  0  # atno 17342 bound_to 10162
  139.7429  144.7555  151.0624 LP  0  0  0  0  0  0  0  0  0  0  0  0  # atno 17343 bound_to 10162
  156.0220  130.3792  150.1932 LP  0  0  0  0  0  0  0  0  0  0  0  0  # atno 17370 bound_to 10713
  157.0122  130.9954  151.3363 LP  0  0  0  0  0  0  0  0  0  0  0  0  # atno 17371 bound_to 10713
  140.5600  134.5944  157.5431 LP  0  0  0  0  0  0  0  0  0  0  0  0  # atno 17394 bound_to 11000
  139.9559  134.7536  156.0343 LP  0  0  0  0  0  0  0  0  0  0  0  0  # atno 17395 bound_to 11000

$$$$
