AV-unprocessed.smi:630|AV-procd|sdf|3124|dock4
  -GOLD-   22720 0 43D 1   1.00000     0.00000
 Structure written by MMmdl.
 36 37  0  0  0  0  0  0  0  0  2 V2000
  150.3931  142.5279  158.6687 N   0  0  0  0  0  0  0  0  0  0  0  0
  150.4341  141.1937  158.7205 C   0  0  0  0  0  0  0  0  0  0  0  0
  151.0044  140.5957  159.6311 O   0  0  0  0  0  0  0  0  0  0  0  0
  149.7397  140.4217  157.5811 C   0  0  1  0  0  0  0  0  0  0  0  0
  150.2668  140.8915  156.2016 C   0  0  0  0  0  0  0  0  0  0  0  0
  151.5035  140.1581  155.6543 C   0  0  0  0  0  0  0  0  0  0  0  0
  151.1340  138.8990  154.8548 C   0  0  0  0  0  0  0  0  0  0  0  0
  150.6594  137.7170  155.7108 C   0  0  0  0  0  0  0  0  0  0  0  0
  149.4515  138.0080  156.6197 C   0  0  0  0  0  0  0  0  0  0  0  0
  149.8016  138.8883  157.8393 C   0  0  2  0  0  0  0  0  0  0  0  0
  148.8913  138.5587  158.9411 N   0  0  0  0  0  0  0  0  0  0  0  0
  148.7554  137.3741  159.5557 C   0  0  0  0  0  0  0  0  0  0  0  0
  149.4281  136.4054  159.1960 O   0  0  0  0  0  0  0  0  0  0  0  0
  147.8467  137.3888  160.5577 N   0  5  0  0  0  0  0  0  0  0  0  0
  147.4974  136.2427  161.1643 C   0  0  0  0  0  0  0  0  0  0  0  0
  147.5347  135.0525  160.5539 N   0  0  0  0  0  0  0  0  0  0  0  0
  147.1228  133.9971  161.3697 C   0  0  0  0  0  0  0  0  0  0  0  0
  146.7541  134.3941  162.6277 C   0  0  0  0  0  0  0  0  0  0  0  0
  146.9156  136.1156  162.8268 S   0  0  0  0  0  0  0  0  0  0  0  0
  150.8087  143.0707  159.4113 H   0  0  0  0  0  0  0  0  0  0  0  0
  149.9203  142.9879  157.9042 H   0  0  0  0  0  0  0  0  0  0  0  0
  148.6876  140.7141  157.5980 H   0  0  0  0  0  0  0  0  0  0  0  0
  149.4598  140.8311  155.4703 H   0  0  0  0  0  0  0  0  0  0  0  0
  150.4989  141.9567  156.2546 H   0  0  0  0  0  0  0  0  0  0  0  0
  152.0244  140.8365  154.9780 H   0  0  0  0  0  0  0  0  0  0  0  0
  152.2150  139.9260  156.4472 H   0  0  0  0  0  0  0  0  0  0  0  0
  150.3743  139.1426  154.1111 H   0  0  0  0  0  0  0  0  0  0  0  0
  152.0082  138.5786  154.2872 H   0  0  0  0  0  0  0  0  0  0  0  0
  150.3972  136.8988  155.0393 H   0  0  0  0  0  0  0  0  0  0  0  0
  151.4892  137.3450  156.3131 H   0  0  0  0  0  0  0  0  0  0  0  0
  148.6266  138.4385  156.0507 H   0  0  0  0  0  0  0  0  0  0  0  0
  149.0895  137.0421  156.9763 H   0  0  0  0  0  0  0  0  0  0  0  0
  150.8208  138.6346  158.1364 H   0  0  0  0  0  0  0  0  0  0  0  0
  148.3071  139.3102  159.2772 H   0  0  0  0  0  0  0  0  0  0  0  0
  147.1216  132.9936  160.9713 H   0  0  0  0  0  0  0  0  0  0  0  0
  146.3994  133.7840  163.4445 H   0  0  0  0  0  0  0  0  0  0  0  0
  1  2  1  0  0  0  0
  1 20  1  0  0  0  0
  1 21  1  0  0  0  0
  2  3  2  0  0  0  0
  2  4  1  0  0  0  0
  4 10  1  0  0  0  0
  4  5  1  0  0  0  0
  4 22  1  0  0  0  0
  5  6  1  0  0  0  0
  5 23  1  0  0  0  0
  5 24  1  0  0  0  0
  6  7  1  0  0  0  0
  6 25  1  0  0  0  0
  6 26  1  0  0  0  0
  7  8  1  0  0  0  0
  7 27  1  0  0  0  0
  7 28  1  0  0  0  0
  8  9  1  0  0  0  0
  8 29  1  0  0  0  0
  8 30  1  0  0  0  0
  9 10  1  0  0  0  0
  9 31  1  0  0  0  0
  9 32  1  0  0  0  0
 10 11  1  0  0  0  0
 10 33  1  0  0  0  0
 11 12  1  0  0  0  0
 11 34  1  0  0  0  0
 12 13  2  0  0  0  0
 12 14  1  0  0  0  0
 14 15  1  0  0  0  0
 15 19  1  0  0  0  0
 15 16  2  0  0  0  0
 16 17  1  0  0  0  0
 17 18  2  0  0  0  0
 17 35  1  0  0  0  0
 18 19  1  0  0  0  0
 18 36  1  0  0  0  0
M  CHG  1  14  -1
M  END
> <s_m_source_file>
AV-unprocessed.smi

> <i_m_source_file_index>
630

> <i_lp_mmshare_version>
43012

> <i_f3d_flags>
0

> <s_epik_input>
W05IMl1DKD1PKVtDQEBIXTFbQ0gyXVtDSDJdW0NIMl1bQ0gyXVtDSDJdW0NASF0xW05IXUMoPU8pW05IXWMybltjSF1bY0hdczI=

> <s_epik_cmdline>
J2VwaWtfcHl0aG9uJywgJy1waCcsICc3LjAnLCAnLXRuJywgJzgnLCAnLW1hJywgJzIwMCcsICctbWV0YWxfYmluZGluZycsICctaW1hZScsICc8aW5maWxlLm1hZT4nLCAnLW9tYWUnLCAnPG91dGZpbGUubWFlPic=

> <r_lp_tautomer_probability>
0.999

> <r_epik_Ionization_Penalty>
8.29606

> <r_epik_Ionization_Penalty_Charging>
6.67551

> <r_epik_Ionization_Penalty_Neutral>
1.62055

> <r_epik_State_Penalty>
6.67568

> <r_epik_Charging_Adjusted_Penalty>
13.3512

> <i_epik_Tot_Q>
-1

> <i_epik_Tot_abs_Q>
1

> <r_epik_Metal_State_Penalty>
2.59802

> <b_epik_Metal_Only>
1

> <s_lp_Force_Field>
OPLS_2005

> <r_lp_Energy>
8.13293

> <b_lp_Chiralities_Consistent>
1

> <s_lp_Variant>
AV-unprocessed.smi:630-8

> <Gold.Version>
5.8.1

> <Gold.Id.Protein>
6NUR|6NUR_protein|mol2

> <Gold.PLP.Fitness>
43.5796

> <Gold.PLP.PLP>
-34.3824

> <Gold.PLP.part.hbond>
-3.0000

> <Gold.PLP.part.metal>
0.0000

> <Gold.PLP.part.buried>
-5.0411

> <Gold.PLP.part.nonpolar>
-27.6603

> <Gold.PLP.part.repulsive>
0.2564

> <Gold.PLP.ligand.clash>
0.0000

> <Gold.PLP.ligand.torsion>
0.2495

> <Gold.PLP.Chemscore.Hbond>
3.1904

> <Gold.PLP.Chemscore.CHOScore>
0.0000

> <Gold.PLP.Chemscore.Metal>
0.0000

> <Gold.Chemscore.Hbonds>
donor molecule, donor type, donor heavy atom, donor atom, acceptor molecule, acceptor atom, score
      P1  H  6896  6909       L1    13  0.63
      P1  H  6931  6943       L1    14  1.10
      P1  H  6934  6947       L1    14  1.60

> <Gold.PLP.Chemscore.Internal.Correction>
0.1252

> <Gold.Rescore>
     Score         DG    S(hbond)    S(metal)    S(lipo)     H(rot)  DE(clash)    DE(int)     intcor
     12.87     -14.79       1.80        0.00      61.00       1.50       0.01       1.90       ----

> <Gold.Chemscore.Fitness>
12.8694

> <Gold.Chemscore.DG>
-14.7854

> <Gold.Chemscore.ZeroCoef>
-5.4800

> <Gold.Chemscore.Hbond>
1.8021

> <Gold.Chemscore.Metal>
0.0000

> <Gold.Chemscore.Lipo>
61.0046

> <Gold.Chemscore.Internal_Hbond>
0.0000

> <Gold.Chemscore.DEClash>
0.0135

> <Gold.Chemscore.DEInternal>
1.9025

> <Gold.Chemscore.Rot>
1.5044

> <Gold.Chemscore.Internal.Correction>
   9.000000E+99

> <Gold.Chemscore.Hbonds>
donor molecule, donor type, donor heavy atom, donor atom, acceptor molecule, acceptor atom, score
      P1  H  6896  6909       L1    13  0.62
      P1  H  6931  6943       L1    14  0.03
      P1  H  6934  6947       L1    14  0.68

> <Gold.Chemscore.Hbond.Weighted>
-6.0191

> <Gold.Chemscore.Metal.Weighted>
-0.0000

> <Gold.Chemscore.Lipo.Weighted>
-7.1375

> <Gold.Chemscore.Internal_Hbond.Weighted>
0.0000

> <Gold.Chemscore.DEClash.Weighted>
0.0135

> <Gold.Chemscore.DEInternal.Weighted>
1.9025

> <Gold.Chemscore.Rot.Weighted>
3.8512

> <Gold.Chemscore.Internal.Correction.Weighted>
   9.000000E+99

> <Gold.Protein.RotatedTorsions>
[ 6907 6896 6895 6894 ] final   57.49 input  -60.11 | X-H torsion
[ 7974 7965 7964 7962 ] final   73.51 input  175.53 | X-H torsion
[ 8008 7997 7996 7995 ] final   28.46 input   59.86 | X-H torsion
[ 10167 10162 10161 10158 ] final  -83.77 input  -65.29 | X-H torsion
[ 10718 10713 10712 10709 ] final -117.85 input   66.30 | X-H torsion
[ 10763 10752 10751 10750 ] final  152.29 input  -60.55 | X-H torsion
[ 11005 11000 10999 10996 ] final -145.89 input  -57.11 | X-H torsion

> <Gold.Protein.ActiveResidues>
 VAL166  LYS551  ARG553  GLY616  TRP617  ASP618  TYR619  PRO620  LYS621  CYS622 
 ASP623  PHE694  ASN695  SER759  ASP760  ASP761  ALA762  ILE779  LEU786  VAL792 
 PHE793  MET794  SER795  GLU796  ALA797  LYS798  CYS799  TRP800  GLU811  SER814 

> <Gold.Protein.RotatedAtoms>
  152.3736  134.6697  160.0167 H   0  0  0  0  0  0  0  0  0  0  0  0  # atno 6907 bound_to 6896
  151.6982  133.3305  159.3268 H   0  0  0  0  0  0  0  0  0  0  0  0  # atno 6908 bound_to 6896
  150.7692  134.6574  159.6365 H   0  0  0  0  0  0  0  0  0  0  0  0  # atno 6909 bound_to 6896
  145.7399  139.2717  143.1492 H   0  0  0  0  0  0  0  0  0  0  0  0  # atno 7974 bound_to 7965
  155.0590  140.3188  155.4667 H   0  0  0  0  0  0  0  0  0  0  0  0  # atno 8008 bound_to 7997
  156.2817  140.2132  156.5661 H   0  0  0  0  0  0  0  0  0  0  0  0  # atno 8009 bound_to 7997
  154.7148  140.0495  157.0571 H   0  0  0  0  0  0  0  0  0  0  0  0  # atno 8010 bound_to 7997
  140.4196  143.2590  151.8908 H   0  0  0  0  0  0  0  0  0  0  0  0  # atno 10167 bound_to 10162
  156.1064  130.6213  150.9217 H   0  0  0  0  0  0  0  0  0  0  0  0  # atno 10718 bound_to 10713
  154.1177  135.2835  155.3216 H   0  0  0  0  0  0  0  0  0  0  0  0  # atno 10763 bound_to 10752
  154.6445  135.5391  153.7832 H   0  0  0  0  0  0  0  0  0  0  0  0  # atno 10764 bound_to 10752
  153.0323  135.6494  154.1333 H   0  0  0  0  0  0  0  0  0  0  0  0  # atno 10765 bound_to 10752
  140.7876  134.3006  157.5024 H   0  0  0  0  0  0  0  0  0  0  0  0  # atno 11005 bound_to 11000
  146.0458  140.8120  142.9806 LP  0  0  0  0  0  0  0  0  0  0  0  0  # atno 17320 bound_to 7965
  144.6873  140.2978  143.7268 LP  0  0  0  0  0  0  0  0  0  0  0  0  # atno 17321 bound_to 7965
  139.4782  144.5452  151.8469 LP  0  0  0  0  0  0  0  0  0  0  0  0  # atno 17342 bound_to 10162
  140.4549  144.1804  150.5900 LP  0  0  0  0  0  0  0  0  0  0  0  0  # atno 17343 bound_to 10162
  157.6241  131.0927  150.8568 LP  0  0  0  0  0  0  0  0  0  0  0  0  # atno 17370 bound_to 10713
  156.8686  130.5138  149.5298 LP  0  0  0  0  0  0  0  0  0  0  0  0  # atno 17371 bound_to 10713
  139.8735  134.9355  156.3636 LP  0  0  0  0  0  0  0  0  0  0  0  0  # atno 17394 bound_to 11000
  140.9421  133.7507  156.0160 LP  0  0  0  0  0  0  0  0  0  0  0  0  # atno 17395 bound_to 11000

$$$$
