AV-unprocessed.smi:1843|AV-procd|sdf|7504|dock9
  -GOLD-   22720 9213D 1   1.00000     0.00000
 Structure written by MMmdl.
 36 38  0  0  0  0  0  0  0  0  2 V2000
  150.5006  135.3218  157.6045 O   0  0  0  0  0  0  0  0  0  0  0  0
  151.2447  135.4591  156.6307 C   0  0  0  0  0  0  0  0  0  0  0  0
  152.2212  136.3847  156.4933 N   0  5  0  0  0  0  0  0  0  0  0  0
  152.0968  137.5854  157.0829 C   0  0  0  0  0  0  0  0  0  0  0  0
  153.0849  138.1392  157.7995 N   0  0  0  0  0  0  0  0  0  0  0  0
  152.7507  139.3815  158.3184 N   0  0  0  0  0  0  0  0  0  0  0  0
  151.5143  139.7534  157.9787 C   0  0  0  0  0  0  0  0  0  0  0  0
  150.9219  141.0510  158.4170 C   0  0  0  0  0  0  0  0  0  0  0  0
  150.2911  141.9889  157.4138 C   0  0  0  0  0  0  0  0  0  0  0  0
  151.5809  142.3740  158.0922 C   0  0  0  0  0  0  0  0  0  0  0  0
  150.6547  138.5946  156.9769 S   0  0  0  0  0  0  0  0  0  0  0  0
  151.1232  134.6426  155.5743 N   0  0  0  0  0  0  0  0  0  0  0  0
  150.1528  133.5587  155.4297 C   0  0  2  0  0  0  0  0  0  0  0  0
  150.8866  132.2047  155.5557 C   0  0  0  0  0  0  0  0  0  0  0  0
  149.9642  131.0130  155.2617 C   0  0  0  0  0  0  0  0  0  0  0  0
  149.3225  131.1462  153.8746 C   0  0  0  0  0  0  0  0  0  0  0  0
  148.5476  132.4658  153.7624 C   0  0  0  0  0  0  0  0  0  0  0  0
  149.4451  133.6824  154.0597 C   0  0  1  0  0  0  0  0  0  0  0  0
  148.6185  134.8295  154.0520 O   0  0  0  0  0  0  0  0  0  0  0  0
  150.4433  140.9459  159.3886 H   0  0  0  0  0  0  0  0  0  0  0  0
  150.3412  141.7127  156.3623 H   0  0  0  0  0  0  0  0  0  0  0  0
  149.3860  142.5112  157.7167 H   0  0  0  0  0  0  0  0  0  0  0  0
  151.5367  143.1550  158.8484 H   0  0  0  0  0  0  0  0  0  0  0  0
  152.4839  142.3645  157.4853 H   0  0  0  0  0  0  0  0  0  0  0  0
  151.7507  134.7956  154.7986 H   0  0  0  0  0  0  0  0  0  0  0  0
  149.4008  133.6247  156.2187 H   0  0  0  0  0  0  0  0  0  0  0  0
  151.7299  132.1790  154.8637 H   0  0  0  0  0  0  0  0  0  0  0  0
  151.3091  132.0987  156.5556 H   0  0  0  0  0  0  0  0  0  0  0  0
  150.5287  130.0823  155.3232 H   0  0  0  0  0  0  0  0  0  0  0  0
  149.1860  130.9548  156.0238 H   0  0  0  0  0  0  0  0  0  0  0  0
  150.0940  131.1040  153.1046 H   0  0  0  0  0  0  0  0  0  0  0  0
  148.6534  130.3049  153.6913 H   0  0  0  0  0  0  0  0  0  0  0  0
  148.1160  132.5549  152.7647 H   0  0  0  0  0  0  0  0  0  0  0  0
  147.7091  132.4457  154.4603 H   0  0  0  0  0  0  0  0  0  0  0  0
  150.1866  133.7819  153.2654 H   0  0  0  0  0  0  0  0  0  0  0  0
  148.5590  135.1492  153.1648 H   0  0  0  0  0  0  0  0  0  0  0  0
  1  2  2  0  0  0  0
  2  3  1  0  0  0  0
  2 12  1  0  0  0  0
  3  4  1  0  0  0  0
  4 11  1  0  0  0  0
  4  5  2  0  0  0  0
  5  6  1  0  0  0  0
  6  7  2  0  0  0  0
  7  8  1  0  0  0  0
  7 11  1  0  0  0  0
  8 10  1  0  0  0  0
  8  9  1  0  0  0  0
  8 20  1  0  0  0  0
  9 10  1  0  0  0  0
  9 21  1  0  0  0  0
  9 22  1  0  0  0  0
 10 23  1  0  0  0  0
 10 24  1  0  0  0  0
 12 13  1  0  0  0  0
 12 25  1  0  0  0  0
 13 18  1  0  0  0  0
 13 14  1  0  0  0  0
 13 26  1  0  0  0  0
 14 15  1  0  0  0  0
 14 27  1  0  0  0  0
 14 28  1  0  0  0  0
 15 16  1  0  0  0  0
 15 29  1  0  0  0  0
 15 30  1  0  0  0  0
 16 17  1  0  0  0  0
 16 31  1  0  0  0  0
 16 32  1  0  0  0  0
 17 18  1  0  0  0  0
 17 33  1  0  0  0  0
 17 34  1  0  0  0  0
 18 19  1  0  0  0  0
 18 35  1  0  0  0  0
 19 36  1  0  0  0  0
M  CHG  1   3  -1
M  END
> <s_m_source_file>
AV-unprocessed.smi

> <i_m_source_file_index>
1843

> <i_lp_mmshare_version>
43012

> <i_f3d_flags>
0

> <s_epik_input>
W09IXVtDQEBIXTFbQ0gyXVtDSDJdW0NIMl1bQ0gyXVtDQEhdMVtOSF1DKD1PKVtOSF1jMm5uYyhzMilbQ0hdM1tDSDJdW0NIMl0z

> <s_epik_cmdline>
J2VwaWtfcHl0aG9uJywgJy1waCcsICc3LjAnLCAnLXRuJywgJzgnLCAnLW1hJywgJzIwMCcsICctbWV0YWxfYmluZGluZycsICctaW1hZScsICc8aW5maWxlLm1hZT4nLCAnLW9tYWUnLCAnPG91dGZpbGUubWFlPic=

> <r_lp_tautomer_probability>
1

> <r_epik_Ionization_Penalty>
4.7996

> <r_epik_Ionization_Penalty_Charging>
4.64516

> <r_epik_Ionization_Penalty_Neutral>
0.154442

> <r_epik_State_Penalty>
4.64493

> <r_epik_Charging_Adjusted_Penalty>
9.29009

> <i_epik_Tot_Q>
-1

> <i_epik_Tot_abs_Q>
1

> <r_epik_Metal_State_Penalty>
0.896144

> <b_epik_Metal_Only>
1

> <s_lp_Force_Field>
OPLS_2005

> <r_lp_Energy>
6.98885

> <b_lp_Chiralities_Consistent>
1

> <s_lp_Variant>
AV-unprocessed.smi:1843-5

> <Gold.Version>
5.8.1

> <Gold.Id.Protein>
6NUR|6NUR_protein|mol2

> <Gold.PLP.Fitness>
35.4142

> <Gold.PLP.PLP>
-26.1525

> <Gold.PLP.part.hbond>
-3.0000

> <Gold.PLP.part.metal>
0.0000

> <Gold.PLP.part.buried>
-3.8965

> <Gold.PLP.part.nonpolar>
-20.1901

> <Gold.PLP.part.repulsive>
0.1376

> <Gold.PLP.ligand.clash>
0.0000

> <Gold.PLP.ligand.torsion>
0.8115

> <Gold.PLP.Chemscore.Hbond>
3.5829

> <Gold.PLP.Chemscore.CHOScore>
0.0000

> <Gold.PLP.Chemscore.Metal>
0.0000

> <Gold.Chemscore.Hbonds>
donor molecule, donor type, donor heavy atom, donor atom, acceptor molecule, acceptor atom, score
      L1  H    19    36       P1  7948  1.00
      P1  H  6896  6907       L1     1  0.50
      P1  H 10752 10765       L1     3  1.90

> <Gold.PLP.Chemscore.Internal.Correction>
0.1358

> <Gold.Rescore>
     Score         DG    S(hbond)    S(metal)    S(lipo)     H(rot)  DE(clash)    DE(int)     intcor
     16.21     -16.92       2.65        0.00      59.73       1.72       0.01       0.70       ----

> <Gold.Chemscore.Fitness>
16.2096

> <Gold.Chemscore.DG>
-16.9172

> <Gold.Chemscore.ZeroCoef>
-5.4800

> <Gold.Chemscore.Hbond>
2.6472

> <Gold.Chemscore.Metal>
0.0000

> <Gold.Chemscore.Lipo>
59.7319

> <Gold.Chemscore.Internal_Hbond>
0.0000

> <Gold.Chemscore.DEClash>
0.0095

> <Gold.Chemscore.DEInternal>
0.6981

> <Gold.Chemscore.Rot>
1.7160

> <Gold.Chemscore.Internal.Correction>
   9.000000E+99

> <Gold.Chemscore.Hbonds>
donor molecule, donor type, donor heavy atom, donor atom, acceptor molecule, acceptor atom, score
      L1  H    19    36       P1  7948  0.81
      P1  H  6896  6907       L1     1  0.50
      P1  H 10752 10765       L1     3  0.21

> <Gold.Chemscore.Hbond.Weighted>
-8.8415

> <Gold.Chemscore.Metal.Weighted>
-0.0000

> <Gold.Chemscore.Lipo.Weighted>
-6.9886

> <Gold.Chemscore.Internal_Hbond.Weighted>
0.0000

> <Gold.Chemscore.DEClash.Weighted>
0.0095

> <Gold.Chemscore.DEInternal.Weighted>
0.6981

> <Gold.Chemscore.Rot.Weighted>
4.3930

> <Gold.Chemscore.Internal.Correction.Weighted>
   9.000000E+99

> <Gold.Protein.RotatedTorsions>
[ 6907 6896 6895 6894 ] final  -79.79 input  -60.11 | X-H torsion
[ 7974 7965 7964 7962 ] final   78.97 input  175.53 | X-H torsion
[ 8008 7997 7996 7995 ] final -163.67 input   59.86 | X-H torsion
[ 10167 10162 10161 10158 ] final   30.41 input  -65.29 | X-H torsion
[ 10718 10713 10712 10709 ] final -102.48 input   66.30 | X-H torsion
[ 10763 10752 10751 10750 ] final -132.21 input  -60.55 | X-H torsion
[ 11005 11000 10999 10996 ] final   79.21 input  -57.11 | X-H torsion

> <Gold.Protein.ActiveResidues>
 VAL166  LYS551  ARG553  GLY616  TRP617  ASP618  TYR619  PRO620  LYS621  CYS622 
 ASP623  PHE694  ASN695  SER759  ASP760  ASP761  ALA762  ILE779  LEU786  VAL792 
 PHE793  MET794  SER795  GLU796  ALA797  LYS798  CYS799  TRP800  GLU811  SER814 

> <Gold.Protein.RotatedAtoms>
  150.6942  134.4067  159.5143 H   0  0  0  0  0  0  0  0  0  0  0  0  # atno 6907 bound_to 6896
  152.1832  134.8733  160.0533 H   0  0  0  0  0  0  0  0  0  0  0  0  # atno 6908 bound_to 6896
  151.9716  133.3693  159.4110 H   0  0  0  0  0  0  0  0  0  0  0  0  # atno 6909 bound_to 6896
  145.6703  139.2495  143.1872 H   0  0  0  0  0  0  0  0  0  0  0  0  # atno 7974 bound_to 7965
  155.8247  140.0925  157.1828 H   0  0  0  0  0  0  0  0  0  0  0  0  # atno 8008 bound_to 7997
  154.3979  140.1430  156.3602 H   0  0  0  0  0  0  0  0  0  0  0  0  # atno 8009 bound_to 7997
  155.8230  140.3445  155.5528 H   0  0  0  0  0  0  0  0  0  0  0  0  # atno 8010 bound_to 7997
  140.4680  144.0805  150.6230 H   0  0  0  0  0  0  0  0  0  0  0  0  # atno 10167 bound_to 10162
  156.0230  130.5422  150.7114 H   0  0  0  0  0  0  0  0  0  0  0  0  # atno 10718 bound_to 10713
  154.8745  135.3805  154.4372 H   0  0  0  0  0  0  0  0  0  0  0  0  # atno 10763 bound_to 10752
  153.5060  135.7030  153.5811 H   0  0  0  0  0  0  0  0  0  0  0  0  # atno 10764 bound_to 10752
  153.4122  135.3922  155.2024 H   0  0  0  0  0  0  0  0  0  0  0  0  # atno 10765 bound_to 10752
  139.9181  134.7825  156.1750 H   0  0  0  0  0  0  0  0  0  0  0  0  # atno 11005 bound_to 11000
  146.1051  140.7497  142.9530 LP  0  0  0  0  0  0  0  0  0  0  0  0  # atno 17320 bound_to 7965
  144.7059  140.3849  143.7118 LP  0  0  0  0  0  0  0  0  0  0  0  0  # atno 17321 bound_to 7965
  140.4012  143.2703  151.9946 LP  0  0  0  0  0  0  0  0  0  0  0  0  # atno 17342 bound_to 10162
  139.4814  144.5996  151.7629 LP  0  0  0  0  0  0  0  0  0  0  0  0  # atno 17343 bound_to 10162
  157.4751  131.0897  151.0599 LP  0  0  0  0  0  0  0  0  0  0  0  0  # atno 17370 bound_to 10713
  157.1048  130.5997  149.5468 LP  0  0  0  0  0  0  0  0  0  0  0  0  # atno 17371 bound_to 10713
  141.0677  133.6811  156.2078 LP  0  0  0  0  0  0  0  0  0  0  0  0  # atno 17394 bound_to 11000
  140.6558  134.5020  157.5580 LP  0  0  0  0  0  0  0  0  0  0  0  0  # atno 17395 bound_to 11000

$$$$
