AV-unprocessed.smi:790|AV-procd|sdf|3745|dock1
  -GOLD-   22720 1173D 1   1.00000     0.00000
 Structure written by MMmdl.
 38 40  0  0  0  0  0  0  0  0  1 V2000
  145.3470  137.4276  153.9041 O   0  0  0  0  0  0  0  0  0  0  0  0
  146.3748  137.1358  153.2942 C   0  0  0  0  0  0  0  0  0  0  0  0
  147.4693  137.9095  153.1917 N   0  0  0  0  0  0  0  0  0  0  0  0
  147.7168  139.1963  153.7450 C   0  0  0  0  0  0  0  0  0  0  0  0
  149.0007  139.7159  154.0425 C   0  0  0  0  0  0  0  0  0  0  0  0
  149.1002  141.0061  154.5980 C   0  0  0  0  0  0  0  0  0  0  0  0
  147.9159  141.7279  154.8411 C   0  0  0  0  0  0  0  0  0  0  0  0
  146.6859  141.2424  154.5730 N   0  0  0  0  0  0  0  0  0  0  0  0
  146.5986  140.0050  154.0402 C   0  0  0  0  0  0  0  0  0  0  0  0
  146.5451  135.9763  152.6437 N   0  0  0  0  0  0  0  0  0  0  0  0
  145.5642  134.8958  152.5716 C   0  0  1  0  0  0  0  0  0  0  0  0
  144.2357  135.4115  151.9747 C   0  0  2  0  0  0  0  0  0  0  0  0
  143.1272  134.3901  152.2844 C   0  0  0  0  0  0  0  0  0  0  0  0
  143.4848  133.2192  151.3499 C   0  0  0  0  0  0  0  0  0  0  0  0
  144.7512  133.7267  150.6256 C   0  0  1  0  0  0  0  0  0  0  0  0
  144.4293  135.2077  150.4744 C   0  0  0  0  0  0  0  0  0  0  0  0
  145.9746  133.7833  151.5714 C   0  0  2  0  0  0  0  0  0  0  0  0
  146.3584  132.4361  152.2141 C   0  0  0  0  0  0  0  0  0  0  0  0
  146.6201  131.4747  151.2147 O   0  0  0  0  0  0  0  0  0  0  0  0
  148.2458  137.5046  152.6894 H   0  0  0  0  0  0  0  0  0  0  0  0
  149.9076  139.1590  153.8698 H   0  0  0  0  0  0  0  0  0  0  0  0
  150.0641  141.4315  154.8354 H   0  0  0  0  0  0  0  0  0  0  0  0
  147.9579  142.7197  155.2666 H   0  0  0  0  0  0  0  0  0  0  0  0
  145.5982  139.6494  153.8403 H   0  0  0  0  0  0  0  0  0  0  0  0
  147.4227  135.8222  152.1695 H   0  0  0  0  0  0  0  0  0  0  0  0
  145.3865  134.4943  153.5711 H   0  0  0  0  0  0  0  0  0  0  0  0
  143.9775  136.4282  152.2736 H   0  0  0  0  0  0  0  0  0  0  0  0
  143.1082  134.0975  153.3348 H   0  0  0  0  0  0  0  0  0  0  0  0
  142.1456  134.7940  152.0332 H   0  0  0  0  0  0  0  0  0  0  0  0
  143.6396  132.2845  151.8874 H   0  0  0  0  0  0  0  0  0  0  0  0
  142.6792  133.0502  150.6346 H   0  0  0  0  0  0  0  0  0  0  0  0
  144.9524  133.2086  149.6876 H   0  0  0  0  0  0  0  0  0  0  0  0
  143.5266  135.3988  149.8911 H   0  0  0  0  0  0  0  0  0  0  0  0
  145.2520  135.7918  150.0582 H   0  0  0  0  0  0  0  0  0  0  0  0
  146.8224  134.1212  150.9712 H   0  0  0  0  0  0  0  0  0  0  0  0
  147.2380  132.5300  152.8508 H   0  0  0  0  0  0  0  0  0  0  0  0
  145.5422  132.0676  152.8359 H   0  0  0  0  0  0  0  0  0  0  0  0
  147.5337  131.5256  150.9785 H   0  0  0  0  0  0  0  0  0  0  0  0
  1  2  2  0  0  0  0
  2  3  1  0  0  0  0
  2 10  1  0  0  0  0
  3  4  1  0  0  0  0
  3 20  1  0  0  0  0
  4  9  1  0  0  0  0
  4  5  2  0  0  0  0
  5  6  1  0  0  0  0
  5 21  1  0  0  0  0
  6  7  2  0  0  0  0
  6 22  1  0  0  0  0
  7  8  1  0  0  0  0
  7 23  1  0  0  0  0
  8  9  2  0  0  0  0
  9 24  1  0  0  0  0
 10 11  1  0  0  0  0
 10 25  1  0  0  0  0
 11 17  1  0  0  0  0
 11 12  1  0  0  0  0
 11 26  1  0  0  0  0
 12 16  1  0  0  0  0
 12 13  1  0  0  0  0
 12 27  1  0  0  0  0
 13 14  1  0  0  0  0
 13 28  1  0  0  0  0
 13 29  1  0  0  0  0
 14 15  1  0  0  0  0
 14 30  1  0  0  0  0
 14 31  1  0  0  0  0
 15 16  1  0  0  0  0
 15 17  1  0  0  0  0
 15 32  1  0  0  0  0
 16 33  1  0  0  0  0
 16 34  1  0  0  0  0
 17 18  1  0  0  0  0
 17 35  1  0  0  0  0
 18 19  1  0  0  0  0
 18 36  1  0  0  0  0
 18 37  1  0  0  0  0
 19 38  1  0  0  0  0
M  END
> <s_m_source_file>
AV-unprocessed.smi

> <i_m_source_file_index>
790

> <i_lp_mmshare_version>
43012

> <i_f3d_flags>
0

> <s_epik_input>
W0NIMl0xW0NIMl1bQ0BASF0oW0NIMl0yKVtDQEBIXShbQ0gyXVtPSF0pW0NAQEhdKFtDQEhdMTIpW05IXUMoPU8pW05IXWMzW2NIXVtjSF1bY0hdbltjSF0z

> <s_epik_cmdline>
J2VwaWtfcHl0aG9uJywgJy1waCcsICc3LjAnLCAnLXRuJywgJzgnLCAnLW1hJywgJzIwMCcsICctbWV0YWxfYmluZGluZycsICctaW1hZScsICc8aW5maWxlLm1hZT4nLCAnLW9tYWUnLCAnPG91dGZpbGUubWFlPic=

> <r_epik_Ionization_Penalty>
0.00497582

> <r_epik_Ionization_Penalty_Charging>
0

> <r_epik_Ionization_Penalty_Neutral>
0.00497582

> <r_epik_State_Penalty>
0.00358602

> <r_epik_Charging_Adjusted_Penalty>
0.00358602

> <i_epik_Tot_Q>
0

> <i_epik_Tot_abs_Q>
0

> <r_epik_Metal_State_Penalty>
-0

> <b_epik_Metal_Only>
0

> <s_lp_Force_Field>
OPLS_2005

> <r_lp_Energy>
52.5349

> <b_lp_Chiralities_Consistent>
1

> <s_lp_Variant>
AV-unprocessed.smi:790-6

> <Gold.Version>
5.8.1

> <Gold.Id.Protein>
6NUR|6NUR_protein|mol2

> <Gold.PLP.Fitness>
44.8725

> <Gold.PLP.PLP>
-30.2151

> <Gold.PLP.part.hbond>
-2.9913

> <Gold.PLP.part.metal>
0.0000

> <Gold.PLP.part.buried>
-2.8892

> <Gold.PLP.part.nonpolar>
-25.5700

> <Gold.PLP.part.repulsive>
0.2957

> <Gold.PLP.ligand.clash>
0.0000

> <Gold.PLP.ligand.torsion>
0.1832

> <Gold.PLP.Chemscore.Hbond>
3.0000

> <Gold.PLP.Chemscore.CHOScore>
2.0000

> <Gold.PLP.Chemscore.Metal>
0.0000

> <Gold.Chemscore.Hbonds>
donor molecule, donor type, donor heavy atom, donor atom, acceptor molecule, acceptor atom, score
      L1  H     3    20       P1  7948  1.00
      L1  H    10    25       P1  7948  1.00
      L1  H    19    38       P1 10747  1.00
      L1  C     7    23       P1  8028  1.00
      L1  C     9    24       P1 10175  1.00

> <Gold.PLP.Chemscore.Internal.Correction>
0.0238

> <Gold.Rescore>
     Score         DG    S(hbond)    S(metal)    S(lipo)     H(rot)  DE(clash)    DE(int)     intcor
     16.73     -19.35       2.92        0.00      74.16       1.78       0.15       2.48       ----

> <Gold.Chemscore.Fitness>
16.7254

> <Gold.Chemscore.DG>
-19.3530

> <Gold.Chemscore.ZeroCoef>
-5.4800

> <Gold.Chemscore.Hbond>
2.9188

> <Gold.Chemscore.Metal>
0.0000

> <Gold.Chemscore.Lipo>
74.1603

> <Gold.Chemscore.Internal_Hbond>
0.0000

> <Gold.Chemscore.DEClash>
0.1455

> <Gold.Chemscore.DEInternal>
2.4821

> <Gold.Chemscore.Rot>
1.7783

> <Gold.Chemscore.Internal.Correction>
   9.000000E+99

> <Gold.Chemscore.Hbonds>
donor molecule, donor type, donor heavy atom, donor atom, acceptor molecule, acceptor atom, score
      L1  H     3    20       P1  7948  0.96
      L1  H    10    25       P1  7948  0.95
      L1  H    19    38       P1 10747  0.96

> <Gold.Chemscore.Hbond.Weighted>
-9.7487

> <Gold.Chemscore.Metal.Weighted>
-0.0000

> <Gold.Chemscore.Lipo.Weighted>
-8.6768

> <Gold.Chemscore.Internal_Hbond.Weighted>
0.0000

> <Gold.Chemscore.DEClash.Weighted>
0.1455

> <Gold.Chemscore.DEInternal.Weighted>
2.4821

> <Gold.Chemscore.Rot.Weighted>
4.5525

> <Gold.Chemscore.Internal.Correction.Weighted>
   9.000000E+99

> <Gold.Protein.RotatedTorsions>
[ 6907 6896 6895 6894 ] final  127.80 input  -60.11 | X-H torsion
[ 7974 7965 7964 7962 ] final   37.98 input  175.53 | X-H torsion
[ 8008 7997 7996 7995 ] final -147.90 input   59.86 | X-H torsion
[ 10167 10162 10161 10158 ] final  147.48 input  -65.29 | X-H torsion
[ 10718 10713 10712 10709 ] final  144.09 input   66.30 | X-H torsion
[ 10763 10752 10751 10750 ] final  -83.91 input  -60.55 | X-H torsion
[ 11005 11000 10999 10996 ] final -108.73 input  -57.11 | X-H torsion

> <Gold.Protein.ActiveResidues>
 VAL166  LYS551  ARG553  GLY616  TRP617  ASP618  TYR619  PRO620  LYS621  CYS622 
 ASP623  PHE694  ASN695  SER759  ASP760  ASP761  ALA762  ILE779  LEU786  VAL792 
 PHE793  MET794  SER795  GLU796  ALA797  LYS798  CYS799  TRP800  GLU811  SER814 

> <Gold.Protein.RotatedAtoms>
  152.3779  133.6506  159.6137 H   0  0  0  0  0  0  0  0  0  0  0  0  # atno 6907 bound_to 6896
  150.7718  133.9163  159.3393 H   0  0  0  0  0  0  0  0  0  0  0  0  # atno 6908 bound_to 6896
  151.6974  135.0937  160.0296 H   0  0  0  0  0  0  0  0  0  0  0  0  # atno 6909 bound_to 6896
  146.1097  139.5828  142.9360 H   0  0  0  0  0  0  0  0  0  0  0  0  # atno 7974 bound_to 7965
  155.5830  140.0645  157.2778 H   0  0  0  0  0  0  0  0  0  0  0  0  # atno 8008 bound_to 7997
  154.4327  140.1848  156.1043 H   0  0  0  0  0  0  0  0  0  0  0  0  # atno 8009 bound_to 7997
  156.0290  140.3308  155.7123 H   0  0  0  0  0  0  0  0  0  0  0  0  # atno 8010 bound_to 7997
  139.4889  144.5752  151.6978 H   0  0  0  0  0  0  0  0  0  0  0  0  # atno 10167 bound_to 10162
  157.3612  131.0965  151.0913 H   0  0  0  0  0  0  0  0  0  0  0  0  # atno 10718 bound_to 10713
  154.5933  135.5539  153.7300 H   0  0  0  0  0  0  0  0  0  0  0  0  # atno 10763 bound_to 10752
  153.0125  135.6348  154.1818 H   0  0  0  0  0  0  0  0  0  0  0  0  # atno 10764 bound_to 10752
  154.1759  135.2889  155.3047 H   0  0  0  0  0  0  0  0  0  0  0  0  # atno 10765 bound_to 10752
  141.0886  133.9095  157.2129 H   0  0  0  0  0  0  0  0  0  0  0  0  # atno 11005 bound_to 11000
  145.5689  141.0396  143.2185 LP  0  0  0  0  0  0  0  0  0  0  0  0  # atno 17320 bound_to 7965
  144.7501  139.7217  143.7276 LP  0  0  0  0  0  0  0  0  0  0  0  0  # atno 17321 bound_to 7965
  140.5347  144.0674  150.6066 LP  0  0  0  0  0  0  0  0  0  0  0  0  # atno 17342 bound_to 10162
  140.3676  143.2872  152.0314 LP  0  0  0  0  0  0  0  0  0  0  0  0  # atno 17343 bound_to 10162
  157.2052  130.6413  149.5753 LP  0  0  0  0  0  0  0  0  0  0  0  0  # atno 17370 bound_to 10713
  155.9738  130.4678  150.6337 LP  0  0  0  0  0  0  0  0  0  0  0  0  # atno 17371 bound_to 10713
  139.9708  135.0129  156.9506 LP  0  0  0  0  0  0  0  0  0  0  0  0  # atno 17394 bound_to 11000
  140.5306  134.0817  155.7315 LP  0  0  0  0  0  0  0  0  0  0  0  0  # atno 17395 bound_to 11000

$$$$
