AV-unprocessed.smi:1835|AV-procd|sdf|7473|dock5
  -GOLD-   22720 9163D 1   1.00000     0.00000
 Structure written by MMmdl.
 41 42  0  0  0  0  0  0  0  0  1 V2000
  147.0690  140.9523  153.1762 C   0  0  0  0  0  0  0  0  0  0  0  0
  147.0908  141.6419  154.5648 C   0  0  2  0  0  0  0  0  0  0  0  0
  147.5973  140.6239  155.6238 C   0  0  0  0  0  0  0  0  0  0  0  0
  149.0195  140.7802  155.9076 N   0  0  0  0  0  0  0  0  0  0  0  0
  149.5193  141.4503  156.9552 C   0  0  0  0  0  0  0  0  0  0  0  0
  148.8123  142.0159  157.7908 O   0  0  0  0  0  0  0  0  0  0  0  0
  151.0515  141.4915  157.0510 C   0  0  0  0  0  0  0  0  0  0  0  0
  151.5529  142.3421  158.1431 N   0  0  0  0  0  0  0  0  0  0  0  0
  151.3308  143.7289  158.0271 C   0  0  0  0  0  0  0  0  0  0  0  0
  151.7479  144.5956  158.9633 C   0  0  0  0  0  0  0  0  0  0  0  0
  152.4441  144.0731  160.1151 C   0  0  0  0  0  0  0  0  0  0  0  0
  152.6568  142.7479  160.2389 C   0  0  0  0  0  0  0  0  0  0  0  0
  152.1982  141.7961  159.2200 C   0  0  0  0  0  0  0  0  0  0  0  0
  152.3841  140.5837  159.3276 O   0  0  0  0  0  0  0  0  0  0  0  0
  145.7894  142.2599  154.9120 N   0  0  0  0  0  0  0  0  0  0  0  0
  145.5706  143.5315  154.2119 C   0  0  0  0  0  0  0  0  0  0  0  0
  144.2351  144.1986  154.5831 C   0  0  0  0  0  0  0  0  0  0  0  0
  144.1774  144.4017  155.9878 O   0  0  0  0  0  0  0  0  0  0  0  0
  144.3030  143.1830  156.7067 C   0  0  0  0  0  0  0  0  0  0  0  0
  145.6377  142.5044  156.3514 C   0  0  0  0  0  0  0  0  0  0  0  0
  148.0085  140.4539  152.9403 H   0  0  0  0  0  0  0  0  0  0  0  0
  146.9149  141.6614  152.3641 H   0  0  0  0  0  0  0  0  0  0  0  0
  146.2795  140.2018  153.1227 H   0  0  0  0  0  0  0  0  0  0  0  0
  147.8352  142.4380  154.5134 H   0  0  0  0  0  0  0  0  0  0  0  0
  147.0844  140.7544  156.5758 H   0  0  0  0  0  0  0  0  0  0  0  0
  147.4029  139.6034  155.2895 H   0  0  0  0  0  0  0  0  0  0  0  0
  149.6654  140.3450  155.2651 H   0  0  0  0  0  0  0  0  0  0  0  0
  151.4294  140.4734  157.1626 H   0  0  0  0  0  0  0  0  0  0  0  0
  151.4437  141.8361  156.0930 H   0  0  0  0  0  0  0  0  0  0  0  0
  150.7977  144.0369  157.1394 H   0  0  0  0  0  0  0  0  0  0  0  0
  151.5644  145.6550  158.8593 H   0  0  0  0  0  0  0  0  0  0  0  0
  152.7953  144.7480  160.8815 H   0  0  0  0  0  0  0  0  0  0  0  0
  153.1785  142.3753  161.1081 H   0  0  0  0  0  0  0  0  0  0  0  0
  146.3894  144.2191  154.4296 H   0  0  0  0  0  0  0  0  0  0  0  0
  145.5622  143.3814  153.1340 H   0  0  0  0  0  0  0  0  0  0  0  0
  144.1414  145.1617  154.0812 H   0  0  0  0  0  0  0  0  0  0  0  0
  143.3929  143.5850  154.2594 H   0  0  0  0  0  0  0  0  0  0  0  0
  144.2599  143.3948  157.7751 H   0  0  0  0  0  0  0  0  0  0  0  0
  143.4620  142.5271  156.4761 H   0  0  0  0  0  0  0  0  0  0  0  0
  145.6696  141.5687  156.9057 H   0  0  0  0  0  0  0  0  0  0  0  0
  146.4642  143.1181  156.7125 H   0  0  0  0  0  0  0  0  0  0  0  0
  1  2  1  0  0  0  0
  1 21  1  0  0  0  0
  1 22  1  0  0  0  0
  1 23  1  0  0  0  0
  2  3  1  0  0  0  0
  2 15  1  0  0  0  0
  2 24  1  0  0  0  0
  3  4  1  0  0  0  0
  3 25  1  0  0  0  0
  3 26  1  0  0  0  0
  4  5  1  0  0  0  0
  4 27  1  0  0  0  0
  5  6  2  0  0  0  0
  5  7  1  0  0  0  0
  7  8  1  0  0  0  0
  7 28  1  0  0  0  0
  7 29  1  0  0  0  0
  8 13  1  0  0  0  0
  8  9  1  0  0  0  0
  9 10  2  0  0  0  0
  9 30  1  0  0  0  0
 10 11  1  0  0  0  0
 10 31  1  0  0  0  0
 11 12  2  0  0  0  0
 11 32  1  0  0  0  0
 12 13  1  0  0  0  0
 12 33  1  0  0  0  0
 13 14  2  0  0  0  0
 15 20  1  0  0  0  0
 15 16  1  0  0  0  0
 16 17  1  0  0  0  0
 16 34  1  0  0  0  0
 16 35  1  0  0  0  0
 17 18  1  0  0  0  0
 17 36  1  0  0  0  0
 17 37  1  0  0  0  0
 18 19  1  0  0  0  0
 19 20  1  0  0  0  0
 19 38  1  0  0  0  0
 19 39  1  0  0  0  0
 20 40  1  0  0  0  0
 20 41  1  0  0  0  0
M  END
> <s_m_source_file>
AV-unprocessed.smi

> <i_m_source_file_index>
1835

> <i_lp_mmshare_version>
43012

> <i_f3d_flags>
0

> <s_epik_input>
W0NIMl0xW0NIMl1PW0NIMl1bQ0gyXU4xW0NASF0oW0NIM10pW0NIMl1bTkhdQyg9TylbQ0gyXW4yW2NIXVtjSF1bY0hdW2NIXWMyPU8=

> <s_epik_cmdline>
J2VwaWtfcHl0aG9uJywgJy1waCcsICc3LjAnLCAnLXRuJywgJzgnLCAnLW1hJywgJzIwMCcsICctbWV0YWxfYmluZGluZycsICctaW1hZScsICc8aW5maWxlLm1hZT4nLCAnLW9tYWUnLCAnPG91dGZpbGUubWFlPic=

> <r_lp_tautomer_probability>
1

> <r_epik_Ionization_Penalty>
0.237383

> <r_epik_Ionization_Penalty_Charging>
3.58805e-07

> <r_epik_Ionization_Penalty_Neutral>
0.237382

> <r_epik_State_Penalty>
0.228245

> <r_epik_Charging_Adjusted_Penalty>
0.228245

> <i_epik_Tot_Q>
0

> <i_epik_Tot_abs_Q>
0

> <r_epik_Metal_State_Penalty>
0.22822

> <b_epik_Metal_Only>
0

> <s_lp_Force_Field>
OPLS_2005

> <r_lp_Energy>
38.378

> <b_lp_Chiralities_Consistent>
1

> <s_lp_Variant>
AV-unprocessed.smi:1835-1

> <Gold.Version>
5.8.1

> <Gold.Id.Protein>
6NUR|6NUR_protein|mol2

> <Gold.PLP.Fitness>
39.7884

> <Gold.PLP.PLP>
-39.1260

> <Gold.PLP.part.hbond>
0.0000

> <Gold.PLP.part.metal>
0.0000

> <Gold.PLP.part.buried>
-5.9436

> <Gold.PLP.part.nonpolar>
-34.3557

> <Gold.PLP.part.repulsive>
0.6502

> <Gold.PLP.ligand.clash>
0.0000

> <Gold.PLP.ligand.torsion>
1.1982

> <Gold.PLP.Chemscore.Hbond>
0.0000

> <Gold.PLP.Chemscore.CHOScore>
1.0000

> <Gold.PLP.Chemscore.Metal>
0.0000

> <Gold.Chemscore.Hbonds>
donor molecule, donor type, donor heavy atom, donor atom, acceptor molecule, acceptor atom, score
      L1  C     9    30       P1  8028  1.00

> <Gold.PLP.Chemscore.Internal.Correction>
0.0587

> <Gold.Rescore>
     Score         DG    S(hbond)    S(metal)    S(lipo)     H(rot)  DE(clash)    DE(int)     intcor
     10.55     -11.83       0.00        0.00      95.59       1.89       0.20       1.08       ----

> <Gold.Chemscore.Fitness>
10.5522

> <Gold.Chemscore.DG>
-11.8301

> <Gold.Chemscore.ZeroCoef>
-5.4800

> <Gold.Chemscore.Hbond>
0.0000

> <Gold.Chemscore.Metal>
0.0000

> <Gold.Chemscore.Lipo>
95.5891

> <Gold.Chemscore.Internal_Hbond>
0.0000

> <Gold.Chemscore.DEClash>
0.1992

> <Gold.Chemscore.DEInternal>
1.0788

> <Gold.Chemscore.Rot>
1.8882

> <Gold.Chemscore.Internal.Correction>
   9.000000E+99

> <Gold.Chemscore.Hbond.Weighted>
-0.0000

> <Gold.Chemscore.Metal.Weighted>
-0.0000

> <Gold.Chemscore.Lipo.Weighted>
-11.1839

> <Gold.Chemscore.Internal_Hbond.Weighted>
0.0000

> <Gold.Chemscore.DEClash.Weighted>
0.1992

> <Gold.Chemscore.DEInternal.Weighted>
1.0788

> <Gold.Chemscore.Rot.Weighted>
4.8338

> <Gold.Chemscore.Internal.Correction.Weighted>
   9.000000E+99

> <Gold.Protein.RotatedTorsions>
[ 6907 6896 6895 6894 ] final  -79.33 input  -60.11 | X-H torsion
[ 7974 7965 7964 7962 ] final -102.67 input  175.53 | X-H torsion
[ 8008 7997 7996 7995 ] final -115.67 input   59.86 | X-H torsion
[ 10167 10162 10161 10158 ] final  -95.47 input  -65.29 | X-H torsion
[ 10718 10713 10712 10709 ] final   57.95 input   66.30 | X-H torsion
[ 10763 10752 10751 10750 ] final   45.79 input  -60.55 | X-H torsion
[ 11005 11000 10999 10996 ] final  129.70 input  -57.11 | X-H torsion

> <Gold.Protein.ActiveResidues>
 VAL166  LYS551  ARG553  GLY616  TRP617  ASP618  TYR619  PRO620  LYS621  CYS622 
 ASP623  PHE694  ASN695  SER759  ASP760  ASP761  ALA762  ILE779  LEU786  VAL792 
 PHE793  MET794  SER795  GLU796  ALA797  LYS798  CYS799  TRP800  GLU811  SER814 

> <Gold.Protein.RotatedAtoms>
  150.6952  134.4138  159.5173 H   0  0  0  0  0  0  0  0  0  0  0  0  # atno 6907 bound_to 6896
  152.1892  134.8684  160.0528 H   0  0  0  0  0  0  0  0  0  0  0  0  # atno 6908 bound_to 6896
  151.9646  133.3671  159.4085 H   0  0  0  0  0  0  0  0  0  0  0  0  # atno 6909 bound_to 6896
  145.2658  140.9283  143.3015 H   0  0  0  0  0  0  0  0  0  0  0  0  # atno 7974 bound_to 7965
  155.0556  140.0393  157.2559 H   0  0  0  0  0  0  0  0  0  0  0  0  # atno 8008 bound_to 7997
  154.7101  140.2691  155.6613 H   0  0  0  0  0  0  0  0  0  0  0  0  # atno 8009 bound_to 7997
  156.2787  140.2723  156.1740 H   0  0  0  0  0  0  0  0  0  0  0  0  # atno 8010 bound_to 7997
  140.3038  143.3146  152.0220 H   0  0  0  0  0  0  0  0  0  0  0  0  # atno 10167 bound_to 10162
  157.5556  130.8798  149.9031 H   0  0  0  0  0  0  0  0  0  0  0  0  # atno 10718 bound_to 10713
  152.9819  135.6028  154.3494 H   0  0  0  0  0  0  0  0  0  0  0  0  # atno 10763 bound_to 10752
  154.3185  135.2770  155.2533 H   0  0  0  0  0  0  0  0  0  0  0  0  # atno 10764 bound_to 10752
  154.4710  135.5941  153.6377 H   0  0  0  0  0  0  0  0  0  0  0  0  # atno 10765 bound_to 10752
  139.9630  134.9597  156.9187 H   0  0  0  0  0  0  0  0  0  0  0  0  # atno 11005 bound_to 11000
  144.9379  139.4223  143.6463 LP  0  0  0  0  0  0  0  0  0  0  0  0  # atno 17320 bound_to 7965
  146.3262  139.8323  142.8906 LP  0  0  0  0  0  0  0  0  0  0  0  0  # atno 17321 bound_to 7965
  139.4909  144.6436  151.6826 LP  0  0  0  0  0  0  0  0  0  0  0  0  # atno 17342 bound_to 10162
  140.5627  144.0241  150.6177 LP  0  0  0  0  0  0  0  0  0  0  0  0  # atno 17343 bound_to 10162
  156.0615  130.3699  150.0971 LP  0  0  0  0  0  0  0  0  0  0  0  0  # atno 17370 bound_to 10713
  156.9139  130.9661  151.3559 LP  0  0  0  0  0  0  0  0  0  0  0  0  # atno 17371 bound_to 10713
  140.5457  134.0676  155.7354 LP  0  0  0  0  0  0  0  0  0  0  0  0  # atno 17394 bound_to 11000
  141.1309  133.9304  157.2538 LP  0  0  0  0  0  0  0  0  0  0  0  0  # atno 17395 bound_to 11000

$$$$
