AV-unprocessed.smi:3150|AV-procd|sdf|12012|dock10
  -GOLD-   2272017423D 1   1.00000     0.00000
 Structure written by MMmdl.
 32 33  0  0  0  0  0  0  0  0  2 V2000
  153.9954  137.4790  159.5848 C   0  0  0  0  0  0  0  0  0  0  0  0
  153.1846  138.5117  160.3793 C   0  0  1  0  0  0  0  0  0  0  0  0
  153.3125  138.1956  161.7635 O   0  0  0  0  0  0  0  0  0  0  0  0
  152.7983  136.9238  162.1393 C   0  0  0  0  0  0  0  0  0  0  0  0
  152.8848  136.7895  163.6442 C   0  0  0  0  0  0  0  0  0  0  0  0
  154.1330  137.2199  164.3807 C   0  0  0  0  0  0  0  0  0  0  0  0
  153.7912  135.7557  164.2725 C   0  0  0  0  0  0  0  0  0  0  0  0
  153.6976  139.9350  160.1016 C   0  0  0  0  0  0  0  0  0  0  0  0
  154.6074  140.0848  159.2811 O   0  0  0  0  0  0  0  0  0  0  0  0
  153.0225  140.8877  160.8602 N   0  0  0  0  0  0  0  0  0  0  0  0
  152.7746  142.0994  160.4426 C   0  0  0  0  0  0  0  0  0  0  0  0
  153.1656  142.5765  159.1794 N   0  0  0  0  0  0  0  0  0  0  0  0
  152.9043  143.8589  158.7455 C   0  0  0  0  0  0  0  0  0  0  0  0
  152.2528  144.7355  159.5115 C   0  0  0  0  0  0  0  0  0  0  0  0
  151.8128  144.3225  160.8281 C   0  0  0  0  0  0  0  0  0  0  0  0
  152.0503  143.0345  161.3225 C   0  0  0  0  0  0  0  0  0  0  0  0
  151.6524  142.7215  162.4686 O   0  5  0  0  0  0  0  0  0  0  0  0
  153.9280  137.6636  158.5120 H   0  0  0  0  0  0  0  0  0  0  0  0
  153.6232  136.4708  159.7690 H   0  0  0  0  0  0  0  0  0  0  0  0
  155.0497  137.4982  159.8634 H   0  0  0  0  0  0  0  0  0  0  0  0
  152.1353  138.4224  160.0896 H   0  0  0  0  0  0  0  0  0  0  0  0
  151.7619  136.7987  161.8230 H   0  0  0  0  0  0  0  0  0  0  0  0
  153.3859  136.1283  161.6795 H   0  0  0  0  0  0  0  0  0  0  0  0
  151.9432  136.9767  164.1571 H   0  0  0  0  0  0  0  0  0  0  0  0
  154.9711  137.5844  163.7897 H   0  0  0  0  0  0  0  0  0  0  0  0
  154.0042  137.6966  165.3503 H   0  0  0  0  0  0  0  0  0  0  0  0
  153.4332  135.2539  165.1692 H   0  0  0  0  0  0  0  0  0  0  0  0
  154.3978  135.1444  163.6071 H   0  0  0  0  0  0  0  0  0  0  0  0
  153.2668  144.0848  157.7537 H   0  0  0  0  0  0  0  0  0  0  0  0
  152.0569  145.7365  159.1566 H   0  0  0  0  0  0  0  0  0  0  0  0
  151.2857  145.0410  161.4395 H   0  0  0  0  0  0  0  0  0  0  0  0
  153.6639  141.9804  158.5352 H   0  0  0  0  0  0  0  0  0  0  0  0
  1  2  1  0  0  0  0
  1 18  1  0  0  0  0
  1 19  1  0  0  0  0
  1 20  1  0  0  0  0
  2  3  1  0  0  0  0
  2  8  1  0  0  0  0
  2 21  1  0  0  0  0
  3  4  1  0  0  0  0
  4  5  1  0  0  0  0
  4 22  1  0  0  0  0
  4 23  1  0  0  0  0
  5  7  1  0  0  0  0
  5  6  1  0  0  0  0
  5 24  1  0  0  0  0
  6  7  1  0  0  0  0
  6 25  1  0  0  0  0
  6 26  1  0  0  0  0
  7 27  1  0  0  0  0
  7 28  1  0  0  0  0
  8  9  2  0  0  0  0
  8 10  1  0  0  0  0
 10 11  2  0  0  0  0
 11 16  1  0  0  0  0
 11 12  1  0  0  0  0
 12 32  1  0  0  0  0
 12 13  1  0  0  0  0
 13 29  1  0  0  0  0
 13 14  2  0  0  0  0
 14 30  1  0  0  0  0
 14 15  1  0  0  0  0
 15 16  2  0  0  0  0
 15 31  1  0  0  0  0
 16 17  1  0  0  0  0
M  CHG  1  17  -1
M  END
> <s_m_source_file>
AV-unprocessed.smi

> <i_m_source_file_index>
3150

> <i_lp_mmshare_version>
43012

> <i_f3d_flags>
0

> <s_epik_input>
W0NIMl0xW0NIMl1bQ0hdMVtDSDJdT1tDQEBIXShbQ0gzXSlDKD1PKVtOSF1jMm5bY0hdW2NIXVtjSF1jMltPSF0=

> <s_epik_cmdline>
J2VwaWtfcHl0aG9uJywgJy1waCcsICc3LjAnLCAnLXRuJywgJzgnLCAnLW1hJywgJzIwMCcsICctbWV0YWxfYmluZGluZycsICctaW1hZScsICc8aW5maWxlLm1hZT4nLCAnLW9tYWUnLCAnPG91dGZpbGUubWFlPic=

> <r_epik_Ionization_Penalty>
0.784632

> <r_epik_Ionization_Penalty_Charging>
0.784632

> <r_epik_Ionization_Penalty_Neutral>
7.02258e-13

> <r_epik_State_Penalty>
1.43154

> <r_epik_Charging_Adjusted_Penalty>
2.21617

> <i_epik_Tot_Q>
-1

> <i_epik_Tot_abs_Q>
1

> <r_epik_Metal_State_Penalty>
1.39244

> <b_epik_Metal_Only>
0

> <s_lp_Force_Field>
OPLS_2005

> <r_lp_Energy>
45.381

> <b_lp_Chiralities_Consistent>
1

> <s_lp_Variant>
AV-unprocessed.smi:3150-6

> <Gold.Version>
5.8.1

> <Gold.Id.Protein>
6NUR|6NUR_protein|mol2

> <Gold.PLP.Fitness>
43.1206

> <Gold.PLP.PLP>
-35.2757

> <Gold.PLP.part.hbond>
-2.0000

> <Gold.PLP.part.metal>
0.0000

> <Gold.PLP.part.buried>
-4.3020

> <Gold.PLP.part.nonpolar>
-33.1461

> <Gold.PLP.part.repulsive>
2.8346

> <Gold.PLP.ligand.clash>
0.0000

> <Gold.PLP.ligand.torsion>
0.6790

> <Gold.PLP.Chemscore.Hbond>
2.8800

> <Gold.PLP.Chemscore.CHOScore>
0.0000

> <Gold.PLP.Chemscore.Metal>
0.0000

> <Gold.Chemscore.Hbonds>
donor molecule, donor type, donor heavy atom, donor atom, acceptor molecule, acceptor atom, score
      P1  H  6933  6945       L1    17  2.00
      P1  H  7997  8009       L1     9  0.91

> <Gold.PLP.Chemscore.Internal.Correction>
0.5631

> <Gold.Rescore>
     Score         DG    S(hbond)    S(metal)    S(lipo)     H(rot)  DE(clash)    DE(int)     intcor
     15.76     -17.70       1.60        0.00      94.60       1.64       1.27       0.67       ----

> <Gold.Chemscore.Fitness>
15.7593

> <Gold.Chemscore.DG>
-17.6986

> <Gold.Chemscore.ZeroCoef>
-5.4800

> <Gold.Chemscore.Hbond>
1.6006

> <Gold.Chemscore.Metal>
0.0000

> <Gold.Chemscore.Lipo>
94.5963

> <Gold.Chemscore.Internal_Hbond>
0.0000

> <Gold.Chemscore.DEClash>
1.2698

> <Gold.Chemscore.DEInternal>
0.6694

> <Gold.Chemscore.Rot>
1.6387

> <Gold.Chemscore.Internal.Correction>
   9.000000E+99

> <Gold.Chemscore.Hbonds>
donor molecule, donor type, donor heavy atom, donor atom, acceptor molecule, acceptor atom, score
      P1  H  6933  6945       L1    17  0.58
      P1  H  7997  8009       L1     9  0.84

> <Gold.Chemscore.Hbond.Weighted>
-5.3459

> <Gold.Chemscore.Metal.Weighted>
-0.0000

> <Gold.Chemscore.Lipo.Weighted>
-11.0678

> <Gold.Chemscore.Internal_Hbond.Weighted>
0.0000

> <Gold.Chemscore.DEClash.Weighted>
1.2698

> <Gold.Chemscore.DEInternal.Weighted>
0.6694

> <Gold.Chemscore.Rot.Weighted>
4.1950

> <Gold.Chemscore.Internal.Correction.Weighted>
   9.000000E+99

> <Gold.Protein.RotatedTorsions>
[ 6907 6896 6895 6894 ] final  178.94 input  -60.11 | X-H torsion
[ 7974 7965 7964 7962 ] final -148.34 input  175.53 | X-H torsion
[ 8008 7997 7996 7995 ] final  109.05 input   59.86 | X-H torsion
[ 10167 10162 10161 10158 ] final  -60.33 input  -65.29 | X-H torsion
[ 10718 10713 10712 10709 ] final   48.80 input   66.30 | X-H torsion
[ 10763 10752 10751 10750 ] final   90.23 input  -60.55 | X-H torsion
[ 11005 11000 10999 10996 ] final -110.82 input  -57.11 | X-H torsion

> <Gold.Protein.ActiveResidues>
 VAL166  LYS551  ARG553  GLY616  TRP617  ASP618  TYR619  PRO620  LYS621  CYS622 
 ASP623  PHE694  ASN695  SER759  ASP760  ASP761  ALA762  ILE779  LEU786  VAL792 
 PHE793  MET794  SER795  GLU796  ALA797  LYS798  CYS799  TRP800  GLU811  SER814 

> <Gold.Protein.RotatedAtoms>
  151.6797  133.3312  159.3216 H   0  0  0  0  0  0  0  0  0  0  0  0  # atno 6907 bound_to 6896
  150.7829  134.6792  159.6444 H   0  0  0  0  0  0  0  0  0  0  0  0  # atno 6908 bound_to 6896
  152.3891  134.6474  160.0166 H   0  0  0  0  0  0  0  0  0  0  0  0  # atno 6909 bound_to 6896
  144.8036  140.5209  143.5690 H   0  0  0  0  0  0  0  0  0  0  0  0  # atno 7974 bound_to 7965
  156.1950  140.3065  155.9409 H   0  0  0  0  0  0  0  0  0  0  0  0  # atno 8008 bound_to 7997
  155.3087  140.0450  157.3050 H   0  0  0  0  0  0  0  0  0  0  0  0  # atno 8009 bound_to 7997
  154.5498  140.2288  155.8512 H   0  0  0  0  0  0  0  0  0  0  0  0  # atno 8010 bound_to 7997
  140.6078  143.2378  151.5780 H   0  0  0  0  0  0  0  0  0  0  0  0  # atno 10167 bound_to 10162
  157.4723  130.8263  149.8001 H   0  0  0  0  0  0  0  0  0  0  0  0  # atno 10718 bound_to 10713
  153.1954  135.4441  155.0201 H   0  0  0  0  0  0  0  0  0  0  0  0  # atno 10763 bound_to 10752
  154.8115  135.3297  154.7293 H   0  0  0  0  0  0  0  0  0  0  0  0  # atno 10764 bound_to 10752
  153.7743  135.6982  153.4956 H   0  0  0  0  0  0  0  0  0  0  0  0  # atno 10765 bound_to 10752
  141.0770  133.9285  157.2369 H   0  0  0  0  0  0  0  0  0  0  0  0  # atno 11005 bound_to 11000
  145.5493  139.1476  143.3403 LP  0  0  0  0  0  0  0  0  0  0  0  0  # atno 17320 bound_to 7965
  146.2322  140.5632  142.8970 LP  0  0  0  0  0  0  0  0  0  0  0  0  # atno 17321 bound_to 7965
  139.5338  144.2839  152.1207 LP  0  0  0  0  0  0  0  0  0  0  0  0  # atno 17342 bound_to 10162
  140.2032  144.4637  150.6421 LP  0  0  0  0  0  0  0  0  0  0  0  0  # atno 17343 bound_to 10162
  156.0079  130.3846  150.2365 LP  0  0  0  0  0  0  0  0  0  0  0  0  # atno 17370 bound_to 10713
  157.0548  131.0073  151.3242 LP  0  0  0  0  0  0  0  0  0  0  0  0  # atno 17371 bound_to 10713
  139.9582  135.0160  156.9188 LP  0  0  0  0  0  0  0  0  0  0  0  0  # atno 17394 bound_to 11000
  140.5552  134.0588  155.7381 LP  0  0  0  0  0  0  0  0  0  0  0  0  # atno 17395 bound_to 11000

$$$$
