AV-unprocessed.smi:2453|AV-procd|sdf|9687|dock1
  -GOLD-   2272013323D 1   1.00000     0.00000
 Structure written by MMmdl.
 40 41  0  0  0  0  0  0  0  0  1 V2000
  146.6604  142.8494  155.0677 C   0  0  0  0  0  0  0  0  0  0  0  0
  147.4093  141.6806  154.4515 C   0  0  0  0  0  0  0  0  0  0  0  0
  146.8360  140.9643  153.3788 C   0  0  0  0  0  0  0  0  0  0  0  0
  147.4361  139.9186  152.7744 N   0  0  0  0  0  0  0  0  0  0  0  0
  148.6524  139.5468  153.2229 C   0  0  0  0  0  0  0  0  0  0  0  0
  149.3168  140.1896  154.2852 C   0  0  0  0  0  0  0  0  0  0  0  0
  148.6800  141.2778  154.9296 C   0  0  0  0  0  0  0  0  0  0  0  0
  149.2754  142.0106  155.9953 N   0  0  0  0  0  0  0  0  0  0  0  0
  150.4189  141.7584  156.6552 C   0  0  0  0  0  0  0  0  0  0  0  0
  151.1423  140.7784  156.4772 O   0  0  0  0  0  0  0  0  0  0  0  0
  150.6732  142.7161  157.5591 N   0  0  0  0  0  0  0  0  0  0  0  0
  151.8343  142.7738  158.4474 C   0  0  2  0  0  0  0  0  0  0  0  0
  152.0974  141.3609  159.0062 C   0  0  0  0  0  0  0  0  0  0  0  0
  153.2637  141.3500  160.0034 C   0  0  0  0  0  0  0  0  0  0  0  0
  153.0173  142.3487  161.1409 C   0  0  0  0  0  0  0  0  0  0  0  0
  152.7780  143.7617  160.5895 C   0  0  0  0  0  0  0  0  0  0  0  0
  151.6050  143.8062  159.5833 C   0  0  1  0  0  0  0  0  0  0  0  0
  151.3990  145.2374  159.0380 C   0  0  0  0  0  0  0  0  0  0  0  0
  151.5358  146.1940  160.0680 O   0  0  0  0  0  0  0  0  0  0  0  0
  145.6950  143.0017  154.5842 H   0  0  0  0  0  0  0  0  0  0  0  0
  147.2377  143.7683  154.9641 H   0  0  0  0  0  0  0  0  0  0  0  0
  146.4815  142.6701  156.1281 H   0  0  0  0  0  0  0  0  0  0  0  0
  145.8661  141.2382  152.9902 H   0  0  0  0  0  0  0  0  0  0  0  0
  149.1159  138.7148  152.7135 H   0  0  0  0  0  0  0  0  0  0  0  0
  150.2991  139.8466  154.5707 H   0  0  0  0  0  0  0  0  0  0  0  0
  148.7418  142.8027  156.3223 H   0  0  0  0  0  0  0  0  0  0  0  0
  150.0151  143.4781  157.6337 H   0  0  0  0  0  0  0  0  0  0  0  0
  152.7207  143.0824  157.8901 H   0  0  0  0  0  0  0  0  0  0  0  0
  151.2000  140.9848  159.4999 H   0  0  0  0  0  0  0  0  0  0  0  0
  152.3105  140.6709  158.1887 H   0  0  0  0  0  0  0  0  0  0  0  0
  153.3969  140.3473  160.4103 H   0  0  0  0  0  0  0  0  0  0  0  0
  154.1913  141.6013  159.4873 H   0  0  0  0  0  0  0  0  0  0  0  0
  152.1538  142.0327  161.7277 H   0  0  0  0  0  0  0  0  0  0  0  0
  153.8693  142.3545  161.8211 H   0  0  0  0  0  0  0  0  0  0  0  0
  152.5872  144.4392  161.4225 H   0  0  0  0  0  0  0  0  0  0  0  0
  153.6888  144.1196  160.1072 H   0  0  0  0  0  0  0  0  0  0  0  0
  150.6968  143.5166  160.1152 H   0  0  0  0  0  0  0  0  0  0  0  0
  152.1141  145.4552  158.2441 H   0  0  0  0  0  0  0  0  0  0  0  0
  150.4036  145.3610  158.6123 H   0  0  0  0  0  0  0  0  0  0  0  0
  151.4661  145.7516  160.9002 H   0  0  0  0  0  0  0  0  0  0  0  0
  1  2  1  0  0  0  0
  1 20  1  0  0  0  0
  1 21  1  0  0  0  0
  1 22  1  0  0  0  0
  2  7  1  0  0  0  0
  2  3  2  0  0  0  0
  3  4  1  0  0  0  0
  3 23  1  0  0  0  0
  4  5  2  0  0  0  0
  5  6  1  0  0  0  0
  5 24  1  0  0  0  0
  6  7  2  0  0  0  0
  6 25  1  0  0  0  0
  7  8  1  0  0  0  0
  8  9  1  0  0  0  0
  8 26  1  0  0  0  0
  9 10  2  0  0  0  0
  9 11  1  0  0  0  0
 11 12  1  0  0  0  0
 11 27  1  0  0  0  0
 12 17  1  0  0  0  0
 12 13  1  0  0  0  0
 12 28  1  0  0  0  0
 13 14  1  0  0  0  0
 13 29  1  0  0  0  0
 13 30  1  0  0  0  0
 14 15  1  0  0  0  0
 14 31  1  0  0  0  0
 14 32  1  0  0  0  0
 15 16  1  0  0  0  0
 15 33  1  0  0  0  0
 15 34  1  0  0  0  0
 16 17  1  0  0  0  0
 16 35  1  0  0  0  0
 16 36  1  0  0  0  0
 17 18  1  0  0  0  0
 17 37  1  0  0  0  0
 18 19  1  0  0  0  0
 18 38  1  0  0  0  0
 18 39  1  0  0  0  0
 19 40  1  0  0  0  0
M  END
> <s_m_source_file>
AV-unprocessed.smi

> <i_m_source_file_index>
2453

> <i_lp_mmshare_version>
43012

> <i_f3d_flags>
0

> <s_epik_input>
W0NIM11jMVtjSF1uW2NIXVtjSF1jMVtOSF1DKD1PKVtOSF1bQ0BASF0yW0NIMl1bQ0gyXVtDSDJdW0NIMl1bQ0BIXTJbQ0gyXVtPSF0=

> <s_epik_cmdline>
J2VwaWtfcHl0aG9uJywgJy1waCcsICc3LjAnLCAnLXRuJywgJzgnLCAnLW1hJywgJzIwMCcsICctbWV0YWxfYmluZGluZycsICctaW1hZScsICc8aW5maWxlLm1hZT4nLCAnLW9tYWUnLCAnPG91dGZpbGUubWFlPic=

> <r_epik_Ionization_Penalty>
0.210691

> <r_epik_Ionization_Penalty_Charging>
0

> <r_epik_Ionization_Penalty_Neutral>
0.210691

> <r_epik_State_Penalty>
0.200732

> <r_epik_Charging_Adjusted_Penalty>
0.200732

> <i_epik_Tot_Q>
0

> <i_epik_Tot_abs_Q>
0

> <r_epik_Metal_State_Penalty>
0.147519

> <b_epik_Metal_Only>
0

> <s_lp_Force_Field>
OPLS_2005

> <r_lp_Energy>
17.5687

> <b_lp_Chiralities_Consistent>
1

> <s_lp_Variant>
AV-unprocessed.smi:2453-1

> <Gold.Version>
5.8.1

> <Gold.Id.Protein>
6NUR|6NUR_protein|mol2

> <Gold.PLP.Fitness>
44.1532

> <Gold.PLP.PLP>
-36.9948

> <Gold.PLP.part.hbond>
-3.1018

> <Gold.PLP.part.metal>
0.0000

> <Gold.PLP.part.buried>
-0.3477

> <Gold.PLP.part.nonpolar>
-34.0473

> <Gold.PLP.part.repulsive>
1.7796

> <Gold.PLP.ligand.clash>
0.0000

> <Gold.PLP.ligand.torsion>
0.3547

> <Gold.PLP.Chemscore.Hbond>
0.4376

> <Gold.PLP.Chemscore.CHOScore>
2.1810

> <Gold.PLP.Chemscore.Metal>
0.0000

> <Gold.Chemscore.Hbonds>
donor molecule, donor type, donor heavy atom, donor atom, acceptor molecule, acceptor atom, score
      L1  H     8    26       P1  8028  0.54
      L1  C     3    23       P1 10175  0.83
      L1  C     5    24       P1  7948  0.85
      L1  C     5    24       P1  7957  0.18

> <Gold.PLP.Chemscore.Internal.Correction>
0.0122

> <Gold.Rescore>
     Score         DG    S(hbond)    S(metal)    S(lipo)     H(rot)  DE(clash)    DE(int)     intcor
     10.64     -17.37       0.95        0.00     112.80       1.75       3.62       3.10       ----

> <Gold.Chemscore.Fitness>
10.6440

> <Gold.Chemscore.DG>
-17.3654

> <Gold.Chemscore.ZeroCoef>
-5.4800

> <Gold.Chemscore.Hbond>
0.9479

> <Gold.Chemscore.Metal>
0.0000

> <Gold.Chemscore.Lipo>
112.8000

> <Gold.Chemscore.Internal_Hbond>
0.0000

> <Gold.Chemscore.DEClash>
3.6229

> <Gold.Chemscore.DEInternal>
3.0985

> <Gold.Chemscore.Rot>
1.7493

> <Gold.Chemscore.Internal.Correction>
   9.000000E+99

> <Gold.Chemscore.Hbonds>
donor molecule, donor type, donor heavy atom, donor atom, acceptor molecule, acceptor atom, score
      L1  H     8    26       P1  8028  0.50

> <Gold.Chemscore.Hbond.Weighted>
-3.1660

> <Gold.Chemscore.Metal.Weighted>
-0.0000

> <Gold.Chemscore.Lipo.Weighted>
-13.1976

> <Gold.Chemscore.Internal_Hbond.Weighted>
0.0000

> <Gold.Chemscore.DEClash.Weighted>
3.6229

> <Gold.Chemscore.DEInternal.Weighted>
3.0985

> <Gold.Chemscore.Rot.Weighted>
4.4782

> <Gold.Chemscore.Internal.Correction.Weighted>
   9.000000E+99

> <Gold.Protein.RotatedTorsions>
[ 6907 6896 6895 6894 ] final  -28.44 input  -60.11 | X-H torsion
[ 7974 7965 7964 7962 ] final  107.01 input  175.53 | X-H torsion
[ 8008 7997 7996 7995 ] final   81.39 input   59.86 | X-H torsion
[ 10167 10162 10161 10158 ] final -175.31 input  -65.29 | X-H torsion
[ 10718 10713 10712 10709 ] final  -19.89 input   66.30 | X-H torsion
[ 10763 10752 10751 10750 ] final  179.47 input  -60.55 | X-H torsion
[ 11005 11000 10999 10996 ] final -109.48 input  -57.11 | X-H torsion

> <Gold.Protein.ActiveResidues>
 VAL166  LYS551  ARG553  GLY616  TRP617  ASP618  TYR619  PRO620  LYS621  CYS622 
 ASP623  PHE694  ASN695  SER759  ASP760  ASP761  ALA762  ILE779  LEU786  VAL792 
 PHE793  MET794  SER795  GLU796  ALA797  LYS798  CYS799  TRP800  GLU811  SER814 

> <Gold.Protein.RotatedAtoms>
  151.1329  135.0140  159.8590 H   0  0  0  0  0  0  0  0  0  0  0  0  # atno 6907 bound_to 6896
  152.5451  134.1589  159.8559 H   0  0  0  0  0  0  0  0  0  0  0  0  # atno 6908 bound_to 6896
  151.1657  133.4771  159.2627 H   0  0  0  0  0  0  0  0  0  0  0  0  # atno 6909 bound_to 6896
  145.2992  139.2575  143.3823 H   0  0  0  0  0  0  0  0  0  0  0  0  # atno 7974 bound_to 7965
  155.8965  140.3436  155.5995 H   0  0  0  0  0  0  0  0  0  0  0  0  # atno 8008 bound_to 7997
  155.7550  140.0825  157.2202 H   0  0  0  0  0  0  0  0  0  0  0  0  # atno 8009 bound_to 7997
  154.4039  140.1546  156.2754 H   0  0  0  0  0  0  0  0  0  0  0  0  # atno 8010 bound_to 7997
  139.5588  144.1922  152.1204 H   0  0  0  0  0  0  0  0  0  0  0  0  # atno 10167 bound_to 10162
  156.5394  130.4674  149.6506 H   0  0  0  0  0  0  0  0  0  0  0  0  # atno 10718 bound_to 10713
  154.5211  135.2794  155.1262 H   0  0  0  0  0  0  0  0  0  0  0  0  # atno 10763 bound_to 10752
  154.2819  135.6284  153.5354 H   0  0  0  0  0  0  0  0  0  0  0  0  # atno 10764 bound_to 10752
  152.9937  135.5653  154.5700 H   0  0  0  0  0  0  0  0  0  0  0  0  # atno 10765 bound_to 10752
  141.0845  133.9162  157.2215 H   0  0  0  0  0  0  0  0  0  0  0  0  # atno 11005 bound_to 11000
  146.3158  140.3502  142.8655 LP  0  0  0  0  0  0  0  0  0  0  0  0  # atno 17320 bound_to 7965
  144.9107  140.7754  143.5809 LP  0  0  0  0  0  0  0  0  0  0  0  0  # atno 17321 bound_to 7965
  140.1432  144.5183  150.6732 LP  0  0  0  0  0  0  0  0  0  0  0  0  # atno 17342 bound_to 10162
  140.6865  143.2352  151.5247 LP  0  0  0  0  0  0  0  0  0  0  0  0  # atno 17343 bound_to 10162
  156.2985  130.7164  151.2030 LP  0  0  0  0  0  0  0  0  0  0  0  0  # atno 17370 bound_to 10713
  157.7408  131.0512  150.5142 LP  0  0  0  0  0  0  0  0  0  0  0  0  # atno 17371 bound_to 10713
  139.9662  135.0141  156.9393 LP  0  0  0  0  0  0  0  0  0  0  0  0  # atno 17394 bound_to 11000
  140.5393  134.0735  155.7337 LP  0  0  0  0  0  0  0  0  0  0  0  0  # atno 17395 bound_to 11000

$$$$
