AV-unprocessed.smi:2393|AV-procd|sdf|9489|dock1
  -GOLD-   2272013113D 1   1.00000     0.00000
 Structure written by MMmdl.
 43 44  0  0  0  0  0  0  0  0  1 V2000
  141.7332  134.7561  153.5548 C   0  0  0  0  0  0  0  0  0  0  0  0
  142.9843  134.6744  152.7055 C   0  0  0  0  0  0  0  0  0  0  0  0
  143.0692  133.7724  151.6275 C   0  0  0  0  0  0  0  0  0  0  0  0
  144.2617  133.7428  150.8781 C   0  0  0  0  0  0  0  0  0  0  0  0
  144.4217  132.7984  149.7050 C   0  0  0  0  0  0  0  0  0  0  0  0
  145.3215  134.5342  151.1489 N   0  0  0  0  0  0  0  0  0  0  0  0
  145.2513  135.4063  152.1851 C   0  0  0  0  0  0  0  0  0  0  0  0
  146.3054  136.2871  152.5456 N   0  0  0  0  0  0  0  0  0  0  0  0
  146.2350  137.4029  153.2928 C   0  0  0  0  0  0  0  0  0  0  0  0
  145.1999  137.8908  153.7480 O   0  0  0  0  0  0  0  0  0  0  0  0
  147.4496  137.9407  153.4793 N   0  0  0  0  0  0  0  0  0  0  0  0
  147.7197  139.1577  154.2398 C   0  0  1  0  0  0  0  0  0  0  0  0
  149.1925  139.5549  154.0881 C   0  0  0  0  0  0  0  0  0  0  0  0
  149.4629  140.8905  154.7947 C   0  0  0  0  0  0  0  0  0  0  0  0
  148.5971  141.9058  154.2905 O   0  0  0  0  0  0  0  0  0  0  0  0
  147.1919  141.6637  154.4205 C   0  0  0  0  0  0  0  0  0  0  0  0
  146.7601  141.7149  155.9022 C   0  0  0  0  0  0  0  0  0  0  0  0
  146.5155  142.8183  153.6634 C   0  0  0  0  0  0  0  0  0  0  0  0
  146.8324  140.3157  153.7494 C   0  0  0  0  0  0  0  0  0  0  0  0
  144.0899  135.5028  152.9841 C   0  0  0  0  0  0  0  0  0  0  0  0
  140.9358  134.1336  153.1474 H   0  0  0  0  0  0  0  0  0  0  0  0
  141.3725  135.7838  153.6016 H   0  0  0  0  0  0  0  0  0  0  0  0
  141.9455  134.4194  154.5699 H   0  0  0  0  0  0  0  0  0  0  0  0
  142.2432  133.1210  151.3815 H   0  0  0  0  0  0  0  0  0  0  0  0
  143.4785  132.3091  149.4602 H   0  0  0  0  0  0  0  0  0  0  0  0
  145.1561  132.0273  149.9391 H   0  0  0  0  0  0  0  0  0  0  0  0
  144.7615  133.3400  148.8217 H   0  0  0  0  0  0  0  0  0  0  0  0
  147.2205  136.0302  152.2066 H   0  0  0  0  0  0  0  0  0  0  0  0
  148.2455  137.4751  153.0685 H   0  0  0  0  0  0  0  0  0  0  0  0
  147.5238  138.9670  155.2961 H   0  0  0  0  0  0  0  0  0  0  0  0
  149.8396  138.7789  154.4984 H   0  0  0  0  0  0  0  0  0  0  0  0
  149.4473  139.6493  153.0314 H   0  0  0  0  0  0  0  0  0  0  0  0
  149.3555  140.7898  155.8746 H   0  0  0  0  0  0  0  0  0  0  0  0
  150.4931  141.1994  154.6176 H   0  0  0  0  0  0  0  0  0  0  0  0
  145.6769  141.6291  155.9950 H   0  0  0  0  0  0  0  0  0  0  0  0
  147.0553  142.6578  156.3636 H   0  0  0  0  0  0  0  0  0  0  0  0
  147.1930  140.9121  156.4971 H   0  0  0  0  0  0  0  0  0  0  0  0
  145.4293  142.7238  153.6832 H   0  0  0  0  0  0  0  0  0  0  0  0
  146.8263  142.8438  152.6184 H   0  0  0  0  0  0  0  0  0  0  0  0
  146.7721  143.7828  154.1030 H   0  0  0  0  0  0  0  0  0  0  0  0
  146.9533  140.4119  152.6691 H   0  0  0  0  0  0  0  0  0  0  0  0
  145.7796  140.0834  153.9156 H   0  0  0  0  0  0  0  0  0  0  0  0
  144.0461  136.2029  153.8061 H   0  0  0  0  0  0  0  0  0  0  0  0
  1  2  1  0  0  0  0
  1 21  1  0  0  0  0
  1 22  1  0  0  0  0
  1 23  1  0  0  0  0
  2 20  1  0  0  0  0
  2  3  2  0  0  0  0
  3  4  1  0  0  0  0
  3 24  1  0  0  0  0
  4  5  1  0  0  0  0
  4  6  2  0  0  0  0
  5 25  1  0  0  0  0
  5 26  1  0  0  0  0
  5 27  1  0  0  0  0
  6  7  1  0  0  0  0
  7  8  1  0  0  0  0
  7 20  2  0  0  0  0
  8  9  1  0  0  0  0
  8 28  1  0  0  0  0
  9 10  2  0  0  0  0
  9 11  1  0  0  0  0
 11 12  1  0  0  0  0
 11 29  1  0  0  0  0
 12 19  1  0  0  0  0
 12 13  1  0  0  0  0
 12 30  1  0  0  0  0
 13 14  1  0  0  0  0
 13 31  1  0  0  0  0
 13 32  1  0  0  0  0
 14 15  1  0  0  0  0
 14 33  1  0  0  0  0
 14 34  1  0  0  0  0
 15 16  1  0  0  0  0
 16 17  1  0  0  0  0
 16 18  1  0  0  0  0
 16 19  1  0  0  0  0
 17 35  1  0  0  0  0
 17 36  1  0  0  0  0
 17 37  1  0  0  0  0
 18 38  1  0  0  0  0
 18 39  1  0  0  0  0
 18 40  1  0  0  0  0
 19 41  1  0  0  0  0
 19 42  1  0  0  0  0
 20 43  1  0  0  0  0
M  END
> <s_m_source_file>
AV-unprocessed.smi

> <i_m_source_file_index>
2393

> <i_lp_mmshare_version>
43012

> <i_f3d_flags>
0

> <s_epik_input>
W0NIM11jMVtjSF1jKFtDSDNdKW5jKFtjSF0xKVtOSF1DKD1PKVtOSF1bQ0BASF0oW0NIMl0yKVtDSDJdW0NIMl1PQzIoW0NIM10pW0NIM10=

> <s_epik_cmdline>
J2VwaWtfcHl0aG9uJywgJy1waCcsICc3LjAnLCAnLXRuJywgJzgnLCAnLW1hJywgJzIwMCcsICctbWV0YWxfYmluZGluZycsICctaW1hZScsICc8aW5maWxlLm1hZT4nLCAnLW9tYWUnLCAnPG91dGZpbGUubWFlPic=

> <r_lp_tautomer_probability>
1

> <r_epik_Ionization_Penalty>
0.000261351

> <r_epik_Ionization_Penalty_Charging>
0

> <r_epik_Ionization_Penalty_Neutral>
0.000261351

> <r_epik_State_Penalty>
-0

> <r_epik_Charging_Adjusted_Penalty>
0

> <i_epik_Tot_Q>
0

> <i_epik_Tot_abs_Q>
0

> <r_epik_Metal_State_Penalty>
-0

> <b_epik_Metal_Only>
0

> <s_lp_Force_Field>
OPLS_2005

> <r_lp_Energy>
12.7135

> <b_lp_Chiralities_Consistent>
1

> <s_lp_Variant>
AV-unprocessed.smi:2393-2

> <Gold.Version>
5.8.1

> <Gold.Id.Protein>
6NUR|6NUR_protein|mol2

> <Gold.PLP.Fitness>
38.6771

> <Gold.PLP.PLP>
-32.5182

> <Gold.PLP.part.hbond>
-3.0000

> <Gold.PLP.part.metal>
0.0000

> <Gold.PLP.part.buried>
-2.8383

> <Gold.PLP.part.nonpolar>
-27.1076

> <Gold.PLP.part.repulsive>
0.5677

> <Gold.PLP.ligand.clash>
0.2936

> <Gold.PLP.ligand.torsion>
0.1300

> <Gold.PLP.Chemscore.Hbond>
2.2373

> <Gold.PLP.Chemscore.CHOScore>
0.0000

> <Gold.PLP.Chemscore.Metal>
0.0000

> <Gold.Chemscore.Hbonds>
donor molecule, donor type, donor heavy atom, donor atom, acceptor molecule, acceptor atom, score
      L1  H     8    28       P1  7948  1.00
      L1  H    11    29       P1  7948  1.00
      P1  H  8011  8017       L1    15  0.09

> <Gold.PLP.Chemscore.Internal.Correction>
0.0007

> <Gold.Rescore>
     Score         DG    S(hbond)    S(metal)    S(lipo)     H(rot)  DE(clash)    DE(int)     intcor
     14.67     -18.45       1.95        0.00      77.22       1.00       0.96       2.82       ----

> <Gold.Chemscore.Fitness>
14.6698

> <Gold.Chemscore.DG>
-18.4531

> <Gold.Chemscore.ZeroCoef>
-5.4800

> <Gold.Chemscore.Hbond>
1.9458

> <Gold.Chemscore.Metal>
0.0000

> <Gold.Chemscore.Lipo>
77.2151

> <Gold.Chemscore.Internal_Hbond>
0.0000

> <Gold.Chemscore.DEClash>
0.9633

> <Gold.Chemscore.DEInternal>
2.8199

> <Gold.Chemscore.Rot>
1.0000

> <Gold.Chemscore.Internal.Correction>
   9.000000E+99

> <Gold.Chemscore.Hbonds>
donor molecule, donor type, donor heavy atom, donor atom, acceptor molecule, acceptor atom, score
      L1  H     8    28       P1  7948  0.99
      L1  H    11    29       P1  7948  0.95
      P1  H  8011  8017       L1    15  0.02

> <Gold.Chemscore.Hbond.Weighted>
-6.4989

> <Gold.Chemscore.Metal.Weighted>
-0.0000

> <Gold.Chemscore.Lipo.Weighted>
-9.0342

> <Gold.Chemscore.Internal_Hbond.Weighted>
0.0000

> <Gold.Chemscore.DEClash.Weighted>
0.9633

> <Gold.Chemscore.DEInternal.Weighted>
2.8199

> <Gold.Chemscore.Rot.Weighted>
2.5600

> <Gold.Chemscore.Internal.Correction.Weighted>
   9.000000E+99

> <Gold.Protein.RotatedTorsions>
[ 6907 6896 6895 6894 ] final    2.61 input  -60.11 | X-H torsion
[ 7974 7965 7964 7962 ] final   32.60 input  175.53 | X-H torsion
[ 8008 7997 7996 7995 ] final   31.85 input   59.86 | X-H torsion
[ 10167 10162 10161 10158 ] final  171.18 input  -65.29 | X-H torsion
[ 10718 10713 10712 10709 ] final -158.20 input   66.30 | X-H torsion
[ 10763 10752 10751 10750 ] final   73.53 input  -60.55 | X-H torsion
[ 11005 11000 10999 10996 ] final -104.81 input  -57.11 | X-H torsion

> <Gold.Protein.ActiveResidues>
 VAL166  LYS551  ARG553  GLY616  TRP617  ASP618  TYR619  PRO620  LYS621  CYS622 
 ASP623  PHE694  ASN695  SER759  ASP760  ASP761  ALA762  ILE779  LEU786  VAL792 
 PHE793  MET794  SER795  GLU796  ALA797  LYS798  CYS799  TRP800  GLU811  SER814 

> <Gold.Protein.RotatedAtoms>
  151.6117  135.1039  160.0082 H   0  0  0  0  0  0  0  0  0  0  0  0  # atno 6907 bound_to 6896
  152.4205  133.7104  159.6486 H   0  0  0  0  0  0  0  0  0  0  0  0  # atno 6908 bound_to 6896
  150.8092  133.8379  159.3212 H   0  0  0  0  0  0  0  0  0  0  0  0  # atno 6909 bound_to 6896
  146.1476  139.6506  142.9121 H   0  0  0  0  0  0  0  0  0  0  0  0  # atno 7974 bound_to 7965
  155.1130  140.3241  155.4517 H   0  0  0  0  0  0  0  0  0  0  0  0  # atno 8008 bound_to 7997
  156.2685  140.2041  156.6201 H   0  0  0  0  0  0  0  0  0  0  0  0  # atno 8009 bound_to 7997
  154.6742  140.0533  157.0184 H   0  0  0  0  0  0  0  0  0  0  0  0  # atno 8010 bound_to 7997
  139.5039  144.3514  151.9919 H   0  0  0  0  0  0  0  0  0  0  0  0  # atno 10167 bound_to 10162
  156.5509  130.8605  151.2779 H   0  0  0  0  0  0  0  0  0  0  0  0  # atno 10718 bound_to 10713
  153.0527  135.5059  154.7907 H   0  0  0  0  0  0  0  0  0  0  0  0  # atno 10763 bound_to 10752
  154.6757  135.2960  154.9684 H   0  0  0  0  0  0  0  0  0  0  0  0  # atno 10764 bound_to 10752
  154.0488  135.6707  153.4850 H   0  0  0  0  0  0  0  0  0  0  0  0  # atno 10765 bound_to 10752
  141.1083  133.8754  157.1657 H   0  0  0  0  0  0  0  0  0  0  0  0  # atno 11005 bound_to 11000
  145.4900  141.0438  143.2598 LP  0  0  0  0  0  0  0  0  0  0  0  0  # atno 17320 bound_to 7965
  144.7865  139.6416  143.7132 LP  0  0  0  0  0  0  0  0  0  0  0  0  # atno 17321 bound_to 7965
  140.2950  144.3710  150.6077 LP  0  0  0  0  0  0  0  0  0  0  0  0  # atno 17342 bound_to 10162
  140.5917  143.2168  151.7240 LP  0  0  0  0  0  0  0  0  0  0  0  0  # atno 17343 bound_to 10162
  157.7388  130.9819  150.2272 LP  0  0  0  0  0  0  0  0  0  0  0  0  # atno 17370 bound_to 10713
  156.2886  130.3742  149.7864 LP  0  0  0  0  0  0  0  0  0  0  0  0  # atno 17371 bound_to 10713
  139.9964  135.0045  157.0092 LP  0  0  0  0  0  0  0  0  0  0  0  0  # atno 17394 bound_to 11000
  140.4843  134.1257  155.7222 LP  0  0  0  0  0  0  0  0  0  0  0  0  # atno 17395 bound_to 11000

$$$$
