AV-unprocessed.smi:2214|AV-procd|sdf|8958|dock1
  -GOLD-   2272012173D 1   1.00000     0.00000
 Structure written by MMmdl.
 41 42  0  0  0  0  0  0  0  0  1 V2000
  151.3393  145.2471  158.8530 C   0  0  0  0  0  0  0  0  0  0  0  0
  151.5848  143.7629  158.6747 C   0  0  0  0  0  0  0  0  0  0  0  0
  152.2659  143.0307  159.6669 C   0  0  0  0  0  0  0  0  0  0  0  0
  152.4902  141.6531  159.4925 C   0  0  0  0  0  0  0  0  0  0  0  0
  152.0359  141.0034  158.3285 C   0  0  0  0  0  0  0  0  0  0  0  0
  152.3258  139.3109  158.1384 Cl  0  0  0  0  0  0  0  0  0  0  0  0
  151.3524  141.7238  157.3239 C   0  0  0  0  0  0  0  0  0  0  0  0
  150.9377  141.0201  156.2132 O   0  0  0  0  0  0  0  0  0  0  0  0
  149.7683  141.4533  155.5295 C   0  0  0  0  0  0  0  0  0  0  0  0
  149.2029  140.2997  154.6836 C   0  0  2  0  0  0  0  0  0  0  0  0
  150.2215  139.8711  153.8021 O   0  0  0  0  0  0  0  0  0  0  0  0
  147.9357  140.6961  153.8930 C   0  0  0  0  0  0  0  0  0  0  0  0
  147.3460  139.5540  153.1752 N   0  0  0  0  0  0  0  0  0  0  0  0
  147.3278  139.6422  151.7738 C   0  0  0  0  0  0  0  0  0  0  0  0
  146.8346  138.6986  151.0405 N   0  0  0  0  0  0  0  0  0  0  0  0
  146.3000  137.5554  151.6416 C   0  0  0  0  0  0  0  0  0  0  0  0
  145.7430  136.5124  150.6889 C   0  0  0  0  0  0  0  0  0  0  0  0
  146.2904  137.4068  152.9945 C   0  0  0  0  0  0  0  0  0  0  0  0
  145.7207  136.1855  153.7049 C   0  0  0  0  0  0  0  0  0  0  0  0
  146.8572  138.4686  153.8419 C   0  0  0  0  0  0  0  0  0  0  0  0
  146.8968  138.3931  155.0715 O   0  0  0  0  0  0  0  0  0  0  0  0
  151.1318  143.1125  157.5087 C   0  0  0  0  0  0  0  0  0  0  0  0
  151.5496  145.5646  159.8748 H   0  0  0  0  0  0  0  0  0  0  0  0
  150.3000  145.4906  158.6300 H   0  0  0  0  0  0  0  0  0  0  0  0
  151.9781  145.8179  158.1787 H   0  0  0  0  0  0  0  0  0  0  0  0
  152.6184  143.5205  160.5628 H   0  0  0  0  0  0  0  0  0  0  0  0
  153.0127  141.0937  160.2544 H   0  0  0  0  0  0  0  0  0  0  0  0
  149.0146  141.8209  156.2283 H   0  0  0  0  0  0  0  0  0  0  0  0
  150.0321  142.2766  154.8635 H   0  0  0  0  0  0  0  0  0  0  0  0
  148.9872  139.4696  155.3573 H   0  0  0  0  0  0  0  0  0  0  0  0
  149.8458  139.7499  152.9437 H   0  0  0  0  0  0  0  0  0  0  0  0
  147.1882  141.0886  154.5852 H   0  0  0  0  0  0  0  0  0  0  0  0
  148.1479  141.5354  153.2269 H   0  0  0  0  0  0  0  0  0  0  0  0
  147.7592  140.5527  151.3543 H   0  0  0  0  0  0  0  0  0  0  0  0
  144.6788  136.3593  150.8695 H   0  0  0  0  0  0  0  0  0  0  0  0
  146.2599  135.5614  150.8189 H   0  0  0  0  0  0  0  0  0  0  0  0
  145.8648  136.8187  149.6491 H   0  0  0  0  0  0  0  0  0  0  0  0
  146.5034  135.6807  154.2721 H   0  0  0  0  0  0  0  0  0  0  0  0
  145.2855  135.4563  153.0240 H   0  0  0  0  0  0  0  0  0  0  0  0
  144.9387  136.4872  154.4023 H   0  0  0  0  0  0  0  0  0  0  0  0
  150.6150  143.7020  156.7670 H   0  0  0  0  0  0  0  0  0  0  0  0
  1  2  1  0  0  0  0
  1 23  1  0  0  0  0
  1 24  1  0  0  0  0
  1 25  1  0  0  0  0
  2 22  1  0  0  0  0
  2  3  2  0  0  0  0
  3  4  1  0  0  0  0
  3 26  1  0  0  0  0
  4  5  2  0  0  0  0
  4 27  1  0  0  0  0
  5  6  1  0  0  0  0
  5  7  1  0  0  0  0
  7  8  1  0  0  0  0
  7 22  2  0  0  0  0
  8  9  1  0  0  0  0
  9 10  1  0  0  0  0
  9 28  1  0  0  0  0
  9 29  1  0  0  0  0
 10 11  1  0  0  0  0
 10 12  1  0  0  0  0
 10 30  1  0  0  0  0
 11 31  1  0  0  0  0
 12 13  1  0  0  0  0
 12 32  1  0  0  0  0
 12 33  1  0  0  0  0
 13 20  1  0  0  0  0
 13 14  1  0  0  0  0
 14 15  2  0  0  0  0
 14 34  1  0  0  0  0
 15 16  1  0  0  0  0
 16 17  1  0  0  0  0
 16 18  2  0  0  0  0
 17 35  1  0  0  0  0
 17 36  1  0  0  0  0
 17 37  1  0  0  0  0
 18 19  1  0  0  0  0
 18 20  1  0  0  0  0
 19 38  1  0  0  0  0
 19 39  1  0  0  0  0
 19 40  1  0  0  0  0
 20 21  2  0  0  0  0
 22 41  1  0  0  0  0
M  END
> <s_m_source_file>
AV-unprocessed.smi

> <i_m_source_file_index>
2214

> <i_lp_mmshare_version>
43012

> <i_f3d_flags>
0

> <s_epik_input>
W0NIM11jMVtjSF1bY0hdYyhDbCljKFtjSF0xKU9bQ0gyXVtDQEhdKFtPSF0pW0NIMl1uMltjSF1uYyhbQ0gzXSljKFtDSDNdKWMyPU8=

> <s_epik_cmdline>
J2VwaWtfcHl0aG9uJywgJy1waCcsICc3LjAnLCAnLXRuJywgJzgnLCAnLW1hJywgJzIwMCcsICctbWV0YWxfYmluZGluZycsICctaW1hZScsICc8aW5maWxlLm1hZT4nLCAnLW9tYWUnLCAnPG91dGZpbGUubWFlPic=

> <r_lp_tautomer_probability>
1

> <r_epik_Ionization_Penalty>
3.50205e-05

> <r_epik_Ionization_Penalty_Charging>
7.87908e-08

> <r_epik_Ionization_Penalty_Neutral>
3.49418e-05

> <r_epik_State_Penalty>
-0

> <r_epik_Charging_Adjusted_Penalty>
7.87908e-08

> <i_epik_Tot_Q>
0

> <i_epik_Tot_abs_Q>
0

> <r_epik_Metal_State_Penalty>
-0

> <b_epik_Metal_Only>
0

> <s_lp_Force_Field>
OPLS_2005

> <r_lp_Energy>
24.1684

> <b_lp_Chiralities_Consistent>
1

> <s_lp_Variant>
AV-unprocessed.smi:2214-1

> <Gold.Version>
5.8.1

> <Gold.Id.Protein>
6NUR|6NUR_protein|mol2

> <Gold.PLP.Fitness>
49.4019

> <Gold.PLP.PLP>
-40.6069

> <Gold.PLP.part.hbond>
-3.0000

> <Gold.PLP.part.metal>
0.0000

> <Gold.PLP.part.buried>
4.5578

> <Gold.PLP.part.nonpolar>
-41.5019

> <Gold.PLP.part.repulsive>
0.5181

> <Gold.PLP.ligand.clash>
0.0000

> <Gold.PLP.ligand.torsion>
0.4944

> <Gold.PLP.Chemscore.Hbond>
2.9200

> <Gold.PLP.Chemscore.CHOScore>
0.3369

> <Gold.PLP.Chemscore.Metal>
0.0000

> <Gold.Chemscore.Hbonds>
donor molecule, donor type, donor heavy atom, donor atom, acceptor molecule, acceptor atom, score
      L1  H    11    31       P1  7957  1.00
      P1  H  7954  7966       L1    15  0.96
      P1  H  7989  7998       L1    11  0.91
      L1  C    14    34       P1  7957  0.28

> <Gold.PLP.Chemscore.Internal.Correction>
0.0132

> <Gold.Rescore>
     Score         DG    S(hbond)    S(metal)    S(lipo)     H(rot)  DE(clash)    DE(int)     intcor
     16.10     -18.58       1.69        0.00     115.19       2.35       1.94       0.54       ----

> <Gold.Chemscore.Fitness>
16.0974

> <Gold.Chemscore.DG>
-18.5808

> <Gold.Chemscore.ZeroCoef>
-5.4800

> <Gold.Chemscore.Hbond>
1.6879

> <Gold.Chemscore.Metal>
0.0000

> <Gold.Chemscore.Lipo>
115.1869

> <Gold.Chemscore.Internal_Hbond>
0.0000

> <Gold.Chemscore.DEClash>
1.9441

> <Gold.Chemscore.DEInternal>
0.5393

> <Gold.Chemscore.Rot>
2.3490

> <Gold.Chemscore.Internal.Correction>
   9.000000E+99

> <Gold.Chemscore.Hbonds>
donor molecule, donor type, donor heavy atom, donor atom, acceptor molecule, acceptor atom, score
      L1  H    11    31       P1  7957  0.99
      P1  H  7954  7966       L1    15  0.19
      P1  H  7989  7998       L1    11  0.31

> <Gold.Chemscore.Hbond.Weighted>
-5.6375

> <Gold.Chemscore.Metal.Weighted>
-0.0000

> <Gold.Chemscore.Lipo.Weighted>
-13.4769

> <Gold.Chemscore.Internal_Hbond.Weighted>
0.0000

> <Gold.Chemscore.DEClash.Weighted>
1.9441

> <Gold.Chemscore.DEInternal.Weighted>
0.5393

> <Gold.Chemscore.Rot.Weighted>
6.0136

> <Gold.Chemscore.Internal.Correction.Weighted>
   9.000000E+99

> <Gold.Protein.RotatedTorsions>
[ 6907 6896 6895 6894 ] final  -37.15 input  -60.11 | X-H torsion
[ 7974 7965 7964 7962 ] final  -55.65 input  175.53 | X-H torsion
[ 8008 7997 7996 7995 ] final   99.25 input   59.86 | X-H torsion
[ 10167 10162 10161 10158 ] final  -79.20 input  -65.29 | X-H torsion
[ 10718 10713 10712 10709 ] final   96.25 input   66.30 | X-H torsion
[ 10763 10752 10751 10750 ] final  161.73 input  -60.55 | X-H torsion
[ 11005 11000 10999 10996 ] final   77.99 input  -57.11 | X-H torsion

> <Gold.Protein.ActiveResidues>
 VAL166  LYS551  ARG553  GLY616  TRP617  ASP618  TYR619  PRO620  LYS621  CYS622 
 ASP623  PHE694  ASN695  SER759  ASP760  ASP761  ALA762  ILE779  LEU786  VAL792 
 PHE793  MET794  SER795  GLU796  ALA797  LYS798  CYS799  TRP800  GLU811  SER814 

> <Gold.Protein.RotatedAtoms>
  151.0182  134.9449  159.8044 H   0  0  0  0  0  0  0  0  0  0  0  0  # atno 6907 bound_to 6896
  152.5319  134.2938  159.9063 H   0  0  0  0  0  0  0  0  0  0  0  0  # atno 6908 bound_to 6896
  151.2945  133.4108  159.2669 H   0  0  0  0  0  0  0  0  0  0  0  0  # atno 6909 bound_to 6896
  145.8717  140.8211  142.9884 H   0  0  0  0  0  0  0  0  0  0  0  0  # atno 7974 bound_to 7965
  156.1086  140.3231  155.8041 H   0  0  0  0  0  0  0  0  0  0  0  0  # atno 8008 bound_to 7997
  155.4712  140.0547  157.2996 H   0  0  0  0  0  0  0  0  0  0  0  0  # atno 8009 bound_to 7997
  154.4745  140.2026  155.9927 H   0  0  0  0  0  0  0  0  0  0  0  0  # atno 8010 bound_to 7997
  140.4614  143.2452  151.8343 H   0  0  0  0  0  0  0  0  0  0  0  0  # atno 10167 bound_to 10162
  157.6929  131.0572  150.4463 H   0  0  0  0  0  0  0  0  0  0  0  0  # atno 10718 bound_to 10713
  154.2674  135.2766  155.2752 H   0  0  0  0  0  0  0  0  0  0  0  0  # atno 10763 bound_to 10752
  154.5331  135.5724  153.6779 H   0  0  0  0  0  0  0  0  0  0  0  0  # atno 10764 bound_to 10752
  152.9951  135.6232  154.2827 H   0  0  0  0  0  0  0  0  0  0  0  0  # atno 10765 bound_to 10752
  139.9231  134.7728  156.1593 H   0  0  0  0  0  0  0  0  0  0  0  0  # atno 11005 bound_to 11000
  144.6726  140.1250  143.7447 LP  0  0  0  0  0  0  0  0  0  0  0  0  # atno 17320 bound_to 7965
  145.9128  139.2497  143.1427 LP  0  0  0  0  0  0  0  0  0  0  0  0  # atno 17321 bound_to 7965
  139.4807  144.5003  151.9069 LP  0  0  0  0  0  0  0  0  0  0  0  0  # atno 17342 bound_to 10162
  140.4089  144.2396  150.5889 LP  0  0  0  0  0  0  0  0  0  0  0  0  # atno 17343 bound_to 10162
  156.4817  130.4075  149.6457 LP  0  0  0  0  0  0  0  0  0  0  0  0  # atno 17370 bound_to 10713
  156.3500  130.7427  151.2385 LP  0  0  0  0  0  0  0  0  0  0  0  0  # atno 17371 bound_to 10713
  141.0768  133.6772  156.2252 LP  0  0  0  0  0  0  0  0  0  0  0  0  # atno 17394 bound_to 11000
  140.6415  134.5160  157.5570 LP  0  0  0  0  0  0  0  0  0  0  0  0  # atno 17395 bound_to 11000

$$$$
