AV-unprocessed.smi:199|AV-procd|sdf|1566|dock2
  -GOLD-   2262019443D 1   1.00000     0.00000
 Structure written by MMmdl.
 51 55  0  0  0  0  0  0  0  0  1 V2000
  146.0325  129.9923  152.4139 C   0  0  0  0  0  0  0  0  0  0  0  0
  145.7311  131.4994  152.4536 C   0  0  2  0  0  0  0  0  0  0  0  0
  145.1923  131.9394  151.2072 O   0  0  0  0  0  0  0  0  0  0  0  0
  145.9961  132.9781  150.6665 C   0  0  0  0  0  0  0  0  0  0  0  0
  146.6387  133.6287  151.8840 C   0  0  0  0  0  0  0  0  0  0  0  0
  146.9173  132.4350  152.7873 C   0  0  2  0  0  0  0  0  0  0  0  0
  148.1494  131.8543  152.3889 O   0  0  0  0  0  0  0  0  0  0  0  0
  147.0062  132.7897  154.2907 C   0  0  0  0  0  0  0  0  0  0  0  0
  148.0167  133.7935  154.5868 N   0  0  0  0  0  0  0  0  0  0  0  0
  149.3806  133.6379  154.5031 C   0  0  0  0  0  0  0  0  0  0  0  0
  150.0788  134.6881  154.8347 N   0  0  0  0  0  0  0  0  0  0  0  0
  149.1295  135.6517  155.1590 C   0  0  0  0  0  0  0  0  0  0  0  0
  149.1828  137.0099  155.5955 C   0  0  0  0  0  0  0  0  0  0  0  0
  150.3235  137.7208  155.8189 N   0  0  0  0  0  0  0  0  0  0  0  0
  151.1962  138.1506  154.7362 C   0  0  2  0  0  0  0  0  0  0  0  0
  152.4039  138.7260  155.4966 C   0  0  0  0  0  0  0  0  0  0  0  0
  151.7225  139.3321  156.7315 C   0  0  0  0  0  0  0  0  0  0  0  0
  150.2405  139.0401  156.4322 C   0  0  1  0  0  0  0  0  0  0  0  0
  149.6995  139.9278  155.2792 C   0  0  1  0  0  0  0  0  0  0  0  0
  149.8652  141.4526  155.4208 C   0  0  0  0  0  0  0  0  0  0  0  0
  149.1052  142.1219  154.4377 O   0  0  0  0  0  0  0  0  0  0  0  0
  150.4289  139.3117  154.0708 C   0  0  0  0  0  0  0  0  0  0  0  0
  147.9970  137.6316  155.8298 N   0  0  0  0  0  0  0  0  0  0  0  0
  146.8412  136.9905  155.6395 C   0  0  0  0  0  0  0  0  0  0  0  0
  146.6418  135.7373  155.2313 N   0  0  0  0  0  0  0  0  0  0  0  0
  147.8244  135.0988  155.0039 C   0  0  0  0  0  0  0  0  0  0  0  0
  146.4535  129.6519  153.3603 H   0  0  0  0  0  0  0  0  0  0  0  0
  146.7377  129.7431  151.6204 H   0  0  0  0  0  0  0  0  0  0  0  0
  145.1218  129.4217  152.2318 H   0  0  0  0  0  0  0  0  0  0  0  0
  144.9376  131.6642  153.1835 H   0  0  0  0  0  0  0  0  0  0  0  0
  146.7555  132.5407  150.0170 H   0  0  0  0  0  0  0  0  0  0  0  0
  145.4042  133.6785  150.0769 H   0  0  0  0  0  0  0  0  0  0  0  0
  147.5264  134.2133  151.6383 H   0  0  0  0  0  0  0  0  0  0  0  0
  145.9161  134.2972  152.3545 H   0  0  0  0  0  0  0  0  0  0  0  0
  148.0824  131.6008  151.4808 H   0  0  0  0  0  0  0  0  0  0  0  0
  146.0467  133.1679  154.6464 H   0  0  0  0  0  0  0  0  0  0  0  0
  147.2183  131.8958  154.8790 H   0  0  0  0  0  0  0  0  0  0  0  0
  149.8452  132.7127  154.1946 H   0  0  0  0  0  0  0  0  0  0  0  0
  151.5027  137.3724  154.0395 H   0  0  0  0  0  0  0  0  0  0  0  0
  153.0953  137.9351  155.7906 H   0  0  0  0  0  0  0  0  0  0  0  0
  152.9586  139.4616  154.9130 H   0  0  0  0  0  0  0  0  0  0  0  0
  152.0363  138.8014  157.6314 H   0  0  0  0  0  0  0  0  0  0  0  0
  151.9486  140.3866  156.8814 H   0  0  0  0  0  0  0  0  0  0  0  0
  149.6249  139.0865  157.3312 H   0  0  0  0  0  0  0  0  0  0  0  0
  148.6328  139.7245  155.1674 H   0  0  0  0  0  0  0  0  0  0  0  0
  149.5801  141.8072  156.4107 H   0  0  0  0  0  0  0  0  0  0  0  0
  150.9128  141.7232  155.2859 H   0  0  0  0  0  0  0  0  0  0  0  0
  148.9332  143.0013  154.7384 H   0  0  0  0  0  0  0  0  0  0  0  0
  151.0949  140.0106  153.5631 H   0  0  0  0  0  0  0  0  0  0  0  0
  149.7108  138.9427  153.3374 H   0  0  0  0  0  0  0  0  0  0  0  0
  145.9492  137.5633  155.8464 H   0  0  0  0  0  0  0  0  0  0  0  0
  1  2  1  0  0  0  0
  1 27  1  0  0  0  0
  1 28  1  0  0  0  0
  1 29  1  0  0  0  0
  2  6  1  0  0  0  0
  2  3  1  0  0  0  0
  2 30  1  0  0  0  0
  3  4  1  0  0  0  0
  4  5  1  0  0  0  0
  4 31  1  0  0  0  0
  4 32  1  0  0  0  0
  5  6  1  0  0  0  0
  5 33  1  0  0  0  0
  5 34  1  0  0  0  0
  6  7  1  0  0  0  0
  6  8  1  0  0  0  0
  7 35  1  0  0  0  0
  8  9  1  0  0  0  0
  8 36  1  0  0  0  0
  8 37  1  0  0  0  0
  9 26  1  0  0  0  0
  9 10  1  0  0  0  0
 10 11  2  0  0  0  0
 10 38  1  0  0  0  0
 11 12  1  0  0  0  0
 12 26  2  0  0  0  0
 12 13  1  0  0  0  0
 13 14  1  0  0  0  0
 13 23  2  0  0  0  0
 14 18  1  0  0  0  0
 14 15  1  0  0  0  0
 15 22  1  0  0  0  0
 15 16  1  0  0  0  0
 15 39  1  0  0  0  0
 16 17  1  0  0  0  0
 16 40  1  0  0  0  0
 16 41  1  0  0  0  0
 17 18  1  0  0  0  0
 17 42  1  0  0  0  0
 17 43  1  0  0  0  0
 18 19  1  0  0  0  0
 18 44  1  0  0  0  0
 19 20  1  0  0  0  0
 19 22  1  0  0  0  0
 19 45  1  0  0  0  0
 20 21  1  0  0  0  0
 20 46  1  0  0  0  0
 20 47  1  0  0  0  0
 21 48  1  0  0  0  0
 22 49  1  0  0  0  0
 22 50  1  0  0  0  0
 23 24  1  0  0  0  0
 24 25  2  0  0  0  0
 24 51  1  0  0  0  0
 25 26  1  0  0  0  0
M  END
> <s_m_source_file>
AV-unprocessed.smi

> <i_m_source_file_index>
199

> <i_lp_mmshare_version>
43012

> <i_f3d_flags>
0

> <s_epik_input>
W0NIMl0xW0NIMl1PW0NAQEhdKFtDSDNdKVtDQEBdMShbT0hdKVtDSDJdbihbY0hdbjIpYyhjMjMpbltjSF1uYzNOKFtDQEBIXTQ1KVtDQEhdKFtDSDJdW0NIMl00KVtDQEhdKFtDSDJdNSlbQ0gyXVtPSF0=

> <s_epik_cmdline>
J2VwaWtfcHl0aG9uJywgJy1waCcsICc3LjAnLCAnLXRuJywgJzgnLCAnLW1hJywgJzIwMCcsICctbWV0YWxfYmluZGluZycsICctaW1hZScsICc8aW5maWxlLm1hZT4nLCAnLW9tYWUnLCAnPG91dGZpbGUubWFlPic=

> <r_lp_tautomer_probability>
1

> <r_epik_Ionization_Penalty>
0.00583903

> <r_epik_Ionization_Penalty_Charging>
0

> <r_epik_Ionization_Penalty_Neutral>
0.00583903

> <r_epik_State_Penalty>
-0

> <r_epik_Charging_Adjusted_Penalty>
0

> <i_epik_Tot_Q>
0

> <i_epik_Tot_abs_Q>
0

> <r_epik_Metal_State_Penalty>
-0

> <b_epik_Metal_Only>
0

> <s_lp_Force_Field>
OPLS_2005

> <r_lp_Energy>
84.6661

> <b_lp_Chiralities_Consistent>
1

> <s_lp_Variant>
AV-unprocessed.smi:199-7

> <Gold.Version>
5.8.1

> <Gold.Id.Protein>
6NUR|6NUR_protein|mol2

> <Gold.PLP.Fitness>
40.6394

> <Gold.PLP.PLP>
-34.5293

> <Gold.PLP.part.hbond>
-2.8371

> <Gold.PLP.part.metal>
0.0000

> <Gold.PLP.part.buried>
-4.3584

> <Gold.PLP.part.nonpolar>
-28.0731

> <Gold.PLP.part.repulsive>
0.3692

> <Gold.PLP.ligand.clash>
0.0000

> <Gold.PLP.ligand.torsion>
0.3114

> <Gold.PLP.Chemscore.Hbond>
2.2268

> <Gold.PLP.Chemscore.CHOScore>
0.0000

> <Gold.PLP.Chemscore.Metal>
0.0000

> <Gold.Chemscore.Hbonds>
donor molecule, donor type, donor heavy atom, donor atom, acceptor molecule, acceptor atom, score
      L1  H     7    35       P1 10747  0.80
      L1  H    21    48       P1  8028  1.00
      P1  H  8011  8017       L1    21  0.16

> <Gold.PLP.Chemscore.Internal.Correction>
0.0526

> <Gold.Rescore>
     Score         DG    S(hbond)    S(metal)    S(lipo)     H(rot)  DE(clash)    DE(int)     intcor
     12.03     -13.84       1.99        0.00      81.86       3.07       0.17       1.65       ----

> <Gold.Chemscore.Fitness>
12.0254

> <Gold.Chemscore.DG>
-13.8444

> <Gold.Chemscore.ZeroCoef>
-5.4800

> <Gold.Chemscore.Hbond>
1.9922

> <Gold.Chemscore.Metal>
0.0000

> <Gold.Chemscore.Lipo>
81.8565

> <Gold.Chemscore.Internal_Hbond>
0.0000

> <Gold.Chemscore.DEClash>
0.1660

> <Gold.Chemscore.DEInternal>
1.6530

> <Gold.Chemscore.Rot>
3.0729

> <Gold.Chemscore.Internal.Correction>
   9.000000E+99

> <Gold.Chemscore.Hbonds>
donor molecule, donor type, donor heavy atom, donor atom, acceptor molecule, acceptor atom, score
      L1  H     7    35       P1 10747  0.79
      L1  H    21    48       P1  8028  0.99
      P1  H  8011  8017       L1    21  0.06

> <Gold.Chemscore.Hbond.Weighted>
-6.6539

> <Gold.Chemscore.Metal.Weighted>
-0.0000

> <Gold.Chemscore.Lipo.Weighted>
-9.5772

> <Gold.Chemscore.Internal_Hbond.Weighted>
0.0000

> <Gold.Chemscore.DEClash.Weighted>
0.1660

> <Gold.Chemscore.DEInternal.Weighted>
1.6530

> <Gold.Chemscore.Rot.Weighted>
7.8667

> <Gold.Chemscore.Internal.Correction.Weighted>
   9.000000E+99

> <Gold.Protein.RotatedTorsions>
[ 6907 6896 6895 6894 ] final   82.43 input  -60.11 | X-H torsion
[ 7974 7965 7964 7962 ] final  114.32 input  175.53 | X-H torsion
[ 8008 7997 7996 7995 ] final   36.24 input   59.86 | X-H torsion
[ 10167 10162 10161 10158 ] final  -97.65 input  -65.29 | X-H torsion
[ 10718 10713 10712 10709 ] final   20.20 input   66.30 | X-H torsion
[ 10763 10752 10751 10750 ] final   38.09 input  -60.55 | X-H torsion
[ 11005 11000 10999 10996 ] final   12.93 input  -57.11 | X-H torsion

> <Gold.Protein.ActiveResidues>
 VAL166  LYS551  ARG553  GLY616  TRP617  ASP618  TYR619  PRO620  LYS621  CYS622 
 ASP623  PHE694  ASN695  SER759  ASP760  ASP761  ALA762  ILE779  LEU786  VAL792 
 PHE793  MET794  SER795  GLU796  ALA797  LYS798  CYS799  TRP800  GLU811  SER814 

> <Gold.Protein.RotatedAtoms>
  152.5299  134.3050  159.9092 H   0  0  0  0  0  0  0  0  0  0  0  0  # atno 6907 bound_to 6896
  151.3001  133.4120  159.2647 H   0  0  0  0  0  0  0  0  0  0  0  0  # atno 6908 bound_to 6896
  151.0127  134.9425  159.8073 H   0  0  0  0  0  0  0  0  0  0  0  0  # atno 6909 bound_to 6896
  145.2059  139.2930  143.4294 H   0  0  0  0  0  0  0  0  0  0  0  0  # atno 7974 bound_to 7965
  155.1842  140.3302  155.4369 H   0  0  0  0  0  0  0  0  0  0  0  0  # atno 8008 bound_to 7997
  156.2465  140.1921  156.6889 H   0  0  0  0  0  0  0  0  0  0  0  0  # atno 8009 bound_to 7997
  154.6250  140.0590  156.9648 H   0  0  0  0  0  0  0  0  0  0  0  0  # atno 8010 bound_to 7997
  140.2812  143.3280  152.0439 H   0  0  0  0  0  0  0  0  0  0  0  0  # atno 10167 bound_to 10162
  157.1212  130.6550  149.5924 H   0  0  0  0  0  0  0  0  0  0  0  0  # atno 10718 bound_to 10713
  153.0013  135.6259  154.2249 H   0  0  0  0  0  0  0  0  0  0  0  0  # atno 10763 bound_to 10752
  154.1991  135.2805  155.2998 H   0  0  0  0  0  0  0  0  0  0  0  0  # atno 10764 bound_to 10752
  154.5698  135.5680  153.7143 H   0  0  0  0  0  0  0  0  0  0  0  0  # atno 10765 bound_to 10752
  140.4865  134.0883  155.7762 H   0  0  0  0  0  0  0  0  0  0  0  0  # atno 11005 bound_to 11000
  146.3408  140.2318  142.8593 LP  0  0  0  0  0  0  0  0  0  0  0  0  # atno 17320 bound_to 7965
  144.9903  140.8541  143.5343 LP  0  0  0  0  0  0  0  0  0  0  0  0  # atno 17321 bound_to 7965
  139.4962  144.6590  151.6507 LP  0  0  0  0  0  0  0  0  0  0  0  0  # atno 17342 bound_to 10162
  140.5810  143.9946  150.6268 LP  0  0  0  0  0  0  0  0  0  0  0  0  # atno 17343 bound_to 10162
  155.9828  130.4844  150.6901 LP  0  0  0  0  0  0  0  0  0  0  0  0  # atno 17370 bound_to 10713
  157.4475  131.0868  151.0880 LP  0  0  0  0  0  0  0  0  0  0  0  0  # atno 17371 bound_to 10713
  141.1505  133.8977  157.2108 LP  0  0  0  0  0  0  0  0  0  0  0  0  # atno 17394 bound_to 11000
  139.9795  135.0103  156.9714 LP  0  0  0  0  0  0  0  0  0  0  0  0  # atno 17395 bound_to 11000

$$$$
