#       Name:                AV-unprocessed.smi:3206
#       Creating user name   scv26
#       Creation time:       Fri Mar 27 18:09:24 2020


#       File generated by GOLD software.
#

@<TRIPOS>MOLECULE
AV-unprocessed.smi:3206
    44    45     1
SMALL
NO_CHARGES


@<TRIPOS>ATOM
      1 ****        -2.8276   4.8378  -0.0000 C.3            1 S1                 0.0000
      2 ****        -3.0119   3.3137  -0.0000 C.3            1 S1                 0.0000
      3 ****        -2.4097   2.6731   1.2641 C.3            1 S1                 0.0000
      4 ****        -2.5880   1.1442   1.2645 C.3            1 S1                 0.0000
      5 ****        -2.0045   0.4781  -0.0000 C.3            1 S1                 0.0000
      6 ****        -0.4562   0.4519  -0.0000 C.3            1 S1                 0.0000
      7 ****         0.0648  -0.9300  -0.0000 N.4            1 S1                 1.0000
      8 ****         1.5382  -1.0164  -0.0000 C.3            1 S1                 0.0000
      9 ****         2.0071  -2.4810  -0.0000 C.3            1 S1                 0.0000
     10 ****         3.4983  -2.6544  -0.0000 C.2            1 S1                 0.0000
     11 ****         4.3842  -1.6616  -0.0000 N.2            1 S1                 0.0000
     12 ****         5.5508  -2.3692  -0.0000 C.2            1 S1                 0.0000
     13 ****         5.4239  -3.6930  -0.0000 N.2            1 S1                 0.0000
     14 ****         4.0821  -3.8621  -0.0000 N.pl3          1 S1                 0.0000
     15 ****         3.5259  -5.2019  -0.0000 C.3            1 S1                 0.0000
     16 ****        -2.5880   1.1441  -1.2645 C.3            1 S1                 0.0000
     17 ****        -2.4097   2.6731  -1.2641 C.3            1 S1                 0.0000
     18 ****        -1.7717   5.1102  -0.0000 H              1 S1                 0.0000
     19 ****        -3.2878   5.2890   0.8795 H              1 S1                 0.0000
     20 ****        -3.2878   5.2890  -0.8795 H              1 S1                 0.0000
     21 ****        -4.0843   3.1131  -0.0000 H              1 S1                 0.0000
     22 ****        -1.3510   2.9242   1.3360 H              1 S1                 0.0000
     23 ****        -2.8825   3.0924   2.1531 H              1 S1                 0.0000
     24 ****        -2.1368   0.7154   2.1600 H              1 S1                 0.0000
     25 ****        -3.6527   0.9159   1.3276 H              1 S1                 0.0000
     26 ****        -2.3581  -0.5543  -0.0000 H              1 S1                 0.0000
     27 ****        -0.0574   0.9706  -0.8726 H              1 S1                 0.0000
     28 ****        -0.0574   0.9706   0.8726 H              1 S1                 0.0000
     29 ****        -0.2852  -1.4035   0.8208 H              1 S1                 0.0000
     30 ****         1.9246  -0.4988  -0.8793 H              1 S1                 0.0000
     31 ****         1.9246  -0.4988   0.8793 H              1 S1                 0.0000
     32 ****         1.6050  -2.9922   0.8756 H              1 S1                 0.0000
     33 ****         1.6050  -2.9922  -0.8756 H              1 S1                 0.0000
     34 ****         6.5211  -1.8947  -0.0000 H              1 S1                 0.0000
     35 ****         2.4369  -5.1716  -0.0000 H              1 S1                 0.0000
     36 ****         3.8618  -5.7385   0.8878 H              1 S1                 0.0000
     37 ****         3.8618  -5.7385  -0.8878 H              1 S1                 0.0000
     38 ****        -2.1368   0.7154  -2.1599 H              1 S1                 0.0000
     39 ****        -3.6527   0.9159  -1.3276 H              1 S1                 0.0000
     40 ****        -2.8825   3.0924  -2.1531 H              1 S1                 0.0000
     41 ****        -1.3510   2.9242  -1.3360 H              1 S1                 0.0000
     42 ****        -0.2852  -1.4035  -0.8208 H              1 S1                 0.0000
     43 ****         4.2362  -0.6726  -0.0000 LP             1 S1                 0.0000
     44 ****         6.1415  -4.3894  -0.0000 LP             1 S1                 0.0000
@<TRIPOS>BOND
    1    1    2 1     
    2    1   18 1     
    3    1   19 1     
    4    1   20 1     
    5    2   17 1     
    6    2    3 1     
    7    2   21 1     
    8    3    4 1     
    9    3   22 1     
   10    3   23 1     
   11    4    5 1     
   12    4   24 1     
   13    4   25 1     
   14    5    6 1     
   15    5   16 1     
   16    5   26 1     
   17    6    7 1     
   18    6   27 1     
   19    6   28 1     
   20    7    8 1     
   21    7   29 1     
   22    7   42 1     
   23    8    9 1     
   24    8   30 1     
   25    8   31 1     
   26    9   10 1     
   27    9   32 1     
   28    9   33 1     
   29   10   14 1     
   30   10   11 2     
   31   11   12 1     
   32   12   13 2     
   33   12   34 1     
   34   13   14 1     
   35   14   15 1     
   36   15   35 1     
   37   15   36 1     
   38   15   37 1     
   39   16   17 1     
   40   16   38 1     
   41   16   39 1     
   42   17   40 1     
   43   17   41 1     
   44   11   43 1     
   45   13   44 1     
@<TRIPOS>SUBSTRUCTURE
      1 S1             1
@<TRIPOS>SET
LONE_PAIRS      STATIC     ATOMS    <user>   **** ""
2 43 44
DONOR_HYDROGENS      STATIC     ATOMS    <user>   **** ""
2 29 42
ATOM$BLUE        STATIC     ATOMS    COLORGROUP SYSTEM
2 43 44
ATOM$RED        STATIC     ATOMS    COLORGROUP SYSTEM
2 29 42
