AV-unprocessed.smi:196|AV-procd|sdf|1538|dock10
  -GOLD-   2262019393D 1   1.00000     0.00000
 Structure written by MMmdl.
 47 50  0  0  0  0  0  0  0  0  1 V2000
  146.0982  133.4208  162.8526 C   0  0  0  0  0  0  0  0  0  0  0  0
  147.0326  134.5397  162.3643 C   0  0  2  0  0  0  0  0  0  0  0  0
  147.8957  134.9642  163.4093 O   0  0  0  0  0  0  0  0  0  0  0  0
  148.4324  136.2150  163.0187 C   0  0  0  0  0  0  0  0  0  0  0  0
  147.2112  136.9479  162.4763 C   0  0  0  0  0  0  0  0  0  0  0  0
  146.3670  135.8398  161.8388 C   0  0  2  0  0  0  0  0  0  0  0  0
  145.0350  135.9760  162.3069 O   0  0  0  0  0  0  0  0  0  0  0  0
  146.3499  135.9372  160.2934 C   0  0  0  0  0  0  0  0  0  0  0  0
  147.6303  136.3269  159.7220 N   0  0  0  0  0  0  0  0  0  0  0  0
  148.8446  135.7068  159.9183 C   0  0  0  0  0  0  0  0  0  0  0  0
  149.8566  136.2521  159.3004 N   0  0  0  0  0  0  0  0  0  0  0  0
  149.2947  137.3225  158.6176 C   0  0  0  0  0  0  0  0  0  0  0  0
  149.8175  138.3225  157.7562 C   0  0  0  0  0  0  0  0  0  0  0  0
  151.1441  138.3734  157.4640 N   0  0  0  0  0  0  0  0  0  0  0  0
  151.7488  139.6094  157.9492 C   0  0  0  0  0  0  0  0  0  0  0  0
  151.8804  140.5388  156.7316 C   0  0  2  0  0  0  0  0  0  0  0  0
  150.9980  141.5367  156.7896 F   0  0  0  0  0  0  0  0  0  0  0  0
  151.6016  139.6504  155.5127 C   0  0  0  0  0  0  0  0  0  0  0  0
  151.6339  138.2240  156.0861 C   0  0  2  0  0  0  0  0  0  0  0  0
  150.9729  137.1373  155.2109 C   0  0  0  0  0  0  0  0  0  0  0  0
  150.2713  137.5533  154.1535 N   0  0  0  0  0  0  0  0  0  0  0  0
  151.1256  135.9406  155.4508 O   0  0  0  0  0  0  0  0  0  0  0  0
  148.9499  139.2481  157.2658 N   0  0  0  0  0  0  0  0  0  0  0  0
  147.6527  139.1843  157.5792 C   0  0  0  0  0  0  0  0  0  0  0  0
  147.0250  138.3020  158.3594 N   0  0  0  0  0  0  0  0  0  0  0  0
  147.8952  137.3822  158.8663 C   0  0  0  0  0  0  0  0  0  0  0  0
  152.8726  140.9889  156.6891 H   0  0  0  0  0  0  0  0  0  0  0  0
  152.6790  137.9218  156.1768 H   0  0  0  0  0  0  0  0  0  0  0  0
  145.4280  133.0931  162.0575 H   0  0  0  0  0  0  0  0  0  0  0  0
  145.4900  133.7448  163.6973 H   0  0  0  0  0  0  0  0  0  0  0  0
  146.6735  132.5537  163.1773 H   0  0  0  0  0  0  0  0  0  0  0  0
  147.6842  134.1308  161.5916 H   0  0  0  0  0  0  0  0  0  0  0  0
  148.8996  136.7338  163.8560 H   0  0  0  0  0  0  0  0  0  0  0  0
  149.1819  136.0691  162.2389 H   0  0  0  0  0  0  0  0  0  0  0  0
  146.6836  137.4123  163.3114 H   0  0  0  0  0  0  0  0  0  0  0  0
  147.4826  137.7438  161.7818 H   0  0  0  0  0  0  0  0  0  0  0  0
  144.4479  135.6620  161.6365 H   0  0  0  0  0  0  0  0  0  0  0  0
  146.0575  134.9818  159.8549 H   0  0  0  0  0  0  0  0  0  0  0  0
  145.5983  136.6597  159.9730 H   0  0  0  0  0  0  0  0  0  0  0  0
  148.9591  134.8347  160.5453 H   0  0  0  0  0  0  0  0  0  0  0  0
  151.1899  140.0802  158.7610 H   0  0  0  0  0  0  0  0  0  0  0  0
  152.7352  139.3680  158.3470 H   0  0  0  0  0  0  0  0  0  0  0  0
  150.6239  139.8799  155.0864 H   0  0  0  0  0  0  0  0  0  0  0  0
  152.3438  139.7953  154.7270 H   0  0  0  0  0  0  0  0  0  0  0  0
  149.8244  136.8806  153.5479 H   0  0  0  0  0  0  0  0  0  0  0  0
  150.1950  138.5417  153.9616 H   0  0  0  0  0  0  0  0  0  0  0  0
  147.0292  139.9512  157.1441 H   0  0  0  0  0  0  0  0  0  0  0  0
  1  2  1  0  0  0  0
  1 29  1  0  0  0  0
  1 30  1  0  0  0  0
  1 31  1  0  0  0  0
  2  6  1  0  0  0  0
  2  3  1  0  0  0  0
  2 32  1  0  0  0  0
  3  4  1  0  0  0  0
  4  5  1  0  0  0  0
  4 33  1  0  0  0  0
  4 34  1  0  0  0  0
  5  6  1  0  0  0  0
  5 35  1  0  0  0  0
  5 36  1  0  0  0  0
  6  7  1  0  0  0  0
  6  8  1  0  0  0  0
  7 37  1  0  0  0  0
  8  9  1  0  0  0  0
  8 38  1  0  0  0  0
  8 39  1  0  0  0  0
  9 26  1  0  0  0  0
  9 10  1  0  0  0  0
 10 11  2  0  0  0  0
 10 40  1  0  0  0  0
 11 12  1  0  0  0  0
 12 26  2  0  0  0  0
 12 13  1  0  0  0  0
 13 14  1  0  0  0  0
 13 23  2  0  0  0  0
 14 19  1  0  0  0  0
 14 15  1  0  0  0  0
 15 16  1  0  0  0  0
 15 41  1  0  0  0  0
 15 42  1  0  0  0  0
 16 27  1  0  0  0  0
 16 17  1  0  0  0  0
 16 18  1  0  0  0  0
 18 19  1  0  0  0  0
 18 43  1  0  0  0  0
 18 44  1  0  0  0  0
 19 28  1  0  0  0  0
 19 20  1  0  0  0  0
 20 21  1  0  0  0  0
 20 22  2  0  0  0  0
 21 45  1  0  0  0  0
 21 46  1  0  0  0  0
 23 24  1  0  0  0  0
 24 25  2  0  0  0  0
 24 47  1  0  0  0  0
 25 26  1  0  0  0  0
M  END
> <s_m_source_file>
AV-unprocessed.smi

> <i_m_source_file_index>
196

> <i_lp_mmshare_version>
43012

> <i_f3d_flags>
0

> <s_epik_input>
W0NIMl0xW0NIMl1PW0NAQEhdKFtDSDNdKVtDQEBdMShbT0hdKVtDSDJdbihbY0hdbjIpYyhjMjMpbltjSF1uYzNONFtDSDJdW0NASF0oRilbQ0gyXVtDQEhdNEMoPU8pW05IMl0=

> <s_epik_cmdline>
J2VwaWtfcHl0aG9uJywgJy1waCcsICc3LjAnLCAnLXRuJywgJzgnLCAnLW1hJywgJzIwMCcsICctbWV0YWxfYmluZGluZycsICctaW1hZScsICc8aW5maWxlLm1hZT4nLCAnLW9tYWUnLCAnPG91dGZpbGUubWFlPic=

> <r_lp_tautomer_probability>
1

> <r_epik_Ionization_Penalty>
0.000857933

> <r_epik_Ionization_Penalty_Charging>
0

> <r_epik_Ionization_Penalty_Neutral>
0.000857933

> <r_epik_State_Penalty>
0.000462053

> <r_epik_Charging_Adjusted_Penalty>
0.000462053

> <i_epik_Tot_Q>
0

> <i_epik_Tot_abs_Q>
0

> <r_epik_Metal_State_Penalty>
-0

> <b_epik_Metal_Only>
0

> <s_lp_Force_Field>
OPLS_2005

> <r_lp_Energy>
50.5725

> <b_lp_Chiralities_Consistent>
1

> <s_lp_Variant>
AV-unprocessed.smi:196-11

> <Gold.Version>
5.8.1

> <Gold.Id.Protein>
6NUR|6NUR_protein|mol2

> <Gold.PLP.Fitness>
46.4443

> <Gold.PLP.PLP>
-38.3701

> <Gold.PLP.part.hbond>
-3.5088

> <Gold.PLP.part.metal>
0.0000

> <Gold.PLP.part.buried>
-7.2944

> <Gold.PLP.part.nonpolar>
-27.3467

> <Gold.PLP.part.repulsive>
0.1678

> <Gold.PLP.ligand.clash>
0.0000

> <Gold.PLP.ligand.torsion>
0.4926

> <Gold.PLP.Chemscore.Hbond>
3.0000

> <Gold.PLP.Chemscore.CHOScore>
0.0000

> <Gold.PLP.Chemscore.Metal>
0.0000

> <Gold.Chemscore.Hbonds>
donor molecule, donor type, donor heavy atom, donor atom, acceptor molecule, acceptor atom, score
      L1  H    21    45       P1  7948  1.00
      P1  H  6896  6909       L1    11  0.70
      P1  H 10752 10764       L1    22  0.99

> <Gold.PLP.Chemscore.Internal.Correction>
0.0595

> <Gold.Rescore>
     Score         DG    S(hbond)    S(metal)    S(lipo)     H(rot)  DE(clash)    DE(int)     intcor
     12.82     -13.94       2.39        0.00      70.62       3.04       0.00       1.12       ----

> <Gold.Chemscore.Fitness>
12.8224

> <Gold.Chemscore.DG>
-13.9411

> <Gold.Chemscore.ZeroCoef>
-5.4800

> <Gold.Chemscore.Hbond>
2.3905

> <Gold.Chemscore.Metal>
0.0000

> <Gold.Chemscore.Lipo>
70.6204

> <Gold.Chemscore.Internal_Hbond>
0.0000

> <Gold.Chemscore.DEClash>
0.0009

> <Gold.Chemscore.DEInternal>
1.1177

> <Gold.Chemscore.Rot>
3.0413

> <Gold.Chemscore.Internal.Correction>
   9.000000E+99

> <Gold.Chemscore.Hbonds>
donor molecule, donor type, donor heavy atom, donor atom, acceptor molecule, acceptor atom, score
      L1  H    21    45       P1  7948  0.43
      P1  H  6896  6909       L1    11  0.07
      P1  H 10752 10764       L1    22  0.51

> <Gold.Chemscore.Hbond.Weighted>
-7.9841

> <Gold.Chemscore.Metal.Weighted>
-0.0000

> <Gold.Chemscore.Lipo.Weighted>
-8.2626

> <Gold.Chemscore.Internal_Hbond.Weighted>
0.0000

> <Gold.Chemscore.DEClash.Weighted>
0.0009

> <Gold.Chemscore.DEInternal.Weighted>
1.1177

> <Gold.Chemscore.Rot.Weighted>
7.7856

> <Gold.Chemscore.Internal.Correction.Weighted>
   9.000000E+99

> <Gold.Protein.RotatedTorsions>
[ 6907 6896 6895 6894 ] final   83.28 input  -60.11 | X-H torsion
[ 7974 7965 7964 7962 ] final  174.24 input  175.53 | X-H torsion
[ 8008 7997 7996 7995 ] final   68.00 input   59.86 | X-H torsion
[ 10167 10162 10161 10158 ] final   14.19 input  -65.29 | X-H torsion
[ 10718 10713 10712 10709 ] final -124.90 input   66.30 | X-H torsion
[ 10763 10752 10751 10750 ] final  -39.74 input  -60.55 | X-H torsion
[ 11005 11000 10999 10996 ] final   90.13 input  -57.11 | X-H torsion

> <Gold.Protein.ActiveResidues>
 VAL166  LYS551  ARG553  GLY616  TRP617  ASP618  TYR619  PRO620  LYS621  CYS622 
 ASP623  PHE694  ASN695  SER759  ASP760  ASP761  ALA762  ILE779  LEU786  VAL792 
 PHE793  MET794  SER795  GLU796  ALA797  LYS798  CYS799  TRP800  GLU811  SER814 

> <Gold.Protein.RotatedAtoms>
  152.5323  134.2920  159.9046 H   0  0  0  0  0  0  0  0  0  0  0  0  # atno 6907 bound_to 6896
  151.2872  133.4175  159.2638 H   0  0  0  0  0  0  0  0  0  0  0  0  # atno 6908 bound_to 6896
  151.0232  134.9500  159.8128 H   0  0  0  0  0  0  0  0  0  0  0  0  # atno 6909 bound_to 6896
  144.7226  139.9767  143.6438 H   0  0  0  0  0  0  0  0  0  0  0  0  # atno 7974 bound_to 7965
  155.7015  140.3495  155.4935 H   0  0  0  0  0  0  0  0  0  0  0  0  # atno 8008 bound_to 7997
  155.9436  140.1106  157.1057 H   0  0  0  0  0  0  0  0  0  0  0  0  # atno 8009 bound_to 7997
  154.4107  140.1208  156.4946 H   0  0  0  0  0  0  0  0  0  0  0  0  # atno 8010 bound_to 7997
  140.5952  143.8715  150.6911 H   0  0  0  0  0  0  0  0  0  0  0  0  # atno 10167 bound_to 10162
  156.1628  130.6613  151.0073 H   0  0  0  0  0  0  0  0  0  0  0  0  # atno 10718 bound_to 10713
  153.9345  135.6768  153.4745 H   0  0  0  0  0  0  0  0  0  0  0  0  # atno 10763 bound_to 10752
  153.0963  135.4850  154.8781 H   0  0  0  0  0  0  0  0  0  0  0  0  # atno 10764 bound_to 10752
  154.7410  135.3161  154.8685 H   0  0  0  0  0  0  0  0  0  0  0  0  # atno 10765 bound_to 10752
  139.8862  134.8594  156.3240 H   0  0  0  0  0  0  0  0  0  0  0  0  # atno 11005 bound_to 11000
  146.0520  139.3520  143.0634 LP  0  0  0  0  0  0  0  0  0  0  0  0  # atno 17320 bound_to 7965
  145.8203  140.9682  143.0902 LP  0  0  0  0  0  0  0  0  0  0  0  0  # atno 17321 bound_to 7965
  140.2248  143.3781  152.1614 LP  0  0  0  0  0  0  0  0  0  0  0  0  # atno 17342 bound_to 10162
  139.5253  144.7095  151.5251 LP  0  0  0  0  0  0  0  0  0  0  0  0  # atno 17343 bound_to 10162
  157.6745  131.0853  150.7528 LP  0  0  0  0  0  0  0  0  0  0  0  0  # atno 17370 bound_to 10713
  156.7590  130.4793  149.5441 LP  0  0  0  0  0  0  0  0  0  0  0  0  # atno 17371 bound_to 10713
  140.9767  133.7293  156.0613 LP  0  0  0  0  0  0  0  0  0  0  0  0  # atno 17394 bound_to 11000
  140.7801  134.3735  157.5489 LP  0  0  0  0  0  0  0  0  0  0  0  0  # atno 17395 bound_to 11000

$$$$
