#       Name:                AV-unprocessed.smi:557
#       Creating user name   scv26
#       Creation time:       Thu Mar 26 23:41:11 2020


#       File generated by GOLD software.
#

@<TRIPOS>MOLECULE
AV-unprocessed.smi:557
    50    52     1
SMALL
NO_CHARGES


@<TRIPOS>ATOM
      1 ****        -7.7468  -5.1089  -2.8135 C.3            1 S1                 0.0000
      2 ****        -6.8658  -4.2347  -2.0690 N.pl3          1 S1                 0.0000
      3 ****        -5.7859  -3.5100  -2.5251 C.2            1 S1                 0.0000
      4 ****        -5.2602  -2.8405  -1.4560 C.2            1 S1                 0.0000
      5 ****        -4.0712  -1.9217  -1.4160 C.3            1 S1                 0.0000
      6 ****        -2.7701  -2.7017  -1.1857 C.3            1 S1                 0.0000
      7 ****        -1.6220  -1.7992  -1.1747 N.am           1 S1                 0.0000
      8 ****        -0.3238  -2.1402  -1.1142 C.2            1 S1                 0.0000
      9 ****         0.0418  -3.3126  -1.0582 O.2            1 S1                 0.0000
     10 ****         0.5278  -1.1009  -1.1191 N.am           1 S1                 0.0000
     11 ****         1.9802  -1.2126  -1.0190 C.3            1 S1                 0.0000
     12 ****         2.7167   0.0761  -1.4077 C.3            1 S1                 0.0000
     13 ****         3.9873   0.0888  -0.5386 C.3            1 S1                 0.0000
     14 ****         3.9137  -1.1146   0.3199 N.4            1 S1                 1.0000
     15 ****         4.6484  -1.0535   1.6097 C.3            1 S1                 0.0000
     16 ****         3.8887  -0.2660   2.6903 C.3            1 S1                 0.0000
     17 ****         2.4682  -0.8140   2.8593 C.3            1 S1                 0.0000
     18 ****         1.7307  -0.7442   1.5185 C.3            1 S1                 0.0000
     19 ****         2.4892  -1.5084   0.4023 C.3            1 S1                 0.0000
     20 ****        -6.1058  -3.2260  -0.3767 C.2            1 S1                 0.0000
     21 ****        -7.0637  -4.0606  -0.7463 N.2            1 S1                 0.0000
     22 ****        -7.5100  -5.0614  -3.8767 H              1 S1                 0.0000
     23 ****        -8.7830  -4.8027  -2.6674 H              1 S1                 0.0000
     24 ****        -7.6242  -6.1357  -2.4679 H              1 S1                 0.0000
     25 ****        -5.4805  -3.5323  -3.5611 H              1 S1                 0.0000
     26 ****        -3.9945  -1.3591  -2.3474 H              1 S1                 0.0000
     27 ****        -4.1908  -1.1764  -0.6284 H              1 S1                 0.0000
     28 ****        -2.8182  -3.2377  -0.2364 H              1 S1                 0.0000
     29 ****        -2.6433  -3.4447  -1.9751 H              1 S1                 0.0000
     30 ****        -1.8314  -0.8145  -1.2569 H              1 S1                 0.0000
     31 ****         0.1401  -0.1703  -1.1769 H              1 S1                 0.0000
     32 ****         2.3238  -2.0075  -1.6847 H              1 S1                 0.0000
     33 ****         2.9456   0.1029  -2.4736 H              1 S1                 0.0000
     34 ****         2.1104   0.9545  -1.1812 H              1 S1                 0.0000
     35 ****         4.8948   0.0584  -1.1424 H              1 S1                 0.0000
     36 ****         4.0180   0.9982   0.0626 H              1 S1                 0.0000
     37 ****         4.8005  -2.0766   1.9556 H              1 S1                 0.0000
     38 ****         5.6411  -0.6307   1.4503 H              1 S1                 0.0000
     39 ****         4.4248  -0.3265   3.6380 H              1 S1                 0.0000
     40 ****         3.8483   0.7917   2.4282 H              1 S1                 0.0000
     41 ****         2.5033  -1.8452   3.2137 H              1 S1                 0.0000
     42 ****         1.9305  -0.2399   3.6145 H              1 S1                 0.0000
     43 ****         0.7263  -1.1519   1.6372 H              1 S1                 0.0000
     44 ****         1.6037   0.3027   1.2402 H              1 S1                 0.0000
     45 ****         2.4330  -2.5779   0.6101 H              1 S1                 0.0000
     46 ****        -6.0489  -2.9277   0.6597 H              1 S1                 0.0000
     47 ****         4.3593  -1.8416  -0.2217 H              1 S1                 0.0000
     48 ****        -0.6357  -4.0481  -1.0567 LP             1 S1                 0.0000
     49 ****         1.0167  -3.5307  -1.0142 LP             1 S1                 0.0000
     50 ****        -7.7742  -4.4700  -0.1739 LP             1 S1                 0.0000
@<TRIPOS>BOND
    1    1    2 1     
    2    1   22 1     
    3    1   23 1     
    4    1   24 1     
    5    2   21 1     
    6    2    3 1     
    7    3    4 2     
    8    3   25 1     
    9    4    5 1     
   10    4   20 1     
   11    5    6 1     
   12    5   26 1     
   13    5   27 1     
   14    6    7 1     
   15    6   28 1     
   16    6   29 1     
   17    7    8 am    
   18    7   30 1     
   19    8    9 2     
   20    8   10 am    
   21   10   11 1     
   22   10   31 1     
   23   11   19 1     
   24   11   12 1     
   25   11   32 1     
   26   12   13 1     
   27   12   33 1     
   28   12   34 1     
   29   13   14 1     
   30   13   35 1     
   31   13   36 1     
   32   14   19 1     
   33   14   15 1     
   34   14   47 1     
   35   15   16 1     
   36   15   37 1     
   37   15   38 1     
   38   16   17 1     
   39   16   39 1     
   40   16   40 1     
   41   17   18 1     
   42   17   41 1     
   43   17   42 1     
   44   18   19 1     
   45   18   43 1     
   46   18   44 1     
   47   19   45 1     
   48   20   21 2     
   49   20   46 1     
   50    9   48 1     
   51    9   49 1     
   52   21   50 1     
@<TRIPOS>SUBSTRUCTURE
      1 S1             1
@<TRIPOS>SET
LONE_PAIRS      STATIC     ATOMS    <user>   **** ""
3 48 49 50
DONOR_HYDROGENS      STATIC     ATOMS    <user>   **** ""
3 30 31 47
ATOM$BLUE        STATIC     ATOMS    COLORGROUP SYSTEM
3 48 49 50
ATOM$RED        STATIC     ATOMS    COLORGROUP SYSTEM
3 30 31 47
