AV-unprocessed.smi:800|AV-procd|sdf|3787|dock6
  -GOLD-   22720 1223D 1   1.00000     0.00000
 Structure written by MMmdl.
 36 37  0  0  0  0  0  0  0  0  1 V2000
  145.9447  146.2835  159.8931 C   0  0  0  0  0  0  0  0  0  0  0  0
  146.6621  145.0103  160.3600 C   0  0  0  0  0  0  0  0  0  0  0  0
  147.8625  145.3341  161.2629 C   0  0  0  0  0  0  0  0  0  0  0  0
  147.0935  144.2434  159.1959 N   0  0  0  0  0  0  0  0  0  0  0  0
  146.8077  142.9523  158.9618 C   0  0  0  0  0  0  0  0  0  0  0  0
  146.1019  142.2642  159.7002 O   0  0  0  0  0  0  0  0  0  0  0  0
  147.3446  142.3931  157.6757 C   0  0  0  0  0  0  0  0  0  0  0  0
  148.5940  141.8764  157.7217 N   0  0  0  0  0  0  0  0  0  0  0  0
  149.1217  141.3699  156.6005 C   0  0  0  0  0  0  0  0  0  0  0  0
  150.4155  140.8378  156.6760 N   0  0  0  0  0  0  0  0  0  0  0  0
  151.1789  140.4766  155.4786 C   0  0  0  0  0  0  0  0  0  0  0  0
  152.1071  139.2831  155.7605 C   0  0  0  0  0  0  0  0  0  0  0  0
  152.9449  139.5754  156.8719 O   0  0  0  0  0  0  0  0  0  0  0  0
  152.1857  139.7974  158.0536 C   0  0  0  0  0  0  0  0  0  0  0  0
  151.2618  141.0115  157.8592 C   0  0  0  0  0  0  0  0  0  0  0  0
  148.5037  141.3376  155.4136 N   0  0  0  0  0  0  0  0  0  0  0  0
  147.2618  141.8591  155.3374 C   0  0  0  0  0  0  0  0  0  0  0  0
  146.6164  142.4173  156.4576 C   0  0  0  0  0  0  0  0  0  0  0  0
  145.0396  143.1107  156.2844 Cl  0  0  0  0  0  0  0  0  0  0  0  0
  145.5894  146.8672  160.7428 H   0  0  0  0  0  0  0  0  0  0  0  0
  145.0788  146.0425  159.2756 H   0  0  0  0  0  0  0  0  0  0  0  0
  146.6066  146.9210  159.3056 H   0  0  0  0  0  0  0  0  0  0  0  0
  145.9466  144.4166  160.9317 H   0  0  0  0  0  0  0  0  0  0  0  0
  147.5497  145.9002  162.1405 H   0  0  0  0  0  0  0  0  0  0  0  0
  148.6095  145.9266  160.7335 H   0  0  0  0  0  0  0  0  0  0  0  0
  148.3495  144.4249  161.6170 H   0  0  0  0  0  0  0  0  0  0  0  0
  147.6637  144.7274  158.5174 H   0  0  0  0  0  0  0  0  0  0  0  0
  150.5330  140.2144  154.6413 H   0  0  0  0  0  0  0  0  0  0  0  0
  151.7654  141.3410  155.1659 H   0  0  0  0  0  0  0  0  0  0  0  0
  151.5285  138.3781  155.9537 H   0  0  0  0  0  0  0  0  0  0  0  0
  152.7316  139.0810  154.8903 H   0  0  0  0  0  0  0  0  0  0  0  0
  151.6086  138.9053  158.3028 H   0  0  0  0  0  0  0  0  0  0  0  0
  152.8682  139.9754  158.8844 H   0  0  0  0  0  0  0  0  0  0  0  0
  151.8561  141.9169  157.7322 H   0  0  0  0  0  0  0  0  0  0  0  0
  150.6764  141.1429  158.7686 H   0  0  0  0  0  0  0  0  0  0  0  0
  146.7825  141.8377  154.3698 H   0  0  0  0  0  0  0  0  0  0  0  0
  1  2  1  0  0  0  0
  1 20  1  0  0  0  0
  1 21  1  0  0  0  0
  1 22  1  0  0  0  0
  2  3  1  0  0  0  0
  2  4  1  0  0  0  0
  2 23  1  0  0  0  0
  3 24  1  0  0  0  0
  3 25  1  0  0  0  0
  3 26  1  0  0  0  0
  4  5  1  0  0  0  0
  4 27  1  0  0  0  0
  5  6  2  0  0  0  0
  5  7  1  0  0  0  0
  7 18  1  0  0  0  0
  7  8  2  0  0  0  0
  8  9  1  0  0  0  0
  9 10  1  0  0  0  0
  9 16  2  0  0  0  0
 10 15  1  0  0  0  0
 10 11  1  0  0  0  0
 11 12  1  0  0  0  0
 11 28  1  0  0  0  0
 11 29  1  0  0  0  0
 12 13  1  0  0  0  0
 12 30  1  0  0  0  0
 12 31  1  0  0  0  0
 13 14  1  0  0  0  0
 14 15  1  0  0  0  0
 14 32  1  0  0  0  0
 14 33  1  0  0  0  0
 15 34  1  0  0  0  0
 15 35  1  0  0  0  0
 16 17  1  0  0  0  0
 17 18  2  0  0  0  0
 17 36  1  0  0  0  0
 18 19  1  0  0  0  0
M  END
> <s_m_source_file>
AV-unprocessed.smi

> <i_m_source_file_index>
800

> <i_lp_mmshare_version>
43012

> <i_f3d_flags>
0

> <s_epik_input>
W0NIM11bQ0hdKFtDSDNdKVtOSF1DKD1PKWMxbmMobltjSF1jMUNsKU4yW0NIMl1bQ0gyXU9bQ0gyXVtDSDJdMg==

> <s_epik_cmdline>
J2VwaWtfcHl0aG9uJywgJy1waCcsICc3LjAnLCAnLXRuJywgJzgnLCAnLW1hJywgJzIwMCcsICctbWV0YWxfYmluZGluZycsICctaW1hZScsICc8aW5maWxlLm1hZT4nLCAnLW9tYWUnLCAnPG91dGZpbGUubWFlPic=

> <r_lp_tautomer_probability>
1

> <r_epik_Ionization_Penalty>
1.24434e-05

> <r_epik_Ionization_Penalty_Charging>
0

> <r_epik_Ionization_Penalty_Neutral>
1.24434e-05

> <r_epik_State_Penalty>
-0

> <r_epik_Charging_Adjusted_Penalty>
0

> <i_epik_Tot_Q>
0

> <i_epik_Tot_abs_Q>
0

> <r_epik_Metal_State_Penalty>
0.0120585

> <b_epik_Metal_Only>
0

> <s_lp_Force_Field>
OPLS_2005

> <r_lp_Energy>
14.0321

> <b_lp_Chiralities_Consistent>
1

> <s_lp_Variant>
AV-unprocessed.smi:800-1

> <Gold.Version>
5.8.1

> <Gold.Id.Protein>
6NUR|6NUR_protein|mol2

> <Gold.PLP.Fitness>
36.0635

> <Gold.PLP.PLP>
-30.1604

> <Gold.PLP.part.hbond>
-3.0000

> <Gold.PLP.part.metal>
0.0000

> <Gold.PLP.part.buried>
-3.9816

> <Gold.PLP.part.nonpolar>
-23.1025

> <Gold.PLP.part.repulsive>
0.2961

> <Gold.PLP.ligand.clash>
0.0000

> <Gold.PLP.ligand.torsion>
1.6044

> <Gold.PLP.Chemscore.Hbond>
3.0000

> <Gold.PLP.Chemscore.CHOScore>
0.0000

> <Gold.PLP.Chemscore.Metal>
0.0000

> <Gold.Chemscore.Hbonds>
donor molecule, donor type, donor heavy atom, donor atom, acceptor molecule, acceptor atom, score
      L1  H     4    27       P1  8029  1.00
      P1  H  6934  6946       L1     6  1.00
      P1  H  7997  8008       L1    13  1.00

> <Gold.PLP.Chemscore.Internal.Correction>
0.1118

> <Gold.Rescore>
     Score         DG    S(hbond)    S(metal)    S(lipo)     H(rot)  DE(clash)    DE(int)     intcor
     17.16     -18.87       2.98        0.00      51.42       1.00       0.07       1.64       ----

> <Gold.Chemscore.Fitness>
17.1639

> <Gold.Chemscore.DG>
-18.8731

> <Gold.Chemscore.ZeroCoef>
-5.4800

> <Gold.Chemscore.Hbond>
2.9753

> <Gold.Chemscore.Metal>
0.0000

> <Gold.Chemscore.Lipo>
51.4156

> <Gold.Chemscore.Internal_Hbond>
0.0000

> <Gold.Chemscore.DEClash>
0.0689

> <Gold.Chemscore.DEInternal>
1.6403

> <Gold.Chemscore.Rot>
1.0000

> <Gold.Chemscore.Internal.Correction>
   9.000000E+99

> <Gold.Chemscore.Hbonds>
donor molecule, donor type, donor heavy atom, donor atom, acceptor molecule, acceptor atom, score
      L1  H     4    27       P1  8029  0.94
      P1  H  6934  6946       L1     6  0.97
      P1  H  7997  8008       L1    13  0.79

> <Gold.Chemscore.Hbond.Weighted>
-9.9375

> <Gold.Chemscore.Metal.Weighted>
-0.0000

> <Gold.Chemscore.Lipo.Weighted>
-6.0156

> <Gold.Chemscore.Internal_Hbond.Weighted>
0.0000

> <Gold.Chemscore.DEClash.Weighted>
0.0689

> <Gold.Chemscore.DEInternal.Weighted>
1.6403

> <Gold.Chemscore.Rot.Weighted>
2.5600

> <Gold.Chemscore.Internal.Correction.Weighted>
   9.000000E+99

> <Gold.Protein.RotatedTorsions>
[ 6907 6896 6895 6894 ] final  -69.87 input  -60.11 | X-H torsion
[ 7974 7965 7964 7962 ] final -154.73 input  175.53 | X-H torsion
[ 8008 7997 7996 7995 ] final  -47.18 input   59.86 | X-H torsion
[ 10167 10162 10161 10158 ] final  -33.74 input  -65.29 | X-H torsion
[ 10718 10713 10712 10709 ] final  176.42 input   66.30 | X-H torsion
[ 10763 10752 10751 10750 ] final  -74.68 input  -60.55 | X-H torsion
[ 11005 11000 10999 10996 ] final  -31.98 input  -57.11 | X-H torsion

> <Gold.Protein.ActiveResidues>
 VAL166  LYS551  ARG553  GLY616  TRP617  ASP618  TYR619  PRO620  LYS621  CYS622 
 ASP623  PHE694  ASN695  SER759  ASP760  ASP761  ALA762  ILE779  LEU786  VAL792 
 PHE793  MET794  SER795  GLU796  ALA797  LYS798  CYS799  TRP800  GLU811  SER814 

> <Gold.Protein.RotatedAtoms>
  150.7285  134.5535  159.5806 H   0  0  0  0  0  0  0  0  0  0  0  0  # atno 6907 bound_to 6896
  152.3016  134.7601  160.0365 H   0  0  0  0  0  0  0  0  0  0  0  0  # atno 6908 bound_to 6896
  151.8180  133.3355  159.3612 H   0  0  0  0  0  0  0  0  0  0  0  0  # atno 6909 bound_to 6896
  144.7675  140.4348  143.5931 H   0  0  0  0  0  0  0  0  0  0  0  0  # atno 7974 bound_to 7965
  154.4014  140.1353  156.4133 H   0  0  0  0  0  0  0  0  0  0  0  0  # atno 8008 bound_to 7997
  155.7713  140.3484  155.5228 H   0  0  0  0  0  0  0  0  0  0  0  0  # atno 8009 bound_to 7997
  155.8764  140.0980  157.1505 H   0  0  0  0  0  0  0  0  0  0  0  0  # atno 8010 bound_to 7997
  140.7199  143.3598  151.1985 H   0  0  0  0  0  0  0  0  0  0  0  0  # atno 10167 bound_to 10162
  156.9204  130.9938  151.3005 H   0  0  0  0  0  0  0  0  0  0  0  0  # atno 10718 bound_to 10713
  154.4763  135.5856  153.6357 H   0  0  0  0  0  0  0  0  0  0  0  0  # atno 10763 bound_to 10752
  152.9841  135.6079  154.3303 H   0  0  0  0  0  0  0  0  0  0  0  0  # atno 10764 bound_to 10752
  154.3189  135.2844  155.2508 H   0  0  0  0  0  0  0  0  0  0  0  0  # atno 10765 bound_to 10752
  140.9514  133.7219  156.1226 H   0  0  0  0  0  0  0  0  0  0  0  0  # atno 11005 bound_to 11000
  145.6425  139.1552  143.2907 LP  0  0  0  0  0  0  0  0  0  0  0  0  # atno 17320 bound_to 7965
  146.1795  140.6520  142.9196 LP  0  0  0  0  0  0  0  0  0  0  0  0  # atno 17321 bound_to 7965
  139.7148  143.9318  152.2962 LP  0  0  0  0  0  0  0  0  0  0  0  0  # atno 17342 bound_to 10162
  139.9055  144.6887  150.8618 LP  0  0  0  0  0  0  0  0  0  0  0  0  # atno 17343 bound_to 10162
  157.5911  130.8444  149.8661 LP  0  0  0  0  0  0  0  0  0  0  0  0  # atno 17370 bound_to 10713
  156.0494  130.3721  150.1239 LP  0  0  0  0  0  0  0  0  0  0  0  0  # atno 17371 bound_to 10713
  140.7597  134.3952  157.5527 LP  0  0  0  0  0  0  0  0  0  0  0  0  # atno 17394 bound_to 11000
  139.8848  134.8953  156.2678 LP  0  0  0  0  0  0  0  0  0  0  0  0  # atno 17395 bound_to 11000

$$$$
