AV-unprocessed.smi:2302|AV-procd|sdf|9238|dock3
  -GOLD-   2272012453D 1   1.00000     0.00000
 Structure written by MMmdl.
 40 41  0  0  0  0  0  0  0  0  2 V2000
  153.5695  141.2220  160.3096 C   0  0  0  0  0  0  0  0  0  0  0  0
  152.7266  142.3644  159.7825 C   0  0  0  0  0  0  0  0  0  0  0  0
  152.7322  143.6217  160.4174 C   0  0  0  0  0  0  0  0  0  0  0  0
  151.9247  144.6397  159.8792 C   0  0  0  0  0  0  0  0  0  0  0  0
  151.1495  144.3602  158.7371 C   0  0  0  0  0  0  0  0  0  0  0  0
  151.1998  143.0707  158.1615 C   0  0  0  0  0  0  0  0  0  0  0  0
  150.3808  142.8893  157.0151 N   0  0  0  0  0  0  0  0  0  0  0  0
  150.4035  141.8765  156.1306 C   0  0  0  0  0  0  0  0  0  0  0  0
  151.1674  140.9116  156.1711 O   0  0  0  0  0  0  0  0  0  0  0  0
  149.4760  142.0425  155.1763 N   0  0  0  0  0  0  0  0  0  0  0  0
  149.2301  141.1151  154.0764 C   0  0  0  0  0  0  0  0  0  0  0  0
  148.1377  140.0872  154.4223 C   0  0  2  0  0  0  0  0  0  0  0  0
  146.9476  140.1729  153.4413 C   0  0  0  0  0  0  0  0  0  0  0  0
  145.8496  139.2544  153.8282 N   0  3  1  0  0  0  0  0  0  0  0  0
  146.0947  137.8410  153.4596 C   0  0  0  0  0  0  0  0  0  0  0  0
  145.4673  139.4425  155.2477 C   0  0  0  0  0  0  0  0  0  0  0  0
  146.6986  139.3907  156.1706 C   0  0  0  0  0  0  0  0  0  0  0  0
  147.6551  140.3486  155.7371 O   0  0  0  0  0  0  0  0  0  0  0  0
  151.9824  142.0959  158.6880 N   0  0  0  0  0  0  0  0  0  0  0  0
  154.3208  141.5795  161.0144 H   0  0  0  0  0  0  0  0  0  0  0  0
  154.0857  140.7169  159.4926 H   0  0  0  0  0  0  0  0  0  0  0  0
  152.9392  140.4940  160.8206 H   0  0  0  0  0  0  0  0  0  0  0  0
  153.3376  143.8035  161.2931 H   0  0  0  0  0  0  0  0  0  0  0  0
  151.8990  145.6186  160.3347 H   0  0  0  0  0  0  0  0  0  0  0  0
  150.5237  145.1314  158.3120 H   0  0  0  0  0  0  0  0  0  0  0  0
  149.6955  143.6123  156.8541 H   0  0  0  0  0  0  0  0  0  0  0  0
  148.8899  142.8634  155.2203 H   0  0  0  0  0  0  0  0  0  0  0  0
  148.9772  141.6548  153.1620 H   0  0  0  0  0  0  0  0  0  0  0  0
  150.1679  140.5969  153.8746 H   0  0  0  0  0  0  0  0  0  0  0  0
  148.5770  139.0888  154.3883 H   0  0  0  0  0  0  0  0  0  0  0  0
  146.5525  141.1897  153.4387 H   0  0  0  0  0  0  0  0  0  0  0  0
  147.2689  139.9645  152.4200 H   0  0  0  0  0  0  0  0  0  0  0  0
  146.9415  137.4192  154.0009 H   0  0  0  0  0  0  0  0  0  0  0  0
  146.2971  137.7541  152.3916 H   0  0  0  0  0  0  0  0  0  0  0  0
  145.2163  137.2330  153.6782 H   0  0  0  0  0  0  0  0  0  0  0  0
  144.9866  140.4166  155.3455 H   0  0  0  0  0  0  0  0  0  0  0  0
  144.7258  138.7000  155.5453 H   0  0  0  0  0  0  0  0  0  0  0  0
  146.4073  139.6246  157.1946 H   0  0  0  0  0  0  0  0  0  0  0  0
  147.1421  138.3944  156.1893 H   0  0  0  0  0  0  0  0  0  0  0  0
  145.0460  139.5306  153.2818 H   0  0  0  0  0  0  0  0  0  0  0  0
  1  2  1  0  0  0  0
  1 20  1  0  0  0  0
  1 21  1  0  0  0  0
  1 22  1  0  0  0  0
  2 19  1  0  0  0  0
  2  3  2  0  0  0  0
  3  4  1  0  0  0  0
  3 23  1  0  0  0  0
  4  5  2  0  0  0  0
  4 24  1  0  0  0  0
  5  6  1  0  0  0  0
  5 25  1  0  0  0  0
  6  7  1  0  0  0  0
  6 19  2  0  0  0  0
  7  8  1  0  0  0  0
  7 26  1  0  0  0  0
  8  9  2  0  0  0  0
  8 10  1  0  0  0  0
 10 11  1  0  0  0  0
 10 27  1  0  0  0  0
 11 12  1  0  0  0  0
 11 28  1  0  0  0  0
 11 29  1  0  0  0  0
 12 18  1  0  0  0  0
 12 13  1  0  0  0  0
 12 30  1  0  0  0  0
 13 14  1  0  0  0  0
 13 31  1  0  0  0  0
 13 32  1  0  0  0  0
 14 15  1  0  0  0  0
 14 16  1  0  0  0  0
 14 40  1  0  0  0  0
 15 33  1  0  0  0  0
 15 34  1  0  0  0  0
 15 35  1  0  0  0  0
 16 17  1  0  0  0  0
 16 36  1  0  0  0  0
 16 37  1  0  0  0  0
 17 18  1  0  0  0  0
 17 38  1  0  0  0  0
 17 39  1  0  0  0  0
M  CHG  1  14   1
M  END
> <s_m_source_file>
AV-unprocessed.smi

> <i_m_source_file_index>
2302

> <i_lp_mmshare_version>
43012

> <i_f3d_flags>
0

> <s_epik_input>
W0NIM11jMVtjSF1bY0hdW2NIXWMobjEpW05IXUMoPU8pW05IXVtDSDJdW0NAQEhdMltDSDJdTihbQ0gzXSlbQ0gyXVtDSDJdTzI=

> <s_epik_cmdline>
J2VwaWtfcHl0aG9uJywgJy1waCcsICc3LjAnLCAnLXRuJywgJzgnLCAnLW1hJywgJzIwMCcsICctbWV0YWxfYmluZGluZycsICctaW1hZScsICc8aW5maWxlLm1hZT4nLCAnLW9tYWUnLCAnPG91dGZpbGUubWFlPic=

> <r_epik_Ionization_Penalty>
0.204647

> <r_epik_Ionization_Penalty_Charging>
0.204578

> <r_epik_Ionization_Penalty_Neutral>
6.91954e-05

> <r_epik_State_Penalty>
0.194513

> <r_epik_Charging_Adjusted_Penalty>
0.399091

> <i_epik_Tot_Q>
1

> <i_epik_Tot_abs_Q>
1

> <r_epik_Metal_State_Penalty>
0.194515

> <b_epik_Metal_Only>
0

> <s_lp_Force_Field>
OPLS_2005

> <r_lp_Energy>
17.8944

> <b_lp_Chiralities_Consistent>
1

> <s_lp_Variant>
AV-unprocessed.smi:2302-3

> <Gold.Version>
5.8.1

> <Gold.Id.Protein>
6NUR|6NUR_protein|mol2

> <Gold.PLP.Fitness>
45.0613

> <Gold.PLP.PLP>
-35.0280

> <Gold.PLP.part.hbond>
-3.0000

> <Gold.PLP.part.metal>
0.0000

> <Gold.PLP.part.buried>
-3.6602

> <Gold.PLP.part.nonpolar>
-28.7999

> <Gold.PLP.part.repulsive>
0.2757

> <Gold.PLP.ligand.clash>
0.0000

> <Gold.PLP.ligand.torsion>
0.9728

> <Gold.PLP.Chemscore.Hbond>
3.9920

> <Gold.PLP.Chemscore.CHOScore>
0.0000

> <Gold.PLP.Chemscore.Metal>
0.0000

> <Gold.Chemscore.Hbonds>
donor molecule, donor type, donor heavy atom, donor atom, acceptor molecule, acceptor atom, score
      L1  H     7    26       P1  8028  0.96
      L1  H    10    27       P1  8028  0.88
      L1  H    14    40       P1 10175  2.00

> <Gold.PLP.Chemscore.Internal.Correction>
0.0030

> <Gold.Rescore>
     Score         DG    S(hbond)    S(metal)    S(lipo)     H(rot)  DE(clash)    DE(int)     intcor
     19.53     -21.76       2.93        0.00      83.43       1.27       0.02       2.20       ----

> <Gold.Chemscore.Fitness>
19.5334

> <Gold.Chemscore.DG>
-21.7562

> <Gold.Chemscore.ZeroCoef>
-5.4800

> <Gold.Chemscore.Hbond>
2.9268

> <Gold.Chemscore.Metal>
0.0000

> <Gold.Chemscore.Lipo>
83.4256

> <Gold.Chemscore.Internal_Hbond>
0.0000

> <Gold.Chemscore.DEClash>
0.0203

> <Gold.Chemscore.DEInternal>
2.2025

> <Gold.Chemscore.Rot>
1.2736

> <Gold.Chemscore.Internal.Correction>
   9.000000E+99

> <Gold.Chemscore.Hbonds>
donor molecule, donor type, donor heavy atom, donor atom, acceptor molecule, acceptor atom, score
      L1  H     7    26       P1  8028  0.91
      L1  H    10    27       P1  8028  0.86
      L1  H    14    40       P1 10175  1.00

> <Gold.Chemscore.Hbond.Weighted>
-9.7757

> <Gold.Chemscore.Metal.Weighted>
-0.0000

> <Gold.Chemscore.Lipo.Weighted>
-9.7608

> <Gold.Chemscore.Internal_Hbond.Weighted>
0.0000

> <Gold.Chemscore.DEClash.Weighted>
0.0203

> <Gold.Chemscore.DEInternal.Weighted>
2.2025

> <Gold.Chemscore.Rot.Weighted>
3.2603

> <Gold.Chemscore.Internal.Correction.Weighted>
   9.000000E+99

> <Gold.Protein.RotatedTorsions>
[ 6907 6896 6895 6894 ] final   -0.03 input  -60.11 | X-H torsion
[ 7974 7965 7964 7962 ] final  123.00 input  175.53 | X-H torsion
[ 8008 7997 7996 7995 ] final   68.62 input   59.86 | X-H torsion
[ 10167 10162 10161 10158 ] final -127.27 input  -65.29 | X-H torsion
[ 10718 10713 10712 10709 ] final   85.23 input   66.30 | X-H torsion
[ 10763 10752 10751 10750 ] final  -33.66 input  -60.55 | X-H torsion
[ 11005 11000 10999 10996 ] final   52.39 input  -57.11 | X-H torsion

> <Gold.Protein.ActiveResidues>
 VAL166  LYS551  ARG553  GLY616  TRP617  ASP618  TYR619  PRO620  LYS621  CYS622 
 ASP623  PHE694  ASN695  SER759  ASP760  ASP761  ALA762  ILE779  LEU786  VAL792 
 PHE793  MET794  SER795  GLU796  ALA797  LYS798  CYS799  TRP800  GLU811  SER814 

> <Gold.Protein.RotatedAtoms>
  151.5688  135.1063  159.9989 H   0  0  0  0  0  0  0  0  0  0  0  0  # atno 6907 bound_to 6896
  152.4411  133.7446  159.6670 H   0  0  0  0  0  0  0  0  0  0  0  0  # atno 6908 bound_to 6896
  150.8317  133.8012  159.3119 H   0  0  0  0  0  0  0  0  0  0  0  0  # atno 6909 bound_to 6896
  145.1010  139.3518  143.4812 H   0  0  0  0  0  0  0  0  0  0  0  0  # atno 7974 bound_to 7965
  155.7111  140.3494  155.4974 H   0  0  0  0  0  0  0  0  0  0  0  0  # atno 8008 bound_to 7997
  155.9354  140.1092  157.1120 H   0  0  0  0  0  0  0  0  0  0  0  0  # atno 8009 bound_to 7997
  154.4093  140.1223  156.4844 H   0  0  0  0  0  0  0  0  0  0  0  0  # atno 8010 bound_to 7997
  139.9626  143.5933  152.2440 H   0  0  0  0  0  0  0  0  0  0  0  0  # atno 10167 bound_to 10162
  157.6911  131.0166  150.2791 H   0  0  0  0  0  0  0  0  0  0  0  0  # atno 10718 bound_to 10713
  153.8339  135.6863  153.4811 H   0  0  0  0  0  0  0  0  0  0  0  0  # atno 10763 bound_to 10752
  153.1494  135.4624  154.9613 H   0  0  0  0  0  0  0  0  0  0  0  0  # atno 10764 bound_to 10752
  154.7875  135.3290  154.7799 H   0  0  0  0  0  0  0  0  0  0  0  0  # atno 10765 bound_to 10752
  140.0853  134.5283  155.8905 H   0  0  0  0  0  0  0  0  0  0  0  0  # atno 11005 bound_to 11000
  146.3529  140.0888  142.8613 LP  0  0  0  0  0  0  0  0  0  0  0  0  # atno 17320 bound_to 7965
  145.0955  140.9312  143.4743 LP  0  0  0  0  0  0  0  0  0  0  0  0  # atno 17321 bound_to 7965
  139.6542  144.7661  151.2088 LP  0  0  0  0  0  0  0  0  0  0  0  0  # atno 17342 bound_to 10162
  140.7548  143.6112  150.8603 LP  0  0  0  0  0  0  0  0  0  0  0  0  # atno 17343 bound_to 10162
  156.3340  130.3805  149.7466 LP  0  0  0  0  0  0  0  0  0  0  0  0  # atno 17370 bound_to 10713
  156.4996  130.8122  151.3127 LP  0  0  0  0  0  0  0  0  0  0  0  0  # atno 17371 bound_to 10713
  141.2060  133.6652  156.6217 LP  0  0  0  0  0  0  0  0  0  0  0  0  # atno 17394 bound_to 11000
  140.3429  134.7833  157.4411 LP  0  0  0  0  0  0  0  0  0  0  0  0  # atno 17395 bound_to 11000

$$$$
