AV-unprocessed.smi:215|AV-procd|sdf|1650|dock6
  -GOLD-   2262020 33D 1   1.00000     0.00000
 Structure written by MMmdl.
 59 62  0  0  0  0  0  0  0  0  2 V2000
  146.7723  134.5315  153.6375 C   0  0  0  0  0  0  0  0  0  0  0  0
  145.2439  134.7395  153.5825 C   0  0  2  0  0  0  0  0  0  0  0  0
  144.4332  133.8556  152.6026 C   0  0  2  0  0  0  0  0  0  0  0  0
  145.2452  133.1275  151.5800 N   0  3  2  0  0  0  0  0  0  0  0  0
  146.0986  133.9942  150.7243 C   0  0  0  0  0  0  0  0  0  0  0  0
  144.4413  132.1513  150.7968 C   0  0  0  0  0  0  0  0  0  0  0  0
  144.0049  132.6931  149.4241 C   0  0  0  0  0  0  0  0  0  0  0  0
  142.7507  132.1534  149.0651 O   0  0  0  0  0  0  0  0  0  0  0  0
  143.3343  134.7812  152.0394 C   0  0  0  0  0  0  0  0  0  0  0  0
  143.4141  136.0173  152.9337 C   0  0  0  0  0  0  0  0  0  0  0  0
  144.8174  136.1083  153.3118 N   0  0  0  0  0  0  0  0  0  0  0  0
  145.1375  137.0233  154.2569 C   0  0  0  0  0  0  0  0  0  0  0  0
  144.6447  136.9134  155.5188 N   0  0  0  0  0  0  0  0  0  0  0  0
  144.9842  137.8115  156.4487 C   0  0  0  0  0  0  0  0  0  0  0  0
  145.7850  138.8731  156.3310 N   0  0  0  0  0  0  0  0  0  0  0  0
  146.2780  138.9876  155.0640 C   0  0  0  0  0  0  0  0  0  0  0  0
  146.0106  138.1079  153.9787 C   0  0  0  0  0  0  0  0  0  0  0  0
  146.7000  138.5218  152.8473 N   0  0  0  0  0  0  0  0  0  0  0  0
  147.3478  139.5832  153.2443 C   0  0  0  0  0  0  0  0  0  0  0  0
  147.1265  139.9561  154.5534 N   0  0  0  0  0  0  0  0  0  0  0  0
  147.7264  141.0549  155.2631 C   0  0  0  0  0  0  0  0  0  0  0  0
  148.9952  141.7231  154.7194 C   0  0  0  0  0  0  0  0  0  0  0  0
  149.8487  140.9697  155.7613 C   0  0  0  0  0  0  0  0  0  0  0  0
  150.4577  139.6411  155.2685 C   0  0  0  0  0  0  0  0  0  0  0  0
  151.6568  139.8560  154.5516 O   0  0  0  0  0  0  0  0  0  0  0  0
  150.9466  141.8054  156.4404 C   0  0  0  0  0  0  0  0  0  0  0  0
  150.4145  142.9807  157.0178 O   0  0  0  0  0  0  0  0  0  0  0  0
  148.5294  140.8363  156.5525 C   0  0  0  0  0  0  0  0  0  0  0  0
  144.8747  134.5045  154.5830 H   0  0  0  0  0  0  0  0  0  0  0  0
  143.9519  133.1053  153.2316 H   0  0  0  0  0  0  0  0  0  0  0  0
  147.0180  133.4791  153.7815 H   0  0  0  0  0  0  0  0  0  0  0  0
  147.2104  135.0763  154.4740 H   0  0  0  0  0  0  0  0  0  0  0  0
  147.2741  134.8745  152.7341 H   0  0  0  0  0  0  0  0  0  0  0  0
  145.5455  134.3802  149.8674 H   0  0  0  0  0  0  0  0  0  0  0  0
  146.9511  133.4319  150.3441 H   0  0  0  0  0  0  0  0  0  0  0  0
  146.4961  134.8481  151.2719 H   0  0  0  0  0  0  0  0  0  0  0  0
  145.0165  131.2393  150.6325 H   0  0  0  0  0  0  0  0  0  0  0  0
  143.5658  131.8595  151.3786 H   0  0  0  0  0  0  0  0  0  0  0  0
  143.9070  133.7780  149.4721 H   0  0  0  0  0  0  0  0  0  0  0  0
  144.7376  132.4814  148.6460 H   0  0  0  0  0  0  0  0  0  0  0  0
  142.0898  132.8193  149.1845 H   0  0  0  0  0  0  0  0  0  0  0  0
  143.5206  135.0835  151.0105 H   0  0  0  0  0  0  0  0  0  0  0  0
  142.3472  134.3189  152.0645 H   0  0  0  0  0  0  0  0  0  0  0  0
  143.0817  136.9158  152.4126 H   0  0  0  0  0  0  0  0  0  0  0  0
  142.7815  135.8784  153.8118 H   0  0  0  0  0  0  0  0  0  0  0  0
  144.5527  137.6583  157.4268 H   0  0  0  0  0  0  0  0  0  0  0  0
  148.0037  140.1238  152.5783 H   0  0  0  0  0  0  0  0  0  0  0  0
  146.9271  141.7819  155.4121 H   0  0  0  0  0  0  0  0  0  0  0  0
  149.2425  141.4848  153.6847 H   0  0  0  0  0  0  0  0  0  0  0  0
  148.9909  142.8035  154.8752 H   0  0  0  0  0  0  0  0  0  0  0  0
  150.6846  138.9769  156.1022 H   0  0  0  0  0  0  0  0  0  0  0  0
  149.7616  139.0943  154.6321 H   0  0  0  0  0  0  0  0  0  0  0  0
  152.3853  139.6501  155.1174 H   0  0  0  0  0  0  0  0  0  0  0  0
  151.4310  141.2363  157.2344 H   0  0  0  0  0  0  0  0  0  0  0  0
  151.7344  142.0800  155.7386 H   0  0  0  0  0  0  0  0  0  0  0  0
  149.8548  143.4003  156.3824 H   0  0  0  0  0  0  0  0  0  0  0  0
  148.3811  141.6485  157.2666 H   0  0  0  0  0  0  0  0  0  0  0  0
  148.3914  139.8737  157.0433 H   0  0  0  0  0  0  0  0  0  0  0  0
  145.8828  132.5620  152.1227 H   0  0  0  0  0  0  0  0  0  0  0  0
  1  2  1  0  0  0  0
  1 31  1  0  0  0  0
  1 32  1  0  0  0  0
  1 33  1  0  0  0  0
  2 29  1  0  0  0  0
  2 11  1  0  0  0  0
  2  3  1  0  0  0  0
  3 30  1  0  0  0  0
  3  4  1  0  0  0  0
  3  9  1  0  0  0  0
  4  5  1  0  0  0  0
  4  6  1  0  0  0  0
  4 59  1  0  0  0  0
  5 34  1  0  0  0  0
  5 35  1  0  0  0  0
  5 36  1  0  0  0  0
  6  7  1  0  0  0  0
  6 37  1  0  0  0  0
  6 38  1  0  0  0  0
  7  8  1  0  0  0  0
  7 39  1  0  0  0  0
  7 40  1  0  0  0  0
  8 41  1  0  0  0  0
  9 10  1  0  0  0  0
  9 42  1  0  0  0  0
  9 43  1  0  0  0  0
 10 11  1  0  0  0  0
 10 44  1  0  0  0  0
 10 45  1  0  0  0  0
 11 12  1  0  0  0  0
 12 17  1  0  0  0  0
 12 13  2  0  0  0  0
 13 14  1  0  0  0  0
 14 15  2  0  0  0  0
 14 46  1  0  0  0  0
 15 16  1  0  0  0  0
 16 20  1  0  0  0  0
 16 17  2  0  0  0  0
 17 18  1  0  0  0  0
 18 19  2  0  0  0  0
 19 20  1  0  0  0  0
 19 47  1  0  0  0  0
 20 21  1  0  0  0  0
 21 28  1  0  0  0  0
 21 22  1  0  0  0  0
 21 48  1  0  0  0  0
 22 23  1  0  0  0  0
 22 49  1  0  0  0  0
 22 50  1  0  0  0  0
 23 24  1  0  0  0  0
 23 26  1  0  0  0  0
 23 28  1  0  0  0  0
 24 25  1  0  0  0  0
 24 51  1  0  0  0  0
 24 52  1  0  0  0  0
 25 53  1  0  0  0  0
 26 27  1  0  0  0  0
 26 54  1  0  0  0  0
 26 55  1  0  0  0  0
 27 56  1  0  0  0  0
 28 57  1  0  0  0  0
 28 58  1  0  0  0  0
M  CHG  1   4   1
M  END
> <s_m_source_file>
AV-unprocessed.smi

> <i_m_source_file_index>
215

> <i_lp_mmshare_version>
43012

> <i_f3d_flags>
0

> <s_epik_input>
W09IXVtDSDJdW0NIMl1OKFtDSDNdKVtDQEBIXShbQ0BIXTFbQ0gzXSlbQ0gyXVtDSDJdTjFjKG5bY0hdbjIpYyhjMjMpbltjSF1uM1tDSF0oW0NIMl00KVtDSDJdQzQoW0NIMl1bT0hdKVtDSDJdW09IXQ==

> <s_epik_cmdline>
J2VwaWtfcHl0aG9uJywgJy1waCcsICc3LjAnLCAnLXRuJywgJzgnLCAnLW1hJywgJzIwMCcsICctbWV0YWxfYmluZGluZycsICctaW1hZScsICc8aW5maWxlLm1hZT4nLCAnLW9tYWUnLCAnPG91dGZpbGUubWFlPic=

> <r_lp_tautomer_probability>
1

> <r_epik_Ionization_Penalty>
0.0036237

> <r_epik_Ionization_Penalty_Charging>
0.0032725

> <r_epik_Ionization_Penalty_Neutral>
0.000351196

> <r_epik_State_Penalty>
-0

> <r_epik_Charging_Adjusted_Penalty>
0.0032725

> <i_epik_Tot_Q>
1

> <i_epik_Tot_abs_Q>
1

> <r_epik_Metal_State_Penalty>
-0

> <b_epik_Metal_Only>
0

> <s_lp_Force_Field>
OPLS_2005

> <r_lp_Energy>
76.3744

> <b_lp_Chiralities_Consistent>
1

> <s_lp_Variant>
AV-unprocessed.smi:215-1

> <Gold.Version>
5.8.1

> <Gold.Id.Protein>
6NUR|6NUR_protein|mol2

> <Gold.PLP.Fitness>
51.4749

> <Gold.PLP.PLP>
-38.1644

> <Gold.PLP.part.hbond>
-5.0000

> <Gold.PLP.part.metal>
0.0000

> <Gold.PLP.part.buried>
-6.6279

> <Gold.PLP.part.nonpolar>
-27.3565

> <Gold.PLP.part.repulsive>
0.4066

> <Gold.PLP.ligand.clash>
0.0000

> <Gold.PLP.ligand.torsion>
1.2243

> <Gold.PLP.Chemscore.Hbond>
3.9913

> <Gold.PLP.Chemscore.CHOScore>
0.9987

> <Gold.PLP.Chemscore.Metal>
0.0000

> <Gold.Chemscore.Hbonds>
donor molecule, donor type, donor heavy atom, donor atom, acceptor molecule, acceptor atom, score
      L1  H     8    41       P1 10186  1.00
      L1  H    27    56       P1  8028  1.00
      P1  H  7989  7998       L1    25  0.81
      P1  H 10785 10796       L1     8  0.88
      L1  C    19    47       P1  7957  1.00

> <Gold.PLP.Chemscore.Internal.Correction>
0.7891

> <Gold.Rescore>
     Score         DG    S(hbond)    S(metal)    S(lipo)     H(rot)  DE(clash)    DE(int)     intcor
     11.11     -13.09       3.23        0.00      78.12       4.81       0.02       1.95       ----

> <Gold.Chemscore.Fitness>
11.1094

> <Gold.Chemscore.DG>
-13.0856

> <Gold.Chemscore.ZeroCoef>
-5.4800

> <Gold.Chemscore.Hbond>
3.2270

> <Gold.Chemscore.Metal>
0.0000

> <Gold.Chemscore.Lipo>
78.1230

> <Gold.Chemscore.Internal_Hbond>
0.0000

> <Gold.Chemscore.DEClash>
0.0239

> <Gold.Chemscore.DEInternal>
1.9524

> <Gold.Chemscore.Rot>
4.8098

> <Gold.Chemscore.Internal.Correction>
   9.000000E+99

> <Gold.Chemscore.Hbonds>
donor molecule, donor type, donor heavy atom, donor atom, acceptor molecule, acceptor atom, score
      L1  H     8    41       P1 10186  0.99
      L1  H    27    56       P1  8028  0.99
      P1  H  7989  7998       L1    25  0.74
      P1  H 10785 10796       L1     8  0.33

> <Gold.Chemscore.Hbond.Weighted>
-10.7783

> <Gold.Chemscore.Metal.Weighted>
-0.0000

> <Gold.Chemscore.Lipo.Weighted>
-9.1404

> <Gold.Chemscore.Internal_Hbond.Weighted>
0.0000

> <Gold.Chemscore.DEClash.Weighted>
0.0239

> <Gold.Chemscore.DEInternal.Weighted>
1.9524

> <Gold.Chemscore.Rot.Weighted>
12.3130

> <Gold.Chemscore.Internal.Correction.Weighted>
   9.000000E+99

> <Gold.Protein.RotatedTorsions>
[ 6907 6896 6895 6894 ] final -146.12 input  -60.11 | X-H torsion
[ 7974 7965 7964 7962 ] final  104.10 input  175.53 | X-H torsion
[ 8008 7997 7996 7995 ] final   33.06 input   59.86 | X-H torsion
[ 10167 10162 10161 10158 ] final   27.06 input  -65.29 | X-H torsion
[ 10718 10713 10712 10709 ] final -111.24 input   66.30 | X-H torsion
[ 10763 10752 10751 10750 ] final -155.60 input  -60.55 | X-H torsion
[ 11005 11000 10999 10996 ] final -140.57 input  -57.11 | X-H torsion

> <Gold.Protein.ActiveResidues>
 VAL166  LYS551  ARG553  GLY616  TRP617  ASP618  TYR619  PRO620  LYS621  CYS622 
 ASP623  PHE694  ASN695  SER759  ASP760  ASP761  ALA762  ILE779  LEU786  VAL792 
 PHE793  MET794  SER795  GLU796  ALA797  LYS798  CYS799  TRP800  GLU811  SER814 

> <Gold.Protein.RotatedAtoms>
  151.1373  133.4995  159.2597 H   0  0  0  0  0  0  0  0  0  0  0  0  # atno 6907 bound_to 6896
  151.1693  135.0310  159.8754 H   0  0  0  0  0  0  0  0  0  0  0  0  # atno 6908 bound_to 6896
  152.5461  134.1238  159.8463 H   0  0  0  0  0  0  0  0  0  0  0  0  # atno 6909 bound_to 6896
  145.3372  139.2471  143.3629 H   0  0  0  0  0  0  0  0  0  0  0  0  # atno 7974 bound_to 7965
  155.1325  140.3258  155.4471 H   0  0  0  0  0  0  0  0  0  0  0  0  # atno 8008 bound_to 7997
  156.2630  140.2008  156.6393 H   0  0  0  0  0  0  0  0  0  0  0  0  # atno 8009 bound_to 7997
  154.6602  140.0548  157.0040 H   0  0  0  0  0  0  0  0  0  0  0  0  # atno 8010 bound_to 7997
  140.4970  144.0375  150.6318 H   0  0  0  0  0  0  0  0  0  0  0  0  # atno 10167 bound_to 10162
  156.0636  130.5857  150.8347 H   0  0  0  0  0  0  0  0  0  0  0  0  # atno 10718 bound_to 10713
  154.7775  135.3164  154.8060 H   0  0  0  0  0  0  0  0  0  0  0  0  # atno 10763 bound_to 10752
  153.8780  135.6838  153.4773 H   0  0  0  0  0  0  0  0  0  0  0  0  # atno 10764 bound_to 10752
  153.1403  135.4742  154.9421 H   0  0  0  0  0  0  0  0  0  0  0  0  # atno 10765 bound_to 10752
  140.8410  134.2402  157.4810 H   0  0  0  0  0  0  0  0  0  0  0  0  # atno 11005 bound_to 11000
  146.3022  140.3961  142.8700 LP  0  0  0  0  0  0  0  0  0  0  0  0  # atno 17320 bound_to 7965
  144.8818  140.7411  143.5981 LP  0  0  0  0  0  0  0  0  0  0  0  0  # atno 17321 bound_to 7965
  140.3661  143.2881  152.0330 LP  0  0  0  0  0  0  0  0  0  0  0  0  # atno 17342 bound_to 10162
  139.4863  144.6266  151.7152 LP  0  0  0  0  0  0  0  0  0  0  0  0  # atno 17343 bound_to 10162
  157.5662  131.0946  150.9486 LP  0  0  0  0  0  0  0  0  0  0  0  0  # atno 17370 bound_to 10713
  156.9712  130.5492  149.5290 LP  0  0  0  0  0  0  0  0  0  0  0  0  # atno 17371 bound_to 10713
  139.8703  134.9635  156.4464 LP  0  0  0  0  0  0  0  0  0  0  0  0  # atno 17394 bound_to 11000
  140.8895  133.7858  155.9556 LP  0  0  0  0  0  0  0  0  0  0  0  0  # atno 17395 bound_to 11000

$$$$
