AV-unprocessed.smi:1487|AV-procd|sdf|6010|dock10
  -GOLD-   22720 6113D 1   1.00000     0.00000
 Structure written by MMmdl.
 48 50  0  0  0  0  0  0  0  0  2 V2000
  152.9281  142.9169  161.7882 C   0  0  0  0  0  0  0  0  0  0  0  0
  152.4194  142.5416  160.4075 C   0  0  0  0  0  0  0  0  0  0  0  0
  152.8640  141.3377  159.8161 C   0  0  0  0  0  0  0  0  0  0  0  0
  152.4144  140.9510  158.5348 C   0  0  0  0  0  0  0  0  0  0  0  0
  152.7150  139.8329  157.7760 N   0  0  0  0  0  0  0  0  0  0  0  0
  151.9850  140.0443  156.6852 C   0  0  0  0  0  0  0  0  0  0  0  0
  151.2498  141.1725  156.6447 N   0  0  0  0  0  0  0  0  0  0  0  0
  150.3829  141.6151  155.5674 C   0  0  0  0  0  0  0  0  0  0  0  0
  148.8930  141.3566  155.8633 C   0  0  1  0  0  0  0  0  0  0  0  0
  148.4402  142.2847  156.8304 O   0  0  0  0  0  0  0  0  0  0  0  0
  148.0301  141.5058  154.5948 C   0  0  0  0  0  0  0  0  0  0  0  0
  147.7264  140.2021  153.9506 N   0  3  2  0  0  0  0  0  0  0  0  0
  146.8840  140.3275  152.7318 C   0  0  0  0  0  0  0  0  0  0  0  0
  146.7431  138.9736  152.0189 C   0  0  0  0  0  0  0  0  0  0  0  0
  146.1639  137.9111  152.9635 C   0  0  0  0  0  0  0  0  0  0  0  0
  146.9765  137.8293  154.2665 C   0  0  1  0  0  0  0  0  0  0  0  0
  148.2413  137.2448  154.0255 O   0  0  0  0  0  0  0  0  0  0  0  0
  147.1628  139.2168  154.9114 C   0  0  0  0  0  0  0  0  0  0  0  0
  151.4998  141.8085  157.8558 C   0  0  0  0  0  0  0  0  0  0  0  0
  151.0494  143.0085  158.4339 C   0  0  0  0  0  0  0  0  0  0  0  0
  151.5091  143.3799  159.7148 C   0  0  0  0  0  0  0  0  0  0  0  0
  151.0187  144.6781  160.3312 C   0  0  0  0  0  0  0  0  0  0  0  0
  153.6579  142.1938  162.1537 H   0  0  0  0  0  0  0  0  0  0  0  0
  152.1039  142.9504  162.5010 H   0  0  0  0  0  0  0  0  0  0  0  0
  153.4094  143.8949  161.7681 H   0  0  0  0  0  0  0  0  0  0  0  0
  153.5564  140.6982  160.3436 H   0  0  0  0  0  0  0  0  0  0  0  0
  151.9878  139.3404  155.8656 H   0  0  0  0  0  0  0  0  0  0  0  0
  150.5593  142.6776  155.3925 H   0  0  0  0  0  0  0  0  0  0  0  0
  150.6819  141.0956  154.6561 H   0  0  0  0  0  0  0  0  0  0  0  0
  148.7912  140.3552  156.2803 H   0  0  0  0  0  0  0  0  0  0  0  0
  148.6916  143.1536  156.5539 H   0  0  0  0  0  0  0  0  0  0  0  0
  147.1007  142.0066  154.8714 H   0  0  0  0  0  0  0  0  0  0  0  0
  148.5206  142.1582  153.8706 H   0  0  0  0  0  0  0  0  0  0  0  0
  145.9003  140.7126  153.0052 H   0  0  0  0  0  0  0  0  0  0  0  0
  147.3198  141.0455  152.0383 H   0  0  0  0  0  0  0  0  0  0  0  0
  146.1023  139.0791  151.1427 H   0  0  0  0  0  0  0  0  0  0  0  0
  147.7175  138.6502  151.6504 H   0  0  0  0  0  0  0  0  0  0  0  0
  145.1320  138.1721  153.2018 H   0  0  0  0  0  0  0  0  0  0  0  0
  146.1284  136.9392  152.4694 H   0  0  0  0  0  0  0  0  0  0  0  0
  146.4569  137.1776  154.9697 H   0  0  0  0  0  0  0  0  0  0  0  0
  148.2745  136.9573  153.1253 H   0  0  0  0  0  0  0  0  0  0  0  0
  147.8133  139.1284  155.7831 H   0  0  0  0  0  0  0  0  0  0  0  0
  146.2024  139.5867  155.2744 H   0  0  0  0  0  0  0  0  0  0  0  0
  150.3555  143.6374  157.8962 H   0  0  0  0  0  0  0  0  0  0  0  0
  150.3000  145.1804  159.6834 H   0  0  0  0  0  0  0  0  0  0  0  0
  151.8531  145.3598  160.4977 H   0  0  0  0  0  0  0  0  0  0  0  0
  150.5304  144.4878  161.2874 H   0  0  0  0  0  0  0  0  0  0  0  0
  148.6153  139.8208  153.6575 H   0  0  0  0  0  0  0  0  0  0  0  0
  1  2  1  0  0  0  0
  1 23  1  0  0  0  0
  1 24  1  0  0  0  0
  1 25  1  0  0  0  0
  2 21  1  0  0  0  0
  2  3  2  0  0  0  0
  3  4  1  0  0  0  0
  3 26  1  0  0  0  0
  4 19  2  0  0  0  0
  4  5  1  0  0  0  0
  5  6  2  0  0  0  0
  6  7  1  0  0  0  0
  6 27  1  0  0  0  0
  7  8  1  0  0  0  0
  7 19  1  0  0  0  0
  8  9  1  0  0  0  0
  8 28  1  0  0  0  0
  8 29  1  0  0  0  0
  9 10  1  0  0  0  0
  9 11  1  0  0  0  0
  9 30  1  0  0  0  0
 10 31  1  0  0  0  0
 11 12  1  0  0  0  0
 11 32  1  0  0  0  0
 11 33  1  0  0  0  0
 12 18  1  0  0  0  0
 12 13  1  0  0  0  0
 12 48  1  0  0  0  0
 13 14  1  0  0  0  0
 13 34  1  0  0  0  0
 13 35  1  0  0  0  0
 14 15  1  0  0  0  0
 14 36  1  0  0  0  0
 14 37  1  0  0  0  0
 15 16  1  0  0  0  0
 15 38  1  0  0  0  0
 15 39  1  0  0  0  0
 16 17  1  0  0  0  0
 16 18  1  0  0  0  0
 16 40  1  0  0  0  0
 17 41  1  0  0  0  0
 18 42  1  0  0  0  0
 18 43  1  0  0  0  0
 19 20  1  0  0  0  0
 20 21  2  0  0  0  0
 20 44  1  0  0  0  0
 21 22  1  0  0  0  0
 22 45  1  0  0  0  0
 22 46  1  0  0  0  0
 22 47  1  0  0  0  0
M  CHG  1  12   1
M  END
> <s_m_source_file>
AV-unprocessed.smi

> <i_m_source_file_index>
1487

> <i_lp_mmshare_version>
43012

> <i_f3d_flags>
0

> <s_epik_input>
W0NIM11jKFtjSF0xKWMoW0NIM10pW2NIXWMoYzEyKW4oW2NIXW4yKVtDSDJdW0NASF0oW09IXSlbQ0gyXU4zW0NIMl1bQ0gyXVtDSDJdW0NAQEhdKFtPSF0pW0NIMl0z

> <s_epik_cmdline>
J2VwaWtfcHl0aG9uJywgJy1waCcsICc3LjAnLCAnLXRuJywgJzgnLCAnLW1hJywgJzIwMCcsICctbWV0YWxfYmluZGluZycsICctaW1hZScsICc8aW5maWxlLm1hZT4nLCAnLW9tYWUnLCAnPG91dGZpbGUubWFlPic=

> <r_epik_Ionization_Penalty>
0.0940186

> <r_epik_Ionization_Penalty_Charging>
0.00679686

> <r_epik_Ionization_Penalty_Neutral>
0.0872218

> <r_epik_State_Penalty>
0.0799311

> <r_epik_Charging_Adjusted_Penalty>
0.086728

> <i_epik_Tot_Q>
1

> <i_epik_Tot_abs_Q>
1

> <r_epik_Metal_State_Penalty>
7.95545e-05

> <b_epik_Metal_Only>
0

> <s_lp_Force_Field>
OPLS_2005

> <r_lp_Energy>
21.7982

> <b_lp_Chiralities_Consistent>
1

> <s_lp_Variant>
AV-unprocessed.smi:1487-4

> <Gold.Version>
5.8.1

> <Gold.Id.Protein>
6NUR|6NUR_protein|mol2

> <Gold.PLP.Fitness>
50.8883

> <Gold.PLP.PLP>
-43.6300

> <Gold.PLP.part.hbond>
-2.9577

> <Gold.PLP.part.metal>
0.0000

> <Gold.PLP.part.buried>
-2.9874

> <Gold.PLP.part.nonpolar>
-36.8578

> <Gold.PLP.part.repulsive>
0.0562

> <Gold.PLP.ligand.clash>
0.0000

> <Gold.PLP.ligand.torsion>
0.8917

> <Gold.PLP.Chemscore.Hbond>
3.0000

> <Gold.PLP.Chemscore.CHOScore>
0.0000

> <Gold.PLP.Chemscore.Metal>
0.0000

> <Gold.Chemscore.Hbonds>
donor molecule, donor type, donor heavy atom, donor atom, acceptor molecule, acceptor atom, score
      L1  H    10    31       P1  8028  1.00
      L1  H    17    41       P1  7948  1.00
      P1  H  7997  8010       L1     5  1.00

> <Gold.PLP.Chemscore.Internal.Correction>
0.0415

> <Gold.Rescore>
     Score         DG    S(hbond)    S(metal)    S(lipo)     H(rot)  DE(clash)    DE(int)     intcor
     19.05     -20.44       2.06        0.00     127.61       2.67       0.54       0.85       ----

> <Gold.Chemscore.Fitness>
19.0484

> <Gold.Chemscore.DG>
-20.4386

> <Gold.Chemscore.ZeroCoef>
-5.4800

> <Gold.Chemscore.Hbond>
2.0558

> <Gold.Chemscore.Metal>
0.0000

> <Gold.Chemscore.Lipo>
127.6110

> <Gold.Chemscore.Internal_Hbond>
0.0000

> <Gold.Chemscore.DEClash>
0.5422

> <Gold.Chemscore.DEInternal>
0.8480

> <Gold.Chemscore.Rot>
2.6712

> <Gold.Chemscore.Internal.Correction>
   9.000000E+99

> <Gold.Chemscore.Hbonds>
donor molecule, donor type, donor heavy atom, donor atom, acceptor molecule, acceptor atom, score
      L1  H    10    31       P1  8028  0.88
      L1  H    17    41       P1  7948  0.96
      P1  H  7997  8010       L1     5  0.16

> <Gold.Chemscore.Hbond.Weighted>
-6.8664

> <Gold.Chemscore.Metal.Weighted>
-0.0000

> <Gold.Chemscore.Lipo.Weighted>
-14.9305

> <Gold.Chemscore.Internal_Hbond.Weighted>
0.0000

> <Gold.Chemscore.DEClash.Weighted>
0.5422

> <Gold.Chemscore.DEInternal.Weighted>
0.8480

> <Gold.Chemscore.Rot.Weighted>
6.8383

> <Gold.Chemscore.Internal.Correction.Weighted>
   9.000000E+99

> <Gold.Protein.RotatedTorsions>
[ 6907 6896 6895 6894 ] final  105.21 input  -60.11 | X-H torsion
[ 7974 7965 7964 7962 ] final -130.93 input  175.53 | X-H torsion
[ 8008 7997 7996 7995 ] final   34.27 input   59.86 | X-H torsion
[ 10167 10162 10161 10158 ] final  -13.89 input  -65.29 | X-H torsion
[ 10718 10713 10712 10709 ] final   62.88 input   66.30 | X-H torsion
[ 10763 10752 10751 10750 ] final  -46.45 input  -60.55 | X-H torsion
[ 11005 11000 10999 10996 ] final  -50.70 input  -57.11 | X-H torsion

> <Gold.Protein.ActiveResidues>
 VAL166  LYS551  ARG553  GLY616  TRP617  ASP618  TYR619  PRO620  LYS621  CYS622 
 ASP623  PHE694  ASN695  SER759  ASP760  ASP761  ALA762  ILE779  LEU786  VAL792 
 PHE793  MET794  SER795  GLU796  ALA797  LYS798  CYS799  TRP800  GLU811  SER814 

> <Gold.Protein.RotatedAtoms>
  152.5238  133.9562  159.7695 H   0  0  0  0  0  0  0  0  0  0  0  0  # atno 6907 bound_to 6896
  150.9862  133.6187  159.2722 H   0  0  0  0  0  0  0  0  0  0  0  0  # atno 6908 bound_to 6896
  151.3347  135.0856  159.9403 H   0  0  0  0  0  0  0  0  0  0  0  0  # atno 6909 bound_to 6896
  144.9428  140.7257  143.4836 H   0  0  0  0  0  0  0  0  0  0  0  0  # atno 7974 bound_to 7965
  155.1521  140.3276  155.4429 H   0  0  0  0  0  0  0  0  0  0  0  0  # atno 8008 bound_to 7997
  156.2571  140.1975  156.6582 H   0  0  0  0  0  0  0  0  0  0  0  0  # atno 8009 bound_to 7997
  154.6466  140.0563  156.9893 H   0  0  0  0  0  0  0  0  0  0  0  0  # atno 8010 bound_to 7997
  140.7191  143.5379  150.9443 H   0  0  0  0  0  0  0  0  0  0  0  0  # atno 10167 bound_to 10162
  157.5932  130.9074  149.9644 H   0  0  0  0  0  0  0  0  0  0  0  0  # atno 10718 bound_to 10713
  154.0452  135.6638  153.4794 H   0  0  0  0  0  0  0  0  0  0  0  0  # atno 10763 bound_to 10752
  153.0486  135.5099  154.7804 H   0  0  0  0  0  0  0  0  0  0  0  0  # atno 10764 bound_to 10752
  154.6793  135.3042  154.9601 H   0  0  0  0  0  0  0  0  0  0  0  0  # atno 10765 bound_to 10752
  141.0830  133.6649  156.3769 H   0  0  0  0  0  0  0  0  0  0  0  0  # atno 11005 bound_to 11000
  145.2965  139.1865  143.4712 LP  0  0  0  0  0  0  0  0  0  0  0  0  # atno 17320 bound_to 7965
  146.3292  140.2949  142.8617 LP  0  0  0  0  0  0  0  0  0  0  0  0  # atno 17321 bound_to 7965
  139.9101  143.6731  152.3116 LP  0  0  0  0  0  0  0  0  0  0  0  0  # atno 17342 bound_to 10162
  139.7111  144.7620  151.1111 LP  0  0  0  0  0  0  0  0  0  0  0  0  # atno 17343 bound_to 10162
  156.0990  130.3657  150.0253 LP  0  0  0  0  0  0  0  0  0  0  0  0  # atno 17370 bound_to 10713
  156.8372  130.9413  151.3634 LP  0  0  0  0  0  0  0  0  0  0  0  0  # atno 17371 bound_to 10713
  140.5425  134.6106  157.5384 LP  0  0  0  0  0  0  0  0  0  0  0  0  # atno 17394 bound_to 11000
  139.9646  134.7395  156.0165 LP  0  0  0  0  0  0  0  0  0  0  0  0  # atno 17395 bound_to 11000

$$$$
