AV-unprocessed.smi:1709|AV-procd|sdf|6898|dock6
  -GOLD-   22720 8103D 1   1.00000     0.00000
 Structure written by MMmdl.
 43 45  0  0  0  0  0  0  0  0  2 V2000
  146.1714  134.0601  151.0047 C   0  0  0  0  0  0  0  0  0  0  0  0
  146.4069  132.6909  151.6229 C   0  0  0  0  0  0  0  0  0  0  0  0
  145.6425  131.5936  151.1725 C   0  0  0  0  0  0  0  0  0  0  0  0
  145.8588  130.3274  151.7412 C   0  0  0  0  0  0  0  0  0  0  0  0
  146.8375  130.2116  152.7421 C   0  0  0  0  0  0  0  0  0  0  0  0
  147.5723  131.2553  153.1783 N   0  0  0  0  0  0  0  0  0  0  0  0
  147.3759  132.4878  152.6430 C   0  0  0  0  0  0  0  0  0  0  0  0
  148.1101  133.6483  153.0417 N   0  0  0  0  0  0  0  0  0  0  0  0
  148.7613  133.9565  154.1838 C   0  0  0  0  0  0  0  0  0  0  0  0
  148.7980  133.1657  155.1249 O   0  0  0  0  0  0  0  0  0  0  0  0
  149.3583  135.1587  154.2256 N   0  0  0  0  0  0  0  0  0  0  0  0
  150.1203  135.6934  155.3490 C   0  0  1  0  0  0  0  0  0  0  0  0
  151.1572  134.7134  155.8841 C   0  0  0  0  0  0  0  0  0  0  0  0
  152.1082  135.6344  156.6500 C   0  0  0  0  0  0  0  0  0  0  0  0
  152.1175  136.9182  155.9116 N   0  3  2  0  0  0  0  0  0  0  0  0
  152.2302  138.1219  156.7713 C   0  0  0  0  0  0  0  0  0  0  0  0
  152.2564  139.4028  155.9168 C   0  0  0  0  0  0  0  0  0  0  0  0
  151.1256  139.4552  154.8684 C   0  0  0  0  0  0  0  0  0  0  0  0
  150.1825  138.2458  154.9627 C   0  0  0  0  0  0  0  0  0  0  0  0
  150.9693  136.9154  154.9609 C   0  0  2  0  0  0  0  0  0  0  0  0
  145.4118  134.0183  150.2238 H   0  0  0  0  0  0  0  0  0  0  0  0
  147.0896  134.4414  150.5572 H   0  0  0  0  0  0  0  0  0  0  0  0
  145.8343  134.7677  151.7624 H   0  0  0  0  0  0  0  0  0  0  0  0
  144.8979  131.7177  150.4000 H   0  0  0  0  0  0  0  0  0  0  0  0
  145.2899  129.4681  151.4183 H   0  0  0  0  0  0  0  0  0  0  0  0
  147.0366  129.2572  153.2066 H   0  0  0  0  0  0  0  0  0  0  0  0
  148.1560  134.3673  152.3344 H   0  0  0  0  0  0  0  0  0  0  0  0
  149.2777  135.7457  153.4067 H   0  0  0  0  0  0  0  0  0  0  0  0
  149.4510  135.9530  156.1721 H   0  0  0  0  0  0  0  0  0  0  0  0
  150.7232  133.9352  156.5128 H   0  0  0  0  0  0  0  0  0  0  0  0
  151.6869  134.2301  155.0613 H   0  0  0  0  0  0  0  0  0  0  0  0
  151.7230  135.7878  157.6595 H   0  0  0  0  0  0  0  0  0  0  0  0
  153.1120  135.2181  156.7373 H   0  0  0  0  0  0  0  0  0  0  0  0
  151.3923  138.1544  157.4698 H   0  0  0  0  0  0  0  0  0  0  0  0
  153.1374  138.0559  157.3731 H   0  0  0  0  0  0  0  0  0  0  0  0
  152.1978  140.2736  156.5703 H   0  0  0  0  0  0  0  0  0  0  0  0
  153.2177  139.4766  155.4066 H   0  0  0  0  0  0  0  0  0  0  0  0
  150.5557  140.3787  154.9762 H   0  0  0  0  0  0  0  0  0  0  0  0
  151.5645  139.4868  153.8705 H   0  0  0  0  0  0  0  0  0  0  0  0
  149.5842  138.3269  155.8714 H   0  0  0  0  0  0  0  0  0  0  0  0
  149.4744  138.2642  154.1339 H   0  0  0  0  0  0  0  0  0  0  0  0
  151.4000  136.7579  153.9705 H   0  0  0  0  0  0  0  0  0  0  0  0
  152.9442  136.9093  155.3315 H   0  0  0  0  0  0  0  0  0  0  0  0
  1  2  1  0  0  0  0
  1 21  1  0  0  0  0
  1 22  1  0  0  0  0
  1 23  1  0  0  0  0
  2  7  1  0  0  0  0
  2  3  2  0  0  0  0
  3  4  1  0  0  0  0
  3 24  1  0  0  0  0
  4  5  2  0  0  0  0
  4 25  1  0  0  0  0
  5  6  1  0  0  0  0
  5 26  1  0  0  0  0
  6  7  2  0  0  0  0
  7  8  1  0  0  0  0
  8  9  1  0  0  0  0
  8 27  1  0  0  0  0
  9 10  2  0  0  0  0
  9 11  1  0  0  0  0
 11 12  1  0  0  0  0
 11 28  1  0  0  0  0
 12 20  1  0  0  0  0
 12 13  1  0  0  0  0
 12 29  1  0  0  0  0
 13 14  1  0  0  0  0
 13 30  1  0  0  0  0
 13 31  1  0  0  0  0
 14 15  1  0  0  0  0
 14 32  1  0  0  0  0
 14 33  1  0  0  0  0
 15 20  1  0  0  0  0
 15 16  1  0  0  0  0
 15 43  1  0  0  0  0
 16 17  1  0  0  0  0
 16 34  1  0  0  0  0
 16 35  1  0  0  0  0
 17 18  1  0  0  0  0
 17 36  1  0  0  0  0
 17 37  1  0  0  0  0
 18 19  1  0  0  0  0
 18 38  1  0  0  0  0
 18 39  1  0  0  0  0
 19 20  1  0  0  0  0
 19 40  1  0  0  0  0
 19 41  1  0  0  0  0
 20 42  1  0  0  0  0
M  CHG  1  15   1
M  END
> <s_m_source_file>
AV-unprocessed.smi

> <i_m_source_file_index>
1709

> <i_lp_mmshare_version>
43012

> <i_f3d_flags>
0

> <s_epik_input>
W0NIM11jMVtjSF1bY0hdW2NIXW5jMVtOSF1DKD1PKVtOSF1bQ0BIXShbQ0gyXVtDSDJdMilbQ0BASF0oTjIzKVtDSDJdW0NIMl1bQ0gyXVtDSDJdMw==

> <s_epik_cmdline>
J2VwaWtfcHl0aG9uJywgJy1waCcsICc3LjAnLCAnLXRuJywgJzgnLCAnLW1hJywgJzIwMCcsICctbWV0YWxfYmluZGluZycsICctaW1hZScsICc8aW5maWxlLm1hZT4nLCAnLW9tYWUnLCAnPG91dGZpbGUubWFlPic=

> <r_epik_Ionization_Penalty>
0.00101524

> <r_epik_Ionization_Penalty_Charging>
0.000974069

> <r_epik_Ionization_Penalty_Neutral>
4.11757e-05

> <r_epik_State_Penalty>
0.000633842

> <r_epik_Charging_Adjusted_Penalty>
0.00160791

> <i_epik_Tot_Q>
1

> <i_epik_Tot_abs_Q>
1

> <r_epik_Metal_State_Penalty>
-0

> <b_epik_Metal_Only>
0

> <s_lp_Force_Field>
OPLS_2005

> <r_lp_Energy>
44.7523

> <b_lp_Chiralities_Consistent>
1

> <s_lp_Variant>
AV-unprocessed.smi:1709-8

> <Gold.Version>
5.8.1

> <Gold.Id.Protein>
6NUR|6NUR_protein|mol2

> <Gold.PLP.Fitness>
36.1038

> <Gold.PLP.PLP>
-31.1739

> <Gold.PLP.part.hbond>
-2.0000

> <Gold.PLP.part.metal>
0.0000

> <Gold.PLP.part.buried>
-1.7250

> <Gold.PLP.part.nonpolar>
-27.3146

> <Gold.PLP.part.repulsive>
0.2521

> <Gold.PLP.ligand.clash>
0.0000

> <Gold.PLP.ligand.torsion>
0.2703

> <Gold.PLP.Chemscore.Hbond>
1.8208

> <Gold.PLP.Chemscore.CHOScore>
0.0000

> <Gold.PLP.Chemscore.Metal>
0.0000

> <Gold.Chemscore.Hbonds>
donor molecule, donor type, donor heavy atom, donor atom, acceptor molecule, acceptor atom, score
      L1  H     8    27       P1  7948  0.78
      L1  H    11    28       P1  7948  1.00

> <Gold.PLP.Chemscore.Internal.Correction>
0.0081

> <Gold.Rescore>
     Score         DG    S(hbond)    S(metal)    S(lipo)     H(rot)  DE(clash)    DE(int)     intcor
     14.15     -16.76       1.48        0.00      75.97       1.00       0.11       2.50       ----

> <Gold.Chemscore.Fitness>
14.1526

> <Gold.Chemscore.DG>
-16.7632

> <Gold.Chemscore.ZeroCoef>
-5.4800

> <Gold.Chemscore.Hbond>
1.4836

> <Gold.Chemscore.Metal>
0.0000

> <Gold.Chemscore.Lipo>
75.9663

> <Gold.Chemscore.Internal_Hbond>
0.0000

> <Gold.Chemscore.DEClash>
0.1132

> <Gold.Chemscore.DEInternal>
2.4975

> <Gold.Chemscore.Rot>
1.0000

> <Gold.Chemscore.Internal.Correction>
   9.000000E+99

> <Gold.Chemscore.Hbonds>
donor molecule, donor type, donor heavy atom, donor atom, acceptor molecule, acceptor atom, score
      L1  H     8    27       P1  7948  0.12
      L1  H    11    28       P1  7948  0.49

> <Gold.Chemscore.Hbond.Weighted>
-4.9552

> <Gold.Chemscore.Metal.Weighted>
-0.0000

> <Gold.Chemscore.Lipo.Weighted>
-8.8881

> <Gold.Chemscore.Internal_Hbond.Weighted>
0.0000

> <Gold.Chemscore.DEClash.Weighted>
0.1132

> <Gold.Chemscore.DEInternal.Weighted>
2.4975

> <Gold.Chemscore.Rot.Weighted>
2.5600

> <Gold.Chemscore.Internal.Correction.Weighted>
   9.000000E+99

> <Gold.Protein.RotatedTorsions>
[ 6907 6896 6895 6894 ] final  -65.95 input  -60.11 | X-H torsion
[ 7974 7965 7964 7962 ] final  -15.41 input  175.53 | X-H torsion
[ 8008 7997 7996 7995 ] final  -10.78 input   59.86 | X-H torsion
[ 10167 10162 10161 10158 ] final  -75.82 input  -65.29 | X-H torsion
[ 10718 10713 10712 10709 ] final   -4.17 input   66.30 | X-H torsion
[ 10763 10752 10751 10750 ] final   70.79 input  -60.55 | X-H torsion
[ 11005 11000 10999 10996 ] final   55.41 input  -57.11 | X-H torsion

> <Gold.Protein.ActiveResidues>
 VAL166  LYS551  ARG553  GLY616  TRP617  ASP618  TYR619  PRO620  LYS621  CYS622 
 ASP623  PHE694  ASN695  SER759  ASP760  ASP761  ALA762  ILE779  LEU786  VAL792 
 PHE793  MET794  SER795  GLU796  ALA797  LYS798  CYS799  TRP800  GLU811  SER814 

> <Gold.Protein.RotatedAtoms>
  150.7493  134.6088  159.6074 H   0  0  0  0  0  0  0  0  0  0  0  0  # atno 6907 bound_to 6896
  152.3428  134.7108  160.0268 H   0  0  0  0  0  0  0  0  0  0  0  0  # atno 6908 bound_to 6896
  151.7554  133.3294  159.3439 H   0  0  0  0  0  0  0  0  0  0  0  0  # atno 6909 bound_to 6896
  146.2033  140.3488  142.8415 H   0  0  0  0  0  0  0  0  0  0  0  0  # atno 7974 bound_to 7965
  154.5524  140.2320  155.8464 H   0  0  0  0  0  0  0  0  0  0  0  0  # atno 8008 bound_to 7997
  156.1958  140.3065  155.9385 H   0  0  0  0  0  0  0  0  0  0  0  0  # atno 8009 bound_to 7997
  155.3045  140.0433  157.3022 H   0  0  0  0  0  0  0  0  0  0  0  0  # atno 8010 bound_to 7997
  140.4910  143.2380  151.7907 H   0  0  0  0  0  0  0  0  0  0  0  0  # atno 10167 bound_to 10162
  156.7652  130.5282  149.5777 H   0  0  0  0  0  0  0  0  0  0  0  0  # atno 10718 bound_to 10713
  153.0362  135.5160  154.7495 H   0  0  0  0  0  0  0  0  0  0  0  0  # atno 10763 bound_to 10752
  154.6470  135.2920  155.0036 H   0  0  0  0  0  0  0  0  0  0  0  0  # atno 10764 bound_to 10752
  154.0933  135.6647  153.4908 H   0  0  0  0  0  0  0  0  0  0  0  0  # atno 10765 bound_to 10752
  140.0609  134.5603  155.9153 H   0  0  0  0  0  0  0  0  0  0  0  0  # atno 11005 bound_to 11000
  144.8734  140.7303  143.6032 LP  0  0  0  0  0  0  0  0  0  0  0  0  # atno 17320 bound_to 7965
  145.3408  139.1733  143.4487 LP  0  0  0  0  0  0  0  0  0  0  0  0  # atno 17321 bound_to 7965
  139.4851  144.4649  151.9496 LP  0  0  0  0  0  0  0  0  0  0  0  0  # atno 17342 bound_to 10162
  140.3736  144.2825  150.5917 LP  0  0  0  0  0  0  0  0  0  0  0  0  # atno 17343 bound_to 10162
  156.1313  130.6180  151.0338 LP  0  0  0  0  0  0  0  0  0  0  0  0  # atno 17370 bound_to 10713
  157.6716  131.0860  150.7597 LP  0  0  0  0  0  0  0  0  0  0  0  0  # atno 17371 bound_to 10713
  141.1973  133.6595  156.5733 LP  0  0  0  0  0  0  0  0  0  0  0  0  # atno 17394 bound_to 11000
  140.3771  134.7555  157.4637 LP  0  0  0  0  0  0  0  0  0  0  0  0  # atno 17395 bound_to 11000

$$$$
