#       Name:                AV-unprocessed.smi:2973
#       Creating user name   scv26
#       Creation time:       Fri Mar 27 16:26:51 2020


#       File generated by GOLD software.
#

@<TRIPOS>MOLECULE
AV-unprocessed.smi:2973
    56    58     1
SMALL
NO_CHARGES


@<TRIPOS>ATOM
      1 ****        -3.8010   1.7582  -0.6721 C.3            1 S1                 0.0000
      2 ****        -2.8169   1.8109   0.5170 C.3            1 S1                 0.0000
      3 ****        -2.9704   3.1352   1.2958 C.3            1 S1                 0.0000
      4 ****        -2.0812   3.1684   2.5475 C.3            1 S1                 0.0000
      5 ****        -0.6087   2.9370   2.1857 C.3            1 S1                 0.0000
      6 ****        -0.4260   1.6182   1.4157 C.3            1 S1                 0.0000
      7 ****        -1.3220   1.5302   0.1529 C.3            1 S1                 0.0000
      8 ****        -0.8321   2.4382  -0.8714 N.pl3          1 S1                -1.0000
      9 ****        -0.4269   1.7185  -1.9435 C.2            1 S1                 0.0000
     10 ****         0.0554   2.1601  -2.9857 O.2            1 S1                 0.0000
     11 ****        -0.6115   0.4006  -1.7373 N.am           1 S1                 0.0000
     12 ****        -0.2519  -0.6672  -2.6796 C.3            1 S1                 0.0000
     13 ****         1.1492  -1.2296  -2.4108 C.2            1 S1                 0.0000
     14 ****         2.0758  -0.4801  -2.0997 O.2            1 S1                 0.0000
     15 ****         1.2918  -2.5584  -2.5366 N.am           1 S1                 0.0000
     16 ****         2.5235  -3.3034  -2.2847 C.3            1 S1                 0.0000
     17 ****         2.5949  -3.8638  -0.8493 C.3            1 S1                 0.0000
     18 ****         2.4341  -2.8117   0.2354 C.ar           1 S1                 0.0000
     19 ****         1.2530  -2.6948   1.0002 C.ar           1 S1                 0.0000
     20 ****         1.1589  -1.6771   1.9718 C.ar           1 S1                 0.0000
     21 ****         2.2455  -0.7988   2.1592 C.ar           1 S1                 0.0000
     22 ****         3.4021  -0.9625   1.3707 C.ar           1 S1                 0.0000
     23 ****         3.4561  -1.9523   0.4526 N.pl3          1 S1                 1.0000
     24 ****        -1.1310   0.1812  -0.5245 C.2            1 S1                 0.0000
     25 ****        -1.4102  -0.9051  -0.0142 O.2            1 S1                 0.0000
     26 ****        -3.5807   2.5302  -1.4099 H              1 S1                 0.0000
     27 ****        -4.8256   1.9139  -0.3343 H              1 S1                 0.0000
     28 ****        -3.7759   0.7946  -1.1803 H              1 S1                 0.0000
     29 ****        -3.1298   1.0187   1.1995 H              1 S1                 0.0000
     30 ****        -2.7218   3.9774   0.6487 H              1 S1                 0.0000
     31 ****        -4.0108   3.2745   1.5910 H              1 S1                 0.0000
     32 ****        -2.1917   4.1265   3.0559 H              1 S1                 0.0000
     33 ****        -2.4107   2.4034   3.2516 H              1 S1                 0.0000
     34 ****        -0.2440   3.7703   1.5837 H              1 S1                 0.0000
     35 ****        -0.0016   2.9239   3.0911 H              1 S1                 0.0000
     36 ****         0.6255   1.4956   1.1505 H              1 S1                 0.0000
     37 ****        -0.6643   0.7939   2.0894 H              1 S1                 0.0000
     38 ****        -0.9919  -1.4680  -2.6243 H              1 S1                 0.0000
     39 ****        -0.2883  -0.3018  -3.7068 H              1 S1                 0.0000
     40 ****         0.4807  -3.0956  -2.8078 H              1 S1                 0.0000
     41 ****         2.5762  -4.1249  -2.9994 H              1 S1                 0.0000
     42 ****         3.3939  -2.6761  -2.4846 H              1 S1                 0.0000
     43 ****         1.8220  -4.6222  -0.7184 H              1 S1                 0.0000
     44 ****         3.5465  -4.3759  -0.7029 H              1 S1                 0.0000
     45 ****         0.4210  -3.3638   0.8360 H              1 S1                 0.0000
     46 ****         0.2585  -1.5649   2.5578 H              1 S1                 0.0000
     47 ****         2.1880  -0.0060   2.8907 H              1 S1                 0.0000
     48 ****         4.2765  -0.3324   1.4412 H              1 S1                 0.0000
     49 ****         4.2990  -2.0439  -0.1147 H              1 S1                 0.0000
     50 ****        -0.7997   3.4348  -0.7958 LP             1 S1                 0.0000
     51 ****         0.1810   3.1456  -3.1003 LP             1 S1                 0.0000
     52 ****         0.3218   1.5336  -3.7181 LP             1 S1                 0.0000
     53 ****         1.9177   0.5042  -2.0205 LP             1 S1                 0.0000
     54 ****         2.9861  -0.8558  -1.9263 LP             1 S1                 0.0000
     55 ****        -1.7914  -0.9403   0.9097 LP             1 S1                 0.0000
     56 ****        -1.2556  -1.7514  -0.5239 LP             1 S1                 0.0000
@<TRIPOS>BOND
    1    1    2 1     
    2    1   26 1     
    3    1   27 1     
    4    1   28 1     
    5    2    7 1     
    6    2    3 1     
    7    2   29 1     
    8    3    4 1     
    9    3   30 1     
   10    3   31 1     
   11    4    5 1     
   12    4   32 1     
   13    4   33 1     
   14    5    6 1     
   15    5   34 1     
   16    5   35 1     
   17    6    7 1     
   18    6   36 1     
   19    6   37 1     
   20    7   24 1     
   21    7    8 1     
   22    8    9 1     
   23    9   10 2     
   24    9   11 am    
   25   11   12 1     
   26   11   24 am    
   27   12   13 1     
   28   12   38 1     
   29   12   39 1     
   30   13   14 2     
   31   13   15 am    
   32   15   16 1     
   33   15   40 1     
   34   16   17 1     
   35   16   41 1     
   36   16   42 1     
   37   17   18 1     
   38   17   43 1     
   39   17   44 1     
   40   18   23 ar    
   41   18   19 ar    
   42   19   20 ar    
   43   19   45 1     
   44   20   21 ar    
   45   20   46 1     
   46   21   22 ar    
   47   21   47 1     
   48   22   23 ar    
   49   22   48 1     
   50   23   49 1     
   51   24   25 2     
   52    8   50 1     
   53   10   51 1     
   54   10   52 1     
   55   14   53 1     
   56   14   54 1     
   57   25   55 1     
   58   25   56 1     
@<TRIPOS>SUBSTRUCTURE
      1 S1             1
@<TRIPOS>SET
LONE_PAIRS      STATIC     ATOMS    <user>   **** ""
7 50 51 52 53 54 55 56
DONOR_HYDROGENS      STATIC     ATOMS    <user>   **** ""
2 40 49
ATOM$BLUE        STATIC     ATOMS    COLORGROUP SYSTEM
7 50 51 52 53 54 55 56
ATOM$RED        STATIC     ATOMS    COLORGROUP SYSTEM
2 40 49
