AV-unprocessed.smi:196|AV-procd|sdf|1537|dock6
  -GOLD-   2262019393D 1   1.00000     0.00000
 Structure written by MMmdl.
 47 50  0  0  0  0  0  0  0  0  1 V2000
  137.8008  137.2311  158.1719 C   0  0  0  0  0  0  0  0  0  0  0  0
  138.2184  138.2618  157.1110 C   0  0  1  0  0  0  0  0  0  0  0  0
  138.3228  139.5647  157.6842 O   0  0  0  0  0  0  0  0  0  0  0  0
  139.6107  140.1098  157.4322 C   0  0  0  0  0  0  0  0  0  0  0  0
  140.0858  139.3986  156.1721 C   0  0  0  0  0  0  0  0  0  0  0  0
  139.5448  137.9892  156.3654 C   0  0  1  0  0  0  0  0  0  0  0  0
  140.4513  137.2715  157.1888 O   0  0  0  0  0  0  0  0  0  0  0  0
  139.3469  137.2011  155.0491 C   0  0  0  0  0  0  0  0  0  0  0  0
  140.5447  137.1367  154.2268 N   0  0  0  0  0  0  0  0  0  0  0  0
  141.2110  138.1994  153.6588 C   0  0  0  0  0  0  0  0  0  0  0  0
  142.2666  137.8853  152.9582 N   0  0  0  0  0  0  0  0  0  0  0  0
  142.3381  136.5019  153.0604 C   0  0  0  0  0  0  0  0  0  0  0  0
  143.2328  135.5224  152.5537 C   0  0  0  0  0  0  0  0  0  0  0  0
  144.2875  135.8728  151.7706 N   0  0  0  0  0  0  0  0  0  0  0  0
  144.3457  135.0591  150.5608 C   0  0  0  0  0  0  0  0  0  0  0  0
  145.4270  133.9932  150.8040 C   0  0  2  0  0  0  0  0  0  0  0  0
  144.8838  132.7891  150.9861 F   0  0  0  0  0  0  0  0  0  0  0  0
  146.1622  134.4451  152.0723 C   0  0  0  0  0  0  0  0  0  0  0  0
  145.6638  135.8839  152.2872 C   0  0  2  0  0  0  0  0  0  0  0  0
  145.8893  136.4682  153.6983 C   0  0  0  0  0  0  0  0  0  0  0  0
  147.1460  136.7656  154.0393 N   0  0  0  0  0  0  0  0  0  0  0  0
  144.9468  136.6932  154.4559 O   0  0  0  0  0  0  0  0  0  0  0  0
  142.9729  134.2204  152.8493 N   0  0  0  0  0  0  0  0  0  0  0  0
  141.9244  133.9009  153.6133 C   0  0  0  0  0  0  0  0  0  0  0  0
  141.0181  134.7094  154.1665 N   0  0  0  0  0  0  0  0  0  0  0  0
  141.2640  136.0142  153.8555 C   0  0  0  0  0  0  0  0  0  0  0  0
  146.0990  133.9172  149.9487 H   0  0  0  0  0  0  0  0  0  0  0  0
  146.2244  136.5374  151.6162 H   0  0  0  0  0  0  0  0  0  0  0  0
  137.7343  136.2314  157.7424 H   0  0  0  0  0  0  0  0  0  0  0  0
  136.8242  137.4798  158.5871 H   0  0  0  0  0  0  0  0  0  0  0  0
  138.5086  137.1977  159.0004 H   0  0  0  0  0  0  0  0  0  0  0  0
  137.4146  138.3349  156.3768 H   0  0  0  0  0  0  0  0  0  0  0  0
  139.5710  141.1928  157.3155 H   0  0  0  0  0  0  0  0  0  0  0  0
  140.2662  139.8807  158.2734 H   0  0  0  0  0  0  0  0  0  0  0  0
  139.6182  139.8655  155.3045 H   0  0  0  0  0  0  0  0  0  0  0  0
  141.1672  139.4422  156.0343 H   0  0  0  0  0  0  0  0  0  0  0  0
  140.4578  136.3689  156.9093 H   0  0  0  0  0  0  0  0  0  0  0  0
  139.0240  136.1819  155.2658 H   0  0  0  0  0  0  0  0  0  0  0  0
  138.5515  137.6513  154.4537 H   0  0  0  0  0  0  0  0  0  0  0  0
  140.8836  139.2221  153.7780 H   0  0  0  0  0  0  0  0  0  0  0  0
  143.3878  134.6105  150.2880 H   0  0  0  0  0  0  0  0  0  0  0  0
  144.6353  135.7080  149.7333 H   0  0  0  0  0  0  0  0  0  0  0  0
  145.8966  133.8075  152.9167 H   0  0  0  0  0  0  0  0  0  0  0  0
  147.2450  134.3974  151.9528 H   0  0  0  0  0  0  0  0  0  0  0  0
  147.3438  137.1547  154.9494 H   0  0  0  0  0  0  0  0  0  0  0  0
  147.8941  136.6038  153.3807 H   0  0  0  0  0  0  0  0  0  0  0  0
  141.7922  132.8469  153.8083 H   0  0  0  0  0  0  0  0  0  0  0  0
  1  2  1  0  0  0  0
  1 29  1  0  0  0  0
  1 30  1  0  0  0  0
  1 31  1  0  0  0  0
  2  6  1  0  0  0  0
  2  3  1  0  0  0  0
  2 32  1  0  0  0  0
  3  4  1  0  0  0  0
  4  5  1  0  0  0  0
  4 33  1  0  0  0  0
  4 34  1  0  0  0  0
  5  6  1  0  0  0  0
  5 35  1  0  0  0  0
  5 36  1  0  0  0  0
  6  7  1  0  0  0  0
  6  8  1  0  0  0  0
  7 37  1  0  0  0  0
  8  9  1  0  0  0  0
  8 38  1  0  0  0  0
  8 39  1  0  0  0  0
  9 26  1  0  0  0  0
  9 10  1  0  0  0  0
 10 11  2  0  0  0  0
 10 40  1  0  0  0  0
 11 12  1  0  0  0  0
 12 26  2  0  0  0  0
 12 13  1  0  0  0  0
 13 14  1  0  0  0  0
 13 23  2  0  0  0  0
 14 19  1  0  0  0  0
 14 15  1  0  0  0  0
 15 16  1  0  0  0  0
 15 41  1  0  0  0  0
 15 42  1  0  0  0  0
 16 27  1  0  0  0  0
 16 17  1  0  0  0  0
 16 18  1  0  0  0  0
 18 19  1  0  0  0  0
 18 43  1  0  0  0  0
 18 44  1  0  0  0  0
 19 28  1  0  0  0  0
 19 20  1  0  0  0  0
 20 21  1  0  0  0  0
 20 22  2  0  0  0  0
 21 45  1  0  0  0  0
 21 46  1  0  0  0  0
 23 24  1  0  0  0  0
 24 25  2  0  0  0  0
 24 47  1  0  0  0  0
 25 26  1  0  0  0  0
M  END
> <s_m_source_file>
AV-unprocessed.smi

> <i_m_source_file_index>
196

> <i_lp_mmshare_version>
43012

> <i_f3d_flags>
0

> <s_epik_input>
W0NIMl0xW0NIMl1PW0NAQEhdKFtDSDNdKVtDQEBdMShbT0hdKVtDSDJdbihbY0hdbjIpYyhjMjMpbltjSF1uYzNONFtDSDJdW0NASF0oRilbQ0gyXVtDQEhdNEMoPU8pW05IMl0=

> <s_epik_cmdline>
J2VwaWtfcHl0aG9uJywgJy1waCcsICc3LjAnLCAnLXRuJywgJzgnLCAnLW1hJywgJzIwMCcsICctbWV0YWxfYmluZGluZycsICctaW1hZScsICc8aW5maWxlLm1hZT4nLCAnLW9tYWUnLCAnPG91dGZpbGUubWFlPic=

> <r_lp_tautomer_probability>
1

> <r_epik_Ionization_Penalty>
0.000857933

> <r_epik_Ionization_Penalty_Charging>
0

> <r_epik_Ionization_Penalty_Neutral>
0.000857933

> <r_epik_State_Penalty>
0.000462053

> <r_epik_Charging_Adjusted_Penalty>
0.000462053

> <i_epik_Tot_Q>
0

> <i_epik_Tot_abs_Q>
0

> <r_epik_Metal_State_Penalty>
-0

> <b_epik_Metal_Only>
0

> <s_lp_Force_Field>
OPLS_2005

> <r_lp_Energy>
51.2848

> <b_lp_Chiralities_Consistent>
1

> <s_lp_Variant>
AV-unprocessed.smi:196-10

> <Gold.Version>
5.8.1

> <Gold.Id.Protein>
6NUR|6NUR_protein|mol2

> <Gold.PLP.Fitness>
40.2585

> <Gold.PLP.PLP>
-30.4834

> <Gold.PLP.part.hbond>
-4.0000

> <Gold.PLP.part.metal>
0.0000

> <Gold.PLP.part.buried>
-4.9094

> <Gold.PLP.part.nonpolar>
-24.3423

> <Gold.PLP.part.repulsive>
2.3308

> <Gold.PLP.ligand.clash>
0.0000

> <Gold.PLP.ligand.torsion>
0.6373

> <Gold.PLP.Chemscore.Hbond>
2.9833

> <Gold.PLP.Chemscore.CHOScore>
0.6777

> <Gold.PLP.Chemscore.Metal>
0.0000

> <Gold.Chemscore.Hbonds>
donor molecule, donor type, donor heavy atom, donor atom, acceptor molecule, acceptor atom, score
      L1  H     7    37       P1 11000  0.55
      L1  H    21    46       P1  7948  1.00
      P1  H 11000 11005       L1    25  0.98
      L1  C    24    47       P1 10957  0.08

> <Gold.PLP.Chemscore.Internal.Correction>
0.0666

> <Gold.Rescore>
     Score         DG    S(hbond)    S(metal)    S(lipo)     H(rot)  DE(clash)    DE(int)     intcor
      2.20      -8.04       1.68        0.00      40.41       3.04       1.76       4.09       ----

> <Gold.Chemscore.Fitness>
2.1951

> <Gold.Chemscore.DG>
-8.0436

> <Gold.Chemscore.ZeroCoef>
-5.4800

> <Gold.Chemscore.Hbond>
1.6831

> <Gold.Chemscore.Metal>
0.0000

> <Gold.Chemscore.Lipo>
40.4086

> <Gold.Chemscore.Internal_Hbond>
0.0000

> <Gold.Chemscore.DEClash>
1.7554

> <Gold.Chemscore.DEInternal>
4.0931

> <Gold.Chemscore.Rot>
3.0413

> <Gold.Chemscore.Internal.Correction>
   9.000000E+99

> <Gold.Chemscore.Hbonds>
donor molecule, donor type, donor heavy atom, donor atom, acceptor molecule, acceptor atom, score
      L1  H     7    37       P1 11000  0.17
      L1  H    21    46       P1  7948  1.00
      P1  H 11000 11005       L1    25  0.52

> <Gold.Chemscore.Hbond.Weighted>
-5.6214

> <Gold.Chemscore.Metal.Weighted>
-0.0000

> <Gold.Chemscore.Lipo.Weighted>
-4.7278

> <Gold.Chemscore.Internal_Hbond.Weighted>
0.0000

> <Gold.Chemscore.DEClash.Weighted>
1.7554

> <Gold.Chemscore.DEInternal.Weighted>
4.0931

> <Gold.Chemscore.Rot.Weighted>
7.7856

> <Gold.Chemscore.Internal.Correction.Weighted>
   9.000000E+99

> <Gold.Protein.RotatedTorsions>
[ 6907 6896 6895 6894 ] final  105.71 input  -60.11 | X-H torsion
[ 7974 7965 7964 7962 ] final  128.04 input  175.53 | X-H torsion
[ 8008 7997 7996 7995 ] final  -33.57 input   59.86 | X-H torsion
[ 10167 10162 10161 10158 ] final   62.53 input  -65.29 | X-H torsion
[ 10718 10713 10712 10709 ] final -150.55 input   66.30 | X-H torsion
[ 10763 10752 10751 10750 ] final   39.61 input  -60.55 | X-H torsion
[ 11005 11000 10999 10996 ] final    2.28 input  -57.11 | X-H torsion

> <Gold.Protein.ActiveResidues>
 VAL166  LYS551  ARG553  GLY616  TRP617  ASP618  TYR619  PRO620  LYS621  CYS622 
 ASP623  PHE694  ASN695  SER759  ASP760  ASP761  ALA762  ILE779  LEU786  VAL792 
 PHE793  MET794  SER795  GLU796  ALA797  LYS798  CYS799  TRP800  GLU811  SER814 

> <Gold.Protein.RotatedAtoms>
  152.5221  133.9489  159.7662 H   0  0  0  0  0  0  0  0  0  0  0  0  # atno 6907 bound_to 6896
  150.9803  133.6244  159.2730 H   0  0  0  0  0  0  0  0  0  0  0  0  # atno 6908 bound_to 6896
  151.3424  135.0872  159.9428 H   0  0  0  0  0  0  0  0  0  0  0  0  # atno 6909 bound_to 6896
  145.0439  139.3940  143.5088 H   0  0  0  0  0  0  0  0  0  0  0  0  # atno 7974 bound_to 7965
  154.4145  140.1707  156.1909 H   0  0  0  0  0  0  0  0  0  0  0  0  # atno 8008 bound_to 7997
  155.9604  140.3394  155.6462 H   0  0  0  0  0  0  0  0  0  0  0  0  # atno 8009 bound_to 7997
  155.6756  140.0716  157.2494 H   0  0  0  0  0  0  0  0  0  0  0  0  # atno 8010 bound_to 7997
  140.1429  144.4536  150.6801 H   0  0  0  0  0  0  0  0  0  0  0  0  # atno 10167 bound_to 10162
  156.4476  130.8152  151.2383 H   0  0  0  0  0  0  0  0  0  0  0  0  # atno 10718 bound_to 10713
  152.9962  135.6215  154.2492 H   0  0  0  0  0  0  0  0  0  0  0  0  # atno 10763 bound_to 10752
  154.2231  135.2795  155.2919 H   0  0  0  0  0  0  0  0  0  0  0  0  # atno 10764 bound_to 10752
  154.5512  135.5733  153.6982 H   0  0  0  0  0  0  0  0  0  0  0  0  # atno 10765 bound_to 10752
  140.6060  133.9792  155.8154 H   0  0  0  0  0  0  0  0  0  0  0  0  # atno 11005 bound_to 11000
  146.3512  140.0054  142.8672 LP  0  0  0  0  0  0  0  0  0  0  0  0  # atno 17320 bound_to 7965
  145.1613  140.9674  143.4376 LP  0  0  0  0  0  0  0  0  0  0  0  0  # atno 17321 bound_to 7965
  140.6750  143.2301  151.5531 LP  0  0  0  0  0  0  0  0  0  0  0  0  # atno 17342 bound_to 10162
  139.5463  144.2512  152.1448 LP  0  0  0  0  0  0  0  0  0  0  0  0  # atno 17343 bound_to 10162
  157.7504  131.0148  150.3479 LP  0  0  0  0  0  0  0  0  0  0  0  0  # atno 17370 bound_to 10713
  156.3850  130.3887  149.7072 LP  0  0  0  0  0  0  0  0  0  0  0  0  # atno 17371 bound_to 10713
  141.0840  134.0019  157.3342 LP  0  0  0  0  0  0  0  0  0  0  0  0  # atno 17394 bound_to 11000
  139.9212  135.0200  156.8071 LP  0  0  0  0  0  0  0  0  0  0  0  0  # atno 17395 bound_to 11000

$$$$
