#       Name:                AV-unprocessed.smi:1644
#       Creating user name   scv26
#       Creation time:       Fri Mar 27 07:29:11 2020


#       File generated by GOLD software.
#

@<TRIPOS>MOLECULE
AV-unprocessed.smi:1644
    56    58     1
SMALL
NO_CHARGES


@<TRIPOS>ATOM
      1 ****        -2.7099   6.3332   2.0170 C.3            1 S1                 0.0000
      2 ****        -3.5849   5.1611   1.5591 C.3            1 S1                 0.0000
      3 ****        -2.8989   3.7997   1.7588 C.3            1 S1                 0.0000
      4 ****        -3.7805   2.6049   1.3366 C.3            1 S1                 0.0000
      5 ****        -3.9041   2.5187  -0.1043 N.pl3          1 S1                -1.0000
      6 ****        -3.4329   1.3168  -0.5098 C.2            1 S1                 0.0000
      7 ****        -3.3800   0.9009  -1.6666 O.2            1 S1                 0.0000
      8 ****        -2.9950   0.5914   0.5362 N.am           1 S1                 0.0000
      9 ****        -2.3817  -0.7381   0.4432 C.3            1 S1                 0.0000
     10 ****        -0.8456  -0.6461   0.3344 C.3            1 S1                 0.0000
     11 ****        -0.4996  -0.4536  -1.0237 O.3            1 S1                 0.0000
     12 ****        -0.1556  -1.9294   0.8348 C.3            1 S1                 0.0000
     13 ****         1.2924  -1.8269   0.7973 N.pl3          1 S1                 0.0000
     14 ****         2.0859  -1.2679   1.7306 C.2            1 S1                 0.0000
     15 ****         3.3954  -1.2721   1.4991 N.2            1 S1                 0.0000
     16 ****         3.4580  -1.9054   0.2697 C.ar           1 S1                 0.0000
     17 ****         4.5695  -2.2232  -0.5410 C.ar           1 S1                 0.0000
     18 ****         4.3989  -2.8818  -1.7796 C.ar           1 S1                 0.0000
     19 ****         5.6225  -3.2018  -2.6199 C.3            1 S1                 0.0000
     20 ****         3.0991  -3.2355  -2.2229 C.ar           1 S1                 0.0000
     21 ****         2.8910  -3.9463  -3.5483 C.3            1 S1                 0.0000
     22 ****         1.9775  -2.9237  -1.4260 C.ar           1 S1                 0.0000
     23 ****         2.1601  -2.2674  -0.1960 C.ar           1 S1                 0.0000
     24 ****        -3.1410   1.2739   1.6765 C.2            1 S1                 0.0000
     25 ****        -2.8172   0.9217   2.8114 O.2            1 S1                 0.0000
     26 ****        -3.2193   7.2837   1.8574 H              1 S1                 0.0000
     27 ****        -1.7708   6.3620   1.4637 H              1 S1                 0.0000
     28 ****        -2.4728   6.2564   3.0783 H              1 S1                 0.0000
     29 ****        -4.5268   5.1795   2.1080 H              1 S1                 0.0000
     30 ****        -3.8390   5.2961   0.5072 H              1 S1                 0.0000
     31 ****        -1.9532   3.7809   1.2137 H              1 S1                 0.0000
     32 ****        -2.6389   3.6991   2.8136 H              1 S1                 0.0000
     33 ****        -4.7483   2.6578   1.8368 H              1 S1                 0.0000
     34 ****        -2.6515  -1.2960   1.3415 H              1 S1                 0.0000
     35 ****        -2.8015  -1.3143  -0.3833 H              1 S1                 0.0000
     36 ****        -0.4765   0.2007   0.9154 H              1 S1                 0.0000
     37 ****        -0.9453   0.3191  -1.3380 H              1 S1                 0.0000
     38 ****        -0.4508  -2.1366   1.8642 H              1 S1                 0.0000
     39 ****        -0.4654  -2.7916   0.2428 H              1 S1                 0.0000
     40 ****         1.6776  -0.8311   2.6303 H              1 S1                 0.0000
     41 ****         5.5591  -1.9545  -0.2017 H              1 S1                 0.0000
     42 ****         5.7509  -4.2805  -2.7095 H              1 S1                 0.0000
     43 ****         6.5287  -2.7909  -2.1746 H              1 S1                 0.0000
     44 ****         5.5234  -2.7794  -3.6199 H              1 S1                 0.0000
     45 ****         1.8415  -4.1977  -3.7041 H              1 S1                 0.0000
     46 ****         3.4643  -4.8731  -3.5806 H              1 S1                 0.0000
     47 ****         3.2104  -3.3115  -4.3749 H              1 S1                 0.0000
     48 ****         0.9808  -3.1801  -1.7537 H              1 S1                 0.0000
     49 ****        -4.2762   3.2299  -0.7007 LP             1 S1                 0.0000
     50 ****        -3.7067   1.4729  -2.4190 LP             1 S1                 0.0000
     51 ****        -3.0103  -0.0091  -1.8543 LP             1 S1                 0.0000
     52 ****        -0.7824  -1.2486  -1.5604 LP             1 S1                 0.0000
     53 ****         0.4893  -0.3304  -1.1062 LP             1 S1                 0.0000
     54 ****         4.1384  -0.9128   2.0638 LP             1 S1                 0.0000
     55 ****        -2.9727   1.5323   3.5879 LP             1 S1                 0.0000
     56 ****        -2.3988   0.0250   2.9564 LP             1 S1                 0.0000
@<TRIPOS>BOND
    1    1    2 1     
    2    1   26 1     
    3    1   27 1     
    4    1   28 1     
    5    2    3 1     
    6    2   29 1     
    7    2   30 1     
    8    3    4 1     
    9    3   31 1     
   10    3   32 1     
   11    4   24 1     
   12    4    5 1     
   13    4   33 1     
   14    5    6 1     
   15    6    7 2     
   16    6    8 am    
   17    8    9 1     
   18    8   24 am    
   19    9   10 1     
   20    9   34 1     
   21    9   35 1     
   22   10   11 1     
   23   10   12 1     
   24   10   36 1     
   25   11   37 1     
   26   12   13 1     
   27   12   38 1     
   28   12   39 1     
   29   13   23 1     
   30   13   14 1     
   31   14   15 2     
   32   14   40 1     
   33   15   16 1     
   34   16   23 ar    
   35   16   17 ar    
   36   17   18 ar    
   37   17   41 1     
   38   18   19 1     
   39   18   20 ar    
   40   19   42 1     
   41   19   43 1     
   42   19   44 1     
   43   20   21 1     
   44   20   22 ar    
   45   21   45 1     
   46   21   46 1     
   47   21   47 1     
   48   22   23 ar    
   49   22   48 1     
   50   24   25 2     
   51    5   49 1     
   52    7   50 1     
   53    7   51 1     
   54   11   52 1     
   55   11   53 1     
   56   15   54 1     
   57   25   55 1     
   58   25   56 1     
@<TRIPOS>SUBSTRUCTURE
      1 S1             1
@<TRIPOS>SET
LONE_PAIRS      STATIC     ATOMS    <user>   **** ""
8 49 50 51 52 53 54 55 56
DONOR_HYDROGENS      STATIC     ATOMS    <user>   **** ""
1 37
ATOM$BLUE        STATIC     ATOMS    COLORGROUP SYSTEM
8 49 50 51 52 53 54 55 56
ATOM$RED        STATIC     ATOMS    COLORGROUP SYSTEM
1 37
