AV-unprocessed.smi:1890|AV-procd|sdf|7664|dock8
  -GOLD-   22720 9403D 1   1.00000     0.00000
 Structure written by MMmdl.
 51 52  0  0  0  0  0  0  0  0  1 V2000
  152.6845  144.7354  158.1054 C   0  0  0  0  0  0  0  0  0  0  0  0
  151.3582  144.0138  157.8191 C   0  0  0  0  0  0  0  0  0  0  0  0
  151.4811  142.5555  157.8398 N   0  0  0  0  0  0  0  0  0  0  0  0
  152.6852  141.9976  158.4575 C   0  0  0  0  0  0  0  0  0  0  0  0
  152.7474  142.2565  159.9701 C   0  0  0  0  0  0  0  0  0  0  0  0
  150.9125  141.7879  156.7956 C   0  0  0  0  0  0  0  0  0  0  0  0
  151.6333  140.7676  156.1266 C   0  0  0  0  0  0  0  0  0  0  0  0
  150.9995  140.0357  155.1048 C   0  0  0  0  0  0  0  0  0  0  0  0
  149.6674  140.3363  154.7633 C   0  0  0  0  0  0  0  0  0  0  0  0
  149.0480  139.5608  153.7459 N   0  0  0  0  0  0  0  0  0  0  0  0
  147.7387  139.4205  153.4762 C   0  0  0  0  0  0  0  0  0  0  0  0
  146.8253  140.0187  154.0442 O   0  0  0  0  0  0  0  0  0  0  0  0
  147.5424  138.5482  152.4773 N   0  0  0  0  0  0  0  0  0  0  0  0
  146.2422  138.1664  151.9346 C   0  0  0  0  0  0  0  0  0  0  0  0
  145.3680  137.5672  153.0573 C   0  0  0  0  0  0  0  0  0  0  0  0
  144.0642  136.9722  152.4954 C   0  0  0  0  0  0  0  0  0  0  0  0
  144.4033  135.9782  151.4710 N   0  0  0  0  0  0  0  0  0  0  0  0
  144.2482  134.6462  151.6635 C   0  0  0  0  0  0  0  0  0  0  0  0
  144.7180  133.6736  150.5795 C   0  0  0  0  0  0  0  0  0  0  0  0
  143.7460  134.1754  152.6842 O   0  0  0  0  0  0  0  0  0  0  0  0
  145.0574  136.5995  150.3128 C   0  0  0  0  0  0  0  0  0  0  0  0
  146.4129  137.1755  150.7597 C   0  0  0  0  0  0  0  0  0  0  0  0
  149.0230  141.3646  155.4904 C   0  0  0  0  0  0  0  0  0  0  0  0
  149.6267  142.0665  156.4721 N   0  0  0  0  0  0  0  0  0  0  0  0
  152.5548  145.8154  158.0352 H   0  0  0  0  0  0  0  0  0  0  0  0
  153.4483  144.4476  157.3825 H   0  0  0  0  0  0  0  0  0  0  0  0
  153.0699  144.5176  159.1008 H   0  0  0  0  0  0  0  0  0  0  0  0
  150.5869  144.3342  158.5195 H   0  0  0  0  0  0  0  0  0  0  0  0
  151.0061  144.3230  156.8344 H   0  0  0  0  0  0  0  0  0  0  0  0
  152.7007  140.9224  158.2763 H   0  0  0  0  0  0  0  0  0  0  0  0
  153.5844  142.3829  157.9764 H   0  0  0  0  0  0  0  0  0  0  0  0
  153.6488  141.8185  160.3986 H   0  0  0  0  0  0  0  0  0  0  0  0
  151.8909  141.8203  160.4843 H   0  0  0  0  0  0  0  0  0  0  0  0
  152.7636  143.3245  160.1899 H   0  0  0  0  0  0  0  0  0  0  0  0
  152.6526  140.5236  156.3826 H   0  0  0  0  0  0  0  0  0  0  0  0
  151.5348  139.2504  154.5913 H   0  0  0  0  0  0  0  0  0  0  0  0
  149.6817  139.0709  153.1316 H   0  0  0  0  0  0  0  0  0  0  0  0
  148.3526  138.1106  152.0636 H   0  0  0  0  0  0  0  0  0  0  0  0
  145.7321  139.0570  151.5622 H   0  0  0  0  0  0  0  0  0  0  0  0
  145.9196  136.7831  153.5786 H   0  0  0  0  0  0  0  0  0  0  0  0
  145.1386  138.3304  153.8017 H   0  0  0  0  0  0  0  0  0  0  0  0
  143.4659  136.5561  153.3069 H   0  0  0  0  0  0  0  0  0  0  0  0
  143.4532  137.7585  152.0500 H   0  0  0  0  0  0  0  0  0  0  0  0
  145.7813  133.8036  150.3770 H   0  0  0  0  0  0  0  0  0  0  0  0
  144.1583  133.8249  149.6561 H   0  0  0  0  0  0  0  0  0  0  0  0
  144.5642  132.6416  150.8970 H   0  0  0  0  0  0  0  0  0  0  0  0
  145.2000  135.9192  149.4746 H   0  0  0  0  0  0  0  0  0  0  0  0
  144.4228  137.4003  149.9301 H   0  0  0  0  0  0  0  0  0  0  0  0
  146.9004  137.6695  149.9185 H   0  0  0  0  0  0  0  0  0  0  0  0
  147.0680  136.3556  151.0581 H   0  0  0  0  0  0  0  0  0  0  0  0
  147.9930  141.6327  155.3164 H   0  0  0  0  0  0  0  0  0  0  0  0
  1  2  1  0  0  0  0
  1 25  1  0  0  0  0
  1 26  1  0  0  0  0
  1 27  1  0  0  0  0
  2  3  1  0  0  0  0
  2 28  1  0  0  0  0
  2 29  1  0  0  0  0
  3  4  1  0  0  0  0
  3  6  1  0  0  0  0
  4  5  1  0  0  0  0
  4 30  1  0  0  0  0
  4 31  1  0  0  0  0
  5 32  1  0  0  0  0
  5 33  1  0  0  0  0
  5 34  1  0  0  0  0
  6 24  1  0  0  0  0
  6  7  2  0  0  0  0
  7  8  1  0  0  0  0
  7 35  1  0  0  0  0
  8  9  2  0  0  0  0
  8 36  1  0  0  0  0
  9 10  1  0  0  0  0
  9 23  1  0  0  0  0
 10 11  1  0  0  0  0
 10 37  1  0  0  0  0
 11 12  2  0  0  0  0
 11 13  1  0  0  0  0
 13 14  1  0  0  0  0
 13 38  1  0  0  0  0
 14 22  1  0  0  0  0
 14 15  1  0  0  0  0
 14 39  1  0  0  0  0
 15 16  1  0  0  0  0
 15 40  1  0  0  0  0
 15 41  1  0  0  0  0
 16 17  1  0  0  0  0
 16 42  1  0  0  0  0
 16 43  1  0  0  0  0
 17 18  1  0  0  0  0
 17 21  1  0  0  0  0
 18 19  1  0  0  0  0
 18 20  2  0  0  0  0
 19 44  1  0  0  0  0
 19 45  1  0  0  0  0
 19 46  1  0  0  0  0
 21 22  1  0  0  0  0
 21 47  1  0  0  0  0
 21 48  1  0  0  0  0
 22 49  1  0  0  0  0
 22 50  1  0  0  0  0
 23 24  2  0  0  0  0
 23 51  1  0  0  0  0
M  END
> <s_m_source_file>
AV-unprocessed.smi

> <i_m_source_file_index>
1890

> <i_lp_mmshare_version>
43012

> <i_f3d_flags>
0

> <s_epik_input>
W0NIM11bQ0gyXU4oW0NIMl1bQ0gzXSljMVtjSF1bY0hdYyhbY0hdbjEpW05IXUMoPU8pW05IXVtDSF0yW0NIMl1bQ0gyXU4oQyg9TylbQ0gzXSlbQ0gyXVtDSDJdMg==

> <s_epik_cmdline>
J2VwaWtfcHl0aG9uJywgJy1waCcsICc3LjAnLCAnLXRuJywgJzgnLCAnLW1hJywgJzIwMCcsICctbWV0YWxfYmluZGluZycsICctaW1hZScsICc8aW5maWxlLm1hZT4nLCAnLW9tYWUnLCAnPG91dGZpbGUubWFlPic=

> <r_lp_tautomer_probability>
1

> <r_epik_Ionization_Penalty>
0.700493

> <r_epik_Ionization_Penalty_Charging>
0

> <r_epik_Ionization_Penalty_Neutral>
0.700493

> <r_epik_State_Penalty>
2.19132

> <r_epik_Charging_Adjusted_Penalty>
2.19132

> <i_epik_Tot_Q>
0

> <i_epik_Tot_abs_Q>
0

> <r_epik_Metal_State_Penalty>
1.54624

> <b_epik_Metal_Only>
0

> <s_lp_Force_Field>
OPLS_2005

> <r_lp_Energy>
30.5228

> <b_lp_Chiralities_Consistent>
1

> <s_lp_Variant>
AV-unprocessed.smi:1890-2

> <Gold.Version>
5.8.1

> <Gold.Id.Protein>
6NUR|6NUR_protein|mol2

> <Gold.PLP.Fitness>
44.9781

> <Gold.PLP.PLP>
-43.1874

> <Gold.PLP.part.hbond>
-3.0000

> <Gold.PLP.part.metal>
0.0000

> <Gold.PLP.part.buried>
4.5160

> <Gold.PLP.part.nonpolar>
-45.8412

> <Gold.PLP.part.repulsive>
1.8601

> <Gold.PLP.ligand.clash>
0.0000

> <Gold.PLP.ligand.torsion>
0.9296

> <Gold.PLP.Chemscore.Hbond>
0.8960

> <Gold.PLP.Chemscore.CHOScore>
0.0000

> <Gold.PLP.Chemscore.Metal>
0.0000

> <Gold.Chemscore.Hbonds>
donor molecule, donor type, donor heavy atom, donor atom, acceptor molecule, acceptor atom, score
      L1  H    10    37       P1  7957  0.11
      L1  H    13    38       P1  7948  0.72

> <Gold.PLP.Chemscore.Internal.Correction>
0.9619

> <Gold.Rescore>
     Score         DG    S(hbond)    S(metal)    S(lipo)     H(rot)  DE(clash)    DE(int)     intcor
     13.01     -18.10       0.93        0.00     110.27       1.33       3.14       1.95       ----

> <Gold.Chemscore.Fitness>
13.0074

> <Gold.Chemscore.DG>
-18.0982

> <Gold.Chemscore.ZeroCoef>
-5.4800

> <Gold.Chemscore.Hbond>
0.9340

> <Gold.Chemscore.Metal>
0.0000

> <Gold.Chemscore.Lipo>
110.2734

> <Gold.Chemscore.Internal_Hbond>
0.0000

> <Gold.Chemscore.DEClash>
3.1450

> <Gold.Chemscore.DEInternal>
1.9459

> <Gold.Chemscore.Rot>
1.3294

> <Gold.Chemscore.Internal.Correction>
   9.000000E+99

> <Gold.Chemscore.Hbonds>
donor molecule, donor type, donor heavy atom, donor atom, acceptor molecule, acceptor atom, score
      L1  H    10    37       P1  7957  0.11
      L1  H    13    38       P1  7948  0.71

> <Gold.Chemscore.Hbond.Weighted>
-3.1195

> <Gold.Chemscore.Metal.Weighted>
-0.0000

> <Gold.Chemscore.Lipo.Weighted>
-12.9020

> <Gold.Chemscore.Internal_Hbond.Weighted>
0.0000

> <Gold.Chemscore.DEClash.Weighted>
3.1450

> <Gold.Chemscore.DEInternal.Weighted>
1.9459

> <Gold.Chemscore.Rot.Weighted>
3.4034

> <Gold.Chemscore.Internal.Correction.Weighted>
   9.000000E+99

> <Gold.Protein.RotatedTorsions>
[ 6907 6896 6895 6894 ] final  146.98 input  -60.11 | X-H torsion
[ 7974 7965 7964 7962 ] final   32.63 input  175.53 | X-H torsion
[ 8008 7997 7996 7995 ] final  130.69 input   59.86 | X-H torsion
[ 10167 10162 10161 10158 ] final   35.46 input  -65.29 | X-H torsion
[ 10718 10713 10712 10709 ] final  -16.25 input   66.30 | X-H torsion
[ 10763 10752 10751 10750 ] final   -7.75 input  -60.55 | X-H torsion
[ 11005 11000 10999 10996 ] final   55.96 input  -57.11 | X-H torsion

> <Gold.Protein.ActiveResidues>
 VAL166  LYS551  ARG553  GLY616  TRP617  ASP618  TYR619  PRO620  LYS621  CYS622 
 ASP623  PHE694  ASN695  SER759  ASP760  ASP761  ALA762  ILE779  LEU786  VAL792 
 PHE793  MET794  SER795  GLU796  ALA797  LYS798  CYS799  TRP800  GLU811  SER814 

> <Gold.Protein.RotatedAtoms>
  152.1608  133.4580  159.4859 H   0  0  0  0  0  0  0  0  0  0  0  0  # atno 6907 bound_to 6896
  150.6906  134.2074  159.4355 H   0  0  0  0  0  0  0  0  0  0  0  0  # atno 6908 bound_to 6896
  151.9976  134.9945  160.0614 H   0  0  0  0  0  0  0  0  0  0  0  0  # atno 6909 bound_to 6896
  146.1473  139.6500  142.9122 H   0  0  0  0  0  0  0  0  0  0  0  0  # atno 7974 bound_to 7965
  156.2958  140.2589  156.2804 H   0  0  0  0  0  0  0  0  0  0  0  0  # atno 8008 bound_to 7997
  154.9608  140.0392  157.2207 H   0  0  0  0  0  0  0  0  0  0  0  0  # atno 8009 bound_to 7997
  154.7949  140.2818  155.5969 H   0  0  0  0  0  0  0  0  0  0  0  0  # atno 8010 bound_to 7997
  140.4219  144.1447  150.6149 H   0  0  0  0  0  0  0  0  0  0  0  0  # atno 10167 bound_to 10162
  156.5902  130.4797  149.6282 H   0  0  0  0  0  0  0  0  0  0  0  0  # atno 10718 bound_to 10713
  153.4308  135.7012  153.6232 H   0  0  0  0  0  0  0  0  0  0  0  0  # atno 10763 bound_to 10752
  153.4648  135.3728  155.2358 H   0  0  0  0  0  0  0  0  0  0  0  0  # atno 10764 bound_to 10752
  154.8725  135.4028  154.3691 H   0  0  0  0  0  0  0  0  0  0  0  0  # atno 10765 bound_to 10752
  140.0566  134.5661  155.9200 H   0  0  0  0  0  0  0  0  0  0  0  0  # atno 11005 bound_to 11000
  145.4906  141.0438  143.2595 LP  0  0  0  0  0  0  0  0  0  0  0  0  # atno 17320 bound_to 7965
  144.7862  139.6422  143.7133 LP  0  0  0  0  0  0  0  0  0  0  0  0  # atno 17321 bound_to 7965
  140.4524  143.2481  151.9330 LP  0  0  0  0  0  0  0  0  0  0  0  0  # atno 17342 bound_to 10162
  139.4783  144.5549  151.8329 LP  0  0  0  0  0  0  0  0  0  0  0  0  # atno 17343 bound_to 10162
  156.2556  130.6932  151.1684 LP  0  0  0  0  0  0  0  0  0  0  0  0  # atno 17370 bound_to 10713
  157.7305  131.0615  150.5722 LP  0  0  0  0  0  0  0  0  0  0  0  0  # atno 17371 bound_to 10713
  141.1955  133.6587  156.5645 LP  0  0  0  0  0  0  0  0  0  0  0  0  # atno 17394 bound_to 11000
  140.3834  134.7503  157.4676 LP  0  0  0  0  0  0  0  0  0  0  0  0  # atno 17395 bound_to 11000

$$$$
