AV-unprocessed.smi:2784|AV-procd|sdf|10738|dock2
  -GOLD-   2272015173D 1   1.00000     0.00000
 Structure written by MMmdl.
 31 32  0  0  0  0  0  0  0  0  1 V2000
  147.9294  133.4195  153.6574 C   0  0  0  0  0  0  0  0  0  0  0  0
  146.7512  133.5970  152.8868 O   0  0  0  0  0  0  0  0  0  0  0  0
  146.6331  132.6785  151.8089 C   0  0  2  0  0  0  0  0  0  0  0  0
  145.5189  133.1401  150.8654 C   0  0  0  0  0  0  0  0  0  0  0  0
  145.0075  131.8544  150.2258 C   0  0  0  0  0  0  0  0  0  0  0  0
  145.0492  130.8369  151.3651 C   0  0  0  0  0  0  0  0  0  0  0  0
  146.2266  131.2587  152.2667 C   0  0  1  0  0  0  0  0  0  0  0  0
  147.3501  130.3346  152.1302 N   0  0  0  0  0  0  0  0  0  0  0  0
  147.3620  129.0568  152.5374 C   0  0  0  0  0  0  0  0  0  0  0  0
  146.3798  128.5396  153.0789 O   0  0  0  0  0  0  0  0  0  0  0  0
  148.5990  128.4852  152.2842 N   0  0  0  0  0  0  0  0  0  0  0  0
  148.6539  127.3798  151.6081 C   0  0  0  0  0  0  0  0  0  0  0  0
  149.7836  126.6687  151.2366 N   0  0  0  0  0  0  0  0  0  0  0  0
  149.3799  125.5600  150.5451 C   0  0  0  0  0  0  0  0  0  0  0  0
  148.0515  125.5704  150.4846 C   0  0  0  0  0  0  0  0  0  0  0  0
  147.5752  126.6727  151.1279 O   0  0  0  0  0  0  0  0  0  0  0  0
  147.9639  134.1697  154.4472 H   0  0  0  0  0  0  0  0  0  0  0  0
  148.8232  133.5374  153.0439 H   0  0  0  0  0  0  0  0  0  0  0  0
  147.9578  132.4373  154.1302 H   0  0  0  0  0  0  0  0  0  0  0  0
  147.5627  132.6495  151.2360 H   0  0  0  0  0  0  0  0  0  0  0  0
  144.7128  133.6017  151.4377 H   0  0  0  0  0  0  0  0  0  0  0  0
  145.8648  133.8690  150.1322 H   0  0  0  0  0  0  0  0  0  0  0  0
  144.0113  131.9644  149.7967 H   0  0  0  0  0  0  0  0  0  0  0  0
  145.6843  131.5447  149.4283 H   0  0  0  0  0  0  0  0  0  0  0  0
  144.1219  130.9003  151.9359 H   0  0  0  0  0  0  0  0  0  0  0  0
  145.1264  129.8132  150.9961 H   0  0  0  0  0  0  0  0  0  0  0  0
  145.8892  131.2849  153.3048 H   0  0  0  0  0  0  0  0  0  0  0  0
  148.1888  130.7001  151.7031 H   0  0  0  0  0  0  0  0  0  0  0  0
  150.7511  126.8904  151.4216 H   0  0  0  0  0  0  0  0  0  0  0  0
  150.1079  124.8617  150.1590 H   0  0  0  0  0  0  0  0  0  0  0  0
  147.3315  124.8984  150.0416 H   0  0  0  0  0  0  0  0  0  0  0  0
  1  2  1  0  0  0  0
  1 17  1  0  0  0  0
  1 18  1  0  0  0  0
  1 19  1  0  0  0  0
  2  3  1  0  0  0  0
  3  7  1  0  0  0  0
  3  4  1  0  0  0  0
  3 20  1  0  0  0  0
  4  5  1  0  0  0  0
  4 21  1  0  0  0  0
  4 22  1  0  0  0  0
  5  6  1  0  0  0  0
  5 23  1  0  0  0  0
  5 24  1  0  0  0  0
  6  7  1  0  0  0  0
  6 25  1  0  0  0  0
  6 26  1  0  0  0  0
  7  8  1  0  0  0  0
  7 27  1  0  0  0  0
  8 28  1  0  0  0  0
  8  9  1  0  0  0  0
  9 11  1  0  0  0  0
  9 10  2  0  0  0  0
 11 12  2  0  0  0  0
 12 16  1  0  0  0  0
 12 13  1  0  0  0  0
 13 29  1  0  0  0  0
 13 14  1  0  0  0  0
 14 30  1  0  0  0  0
 14 15  2  0  0  0  0
 15 31  1  0  0  0  0
 15 16  1  0  0  0  0
M  END
> <s_m_source_file>
AV-unprocessed.smi

> <i_m_source_file_index>
2784

> <i_lp_mmshare_version>
43012

> <i_f3d_flags>
0

> <s_epik_input>
W0NIM11PW0NAQEhdMVtDSDJdW0NIMl1bQ0gyXVtDQEhdMVtOSF1DKD1PKVtOSF1jMm5bY0hdW2NIXW8y

> <s_epik_cmdline>
J2VwaWtfcHl0aG9uJywgJy1waCcsICc3LjAnLCAnLXRuJywgJzgnLCAnLW1hJywgJzIwMCcsICctbWV0YWxfYmluZGluZycsICctaW1hZScsICc8aW5maWxlLm1hZT4nLCAnLW9tYWUnLCAnPG91dGZpbGUubWFlPic=

> <r_lp_tautomer_probability>
0.107061

> <r_epik_Ionization_Penalty>
1.29244

> <r_epik_Ionization_Penalty_Charging>
1.29208

> <r_epik_Ionization_Penalty_Neutral>
0.000359742

> <r_epik_State_Penalty>
2.59896

> <r_epik_Charging_Adjusted_Penalty>
3.89105

> <i_epik_Tot_Q>
0

> <i_epik_Tot_abs_Q>
0

> <r_epik_Metal_State_Penalty>
3.62496

> <b_epik_Metal_Only>
0

> <s_lp_Force_Field>
OPLS_2005

> <r_lp_Energy>
42.0746

> <b_lp_Chiralities_Consistent>
1

> <s_lp_Variant>
AV-unprocessed.smi:2784-13

> <Gold.Version>
5.8.1

> <Gold.Id.Protein>
6NUR|6NUR_protein|mol2

> <Gold.PLP.Fitness>
33.4902

> <Gold.PLP.PLP>
-29.1202

> <Gold.PLP.part.hbond>
-1.8769

> <Gold.PLP.part.metal>
0.0000

> <Gold.PLP.part.buried>
-6.3010

> <Gold.PLP.part.nonpolar>
-22.7094

> <Gold.PLP.part.repulsive>
0.8988

> <Gold.PLP.ligand.clash>
0.0000

> <Gold.PLP.ligand.torsion>
0.6380

> <Gold.PLP.Chemscore.Hbond>
1.8800

> <Gold.PLP.Chemscore.CHOScore>
0.0000

> <Gold.PLP.Chemscore.Metal>
0.0000

> <Gold.Chemscore.Hbonds>
donor molecule, donor type, donor heavy atom, donor atom, acceptor molecule, acceptor atom, score
      L1  H     8    28       P1 10747  0.88
      L1  H    13    29       P1 10737  0.99

> <Gold.PLP.Chemscore.Internal.Correction>
0.0060

> <Gold.Rescore>
     Score         DG    S(hbond)    S(metal)    S(lipo)     H(rot)  DE(clash)    DE(int)     intcor
     13.91     -15.77       1.84        0.00      64.50       1.32       0.05       1.81       ----

> <Gold.Chemscore.Fitness>
13.9088

> <Gold.Chemscore.DG>
-15.7694

> <Gold.Chemscore.ZeroCoef>
-5.4800

> <Gold.Chemscore.Hbond>
1.8356

> <Gold.Chemscore.Metal>
0.0000

> <Gold.Chemscore.Lipo>
64.5022

> <Gold.Chemscore.Internal_Hbond>
0.0000

> <Gold.Chemscore.DEClash>
0.0460

> <Gold.Chemscore.DEInternal>
1.8146

> <Gold.Chemscore.Rot>
1.3235

> <Gold.Chemscore.Internal.Correction>
   9.000000E+99

> <Gold.Chemscore.Hbonds>
donor molecule, donor type, donor heavy atom, donor atom, acceptor molecule, acceptor atom, score
      L1  H     8    28       P1 10747  0.86
      L1  H    13    29       P1 10737  0.93

> <Gold.Chemscore.Hbond.Weighted>
-6.1308

> <Gold.Chemscore.Metal.Weighted>
-0.0000

> <Gold.Chemscore.Lipo.Weighted>
-7.5468

> <Gold.Chemscore.Internal_Hbond.Weighted>
0.0000

> <Gold.Chemscore.DEClash.Weighted>
0.0460

> <Gold.Chemscore.DEInternal.Weighted>
1.8146

> <Gold.Chemscore.Rot.Weighted>
3.3882

> <Gold.Chemscore.Internal.Correction.Weighted>
   9.000000E+99

> <Gold.Protein.RotatedTorsions>
[ 6907 6896 6895 6894 ] final  -89.83 input  -60.11 | X-H torsion
[ 7974 7965 7964 7962 ] final  -39.20 input  175.53 | X-H torsion
[ 8008 7997 7996 7995 ] final  124.85 input   59.86 | X-H torsion
[ 10167 10162 10161 10158 ] final   21.56 input  -65.29 | X-H torsion
[ 10718 10713 10712 10709 ] final   70.34 input   66.30 | X-H torsion
[ 10763 10752 10751 10750 ] final  -33.09 input  -60.55 | X-H torsion
[ 11005 11000 10999 10996 ] final   16.14 input  -57.11 | X-H torsion

> <Gold.Protein.ActiveResidues>
 VAL166  LYS551  ARG553  GLY616  TRP617  ASP618  TYR619  PRO620  LYS621  CYS622 
 ASP623  PHE694  ASN695  SER759  ASP760  ASP761  ALA762  ILE779  LEU786  VAL792 
 PHE793  MET794  SER795  GLU796  ALA797  LYS798  CYS799  TRP800  GLU811  SER814 

> <Gold.Protein.RotatedAtoms>
  150.6877  134.2526  159.4516 H   0  0  0  0  0  0  0  0  0  0  0  0  # atno 6907 bound_to 6896
  152.0462  134.9679  160.0583 H   0  0  0  0  0  0  0  0  0  0  0  0  # atno 6908 bound_to 6896
  152.1161  133.4292  159.4690 H   0  0  0  0  0  0  0  0  0  0  0  0  # atno 6909 bound_to 6896
  146.0418  140.6599  142.9083 H   0  0  0  0  0  0  0  0  0  0  0  0  # atno 7974 bound_to 7965
  156.2815  140.2730  156.1854 H   0  0  0  0  0  0  0  0  0  0  0  0  # atno 8008 bound_to 7997
  155.0513  140.0386  157.2562 H   0  0  0  0  0  0  0  0  0  0  0  0  # atno 8009 bound_to 7997
  154.7193  140.2684  155.6562 H   0  0  0  0  0  0  0  0  0  0  0  0  # atno 8010 bound_to 7997
  140.5417  143.9665  150.6523 H   0  0  0  0  0  0  0  0  0  0  0  0  # atno 10167 bound_to 10162
  157.6394  130.9472  150.0637 H   0  0  0  0  0  0  0  0  0  0  0  0  # atno 10718 bound_to 10713
  153.8246  135.6871  153.4822 H   0  0  0  0  0  0  0  0  0  0  0  0  # atno 10763 bound_to 10752
  153.1548  135.4603  154.9687 H   0  0  0  0  0  0  0  0  0  0  0  0  # atno 10764 bound_to 10752
  154.7913  135.3303  154.7715 H   0  0  0  0  0  0  0  0  0  0  0  0  # atno 10765 bound_to 10752
  140.4505  134.1229  155.7702 H   0  0  0  0  0  0  0  0  0  0  0  0  # atno 11005 bound_to 11000
  144.7078  140.3921  143.7104 LP  0  0  0  0  0  0  0  0  0  0  0  0  # atno 17320 bound_to 7965
  145.6872  139.1631  143.2667 LP  0  0  0  0  0  0  0  0  0  0  0  0  # atno 17321 bound_to 7965
  140.3068  143.3224  152.0918 LP  0  0  0  0  0  0  0  0  0  0  0  0  # atno 17342 bound_to 10162
  139.4991  144.6662  151.6351 LP  0  0  0  0  0  0  0  0  0  0  0  0  # atno 17343 bound_to 10162
  156.1662  130.3645  149.9229 LP  0  0  0  0  0  0  0  0  0  0  0  0  # atno 17370 bound_to 10713
  156.7215  130.9009  151.3618 LP  0  0  0  0  0  0  0  0  0  0  0  0  # atno 17371 bound_to 10713
  141.1666  133.8691  157.1696 LP  0  0  0  0  0  0  0  0  0  0  0  0  # atno 17394 bound_to 11000
  140.0010  135.0028  157.0189 LP  0  0  0  0  0  0  0  0  0  0  0  0  # atno 17395 bound_to 11000

$$$$
