AV-unprocessed.smi:254|AV-procd|sdf|1947|dock2
  -GOLD-   2262021 83D 1   1.00000     0.00000
 Structure written by MMmdl.
 50 53  0  0  0  0  0  0  0  0  1 V2000
  145.2724  133.8433  163.1736 O   0  0  0  0  0  0  0  0  0  0  0  0
  145.8803  134.7220  162.5647 C   0  0  0  0  0  0  0  0  0  0  0  0
  147.1268  134.4552  161.7444 C   0  0  0  0  0  0  0  0  0  0  0  0
  147.4624  135.7800  161.2265 N   0  0  0  0  0  0  0  0  0  0  0  0
  147.8020  135.8003  159.9186 C   0  0  0  0  0  0  0  0  0  0  0  0
  148.3370  134.6949  159.3361 N   0  0  0  0  0  0  0  0  0  0  0  0
  148.6833  134.7240  158.0454 C   0  0  0  0  0  0  0  0  0  0  0  0
  148.5850  135.7333  157.1768 N   0  0  0  0  0  0  0  0  0  0  0  0
  148.0560  136.8448  157.7652 C   0  0  0  0  0  0  0  0  0  0  0  0
  147.6434  136.9629  159.1211 C   0  0  0  0  0  0  0  0  0  0  0  0
  147.1561  138.2403  159.3642 N   0  0  0  0  0  0  0  0  0  0  0  0
  147.2695  138.8448  158.2127 C   0  0  0  0  0  0  0  0  0  0  0  0
  147.8154  138.0857  157.2008 N   0  0  0  0  0  0  0  0  0  0  0  0
  148.0401  138.5009  155.8272 C   0  0  0  0  0  0  0  0  0  0  0  0
  149.1558  139.5631  155.6464 C   0  0  2  0  0  0  0  0  0  0  0  0
  148.7689  140.4587  154.4440 C   0  0  0  0  0  0  0  0  0  0  0  0
  148.3669  139.6976  153.3240 O   0  0  0  0  0  0  0  0  0  0  0  0
  150.5728  138.9321  155.4795 C   0  0  1  0  0  0  0  0  0  0  0  0
  150.8007  138.1651  154.1861 C   0  0  0  0  0  0  0  0  0  0  0  0
  152.3179  138.0774  154.1241 C   0  0  0  0  0  0  0  0  0  0  0  0
  152.7610  139.3360  154.6058 O   0  0  0  0  0  0  0  0  0  0  0  0
  151.7493  139.9212  155.4210 C   0  0  0  0  0  0  0  0  0  0  0  0
  146.4766  136.7687  161.6673 C   0  0  0  0  0  0  0  0  0  0  0  0
  145.5622  136.0167  162.5095 N   0  0  0  0  0  0  0  0  0  0  0  0
  144.4186  136.6664  163.1467 C   0  0  0  0  0  0  0  0  0  0  0  0
  143.0837  135.9886  162.7901 C   0  0  0  0  0  0  0  0  0  0  0  0
  142.9809  134.8494  163.4732 F   0  0  0  0  0  0  0  0  0  0  0  0
  142.0480  136.7655  163.1066 F   0  0  0  0  0  0  0  0  0  0  0  0
  143.0394  135.7082  161.4876 F   0  0  0  0  0  0  0  0  0  0  0  0
  147.9297  134.0781  162.3780 H   0  0  0  0  0  0  0  0  0  0  0  0
  146.9183  133.7220  160.9629 H   0  0  0  0  0  0  0  0  0  0  0  0
  149.0997  133.8082  157.6526 H   0  0  0  0  0  0  0  0  0  0  0  0
  146.9625  139.8708  158.0701 H   0  0  0  0  0  0  0  0  0  0  0  0
  148.2609  137.6218  155.2207 H   0  0  0  0  0  0  0  0  0  0  0  0
  147.0887  138.8894  155.4620 H   0  0  0  0  0  0  0  0  0  0  0  0
  149.1572  140.1948  156.5359 H   0  0  0  0  0  0  0  0  0  0  0  0
  147.9798  141.1597  154.7175 H   0  0  0  0  0  0  0  0  0  0  0  0
  149.6189  141.0577  154.1163 H   0  0  0  0  0  0  0  0  0  0  0  0
  148.9118  139.9334  152.5887 H   0  0  0  0  0  0  0  0  0  0  0  0
  150.7489  138.2415  156.3060 H   0  0  0  0  0  0  0  0  0  0  0  0
  150.3303  137.1817  154.1797 H   0  0  0  0  0  0  0  0  0  0  0  0
  150.4279  138.7326  153.3323 H   0  0  0  0  0  0  0  0  0  0  0  0
  152.6843  137.2933  154.7882 H   0  0  0  0  0  0  0  0  0  0  0  0
  152.6894  137.8772  153.1190 H   0  0  0  0  0  0  0  0  0  0  0  0
  151.4519  140.8638  154.9608 H   0  0  0  0  0  0  0  0  0  0  0  0
  152.1522  140.1373  156.4095 H   0  0  0  0  0  0  0  0  0  0  0  0
  146.9713  137.5474  162.2488 H   0  0  0  0  0  0  0  0  0  0  0  0
  145.9353  137.2471  160.8496 H   0  0  0  0  0  0  0  0  0  0  0  0
  144.5593  136.6505  164.2283 H   0  0  0  0  0  0  0  0  0  0  0  0
  144.3916  137.7190  162.8604 H   0  0  0  0  0  0  0  0  0  0  0  0
  1  2  2  0  0  0  0
  2 24  1  0  0  0  0
  2  3  1  0  0  0  0
  3  4  1  0  0  0  0
  3 30  1  0  0  0  0
  3 31  1  0  0  0  0
  4  5  1  0  0  0  0
  4 23  1  0  0  0  0
  5 10  1  0  0  0  0
  5  6  2  0  0  0  0
  6  7  1  0  0  0  0
  7  8  2  0  0  0  0
  7 32  1  0  0  0  0
  8  9  1  0  0  0  0
  9 13  1  0  0  0  0
  9 10  2  0  0  0  0
 10 11  1  0  0  0  0
 11 12  2  0  0  0  0
 12 13  1  0  0  0  0
 12 33  1  0  0  0  0
 13 14  1  0  0  0  0
 14 15  1  0  0  0  0
 14 34  1  0  0  0  0
 14 35  1  0  0  0  0
 15 16  1  0  0  0  0
 15 18  1  0  0  0  0
 15 36  1  0  0  0  0
 16 17  1  0  0  0  0
 16 37  1  0  0  0  0
 16 38  1  0  0  0  0
 17 39  1  0  0  0  0
 18 22  1  0  0  0  0
 18 19  1  0  0  0  0
 18 40  1  0  0  0  0
 19 20  1  0  0  0  0
 19 41  1  0  0  0  0
 19 42  1  0  0  0  0
 20 21  1  0  0  0  0
 20 43  1  0  0  0  0
 20 44  1  0  0  0  0
 21 22  1  0  0  0  0
 22 45  1  0  0  0  0
 22 46  1  0  0  0  0
 23 24  1  0  0  0  0
 23 47  1  0  0  0  0
 23 48  1  0  0  0  0
 24 25  1  0  0  0  0
 25 26  1  0  0  0  0
 25 49  1  0  0  0  0
 25 50  1  0  0  0  0
 26 27  1  0  0  0  0
 26 28  1  0  0  0  0
 26 29  1  0  0  0  0
M  END
> <s_m_source_file>
AV-unprocessed.smi

> <i_m_source_file_index>
254

> <i_lp_mmshare_version>
43012

> <i_f3d_flags>
0

> <s_epik_input>
RkMoRikoRilbQ0gyXU4xW0NIMl1OKFtDSDJdQzE9TyljKG5bY0hdbjIpYyhjMjMpbltjSF1uM1tDSDJdW0NASF0oW0NIMl1bT0hdKVtDQEBIXTRbQ0gyXVtDSDJdT1tDSDJdNA==

> <s_epik_cmdline>
J2VwaWtfcHl0aG9uJywgJy1waCcsICc3LjAnLCAnLXRuJywgJzgnLCAnLW1hJywgJzIwMCcsICctbWV0YWxfYmluZGluZycsICctaW1hZScsICc8aW5maWxlLm1hZT4nLCAnLW9tYWUnLCAnPG91dGZpbGUubWFlPic=

> <r_lp_tautomer_probability>
1

> <r_epik_Ionization_Penalty>
0.000292924

> <r_epik_Ionization_Penalty_Charging>
0

> <r_epik_Ionization_Penalty_Neutral>
0.000292924

> <r_epik_State_Penalty>
-0

> <r_epik_Charging_Adjusted_Penalty>
0

> <i_epik_Tot_Q>
0

> <i_epik_Tot_abs_Q>
0

> <r_epik_Metal_State_Penalty>
-0

> <b_epik_Metal_Only>
0

> <s_epik_Chemistry_Notes>
This compound contains an acetal/aminal-like group ( X-CH(R)-Y where X, Y are N, S, or O) that may be acid/base labile, releasing an aldehyde.

> <s_lp_Force_Field>
OPLS_2005

> <r_lp_Energy>
43.3232

> <b_lp_Chiralities_Consistent>
1

> <s_lp_Variant>
AV-unprocessed.smi:254-3

> <Gold.Version>
5.8.1

> <Gold.Id.Protein>
6NUR|6NUR_protein|mol2

> <Gold.PLP.Fitness>
46.8907

> <Gold.PLP.PLP>
-41.6189

> <Gold.PLP.part.hbond>
-5.5929

> <Gold.PLP.part.metal>
0.0000

> <Gold.PLP.part.buried>
-6.3912

> <Gold.PLP.part.nonpolar>
-30.2938

> <Gold.PLP.part.repulsive>
0.0892

> <Gold.PLP.ligand.clash>
0.0000

> <Gold.PLP.ligand.torsion>
1.4638

> <Gold.PLP.Chemscore.Hbond>
2.5600

> <Gold.PLP.Chemscore.CHOScore>
0.0000

> <Gold.PLP.Chemscore.Metal>
0.0000

> <Gold.Chemscore.Hbonds>
donor molecule, donor type, donor heavy atom, donor atom, acceptor molecule, acceptor atom, score
      L1  H    17    39       P1  7957  1.00
      P1  H  6934  6947       L1    11  0.50
      P1  H  7997  8008       L1    21  0.25

> <Gold.PLP.Chemscore.Internal.Correction>
0.5193

> <Gold.Rescore>
     Score         DG    S(hbond)    S(metal)    S(lipo)     H(rot)  DE(clash)    DE(int)     intcor
      5.55     -10.36       2.39        0.00      56.39       3.78       0.15       4.66       ----

> <Gold.Chemscore.Fitness>
5.5548

> <Gold.Chemscore.DG>
-10.3599

> <Gold.Chemscore.ZeroCoef>
-5.4800

> <Gold.Chemscore.Hbond>
2.3861

> <Gold.Chemscore.Metal>
0.0000

> <Gold.Chemscore.Lipo>
56.3891

> <Gold.Chemscore.Internal_Hbond>
0.0000

> <Gold.Chemscore.DEClash>
0.1483

> <Gold.Chemscore.DEInternal>
4.6569

> <Gold.Chemscore.Rot>
3.7840

> <Gold.Chemscore.Internal.Correction>
   9.000000E+99

> <Gold.Chemscore.Hbonds>
donor molecule, donor type, donor heavy atom, donor atom, acceptor molecule, acceptor atom, score
      L1  H    17    39       P1  7957  0.98
      P1  H  6934  6947       L1    11  0.50
      P1  H  7997  8008       L1    21  0.03

> <Gold.Chemscore.Hbond.Weighted>
-7.9695

> <Gold.Chemscore.Metal.Weighted>
-0.0000

> <Gold.Chemscore.Lipo.Weighted>
-6.5975

> <Gold.Chemscore.Internal_Hbond.Weighted>
0.0000

> <Gold.Chemscore.DEClash.Weighted>
0.1483

> <Gold.Chemscore.DEInternal.Weighted>
4.6569

> <Gold.Chemscore.Rot.Weighted>
9.6871

> <Gold.Chemscore.Internal.Correction.Weighted>
   9.000000E+99

> <Gold.Protein.RotatedTorsions>
[ 6907 6896 6895 6894 ] final -162.18 input  -60.11 | X-H torsion
[ 7974 7965 7964 7962 ] final   92.88 input  175.53 | X-H torsion
[ 8008 7997 7996 7995 ] final  -14.43 input   59.86 | X-H torsion
[ 10167 10162 10161 10158 ] final   46.64 input  -65.29 | X-H torsion
[ 10718 10713 10712 10709 ] final -133.06 input   66.30 | X-H torsion
[ 10763 10752 10751 10750 ] final  -11.11 input  -60.55 | X-H torsion
[ 11005 11000 10999 10996 ] final   63.37 input  -57.11 | X-H torsion

> <Gold.Protein.ActiveResidues>
 VAL166  LYS551  ARG553  GLY616  TRP617  ASP618  TYR619  PRO620  LYS621  CYS622 
 ASP623  PHE694  ASN695  SER759  ASP760  ASP761  ALA762  ILE779  LEU786  VAL792 
 PHE793  MET794  SER795  GLU796  ALA797  LYS798  CYS799  TRP800  GLU811  SER814 

> <Gold.Protein.RotatedAtoms>
  151.3762  133.3837  159.2704 H   0  0  0  0  0  0  0  0  0  0  0  0  # atno 6907 bound_to 6896
  150.9612  134.9001  159.7742 H   0  0  0  0  0  0  0  0  0  0  0  0  # atno 6908 bound_to 6896
  152.5150  134.3721  159.9374 H   0  0  0  0  0  0  0  0  0  0  0  0  # atno 6909 bound_to 6896
  145.4864  139.2277  143.2854 H   0  0  0  0  0  0  0  0  0  0  0  0  # atno 7974 bound_to 7965
  154.5211  140.2223  155.8975 H   0  0  0  0  0  0  0  0  0  0  0  0  # atno 8008 bound_to 7997
  156.1662  140.3131  155.8858 H   0  0  0  0  0  0  0  0  0  0  0  0  # atno 8009 bound_to 7997
  155.3651  140.0463  157.3037 H   0  0  0  0  0  0  0  0  0  0  0  0  # atno 8010 bound_to 7997
  140.3119  144.2810  150.6198 H   0  0  0  0  0  0  0  0  0  0  0  0  # atno 10167 bound_to 10162
  156.2410  130.7096  151.0957 H   0  0  0  0  0  0  0  0  0  0  0  0  # atno 10718 bound_to 10713
  153.4790  135.7017  153.5949 H   0  0  0  0  0  0  0  0  0  0  0  0  # atno 10763 bound_to 10752
  153.4170  135.3834  155.2087 H   0  0  0  0  0  0  0  0  0  0  0  0  # atno 10764 bound_to 10752
  154.8722  135.3918  154.4237 H   0  0  0  0  0  0  0  0  0  0  0  0  # atno 10765 bound_to 10752
  140.0029  134.6414  155.9902 H   0  0  0  0  0  0  0  0  0  0  0  0  # atno 11005 bound_to 11000
  146.2310  140.5654  142.8975 LP  0  0  0  0  0  0  0  0  0  0  0  0  # atno 17320 bound_to 7965
  144.7859  140.5935  143.6574 LP  0  0  0  0  0  0  0  0  0  0  0  0  # atno 17321 bound_to 7965
  140.5561  143.2199  151.7845 LP  0  0  0  0  0  0  0  0  0  0  0  0  # atno 17342 bound_to 10162
  139.4892  144.4412  151.9762 LP  0  0  0  0  0  0  0  0  0  0  0  0  # atno 17343 bound_to 10162
  157.7175  131.0701  150.6269 LP  0  0  0  0  0  0  0  0  0  0  0  0  # atno 17370 bound_to 10713
  156.6342  130.4440  149.5775 LP  0  0  0  0  0  0  0  0  0  0  0  0  # atno 17371 bound_to 10713
  141.1655  133.6537  156.4466 LP  0  0  0  0  0  0  0  0  0  0  0  0  # atno 17394 bound_to 11000
  140.4695  134.6767  157.5122 LP  0  0  0  0  0  0  0  0  0  0  0  0  # atno 17395 bound_to 11000

$$$$
