AV-unprocessed.smi:2261|AV-procd|sdf|9136|dock1
  -GOLD-   2272012343D 1   1.00000     0.00000
 Structure written by MMmdl.
 41 42  0  0  0  0  0  0  0  0  1 V2000
  152.8490  142.5306  161.8790 C   0  0  0  0  0  0  0  0  0  0  0  0
  152.9387  142.4653  160.3466 C   0  0  0  0  0  0  0  0  0  0  0  0
  154.1948  141.6983  159.8991 C   0  0  0  0  0  0  0  0  0  0  0  0
  151.6634  141.8955  159.7135 C   0  0  0  0  0  0  0  0  0  0  0  0
  151.5216  142.6982  158.4353 C   0  0  1  0  0  0  0  0  0  0  0  0
  150.1362  142.7222  157.9713 N   0  0  0  0  0  0  0  0  0  0  0  0
  149.3714  141.6422  157.7522 C   0  0  0  0  0  0  0  0  0  0  0  0
  149.7572  140.4869  157.9279 O   0  0  0  0  0  0  0  0  0  0  0  0
  147.9485  141.9062  157.2605 C   0  0  0  0  0  0  0  0  0  0  0  0
  147.7606  141.3359  155.8667 C   0  0  0  0  0  0  0  0  0  0  0  0
  146.7690  140.3672  155.6060 C   0  0  0  0  0  0  0  0  0  0  0  0
  146.6366  139.8677  154.2963 C   0  0  0  0  0  0  0  0  0  0  0  0
  147.5033  140.3597  153.2999 C   0  0  0  0  0  0  0  0  0  0  0  0
  148.4555  141.2873  153.5373 N   0  0  0  0  0  0  0  0  0  0  0  0
  148.5765  141.7607  154.7962 C   0  0  0  0  0  0  0  0  0  0  0  0
  152.0701  144.0815  158.8497 C   0  0  0  0  0  0  0  0  0  0  0  0
  152.7747  144.8037  157.6904 C   0  0  0  0  0  0  0  0  0  0  0  0
  151.0286  145.0053  159.5155 C   0  0  0  0  0  0  0  0  0  0  0  0
  153.0528  143.7957  159.8438 O   0  0  0  0  0  0  0  0  0  0  0  0
  152.7395  141.5353  162.3103 H   0  0  0  0  0  0  0  0  0  0  0  0
  151.9957  143.1287  162.2001 H   0  0  0  0  0  0  0  0  0  0  0  0
  153.7440  142.9828  162.3073 H   0  0  0  0  0  0  0  0  0  0  0  0
  154.1691  140.6638  160.2427 H   0  0  0  0  0  0  0  0  0  0  0  0
  155.0993  142.1575  160.2997 H   0  0  0  0  0  0  0  0  0  0  0  0
  154.2892  141.6844  158.8131 H   0  0  0  0  0  0  0  0  0  0  0  0
  151.7155  140.8208  159.5346 H   0  0  0  0  0  0  0  0  0  0  0  0
  150.8056  142.0760  160.3635 H   0  0  0  0  0  0  0  0  0  0  0  0
  152.1672  142.2474  157.6789 H   0  0  0  0  0  0  0  0  0  0  0  0
  149.7309  143.6307  157.8000 H   0  0  0  0  0  0  0  0  0  0  0  0
  147.2232  141.4659  157.9464 H   0  0  0  0  0  0  0  0  0  0  0  0
  147.7589  142.9803  157.2493 H   0  0  0  0  0  0  0  0  0  0  0  0
  146.1227  140.0105  156.3946 H   0  0  0  0  0  0  0  0  0  0  0  0
  145.8893  139.1248  154.0604 H   0  0  0  0  0  0  0  0  0  0  0  0
  147.4291  139.9984  152.2849 H   0  0  0  0  0  0  0  0  0  0  0  0
  149.3488  142.4995  154.9541 H   0  0  0  0  0  0  0  0  0  0  0  0
  152.0723  145.0612  156.8977 H   0  0  0  0  0  0  0  0  0  0  0  0
  153.5567  144.1816  157.2538 H   0  0  0  0  0  0  0  0  0  0  0  0
  153.2427  145.7281  158.0297 H   0  0  0  0  0  0  0  0  0  0  0  0
  150.2567  145.3147  158.8102 H   0  0  0  0  0  0  0  0  0  0  0  0
  151.5000  145.9112  159.8975 H   0  0  0  0  0  0  0  0  0  0  0  0
  150.5359  144.5167  160.3564 H   0  0  0  0  0  0  0  0  0  0  0  0
  1  2  1  0  0  0  0
  1 20  1  0  0  0  0
  1 21  1  0  0  0  0
  1 22  1  0  0  0  0
  2 19  1  0  0  0  0
  2  3  1  0  0  0  0
  2  4  1  0  0  0  0
  3 23  1  0  0  0  0
  3 24  1  0  0  0  0
  3 25  1  0  0  0  0
  4  5  1  0  0  0  0
  4 26  1  0  0  0  0
  4 27  1  0  0  0  0
  5  6  1  0  0  0  0
  5 16  1  0  0  0  0
  5 28  1  0  0  0  0
  6  7  1  0  0  0  0
  6 29  1  0  0  0  0
  7  8  2  0  0  0  0
  7  9  1  0  0  0  0
  9 10  1  0  0  0  0
  9 30  1  0  0  0  0
  9 31  1  0  0  0  0
 10 15  1  0  0  0  0
 10 11  2  0  0  0  0
 11 12  1  0  0  0  0
 11 32  1  0  0  0  0
 12 13  2  0  0  0  0
 12 33  1  0  0  0  0
 13 14  1  0  0  0  0
 13 34  1  0  0  0  0
 14 15  2  0  0  0  0
 15 35  1  0  0  0  0
 16 17  1  0  0  0  0
 16 18  1  0  0  0  0
 16 19  1  0  0  0  0
 17 36  1  0  0  0  0
 17 37  1  0  0  0  0
 17 38  1  0  0  0  0
 18 39  1  0  0  0  0
 18 40  1  0  0  0  0
 18 41  1  0  0  0  0
M  END
> <s_m_source_file>
AV-unprocessed.smi

> <i_m_source_file_index>
2261

> <i_lp_mmshare_version>
43012

> <i_f3d_flags>
0

> <s_epik_input>
W0NIM11DMShbQ0gzXSlbQ0gyXVtDQEhdKEMoTzEpKFtDSDNdKVtDSDNdKVtOSF1DKD1PKVtDSDJdYzJbY0hdW2NIXVtjSF1uW2NIXTI=

> <s_epik_cmdline>
J2VwaWtfcHl0aG9uJywgJy1waCcsICc3LjAnLCAnLXRuJywgJzgnLCAnLW1hJywgJzIwMCcsICctbWV0YWxfYmluZGluZycsICctaW1hZScsICc8aW5maWxlLm1hZT4nLCAnLW9tYWUnLCAnPG91dGZpbGUubWFlPic=

> <r_epik_Ionization_Penalty>
0.00420617

> <r_epik_Ionization_Penalty_Charging>
0

> <r_epik_Ionization_Penalty_Neutral>
0.00420617

> <r_epik_State_Penalty>
0.0030219

> <r_epik_Charging_Adjusted_Penalty>
0.0030219

> <i_epik_Tot_Q>
0

> <i_epik_Tot_abs_Q>
0

> <r_epik_Metal_State_Penalty>
-0

> <b_epik_Metal_Only>
0

> <s_lp_Force_Field>
OPLS_2005

> <r_lp_Energy>
17.0757

> <b_lp_Chiralities_Consistent>
1

> <s_lp_Variant>
AV-unprocessed.smi:2261-1

> <Gold.Version>
5.8.1

> <Gold.Id.Protein>
6NUR|6NUR_protein|mol2

> <Gold.PLP.Fitness>
41.9561

> <Gold.PLP.PLP>
-35.2522

> <Gold.PLP.part.hbond>
-1.2145

> <Gold.PLP.part.metal>
0.0000

> <Gold.PLP.part.buried>
-0.6250

> <Gold.PLP.part.nonpolar>
-33.8077

> <Gold.PLP.part.repulsive>
1.6250

> <Gold.PLP.ligand.clash>
0.0000

> <Gold.PLP.ligand.torsion>
0.0887

> <Gold.PLP.Chemscore.Hbond>
0.8000

> <Gold.PLP.Chemscore.CHOScore>
1.4885

> <Gold.PLP.Chemscore.Metal>
0.0000

> <Gold.Chemscore.Hbonds>
donor molecule, donor type, donor heavy atom, donor atom, acceptor molecule, acceptor atom, score
      P1  H  8011  8017       L1    14  0.64
      L1  C    13    34       P1  7957  0.65
      L1  C    15    35       P1  8028  0.85

> <Gold.PLP.Chemscore.Internal.Correction>
0.0158

> <Gold.Rescore>
     Score         DG    S(hbond)    S(metal)    S(lipo)     H(rot)  DE(clash)    DE(int)     intcor
     15.43     -17.52       0.45        0.00     118.28       1.28       1.02       1.07       ----

> <Gold.Chemscore.Fitness>
15.4279

> <Gold.Chemscore.DG>
-17.5204

> <Gold.Chemscore.ZeroCoef>
-5.4800

> <Gold.Chemscore.Hbond>
0.4458

> <Gold.Chemscore.Metal>
0.0000

> <Gold.Chemscore.Lipo>
118.2820

> <Gold.Chemscore.Internal_Hbond>
0.0000

> <Gold.Chemscore.DEClash>
1.0200

> <Gold.Chemscore.DEInternal>
1.0725

> <Gold.Chemscore.Rot>
1.2842

> <Gold.Chemscore.Internal.Correction>
   9.000000E+99

> <Gold.Chemscore.Hbonds>
donor molecule, donor type, donor heavy atom, donor atom, acceptor molecule, acceptor atom, score
      P1  H  8011  8017       L1    14  0.38

> <Gold.Chemscore.Hbond.Weighted>
-1.4890

> <Gold.Chemscore.Metal.Weighted>
-0.0000

> <Gold.Chemscore.Lipo.Weighted>
-13.8390

> <Gold.Chemscore.Internal_Hbond.Weighted>
0.0000

> <Gold.Chemscore.DEClash.Weighted>
1.0200

> <Gold.Chemscore.DEInternal.Weighted>
1.0725

> <Gold.Chemscore.Rot.Weighted>
3.2875

> <Gold.Chemscore.Internal.Correction.Weighted>
   9.000000E+99

> <Gold.Protein.RotatedTorsions>
[ 6907 6896 6895 6894 ] final  -26.40 input  -60.11 | X-H torsion
[ 7974 7965 7964 7962 ] final   12.80 input  175.53 | X-H torsion
[ 8008 7997 7996 7995 ] final  -83.27 input   59.86 | X-H torsion
[ 10167 10162 10161 10158 ] final  -39.26 input  -65.29 | X-H torsion
[ 10718 10713 10712 10709 ] final  112.52 input   66.30 | X-H torsion
[ 10763 10752 10751 10750 ] final  166.65 input  -60.55 | X-H torsion
[ 11005 11000 10999 10996 ] final  -91.39 input  -57.11 | X-H torsion

> <Gold.Protein.ActiveResidues>
 VAL166  LYS551  ARG553  GLY616  TRP617  ASP618  TYR619  PRO620  LYS621  CYS622 
 ASP623  PHE694  ASN695  SER759  ASP760  ASP761  ALA762  ILE779  LEU786  VAL792 
 PHE793  MET794  SER795  GLU796  ALA797  LYS798  CYS799  TRP800  GLU811  SER814 

> <Gold.Protein.RotatedAtoms>
  151.1615  135.0276  159.8712 H   0  0  0  0  0  0  0  0  0  0  0  0  # atno 6907 bound_to 6896
  152.5451  134.1273  159.8434 H   0  0  0  0  0  0  0  0  0  0  0  0  # atno 6908 bound_to 6896
  151.1369  133.4952  159.2630 H   0  0  0  0  0  0  0  0  0  0  0  0  # atno 6909 bound_to 6896
  146.2343  139.9284  142.8500 H   0  0  0  0  0  0  0  0  0  0  0  0  # atno 7974 bound_to 7965
  154.6173  140.0621  156.9571 H   0  0  0  0  0  0  0  0  0  0  0  0  # atno 8008 bound_to 7997
  155.1874  140.3304  155.4346 H   0  0  0  0  0  0  0  0  0  0  0  0  # atno 8009 bound_to 7997
  156.2412  140.1887  156.6966 H   0  0  0  0  0  0  0  0  0  0  0  0  # atno 8010 bound_to 7997
  140.7069  143.3225  151.2757 H   0  0  0  0  0  0  0  0  0  0  0  0  # atno 10167 bound_to 10162
  157.6388  131.0969  150.6907 H   0  0  0  0  0  0  0  0  0  0  0  0  # atno 10718 bound_to 10713
  154.3421  135.2754  155.2417 H   0  0  0  0  0  0  0  0  0  0  0  0  # atno 10763 bound_to 10752
  154.4683  135.5889  153.6307 H   0  0  0  0  0  0  0  0  0  0  0  0  # atno 10764 bound_to 10752
  152.9856  135.6082  154.3623 H   0  0  0  0  0  0  0  0  0  0  0  0  # atno 10765 bound_to 10752
  141.1545  133.7753  156.9873 H   0  0  0  0  0  0  0  0  0  0  0  0  # atno 11005 bound_to 11000
  145.2068  140.9878  143.4123 LP  0  0  0  0  0  0  0  0  0  0  0  0  # atno 17320 bound_to 7965
  144.9725  139.3865  143.6302 LP  0  0  0  0  0  0  0  0  0  0  0  0  # atno 17321 bound_to 7965
  139.6684  144.0064  152.2737 LP  0  0  0  0  0  0  0  0  0  0  0  0  # atno 17342 bound_to 10162
  139.9654  144.6529  150.8039 LP  0  0  0  0  0  0  0  0  0  0  0  0  # atno 17343 bound_to 10162
  156.7234  130.4687  149.5517 LP  0  0  0  0  0  0  0  0  0  0  0  0  # atno 17370 bound_to 10713
  156.1650  130.6399  151.0766 LP  0  0  0  0  0  0  0  0  0  0  0  0  # atno 17371 bound_to 10713
  140.1026  134.9526  157.1946 LP  0  0  0  0  0  0  0  0  0  0  0  0  # atno 17394 bound_to 11000
  140.3298  134.2822  155.7230 LP  0  0  0  0  0  0  0  0  0  0  0  0  # atno 17395 bound_to 11000

$$$$
