#       Name:                AV-unprocessed.smi:1047
#       Creating user name   scv26
#       Creation time:       Fri Mar 27 03:05:19 2020


#       File generated by GOLD software.
#

@<TRIPOS>MOLECULE
AV-unprocessed.smi:1047
    62    64     1
SMALL
NO_CHARGES


@<TRIPOS>ATOM
      1 ****        -4.1517   5.7833   0.0039 C.3            1 S1                 0.0000
      2 ****        -3.7868   4.3686   0.4764 C.3            1 S1                 0.0000
      3 ****        -4.0762   3.3314  -0.5458 N.4            1 S1                 1.0000
      4 ****        -5.5252   3.0761  -0.7363 C.3            1 S1                 0.0000
      5 ****        -5.7444   2.0117  -1.8228 C.3            1 S1                 0.0000
      6 ****        -5.0480   0.8233  -1.4700 O.3            1 S1                 0.0000
      7 ****        -3.6417   1.0217  -1.3838 C.3            1 S1                 0.0000
      8 ****        -3.0054  -0.3486  -1.0956 C.3            1 S1                 0.0000
      9 ****        -1.5354  -0.3219  -1.2448 N.4            1 S1                 1.0000
     10 ****        -0.8874  -1.6241  -0.9880 C.3            1 S1                 0.0000
     11 ****         0.6398  -1.5474  -1.1629 C.3            1 S1                 0.0000
     12 ****         1.1423  -2.8673  -1.1244 O.3            1 S1                 0.0000
     13 ****         1.3267  -0.6951  -0.0748 C.3            1 S1                 0.0000
     14 ****         2.7923  -0.6755  -0.1989 N.pl3          1 S1                 0.0000
     15 ****         3.5894   0.1098  -0.9744 C.2            1 S1                 0.0000
     16 ****         4.8809  -0.2439  -0.7282 N.pl3          1 S1                 1.0000
     17 ****         4.9113  -1.2697   0.2187 C.ar           1 S1                 0.0000
     18 ****         5.9809  -1.9527   0.7853 C.ar           1 S1                 0.0000
     19 ****         5.6763  -2.9587   1.7298 C.ar           1 S1                 0.0000
     20 ****         6.8222  -3.7251   2.3685 C.3            1 S1                 0.0000
     21 ****         4.3318  -3.2516   2.0760 C.ar           1 S1                 0.0000
     22 ****         4.0152  -4.3382   3.0896 C.3            1 S1                 0.0000
     23 ****         3.2581  -2.5448   1.4889 C.ar           1 S1                 0.0000
     24 ****         3.5751  -1.5540   0.5619 C.ar           1 S1                 0.0000
     25 ****        -3.3579   2.0611  -0.2773 C.3            1 S1                 0.0000
     26 ****        -3.8390   6.5245   0.7398 H              1 S1                 0.0000
     27 ****        -5.2258   5.9043  -0.1355 H              1 S1                 0.0000
     28 ****        -3.6583   6.0262  -0.9378 H              1 S1                 0.0000
     29 ****        -2.7195   4.3573   0.7016 H              1 S1                 0.0000
     30 ****        -4.3020   4.1311   1.4084 H              1 S1                 0.0000
     31 ****        -5.9667   2.7436   0.2046 H              1 S1                 0.0000
     32 ****        -6.0405   3.9916  -1.0252 H              1 S1                 0.0000
     33 ****        -6.8064   1.7839  -1.9163 H              1 S1                 0.0000
     34 ****        -5.4091   2.3715  -2.7970 H              1 S1                 0.0000
     35 ****        -3.2787   1.3881  -2.3462 H              1 S1                 0.0000
     36 ****        -3.2711  -0.6878  -0.0934 H              1 S1                 0.0000
     37 ****        -3.4041  -1.0852  -1.7947 H              1 S1                 0.0000
     38 ****        -1.3105  -0.0354  -2.1870 H              1 S1                 0.0000
     39 ****        -1.1381  -1.9696   0.0162 H              1 S1                 0.0000
     40 ****        -1.3015  -2.3527  -1.6870 H              1 S1                 0.0000
     41 ****         0.8733  -1.1410  -2.1480 H              1 S1                 0.0000
     42 ****         2.0732  -2.8416  -1.2875 H              1 S1                 0.0000
     43 ****         0.9893   0.3398  -0.1426 H              1 S1                 0.0000
     44 ****         1.0553  -1.0357   0.9246 H              1 S1                 0.0000
     45 ****         3.2600   0.8775  -1.6599 H              1 S1                 0.0000
     46 ****         7.0022  -1.7252   0.5158 H              1 S1                 0.0000
     47 ****         6.8201  -3.5865   3.4499 H              1 S1                 0.0000
     48 ****         7.7880  -3.3870   1.9916 H              1 S1                 0.0000
     49 ****         6.7367  -4.7908   2.1549 H              1 S1                 0.0000
     50 ****         2.9414  -4.4283   3.2564 H              1 S1                 0.0000
     51 ****         4.4828  -4.1161   4.0491 H              1 S1                 0.0000
     52 ****         4.3802  -5.3048   2.7413 H              1 S1                 0.0000
     53 ****         2.2362  -2.7744   1.7517 H              1 S1                 0.0000
     54 ****        -2.2862   2.2553  -0.2180 H              1 S1                 0.0000
     55 ****        -3.6664   1.6714   0.6943 H              1 S1                 0.0000
     56 ****        -1.1561   0.3549  -0.5983 H              1 S1                 0.0000
     57 ****        -3.7207   3.6841  -1.4232 H              1 S1                 0.0000
     58 ****         5.6818   0.1864  -1.1732 H              1 S1                 0.0000
     59 ****        -5.2318   0.1261  -2.1629 LP             1 S1                 0.0000
     60 ****        -5.3824   0.5071  -0.5822 LP             1 S1                 0.0000
     61 ****         0.6926  -3.4193  -1.8266 LP             1 S1                 0.0000
     62 ****         0.9691  -3.2673  -0.2244 LP             1 S1                 0.0000
@<TRIPOS>BOND
    1    1    2 1     
    2    1   26 1     
    3    1   27 1     
    4    1   28 1     
    5    2    3 1     
    6    2   29 1     
    7    2   30 1     
    8    3   25 1     
    9    3    4 1     
   10    3   57 1     
   11    4    5 1     
   12    4   31 1     
   13    4   32 1     
   14    5    6 1     
   15    5   33 1     
   16    5   34 1     
   17    6    7 1     
   18    7    8 1     
   19    7   25 1     
   20    7   35 1     
   21    8    9 1     
   22    8   36 1     
   23    8   37 1     
   24    9   10 1     
   25    9   38 1     
   26    9   56 1     
   27   10   11 1     
   28   10   39 1     
   29   10   40 1     
   30   11   12 1     
   31   11   13 1     
   32   11   41 1     
   33   12   42 1     
   34   13   14 1     
   35   13   43 1     
   36   13   44 1     
   37   14   24 1     
   38   14   15 1     
   39   15   16 2     
   40   15   45 1     
   41   16   17 1     
   42   16   58 1     
   43   17   24 ar    
   44   17   18 ar    
   45   18   19 ar    
   46   18   46 1     
   47   19   20 1     
   48   19   21 ar    
   49   20   47 1     
   50   20   48 1     
   51   20   49 1     
   52   21   22 1     
   53   21   23 ar    
   54   22   50 1     
   55   22   51 1     
   56   22   52 1     
   57   23   24 ar    
   58   23   53 1     
   59   25   54 1     
   60   25   55 1     
   61    6   59 1     
   62    6   60 1     
   63   12   61 1     
   64   12   62 1     
@<TRIPOS>SUBSTRUCTURE
      1 S1             1
@<TRIPOS>SET
LONE_PAIRS      STATIC     ATOMS    <user>   **** ""
4 59 60 61 62
DONOR_HYDROGENS      STATIC     ATOMS    <user>   **** ""
5 57 38 56 42 58
ATOM$BLUE        STATIC     ATOMS    COLORGROUP SYSTEM
4 59 60 61 62
ATOM$RED        STATIC     ATOMS    COLORGROUP SYSTEM
5 57 38 56 42 58
