AV-unprocessed.smi:2131|AV-procd|sdf|8687|dock9
  -GOLD-   2272011443D 1   1.00000     0.00000
 Structure written by MMmdl.
 40 42  0  0  0  0  0  0  0  0  1 V2000
  144.5645  146.0086  152.2621 N   0  0  0  0  0  0  0  0  0  0  0  0
  144.6684  145.5386  153.3143 C   0  0  0  0  0  0  0  0  0  0  0  0
  144.8007  144.9416  154.6521 C   0  0  0  0  0  0  0  0  0  0  0  0
  145.8773  143.8773  154.6966 C   0  0  0  0  0  0  0  0  0  0  0  0
  146.1492  143.1924  155.8968 C   0  0  0  0  0  0  0  0  0  0  0  0
  147.1494  142.2018  155.9333 C   0  0  0  0  0  0  0  0  0  0  0  0
  147.8918  141.8807  154.7781 C   0  0  0  0  0  0  0  0  0  0  0  0
  148.8490  140.8962  154.9023 O   0  0  0  0  0  0  0  0  0  0  0  0
  149.4744  140.7221  156.1674 C   0  0  0  0  0  0  0  0  0  0  0  0
  150.9842  140.9629  156.0221 C   0  0  2  0  0  0  0  0  0  0  0  0
  151.4976  140.0266  155.0948 O   0  0  0  0  0  0  0  0  0  0  0  0
  151.7343  140.8341  157.3624 C   0  0  0  0  0  0  0  0  0  0  0  0
  151.5789  142.0097  158.2012 N   0  0  0  0  0  0  0  0  0  0  0  0
  151.0577  143.1976  157.8395 C   0  0  0  0  0  0  0  0  0  0  0  0
  151.0060  144.1489  158.7673 N   0  0  0  0  0  0  0  0  0  0  0  0
  151.5572  143.5030  159.8607 C   0  0  0  0  0  0  0  0  0  0  0  0
  151.7918  143.9639  161.1761 C   0  0  0  0  0  0  0  0  0  0  0  0
  152.3765  143.1134  162.1374 C   0  0  0  0  0  0  0  0  0  0  0  0
  152.7361  141.7925  161.7994 C   0  0  0  0  0  0  0  0  0  0  0  0
  152.5123  141.3107  160.4952 C   0  0  0  0  0  0  0  0  0  0  0  0
  151.9270  142.1619  159.5394 C   0  0  0  0  0  0  0  0  0  0  0  0
  147.6158  142.5781  153.5747 C   0  0  0  0  0  0  0  0  0  0  0  0
  146.6145  143.5680  153.5368 C   0  0  0  0  0  0  0  0  0  0  0  0
  145.0267  145.7357  155.3642 H   0  0  0  0  0  0  0  0  0  0  0  0
  143.8393  144.5119  154.9348 H   0  0  0  0  0  0  0  0  0  0  0  0
  145.5916  143.4243  156.7923 H   0  0  0  0  0  0  0  0  0  0  0  0
  147.3485  141.6814  156.8586 H   0  0  0  0  0  0  0  0  0  0  0  0
  149.0562  141.4103  156.9040 H   0  0  0  0  0  0  0  0  0  0  0  0
  149.2992  139.7030  156.5174 H   0  0  0  0  0  0  0  0  0  0  0  0
  151.1465  141.9583  155.6065 H   0  0  0  0  0  0  0  0  0  0  0  0
  151.1049  139.1851  155.2706 H   0  0  0  0  0  0  0  0  0  0  0  0
  151.3674  139.9706  157.9188 H   0  0  0  0  0  0  0  0  0  0  0  0
  152.7979  140.6629  157.1923 H   0  0  0  0  0  0  0  0  0  0  0  0
  150.6970  143.3737  156.8364 H   0  0  0  0  0  0  0  0  0  0  0  0
  151.5215  144.9739  161.4465 H   0  0  0  0  0  0  0  0  0  0  0  0
  152.5509  143.4766  163.1397 H   0  0  0  0  0  0  0  0  0  0  0  0
  153.1846  141.1491  162.5422 H   0  0  0  0  0  0  0  0  0  0  0  0
  152.7889  140.3004  160.2325 H   0  0  0  0  0  0  0  0  0  0  0  0
  148.1588  142.3726  152.6648 H   0  0  0  0  0  0  0  0  0  0  0  0
  146.4136  144.0909  152.6132 H   0  0  0  0  0  0  0  0  0  0  0  0
  1  2  3  0  0  0  0
  2  3  1  0  0  0  0
  3  4  1  0  0  0  0
  3 24  1  0  0  0  0
  3 25  1  0  0  0  0
  4 23  1  0  0  0  0
  4  5  2  0  0  0  0
  5  6  1  0  0  0  0
  5 26  1  0  0  0  0
  6  7  2  0  0  0  0
  6 27  1  0  0  0  0
  7  8  1  0  0  0  0
  7 22  1  0  0  0  0
  8  9  1  0  0  0  0
  9 10  1  0  0  0  0
  9 28  1  0  0  0  0
  9 29  1  0  0  0  0
 10 11  1  0  0  0  0
 10 12  1  0  0  0  0
 10 30  1  0  0  0  0
 11 31  1  0  0  0  0
 12 13  1  0  0  0  0
 12 32  1  0  0  0  0
 12 33  1  0  0  0  0
 13 21  1  0  0  0  0
 13 14  1  0  0  0  0
 14 15  2  0  0  0  0
 14 34  1  0  0  0  0
 15 16  1  0  0  0  0
 16 21  2  0  0  0  0
 16 17  1  0  0  0  0
 17 18  2  0  0  0  0
 17 35  1  0  0  0  0
 18 19  1  0  0  0  0
 18 36  1  0  0  0  0
 19 20  2  0  0  0  0
 19 37  1  0  0  0  0
 20 21  1  0  0  0  0
 20 38  1  0  0  0  0
 22 23  2  0  0  0  0
 22 39  1  0  0  0  0
 23 40  1  0  0  0  0
M  END
> <s_m_source_file>
AV-unprocessed.smi

> <i_m_source_file_index>
2131

> <i_lp_mmshare_version>
43012

> <i_f3d_flags>
0

> <s_epik_input>
TiNDW0NIMl1jMVtjSF1bY0hdYyhbY0hdW2NIXTEpT1tDSDJdW0NASF0oW09IXSlbQ0gyXW4oW2NIXW4yKWMoYzIzKVtjSF1bY0hdW2NIXVtjSF0z

> <s_epik_cmdline>
J2VwaWtfcHl0aG9uJywgJy1waCcsICc3LjAnLCAnLXRuJywgJzgnLCAnLW1hJywgJzIwMCcsICctbWV0YWxfYmluZGluZycsICctaW1hZScsICc8aW5maWxlLm1hZT4nLCAnLW9tYWUnLCAnPG91dGZpbGUubWFlPic=

> <r_lp_tautomer_probability>
1

> <r_epik_Ionization_Penalty>
0.0609831

> <r_epik_Ionization_Penalty_Charging>
0

> <r_epik_Ionization_Penalty_Neutral>
0.0609831

> <r_epik_State_Penalty>
0.0529032

> <r_epik_Charging_Adjusted_Penalty>
0.0529032

> <i_epik_Tot_Q>
0

> <i_epik_Tot_abs_Q>
0

> <r_epik_Metal_State_Penalty>
5.53344e-05

> <b_epik_Metal_Only>
0

> <s_lp_Force_Field>
OPLS_2005

> <r_lp_Energy>
15.4123

> <b_lp_Chiralities_Consistent>
1

> <s_lp_Variant>
AV-unprocessed.smi:2131-1

> <Gold.Version>
5.8.1

> <Gold.Id.Protein>
6NUR|6NUR_protein|mol2

> <Gold.PLP.Fitness>
56.5320

> <Gold.PLP.PLP>
-52.4998

> <Gold.PLP.part.hbond>
-1.9717

> <Gold.PLP.part.metal>
0.0000

> <Gold.PLP.part.buried>
-10.2049

> <Gold.PLP.part.nonpolar>
-40.7058

> <Gold.PLP.part.repulsive>
0.3565

> <Gold.PLP.ligand.clash>
0.0000

> <Gold.PLP.ligand.torsion>
1.0237

> <Gold.PLP.Chemscore.Hbond>
1.0000

> <Gold.PLP.Chemscore.CHOScore>
1.0000

> <Gold.PLP.Chemscore.Metal>
0.0000

> <Gold.Chemscore.Hbonds>
donor molecule, donor type, donor heavy atom, donor atom, acceptor molecule, acceptor atom, score
      P1  H  7989  7998       L1    11  1.00
      L1  C    14    34       P1  8028  0.99

> <Gold.PLP.Chemscore.Internal.Correction>
0.0796

> <Gold.Rescore>
     Score         DG    S(hbond)    S(metal)    S(lipo)     H(rot)  DE(clash)    DE(int)     intcor
     13.65     -14.71       0.96        0.00     111.04       2.72       0.05       1.01       ----

> <Gold.Chemscore.Fitness>
13.6487

> <Gold.Chemscore.DG>
-14.7148

> <Gold.Chemscore.ZeroCoef>
-5.4800

> <Gold.Chemscore.Hbond>
0.9586

> <Gold.Chemscore.Metal>
0.0000

> <Gold.Chemscore.Lipo>
111.0434

> <Gold.Chemscore.Internal_Hbond>
0.0000

> <Gold.Chemscore.DEClash>
0.0524

> <Gold.Chemscore.DEInternal>
1.0137

> <Gold.Chemscore.Rot>
2.7183

> <Gold.Chemscore.Internal.Correction>
   9.000000E+99

> <Gold.Chemscore.Hbonds>
donor molecule, donor type, donor heavy atom, donor atom, acceptor molecule, acceptor atom, score
      P1  H  7989  7998       L1    11  0.59

> <Gold.Chemscore.Hbond.Weighted>
-3.2016

> <Gold.Chemscore.Metal.Weighted>
-0.0000

> <Gold.Chemscore.Lipo.Weighted>
-12.9921

> <Gold.Chemscore.Internal_Hbond.Weighted>
0.0000

> <Gold.Chemscore.DEClash.Weighted>
0.0524

> <Gold.Chemscore.DEInternal.Weighted>
1.0137

> <Gold.Chemscore.Rot.Weighted>
6.9588

> <Gold.Chemscore.Internal.Correction.Weighted>
   9.000000E+99

> <Gold.Protein.RotatedTorsions>
[ 6907 6896 6895 6894 ] final  -24.79 input  -60.11 | X-H torsion
[ 7974 7965 7964 7962 ] final   54.09 input  175.53 | X-H torsion
[ 8008 7997 7996 7995 ] final   60.14 input   59.86 | X-H torsion
[ 10167 10162 10161 10158 ] final -102.06 input  -65.29 | X-H torsion
[ 10718 10713 10712 10709 ] final    0.74 input   66.30 | X-H torsion
[ 10763 10752 10751 10750 ] final -127.11 input  -60.55 | X-H torsion
[ 11005 11000 10999 10996 ] final  125.94 input  -57.11 | X-H torsion

> <Gold.Protein.ActiveResidues>
 VAL166  LYS551  ARG553  GLY616  TRP617  ASP618  TYR619  PRO620  LYS621  CYS622 
 ASP623  PHE694  ASN695  SER759  ASP760  ASP761  ALA762  ILE779  LEU786  VAL792 
 PHE793  MET794  SER795  GLU796  ALA797  LYS798  CYS799  TRP800  GLU811  SER814 

> <Gold.Protein.RotatedAtoms>
  151.1844  135.0375  159.8805 H   0  0  0  0  0  0  0  0  0  0  0  0  # atno 6907 bound_to 6896
  152.5443  134.1027  159.8334 H   0  0  0  0  0  0  0  0  0  0  0  0  # atno 6908 bound_to 6896
  151.1147  133.5100  159.2636 H   0  0  0  0  0  0  0  0  0  0  0  0  # atno 6909 bound_to 6896
  145.9645  139.4090  143.0228 H   0  0  0  0  0  0  0  0  0  0  0  0  # atno 7974 bound_to 7965
  155.5776  140.3491  155.4531 H   0  0  0  0  0  0  0  0  0  0  0  0  # atno 8008 bound_to 7997
  156.0398  140.1293  157.0194 H   0  0  0  0  0  0  0  0  0  0  0  0  # atno 8009 bound_to 7997
  154.4387  140.1026  156.6205 H   0  0  0  0  0  0  0  0  0  0  0  0  # atno 8010 bound_to 7997
  140.2347  143.3581  152.0855 H   0  0  0  0  0  0  0  0  0  0  0  0  # atno 10167 bound_to 10162
  156.8379  130.5511  149.5680 H   0  0  0  0  0  0  0  0  0  0  0  0  # atno 10718 bound_to 10713
  154.8750  135.3973  154.3541 H   0  0  0  0  0  0  0  0  0  0  0  0  # atno 10763 bound_to 10752
  153.4322  135.7025  153.6228 H   0  0  0  0  0  0  0  0  0  0  0  0  # atno 10764 bound_to 10752
  153.4845  135.3762  155.2429 H   0  0  0  0  0  0  0  0  0  0  0  0  # atno 10765 bound_to 10752
  139.9431  134.9633  156.8634 H   0  0  0  0  0  0  0  0  0  0  0  0  # atno 11005 bound_to 11000
  145.7993  140.9778  143.1007 LP  0  0  0  0  0  0  0  0  0  0  0  0  # atno 17320 bound_to 7965
  144.6822  139.9782  143.7483 LP  0  0  0  0  0  0  0  0  0  0  0  0  # atno 17321 bound_to 7965
  139.5098  144.6873  151.5854 LP  0  0  0  0  0  0  0  0  0  0  0  0  # atno 17342 bound_to 10162
  140.6159  143.9350  150.6488 LP  0  0  0  0  0  0  0  0  0  0  0  0  # atno 17343 bound_to 10162
  156.0897  130.5886  150.9711 LP  0  0  0  0  0  0  0  0  0  0  0  0  # atno 17370 bound_to 10713
  157.6371  131.0914  150.8326 LP  0  0  0  0  0  0  0  0  0  0  0  0  # atno 17371 bound_to 10713
  140.5901  134.0270  155.7496 LP  0  0  0  0  0  0  0  0  0  0  0  0  # atno 17394 bound_to 11000
  141.1073  133.9673  157.2974 LP  0  0  0  0  0  0  0  0  0  0  0  0  # atno 17395 bound_to 11000

$$$$
