AV-unprocessed.smi:2922|AV-procd|sdf|11201|dock1
  -GOLD-   2272016 93D 1   1.00000     0.00000
 Structure written by MMmdl.
 30 31  0  0  0  0  0  0  0  0  1 V2000
  148.6052  138.8936  153.2089 N   0  0  0  0  0  0  0  0  0  0  0  0
  147.7261  139.8677  152.9554 C   0  0  0  0  0  0  0  0  0  0  0  0
  146.8228  139.7278  152.1332 O   0  0  0  0  0  0  0  0  0  0  0  0
  147.8983  141.1964  153.7133 C   0  0  1  0  0  0  0  0  0  0  0  0
  147.2272  141.2172  155.1016 C   0  0  0  0  0  0  0  0  0  0  0  0
  148.3693  141.5099  156.0601 C   0  0  0  0  0  0  0  0  0  0  0  0
  149.5884  141.0099  155.2946 C   0  0  2  0  0  0  0  0  0  0  0  0
  150.9163  141.6154  155.7752 C   0  0  0  0  0  0  0  0  0  0  0  0
  150.7250  142.9081  156.4190 N   0  0  0  0  0  0  0  0  0  0  0  0
  151.1619  143.2212  157.6936 C   0  0  0  0  0  0  0  0  0  0  0  0
  152.0171  142.3872  158.2984 N   0  0  0  0  0  0  0  0  0  0  0  0
  152.4187  142.7144  159.5459 C   0  0  0  0  0  0  0  0  0  0  0  0
  151.9612  143.8846  160.1835 C   0  0  0  0  0  0  0  0  0  0  0  0
  152.4676  144.3074  161.7775 Cl  0  0  0  0  0  0  0  0  0  0  0  0
  151.0680  144.6911  159.4505 C   0  0  0  0  0  0  0  0  0  0  0  0
  150.6709  144.3542  158.2034 N   0  0  0  0  0  0  0  0  0  0  0  0
  149.2819  141.4331  153.9738 O   0  0  0  0  0  0  0  0  0  0  0  0
  148.5241  138.0058  152.7348 H   0  0  0  0  0  0  0  0  0  0  0  0
  149.3452  139.0509  153.8779 H   0  0  0  0  0  0  0  0  0  0  0  0
  147.5205  142.0048  153.0866 H   0  0  0  0  0  0  0  0  0  0  0  0
  146.4460  141.9751  155.1669 H   0  0  0  0  0  0  0  0  0  0  0  0
  146.7730  140.2582  155.3552 H   0  0  0  0  0  0  0  0  0  0  0  0
  148.4452  142.5856  156.2263 H   0  0  0  0  0  0  0  0  0  0  0  0
  148.2469  141.0246  157.0287 H   0  0  0  0  0  0  0  0  0  0  0  0
  149.6247  139.9193  155.3337 H   0  0  0  0  0  0  0  0  0  0  0  0
  151.4439  140.9263  156.4357 H   0  0  0  0  0  0  0  0  0  0  0  0
  151.5680  141.7784  154.9167 H   0  0  0  0  0  0  0  0  0  0  0  0
  150.0489  143.5353  156.0079 H   0  0  0  0  0  0  0  0  0  0  0  0
  153.1055  142.0395  160.0349 H   0  0  0  0  0  0  0  0  0  0  0  0
  150.6694  145.6057  159.8638 H   0  0  0  0  0  0  0  0  0  0  0  0
  1  2  1  0  0  0  0
  1 18  1  0  0  0  0
  1 19  1  0  0  0  0
  2  3  2  0  0  0  0
  2  4  1  0  0  0  0
  4 17  1  0  0  0  0
  4  5  1  0  0  0  0
  4 20  1  0  0  0  0
  5  6  1  0  0  0  0
  5 21  1  0  0  0  0
  5 22  1  0  0  0  0
  6  7  1  0  0  0  0
  6 23  1  0  0  0  0
  6 24  1  0  0  0  0
  7  8  1  0  0  0  0
  7 17  1  0  0  0  0
  7 25  1  0  0  0  0
  8  9  1  0  0  0  0
  8 26  1  0  0  0  0
  8 27  1  0  0  0  0
  9 10  1  0  0  0  0
  9 28  1  0  0  0  0
 10 16  1  0  0  0  0
 10 11  2  0  0  0  0
 11 12  1  0  0  0  0
 12 13  2  0  0  0  0
 12 29  1  0  0  0  0
 13 14  1  0  0  0  0
 13 15  1  0  0  0  0
 15 16  2  0  0  0  0
 15 30  1  0  0  0  0
M  END
> <s_m_source_file>
AV-unprocessed.smi

> <i_m_source_file_index>
2922

> <i_lp_mmshare_version>
43012

> <i_f3d_flags>
0

> <s_epik_input>
W05IMl1DKD1PKVtDQEBIXTFbQ0gyXVtDSDJdW0NASF0oTzEpW0NIMl1bTkhdYzJuW2NIXWMoQ2wpW2NIXW4y

> <s_epik_cmdline>
J2VwaWtfcHl0aG9uJywgJy1waCcsICc3LjAnLCAnLXRuJywgJzgnLCAnLW1hJywgJzIwMCcsICctbWV0YWxfYmluZGluZycsICctaW1hZScsICc8aW5maWxlLm1hZT4nLCAnLW9tYWUnLCAnPG91dGZpbGUubWFlPic=

> <r_lp_tautomer_probability>
1

> <r_epik_Ionization_Penalty>
6.13883e-06

> <r_epik_Ionization_Penalty_Charging>
0

> <r_epik_Ionization_Penalty_Neutral>
6.13883e-06

> <r_epik_State_Penalty>
-0

> <r_epik_Charging_Adjusted_Penalty>
0

> <i_epik_Tot_Q>
0

> <i_epik_Tot_abs_Q>
0

> <r_epik_Metal_State_Penalty>
-0

> <b_epik_Metal_Only>
0

> <s_lp_Force_Field>
OPLS_2005

> <r_lp_Energy>
9.79995

> <b_lp_Chiralities_Consistent>
1

> <s_lp_Variant>
AV-unprocessed.smi:2922-4

> <Gold.Version>
5.8.1

> <Gold.Id.Protein>
6NUR|6NUR_protein|mol2

> <Gold.PLP.Fitness>
38.9178

> <Gold.PLP.PLP>
-33.1113

> <Gold.PLP.part.hbond>
-5.0000

> <Gold.PLP.part.metal>
0.0000

> <Gold.PLP.part.buried>
-3.4931

> <Gold.PLP.part.nonpolar>
-25.5044

> <Gold.PLP.part.repulsive>
1.8656

> <Gold.PLP.ligand.clash>
0.0000

> <Gold.PLP.ligand.torsion>
1.1778

> <Gold.PLP.Chemscore.Hbond>
2.7020

> <Gold.PLP.Chemscore.CHOScore>
0.0000

> <Gold.PLP.Chemscore.Metal>
0.0000

> <Gold.Chemscore.Hbonds>
donor molecule, donor type, donor heavy atom, donor atom, acceptor molecule, acceptor atom, score
      L1  H     1    18       P1  7948  1.00
      L1  H     9    28       P1  8028  1.00
      P1  H  8011  8017       L1    17  0.72

> <Gold.PLP.Chemscore.Internal.Correction>
0.0560

> <Gold.Rescore>
     Score         DG    S(hbond)    S(metal)    S(lipo)     H(rot)  DE(clash)    DE(int)     intcor
     14.14     -17.35       2.36        0.00      76.09       1.91       2.15       1.07       ----

> <Gold.Chemscore.Fitness>
14.1398

> <Gold.Chemscore.DG>
-17.3524

> <Gold.Chemscore.ZeroCoef>
-5.4800

> <Gold.Chemscore.Hbond>
2.3562

> <Gold.Chemscore.Metal>
0.0000

> <Gold.Chemscore.Lipo>
76.0936

> <Gold.Chemscore.Internal_Hbond>
0.0000

> <Gold.Chemscore.DEClash>
2.1465

> <Gold.Chemscore.DEInternal>
1.0661

> <Gold.Chemscore.Rot>
1.9142

> <Gold.Chemscore.Internal.Correction>
   9.000000E+99

> <Gold.Chemscore.Hbonds>
donor molecule, donor type, donor heavy atom, donor atom, acceptor molecule, acceptor atom, score
      L1  H     1    18       P1  7948  0.96
      L1  H     9    28       P1  8028  1.00
      P1  H  8011  8017       L1    17  0.21

> <Gold.Chemscore.Hbond.Weighted>
-7.8697

> <Gold.Chemscore.Metal.Weighted>
-0.0000

> <Gold.Chemscore.Lipo.Weighted>
-8.9030

> <Gold.Chemscore.Internal_Hbond.Weighted>
0.0000

> <Gold.Chemscore.DEClash.Weighted>
2.1465

> <Gold.Chemscore.DEInternal.Weighted>
1.0661

> <Gold.Chemscore.Rot.Weighted>
4.9002

> <Gold.Chemscore.Internal.Correction.Weighted>
   9.000000E+99

> <Gold.Protein.RotatedTorsions>
[ 6907 6896 6895 6894 ] final   53.07 input  -60.11 | X-H torsion
[ 7974 7965 7964 7962 ] final -179.23 input  175.53 | X-H torsion
[ 8008 7997 7996 7995 ] final -142.98 input   59.86 | X-H torsion
[ 10167 10162 10161 10158 ] final  160.96 input  -65.29 | X-H torsion
[ 10718 10713 10712 10709 ] final -121.62 input   66.30 | X-H torsion
[ 10763 10752 10751 10750 ] final -179.73 input  -60.55 | X-H torsion
[ 11005 11000 10999 10996 ] final -161.81 input  -57.11 | X-H torsion

> <Gold.Protein.ActiveResidues>
 VAL166  LYS551  ARG553  GLY616  TRP617  ASP618  TYR619  PRO620  LYS621  CYS622 
 ASP623  PHE694  ASN695  SER759  ASP760  ASP761  ALA762  ILE779  LEU786  VAL792 
 PHE793  MET794  SER795  GLU796  ALA797  LYS798  CYS799  TRP800  GLU811  SER814 

> <Gold.Protein.RotatedAtoms>
  152.3299  134.7272  160.0291 H   0  0  0  0  0  0  0  0  0  0  0  0  # atno 6907 bound_to 6896
  151.7692  133.3334  159.3448 H   0  0  0  0  0  0  0  0  0  0  0  0  # atno 6908 bound_to 6896
  150.7417  134.5966  159.6059 H   0  0  0  0  0  0  0  0  0  0  0  0  # atno 6909 bound_to 6896
  144.7135  140.0750  143.6428 H   0  0  0  0  0  0  0  0  0  0  0  0  # atno 7974 bound_to 7965
  155.5031  140.0577  157.2936 H   0  0  0  0  0  0  0  0  0  0  0  0  # atno 8008 bound_to 7997
  154.4580  140.1982  156.0275 H   0  0  0  0  0  0  0  0  0  0  0  0  # atno 8009 bound_to 7997
  156.0835  140.3243  155.7728 H   0  0  0  0  0  0  0  0  0  0  0  0  # atno 8010 bound_to 7997
  139.4844  144.4583  151.8738 H   0  0  0  0  0  0  0  0  0  0  0  0  # atno 10167 bound_to 10162
  156.1352  130.6425  150.9684 H   0  0  0  0  0  0  0  0  0  0  0  0  # atno 10718 bound_to 10713
  154.5313  135.2800  155.1177 H   0  0  0  0  0  0  0  0  0  0  0  0  # atno 10763 bound_to 10752
  154.2696  135.6306  153.5309 H   0  0  0  0  0  0  0  0  0  0  0  0  # atno 10764 bound_to 10752
  152.9957  135.5625  154.5828 H   0  0  0  0  0  0  0  0  0  0  0  0  # atno 10765 bound_to 10752
  140.6162  134.4798  157.5220 H   0  0  0  0  0  0  0  0  0  0  0  0  # atno 11005 bound_to 11000
  145.9751  139.2899  143.1075 LP  0  0  0  0  0  0  0  0  0  0  0  0  # atno 17320 bound_to 7965
  145.9073  140.9203  143.0472 LP  0  0  0  0  0  0  0  0  0  0  0  0  # atno 17321 bound_to 7965
  140.4044  144.2451  150.5891 LP  0  0  0  0  0  0  0  0  0  0  0  0  # atno 17342 bound_to 10162
  140.5026  143.2313  151.8655 LP  0  0  0  0  0  0  0  0  0  0  0  0  # atno 17343 bound_to 10162
  157.6525  131.0894  150.8019 LP  0  0  0  0  0  0  0  0  0  0  0  0  # atno 17370 bound_to 10713
  156.8100  130.4949  149.5357 LP  0  0  0  0  0  0  0  0  0  0  0  0  # atno 17371 bound_to 10713
  139.9172  134.8222  156.1328 LP  0  0  0  0  0  0  0  0  0  0  0  0  # atno 17394 bound_to 11000
  141.0774  133.6769  156.2264 LP  0  0  0  0  0  0  0  0  0  0  0  0  # atno 17395 bound_to 11000

$$$$
