AV-unprocessed.smi:1504|AV-procd|sdf|6072|dock6
  -GOLD-   22720 6193D 1   1.00000     0.00000
 Structure written by MMmdl.
 39 40  0  0  0  0  0  0  0  0  1 V2000
  145.7930  138.3944  153.3975 O   0  0  0  0  0  0  0  0  0  0  0  0
  146.6956  138.6609  152.6038 C   0  0  0  0  0  0  0  0  0  0  0  0
  146.8260  138.0948  151.3962 N   0  0  0  0  0  0  0  0  0  0  0  0
  145.9259  137.0853  150.8464 C   0  0  0  0  0  0  0  0  0  0  0  0
  145.4027  136.1045  151.9142 C   0  0  0  0  0  0  0  0  0  0  0  0
  145.0799  134.7254  151.3649 C   0  0  0  0  0  0  0  0  0  0  0  0
  143.7467  134.2659  151.3032 C   0  0  0  0  0  0  0  0  0  0  0  0
  143.5033  132.9796  150.7841 C   0  0  0  0  0  0  0  0  0  0  0  0
  144.5965  132.2059  150.3486 C   0  0  0  0  0  0  0  0  0  0  0  0
  145.8897  132.7566  150.4508 C   0  0  0  0  0  0  0  0  0  0  0  0
  146.1338  133.9893  150.9455 N   0  0  0  0  0  0  0  0  0  0  0  0
  147.6641  139.5537  152.8431 N   0  0  0  0  0  0  0  0  0  0  0  0
  147.7876  140.3242  154.0739 C   0  0  0  0  0  0  0  0  0  0  0  0
  149.2600  140.4577  154.4970 C   0  0  1  0  0  0  0  0  0  0  0  0
  149.4439  141.4091  155.6954 C   0  0  0  0  0  0  0  0  0  0  0  0
  150.8769  141.2657  156.2173 C   0  0  0  0  0  0  0  0  0  0  0  0
  151.3117  139.5031  155.9794 S   0  0  0  0  0  0  0  0  0  0  0  0
  152.5784  139.4172  155.2370 O   0  0  0  0  0  0  0  0  0  0  0  0
  151.1245  138.7772  157.2447 O   0  0  0  0  0  0  0  0  0  0  0  0
  149.9146  139.1120  154.8583 C   0  0  0  0  0  0  0  0  0  0  0  0
  147.5985  138.3826  150.8136 H   0  0  0  0  0  0  0  0  0  0  0  0
  145.0859  137.6068  150.3870 H   0  0  0  0  0  0  0  0  0  0  0  0
  146.4239  136.5388  150.0442 H   0  0  0  0  0  0  0  0  0  0  0  0
  146.1431  136.0030  152.7086 H   0  0  0  0  0  0  0  0  0  0  0  0
  144.5114  136.5153  152.3903 H   0  0  0  0  0  0  0  0  0  0  0  0
  142.9291  134.8843  151.6440 H   0  0  0  0  0  0  0  0  0  0  0  0
  142.4967  132.5938  150.7212 H   0  0  0  0  0  0  0  0  0  0  0  0
  144.4484  131.2148  149.9464 H   0  0  0  0  0  0  0  0  0  0  0  0
  146.7513  132.1918  150.1268 H   0  0  0  0  0  0  0  0  0  0  0  0
  148.3626  139.7094  152.1311 H   0  0  0  0  0  0  0  0  0  0  0  0
  147.3515  141.3114  153.9158 H   0  0  0  0  0  0  0  0  0  0  0  0
  147.2135  139.8455  154.8694 H   0  0  0  0  0  0  0  0  0  0  0  0
  149.8220  140.8821  153.6636 H   0  0  0  0  0  0  0  0  0  0  0  0
  149.2194  142.4424  155.4295 H   0  0  0  0  0  0  0  0  0  0  0  0
  148.7504  141.1268  156.4890 H   0  0  0  0  0  0  0  0  0  0  0  0
  151.5659  141.8665  155.6233 H   0  0  0  0  0  0  0  0  0  0  0  0
  150.9824  141.5445  157.2659 H   0  0  0  0  0  0  0  0  0  0  0  0
  149.2211  138.4711  155.4036 H   0  0  0  0  0  0  0  0  0  0  0  0
  150.2763  138.5665  153.9866 H   0  0  0  0  0  0  0  0  0  0  0  0
  1  2  2  0  0  0  0
  2  3  1  0  0  0  0
  2 12  1  0  0  0  0
  3  4  1  0  0  0  0
  3 21  1  0  0  0  0
  4  5  1  0  0  0  0
  4 22  1  0  0  0  0
  4 23  1  0  0  0  0
  5  6  1  0  0  0  0
  5 24  1  0  0  0  0
  5 25  1  0  0  0  0
  6 11  1  0  0  0  0
  6  7  2  0  0  0  0
  7  8  1  0  0  0  0
  7 26  1  0  0  0  0
  8  9  2  0  0  0  0
  8 27  1  0  0  0  0
  9 10  1  0  0  0  0
  9 28  1  0  0  0  0
 10 11  2  0  0  0  0
 10 29  1  0  0  0  0
 12 13  1  0  0  0  0
 12 30  1  0  0  0  0
 13 14  1  0  0  0  0
 13 31  1  0  0  0  0
 13 32  1  0  0  0  0
 14 20  1  0  0  0  0
 14 15  1  0  0  0  0
 14 33  1  0  0  0  0
 15 16  1  0  0  0  0
 15 34  1  0  0  0  0
 15 35  1  0  0  0  0
 16 17  1  0  0  0  0
 16 36  1  0  0  0  0
 16 37  1  0  0  0  0
 17 18  2  0  0  0  0
 17 19  2  0  0  0  0
 17 20  1  0  0  0  0
 20 38  1  0  0  0  0
 20 39  1  0  0  0  0
M  END
> <s_m_source_file>
AV-unprocessed.smi

> <i_m_source_file_index>
1504

> <i_lp_mmshare_version>
43012

> <i_f3d_flags>
0

> <s_epik_input>
Tz1TMSg9TylbQ0gyXVtDSDJdW0NASF0oW0NIMl0xKVtDSDJdW05IXUMoPU8pW05IXVtDSDJdW0NIMl1jMltjSF1bY0hdW2NIXVtjSF1uMg==

> <s_epik_cmdline>
J2VwaWtfcHl0aG9uJywgJy1waCcsICc3LjAnLCAnLXRuJywgJzgnLCAnLW1hJywgJzIwMCcsICctbWV0YWxfYmluZGluZycsICctaW1hZScsICc8aW5maWxlLm1hZT4nLCAnLW9tYWUnLCAnPG91dGZpbGUubWFlPic=

> <r_epik_Ionization_Penalty>
0.0431785

> <r_epik_Ionization_Penalty_Charging>
0

> <r_epik_Ionization_Penalty_Neutral>
0.0431785

> <r_epik_State_Penalty>
0.0364691

> <r_epik_Charging_Adjusted_Penalty>
0.0364691

> <i_epik_Tot_Q>
0

> <i_epik_Tot_abs_Q>
0

> <r_epik_Metal_State_Penalty>
0.0339827

> <b_epik_Metal_Only>
0

> <s_lp_Force_Field>
OPLS_2005

> <r_lp_Energy>
0.935995

> <b_lp_Chiralities_Consistent>
1

> <s_lp_Variant>
AV-unprocessed.smi:1504-2

> <Gold.Version>
5.8.1

> <Gold.Id.Protein>
6NUR|6NUR_protein|mol2

> <Gold.PLP.Fitness>
49.0435

> <Gold.PLP.PLP>
-40.7889

> <Gold.PLP.part.hbond>
-3.9409

> <Gold.PLP.part.metal>
0.0000

> <Gold.PLP.part.buried>
-3.9849

> <Gold.PLP.part.nonpolar>
-34.9651

> <Gold.PLP.part.repulsive>
1.5672

> <Gold.PLP.ligand.clash>
0.0000

> <Gold.PLP.ligand.torsion>
0.5709

> <Gold.PLP.Chemscore.Hbond>
2.1294

> <Gold.PLP.Chemscore.CHOScore>
1.0000

> <Gold.PLP.Chemscore.Metal>
0.0000

> <Gold.Chemscore.Hbonds>
donor molecule, donor type, donor heavy atom, donor atom, acceptor molecule, acceptor atom, score
      L1  H    12    30       P1  7957  1.00
      P1  H  7997  8009       L1    18  0.75
      L1  C    10    29       P1 10747  0.85

> <Gold.PLP.Chemscore.Internal.Correction>
0.0082

> <Gold.Rescore>
     Score         DG    S(hbond)    S(metal)    S(lipo)     H(rot)  DE(clash)    DE(int)     intcor
     13.76     -16.47       1.97        0.00      79.65       1.91       0.62       2.10       ----

> <Gold.Chemscore.Fitness>
13.7567

> <Gold.Chemscore.DG>
-16.4748

> <Gold.Chemscore.ZeroCoef>
-5.4800

> <Gold.Chemscore.Hbond>
1.9660

> <Gold.Chemscore.Metal>
0.0000

> <Gold.Chemscore.Lipo>
79.6515

> <Gold.Chemscore.Internal_Hbond>
0.0000

> <Gold.Chemscore.DEClash>
0.6163

> <Gold.Chemscore.DEInternal>
2.1019

> <Gold.Chemscore.Rot>
1.9105

> <Gold.Chemscore.Internal.Correction>
   9.000000E+99

> <Gold.Chemscore.Hbonds>
donor molecule, donor type, donor heavy atom, donor atom, acceptor molecule, acceptor atom, score
      L1  H    12    30       P1  7957  0.98
      P1  H  7997  8009       L1    18  0.75

> <Gold.Chemscore.Hbond.Weighted>
-6.5664

> <Gold.Chemscore.Metal.Weighted>
-0.0000

> <Gold.Chemscore.Lipo.Weighted>
-9.3192

> <Gold.Chemscore.Internal_Hbond.Weighted>
0.0000

> <Gold.Chemscore.DEClash.Weighted>
0.6163

> <Gold.Chemscore.DEInternal.Weighted>
2.1019

> <Gold.Chemscore.Rot.Weighted>
4.8908

> <Gold.Chemscore.Internal.Correction.Weighted>
   9.000000E+99

> <Gold.Protein.RotatedTorsions>
[ 6907 6896 6895 6894 ] final  116.09 input  -60.11 | X-H torsion
[ 7974 7965 7964 7962 ] final  100.20 input  175.53 | X-H torsion
[ 8008 7997 7996 7995 ] final -135.43 input   59.86 | X-H torsion
[ 10167 10162 10161 10158 ] final   75.25 input  -65.29 | X-H torsion
[ 10718 10713 10712 10709 ] final -161.33 input   66.30 | X-H torsion
[ 10763 10752 10751 10750 ] final -177.89 input  -60.55 | X-H torsion
[ 11005 11000 10999 10996 ] final   93.70 input  -57.11 | X-H torsion

> <Gold.Protein.ActiveResidues>
 VAL166  LYS551  ARG553  GLY616  TRP617  ASP618  TYR619  PRO620  LYS621  CYS622 
 ASP623  PHE694  ASN695  SER759  ASP760  ASP761  ALA762  ILE779  LEU786  VAL792 
 PHE793  MET794  SER795  GLU796  ALA797  LYS798  CYS799  TRP800  GLU811  SER814 

> <Gold.Protein.RotatedAtoms>
  152.4700  133.8009  159.6952 H   0  0  0  0  0  0  0  0  0  0  0  0  # atno 6907 bound_to 6896
  150.8685  133.7530  159.2975 H   0  0  0  0  0  0  0  0  0  0  0  0  # atno 6908 bound_to 6896
  151.5073  135.1067  159.9897 H   0  0  0  0  0  0  0  0  0  0  0  0  # atno 6909 bound_to 6896
  145.3887  139.2367  143.3364 H   0  0  0  0  0  0  0  0  0  0  0  0  # atno 7974 bound_to 7965
  155.3786  140.0492  157.3044 H   0  0  0  0  0  0  0  0  0  0  0  0  # atno 8008 bound_to 7997
  154.5094  140.2186  155.9148 H   0  0  0  0  0  0  0  0  0  0  0  0  # atno 8009 bound_to 7997
  156.1564  140.3125  155.8739 H   0  0  0  0  0  0  0  0  0  0  0  0  # atno 8010 bound_to 7997
  140.0050  144.5657  150.7705 H   0  0  0  0  0  0  0  0  0  0  0  0  # atno 10167 bound_to 10162
  156.5947  130.8785  151.2899 H   0  0  0  0  0  0  0  0  0  0  0  0  # atno 10718 bound_to 10713
  154.5545  135.2815  155.0978 H   0  0  0  0  0  0  0  0  0  0  0  0  # atno 10763 bound_to 10752
  154.2411  135.6357  153.5211 H   0  0  0  0  0  0  0  0  0  0  0  0  # atno 10764 bound_to 10752
  153.0012  135.5560  154.6120 H   0  0  0  0  0  0  0  0  0  0  0  0  # atno 10765 bound_to 10752
  139.8807  134.8805  156.3757 H   0  0  0  0  0  0  0  0  0  0  0  0  # atno 11005 bound_to 11000
  146.2808  140.4566  142.8777 LP  0  0  0  0  0  0  0  0  0  0  0  0  # atno 17320 bound_to 7965
  144.8456  140.6923  143.6201 LP  0  0  0  0  0  0  0  0  0  0  0  0  # atno 17321 bound_to 7965
  140.7404  143.2804  151.3616 LP  0  0  0  0  0  0  0  0  0  0  0  0  # atno 17342 bound_to 10162
  139.6245  144.0842  152.2421 LP  0  0  0  0  0  0  0  0  0  0  0  0  # atno 17343 bound_to 10162
  157.7295  130.9672  150.1789 LP  0  0  0  0  0  0  0  0  0  0  0  0  # atno 17370 bound_to 10713
  156.2520  130.3701  149.8222 LP  0  0  0  0  0  0  0  0  0  0  0  0  # atno 17371 bound_to 10713
  140.9434  133.7499  156.0176 LP  0  0  0  0  0  0  0  0  0  0  0  0  # atno 17394 bound_to 11000
  140.8193  134.3308  157.5387 LP  0  0  0  0  0  0  0  0  0  0  0  0  # atno 17395 bound_to 11000

$$$$
