AV-unprocessed.smi:746|AV-procd|sdf|3576|dock5
  -GOLD-   22720 0573D 1   1.00000     0.00000
 Structure written by MMmdl.
 48 50  0  0  0  0  0  0  0  0  1 V2000
  154.6538  132.6850  165.7654 C   0  0  0  0  0  0  0  0  0  0  0  0
  155.6187  132.7187  164.7284 O   0  0  0  0  0  0  0  0  0  0  0  0
  155.2175  133.5332  163.6395 C   0  0  0  0  0  0  0  0  0  0  0  0
  156.3282  133.5407  162.5858 C   0  0  0  0  0  0  0  0  0  0  0  0
  155.8259  134.1392  161.3946 O   0  0  0  0  0  0  0  0  0  0  0  0
  155.4512  135.4667  161.4319 C   0  0  0  0  0  0  0  0  0  0  0  0
  155.8544  136.2503  162.5313 C   0  0  0  0  0  0  0  0  0  0  0  0
  155.4745  137.6054  162.5788 C   0  0  0  0  0  0  0  0  0  0  0  0
  154.6922  138.1330  161.5240 C   0  0  0  0  0  0  0  0  0  0  0  0
  154.2620  139.4846  161.4439 N   0  0  0  0  0  0  0  0  0  0  0  0
  154.0352  140.2351  160.3472 C   0  0  0  0  0  0  0  0  0  0  0  0
  154.0569  139.7831  159.2031 O   0  0  0  0  0  0  0  0  0  0  0  0
  153.6695  141.5091  160.6402 N   0  0  0  0  0  0  0  0  0  0  0  0
  154.1119  142.2138  161.8649 C   0  0  0  0  0  0  0  0  0  0  0  0
  152.9227  142.9082  162.5625 C   0  0  0  0  0  0  0  0  0  0  0  0
  152.1829  143.8587  161.6028 C   0  0  0  0  0  0  0  0  0  0  0  0
  151.8335  143.1040  160.3145 C   0  0  1  0  0  0  0  0  0  0  0  0
  151.2279  143.9178  159.1695 C   0  0  0  0  0  0  0  0  0  0  0  0
  151.5643  143.1122  157.9004 C   0  0  0  0  0  0  0  0  0  0  0  0
  152.5192  141.9878  158.3406 C   0  0  0  0  0  0  0  0  0  0  0  0
  153.0782  142.4728  159.6887 C   0  0  2  0  0  0  0  0  0  0  0  0
  154.3559  137.2701  160.4610 C   0  0  0  0  0  0  0  0  0  0  0  0
  154.7155  135.9703  160.4101 N   0  0  0  0  0  0  0  0  0  0  0  0
  155.0089  132.0484  166.5758 H   0  0  0  0  0  0  0  0  0  0  0  0
  153.7062  132.2790  165.4090 H   0  0  0  0  0  0  0  0  0  0  0  0
  154.4774  133.6813  166.1730 H   0  0  0  0  0  0  0  0  0  0  0  0
  154.2930  133.1506  163.2041 H   0  0  0  0  0  0  0  0  0  0  0  0
  155.0245  134.5503  163.9844 H   0  0  0  0  0  0  0  0  0  0  0  0
  157.1851  134.1025  162.9612 H   0  0  0  0  0  0  0  0  0  0  0  0
  156.6537  132.5179  162.3882 H   0  0  0  0  0  0  0  0  0  0  0  0
  156.4495  135.8207  163.3236 H   0  0  0  0  0  0  0  0  0  0  0  0
  155.8016  138.2108  163.4097 H   0  0  0  0  0  0  0  0  0  0  0  0
  154.2273  139.9791  162.3234 H   0  0  0  0  0  0  0  0  0  0  0  0
  154.6180  141.5682  162.5832 H   0  0  0  0  0  0  0  0  0  0  0  0
  154.8556  142.9612  161.5846 H   0  0  0  0  0  0  0  0  0  0  0  0
  152.2297  142.1510  162.9319 H   0  0  0  0  0  0  0  0  0  0  0  0
  153.2713  143.4599  163.4359 H   0  0  0  0  0  0  0  0  0  0  0  0
  151.2815  144.2518  162.0737 H   0  0  0  0  0  0  0  0  0  0  0  0
  152.8188  144.7145  161.3726 H   0  0  0  0  0  0  0  0  0  0  0  0
  151.1308  142.3066  160.5664 H   0  0  0  0  0  0  0  0  0  0  0  0
  150.1551  144.0672  159.2959 H   0  0  0  0  0  0  0  0  0  0  0  0
  151.6954  144.9019  159.1152 H   0  0  0  0  0  0  0  0  0  0  0  0
  150.6676  142.6989  157.4377 H   0  0  0  0  0  0  0  0  0  0  0  0
  152.0428  143.7587  157.1638 H   0  0  0  0  0  0  0  0  0  0  0  0
  151.9488  141.0666  158.4689 H   0  0  0  0  0  0  0  0  0  0  0  0
  153.3003  141.8017  157.6028 H   0  0  0  0  0  0  0  0  0  0  0  0
  153.8192  143.2487  159.4843 H   0  0  0  0  0  0  0  0  0  0  0  0
  153.7736  137.6309  159.6258 H   0  0  0  0  0  0  0  0  0  0  0  0
  1  2  1  0  0  0  0
  1 24  1  0  0  0  0
  1 25  1  0  0  0  0
  1 26  1  0  0  0  0
  2  3  1  0  0  0  0
  3  4  1  0  0  0  0
  3 27  1  0  0  0  0
  3 28  1  0  0  0  0
  4  5  1  0  0  0  0
  4 29  1  0  0  0  0
  4 30  1  0  0  0  0
  5  6  1  0  0  0  0
  6 23  1  0  0  0  0
  6  7  2  0  0  0  0
  7  8  1  0  0  0  0
  7 31  1  0  0  0  0
  8  9  2  0  0  0  0
  8 32  1  0  0  0  0
  9 10  1  0  0  0  0
  9 22  1  0  0  0  0
 10 11  1  0  0  0  0
 10 33  1  0  0  0  0
 11 12  2  0  0  0  0
 11 13  1  0  0  0  0
 13 21  1  0  0  0  0
 13 14  1  0  0  0  0
 14 15  1  0  0  0  0
 14 34  1  0  0  0  0
 14 35  1  0  0  0  0
 15 16  1  0  0  0  0
 15 36  1  0  0  0  0
 15 37  1  0  0  0  0
 16 17  1  0  0  0  0
 16 38  1  0  0  0  0
 16 39  1  0  0  0  0
 17 21  1  0  0  0  0
 17 18  1  0  0  0  0
 17 40  1  0  0  0  0
 18 19  1  0  0  0  0
 18 41  1  0  0  0  0
 18 42  1  0  0  0  0
 19 20  1  0  0  0  0
 19 43  1  0  0  0  0
 19 44  1  0  0  0  0
 20 21  1  0  0  0  0
 20 45  1  0  0  0  0
 20 46  1  0  0  0  0
 21 47  1  0  0  0  0
 22 23  2  0  0  0  0
 22 48  1  0  0  0  0
M  END
> <s_m_source_file>
AV-unprocessed.smi

> <i_m_source_file_index>
746

> <i_lp_mmshare_version>
43012

> <i_f3d_flags>
0

> <s_epik_input>
W0NIM11PW0NIMl1bQ0gyXU9jMVtjSF1bY0hdYyhbY0hdbjEpW05IXUMoPU8pTihbQ0gyXVtDSDJdW0NIMl0yKVtDQEhdKFtDQEBIXTIzKVtDSDJdW0NIMl1bQ0gyXTM=

> <s_epik_cmdline>
J2VwaWtfcHl0aG9uJywgJy1waCcsICc3LjAnLCAnLXRuJywgJzgnLCAnLW1hJywgJzIwMCcsICctbWV0YWxfYmluZGluZycsICctaW1hZScsICc8aW5maWxlLm1hZT4nLCAnLW9tYWUnLCAnPG91dGZpbGUubWFlPic=

> <r_lp_tautomer_probability>
1

> <r_epik_Ionization_Penalty>
8.29966e-05

> <r_epik_Ionization_Penalty_Charging>
0

> <r_epik_Ionization_Penalty_Neutral>
8.29966e-05

> <r_epik_State_Penalty>
-0

> <r_epik_Charging_Adjusted_Penalty>
0

> <i_epik_Tot_Q>
0

> <i_epik_Tot_abs_Q>
0

> <r_epik_Metal_State_Penalty>
-0

> <b_epik_Metal_Only>
0

> <s_lp_Force_Field>
OPLS_2005

> <r_lp_Energy>
59.0162

> <b_lp_Chiralities_Consistent>
1

> <s_lp_Variant>
AV-unprocessed.smi:746-1

> <Gold.Version>
5.8.1

> <Gold.Id.Protein>
6NUR|6NUR_protein|mol2

> <Gold.PLP.Fitness>
48.9215

> <Gold.PLP.PLP>
-43.8927

> <Gold.PLP.part.hbond>
-2.0000

> <Gold.PLP.part.metal>
0.0000

> <Gold.PLP.part.buried>
-3.8009

> <Gold.PLP.part.nonpolar>
-37.1030

> <Gold.PLP.part.repulsive>
0.0259

> <Gold.PLP.ligand.clash>
0.0000

> <Gold.PLP.ligand.torsion>
0.5722

> <Gold.PLP.Chemscore.Hbond>
1.9425

> <Gold.PLP.Chemscore.CHOScore>
0.0000

> <Gold.PLP.Chemscore.Metal>
0.0000

> <Gold.Chemscore.Hbonds>
donor molecule, donor type, donor heavy atom, donor atom, acceptor molecule, acceptor atom, score
      P1  H  7997  8008       L1    12  0.71

> <Gold.PLP.Chemscore.Internal.Correction>
0.3458

> <Gold.Rescore>
     Score         DG    S(hbond)    S(metal)    S(lipo)     H(rot)  DE(clash)    DE(int)     intcor
     17.81     -21.50       1.65        0.00     122.92       1.52       0.26       3.44       ----

> <Gold.Chemscore.Fitness>
17.8106

> <Gold.Chemscore.DG>
-21.5045

> <Gold.Chemscore.ZeroCoef>
-5.4800

> <Gold.Chemscore.Hbond>
1.6546

> <Gold.Chemscore.Metal>
0.0000

> <Gold.Chemscore.Lipo>
122.9236

> <Gold.Chemscore.Internal_Hbond>
0.0000

> <Gold.Chemscore.DEClash>
0.2553

> <Gold.Chemscore.DEInternal>
3.4385

> <Gold.Chemscore.Rot>
1.5172

> <Gold.Chemscore.Internal.Correction>
   9.000000E+99

> <Gold.Chemscore.Hbonds>
donor molecule, donor type, donor heavy atom, donor atom, acceptor molecule, acceptor atom, score
      P1  H  7997  8008       L1    12  0.69

> <Gold.Chemscore.Hbond.Weighted>
-5.5265

> <Gold.Chemscore.Metal.Weighted>
-0.0000

> <Gold.Chemscore.Lipo.Weighted>
-14.3821

> <Gold.Chemscore.Internal_Hbond.Weighted>
0.0000

> <Gold.Chemscore.DEClash.Weighted>
0.2553

> <Gold.Chemscore.DEInternal.Weighted>
3.4385

> <Gold.Chemscore.Rot.Weighted>
3.8841

> <Gold.Chemscore.Internal.Correction.Weighted>
   9.000000E+99

> <Gold.Protein.RotatedTorsions>
[ 6907 6896 6895 6894 ] final   45.30 input  -60.11 | X-H torsion
[ 7974 7965 7964 7962 ] final  103.80 input  175.53 | X-H torsion
[ 8008 7997 7996 7995 ] final -100.51 input   59.86 | X-H torsion
[ 10167 10162 10161 10158 ] final  119.54 input  -65.29 | X-H torsion
[ 10718 10713 10712 10709 ] final  -67.67 input   66.30 | X-H torsion
[ 10763 10752 10751 10750 ] final   24.37 input  -60.55 | X-H torsion
[ 11005 11000 10999 10996 ] final   68.09 input  -57.11 | X-H torsion

> <Gold.Protein.ActiveResidues>
 VAL166  LYS551  ARG553  GLY616  TRP617  ASP618  TYR619  PRO620  LYS621  CYS622 
 ASP623  PHE694  ASN695  SER759  ASP760  ASP761  ALA762  ILE779  LEU786  VAL792 
 PHE793  MET794  SER795  GLU796  ALA797  LYS798  CYS799  TRP800  GLU811  SER814 

> <Gold.Protein.RotatedAtoms>
  152.2429  134.8211  160.0457 H   0  0  0  0  0  0  0  0  0  0  0  0  # atno 6907 bound_to 6896
  151.8919  133.3513  159.3809 H   0  0  0  0  0  0  0  0  0  0  0  0  # atno 6908 bound_to 6896
  150.7059  134.4842  159.5529 H   0  0  0  0  0  0  0  0  0  0  0  0  # atno 6909 bound_to 6896
  145.3412  139.2462  143.3608 H   0  0  0  0  0  0  0  0  0  0  0  0  # atno 7974 bound_to 7965
  154.8296  140.0440  157.1468 H   0  0  0  0  0  0  0  0  0  0  0  0  # atno 8008 bound_to 7997
  154.9167  140.3021  155.5217 H   0  0  0  0  0  0  0  0  0  0  0  0  # atno 8009 bound_to 7997
  156.2986  140.2348  156.4212 H   0  0  0  0  0  0  0  0  0  0  0  0  # atno 8010 bound_to 7997
  139.6039  144.7064  151.2998 H   0  0  0  0  0  0  0  0  0  0  0  0  # atno 10167 bound_to 10162
  156.0545  130.4282  150.1888 H   0  0  0  0  0  0  0  0  0  0  0  0  # atno 10718 bound_to 10713
  153.0768  135.6606  154.0128 H   0  0  0  0  0  0  0  0  0  0  0  0  # atno 10763 bound_to 10752
  153.9760  135.2960  155.3425 H   0  0  0  0  0  0  0  0  0  0  0  0  # atno 10764 bound_to 10752
  154.7159  135.5185  153.8807 H   0  0  0  0  0  0  0  0  0  0  0  0  # atno 10765 bound_to 10752
  139.9732  134.6865  156.0405 H   0  0  0  0  0  0  0  0  0  0  0  0  # atno 11005 bound_to 11000
  146.3007  140.4009  142.8705 LP  0  0  0  0  0  0  0  0  0  0  0  0  # atno 17320 bound_to 7965
  144.8789  140.7373  143.5999 LP  0  0  0  0  0  0  0  0  0  0  0  0  # atno 17321 bound_to 7965
  140.7270  143.6974  150.7873 LP  0  0  0  0  0  0  0  0  0  0  0  0  # atno 17342 bound_to 10162
  140.0556  143.5206  152.2653 LP  0  0  0  0  0  0  0  0  0  0  0  0  # atno 17343 bound_to 10162
  156.9967  130.9910  151.3401 LP  0  0  0  0  0  0  0  0  0  0  0  0  # atno 17370 bound_to 10713
  157.5503  130.8177  149.8136 LP  0  0  0  0  0  0  0  0  0  0  0  0  # atno 17371 bound_to 10713
  141.1411  133.6564  156.3732 LP  0  0  0  0  0  0  0  0  0  0  0  0  # atno 17394 bound_to 11000
  140.5249  134.6268  157.5331 LP  0  0  0  0  0  0  0  0  0  0  0  0  # atno 17395 bound_to 11000

$$$$
