AV-unprocessed.smi:1226|AV-procd|sdf|5144|dock9
  -GOLD-   22720 4213D 1   1.00000     0.00000
 Structure written by MMmdl.
 37 38  0  0  0  0  0  0  0  0  1 V2000
  146.1511  132.0842  151.8935 C   0  0  0  0  0  0  0  0  0  0  0  0
  145.6541  133.4714  151.6693 C   0  0  0  0  0  0  0  0  0  0  0  0
  146.0448  134.5222  152.3949 N   0  0  0  0  0  0  0  0  0  0  0  0
  145.4358  135.7139  151.9892 C   0  0  0  0  0  0  0  0  0  0  0  0
  145.7638  136.9966  152.6909 C   0  0  0  0  0  0  0  0  0  0  0  0
  146.2141  138.0945  151.7127 C   0  0  0  0  0  0  0  0  0  0  0  0
  147.3100  138.8867  152.2585 N   0  0  0  0  0  0  0  0  0  0  0  0
  147.2719  139.5478  153.4236 C   0  0  0  0  0  0  0  0  0  0  0  0
  146.2996  139.5613  154.1784 O   0  0  0  0  0  0  0  0  0  0  0  0
  148.4178  140.1991  153.6635 N   0  0  0  0  0  0  0  0  0  0  0  0
  148.6777  141.0280  154.8355 C   0  0  0  0  0  0  0  0  0  0  0  0
  149.5213  140.2908  155.8905 C   0  0  2  0  0  0  0  0  0  0  0  0
  149.9444  141.1449  157.0870 C   0  0  0  0  0  0  0  0  0  0  0  0
  151.2384  140.4957  157.5554 C   0  0  0  0  0  0  0  0  0  0  0  0
  151.6067  139.5297  156.4260 C   0  0  0  0  0  0  0  0  0  0  0  0
  150.7664  139.8942  155.3405 O   0  0  0  0  0  0  0  0  0  0  0  0
  144.5690  135.5475  150.9378 C   0  0  0  0  0  0  0  0  0  0  0  0
  144.4877  133.8861  150.4194 S   0  0  0  0  0  0  0  0  0  0  0  0
  147.0020  132.0869  152.5755 H   0  0  0  0  0  0  0  0  0  0  0  0
  146.4640  131.6424  150.9474 H   0  0  0  0  0  0  0  0  0  0  0  0
  145.3598  131.4705  152.3235 H   0  0  0  0  0  0  0  0  0  0  0  0
  144.8954  137.3451  153.2514 H   0  0  0  0  0  0  0  0  0  0  0  0
  146.5447  136.8196  153.4315 H   0  0  0  0  0  0  0  0  0  0  0  0
  146.5092  137.6594  150.7562 H   0  0  0  0  0  0  0  0  0  0  0  0
  145.3824  138.7680  151.5039 H   0  0  0  0  0  0  0  0  0  0  0  0
  148.1547  138.9371  151.7081 H   0  0  0  0  0  0  0  0  0  0  0  0
  149.1604  140.1262  152.9837 H   0  0  0  0  0  0  0  0  0  0  0  0
  149.1717  141.9539  154.5366 H   0  0  0  0  0  0  0  0  0  0  0  0
  147.7172  141.3159  155.2636 H   0  0  0  0  0  0  0  0  0  0  0  0
  148.9986  139.3981  156.2396 H   0  0  0  0  0  0  0  0  0  0  0  0
  150.1452  142.1690  156.7697 H   0  0  0  0  0  0  0  0  0  0  0  0
  149.1812  141.1780  157.8652 H   0  0  0  0  0  0  0  0  0  0  0  0
  152.0133  141.2484  157.7054 H   0  0  0  0  0  0  0  0  0  0  0  0
  151.1052  139.9598  158.4958 H   0  0  0  0  0  0  0  0  0  0  0  0
  152.6593  139.5899  156.1484 H   0  0  0  0  0  0  0  0  0  0  0  0
  151.3896  138.5006  156.7161 H   0  0  0  0  0  0  0  0  0  0  0  0
  143.9758  136.2987  150.4376 H   0  0  0  0  0  0  0  0  0  0  0  0
  1  2  1  0  0  0  0
  1 19  1  0  0  0  0
  1 20  1  0  0  0  0
  1 21  1  0  0  0  0
  2 18  1  0  0  0  0
  2  3  2  0  0  0  0
  3  4  1  0  0  0  0
  4  5  1  0  0  0  0
  4 17  2  0  0  0  0
  5  6  1  0  0  0  0
  5 22  1  0  0  0  0
  5 23  1  0  0  0  0
  6  7  1  0  0  0  0
  6 24  1  0  0  0  0
  6 25  1  0  0  0  0
  7  8  1  0  0  0  0
  7 26  1  0  0  0  0
  8  9  2  0  0  0  0
  8 10  1  0  0  0  0
 10 11  1  0  0  0  0
 10 27  1  0  0  0  0
 11 12  1  0  0  0  0
 11 28  1  0  0  0  0
 11 29  1  0  0  0  0
 12 16  1  0  0  0  0
 12 13  1  0  0  0  0
 12 30  1  0  0  0  0
 13 14  1  0  0  0  0
 13 31  1  0  0  0  0
 13 32  1  0  0  0  0
 14 15  1  0  0  0  0
 14 33  1  0  0  0  0
 14 34  1  0  0  0  0
 15 16  1  0  0  0  0
 15 35  1  0  0  0  0
 15 36  1  0  0  0  0
 17 18  1  0  0  0  0
 17 37  1  0  0  0  0
M  END
> <s_m_source_file>
AV-unprocessed.smi

> <i_m_source_file_index>
1226

> <i_lp_mmshare_version>
43012

> <i_f3d_flags>
0

> <s_epik_input>
W0NIM11jMW5jKFtjSF1zMSlbQ0gyXVtDSDJdW05IXUMoPU8pW05IXVtDSDJdW0NAQEhdMltDSDJdW0NIMl1bQ0gyXU8y

> <s_epik_cmdline>
J2VwaWtfcHl0aG9uJywgJy1waCcsICc3LjAnLCAnLXRuJywgJzgnLCAnLW1hJywgJzIwMCcsICctbWV0YWxfYmluZGluZycsICctaW1hZScsICc8aW5maWxlLm1hZT4nLCAnLW9tYWUnLCAnPG91dGZpbGUubWFlPic=

> <r_epik_Ionization_Penalty>
0.00199722

> <r_epik_Ionization_Penalty_Charging>
0

> <r_epik_Ionization_Penalty_Neutral>
0.00199722

> <r_epik_State_Penalty>
0.00132705

> <r_epik_Charging_Adjusted_Penalty>
0.00132705

> <i_epik_Tot_Q>
0

> <i_epik_Tot_abs_Q>
0

> <r_epik_Metal_State_Penalty>
-0

> <b_epik_Metal_Only>
0

> <s_lp_Force_Field>
OPLS_2005

> <r_lp_Energy>
9.02747

> <b_lp_Chiralities_Consistent>
1

> <s_lp_Variant>
AV-unprocessed.smi:1226-1

> <Gold.Version>
5.8.1

> <Gold.Id.Protein>
6NUR|6NUR_protein|mol2

> <Gold.PLP.Fitness>
44.5055

> <Gold.PLP.PLP>
-33.7359

> <Gold.PLP.part.hbond>
-3.1833

> <Gold.PLP.part.metal>
0.0000

> <Gold.PLP.part.buried>
-3.4631

> <Gold.PLP.part.nonpolar>
-28.2994

> <Gold.PLP.part.repulsive>
0.5378

> <Gold.PLP.ligand.clash>
0.0000

> <Gold.PLP.ligand.torsion>
0.4672

> <Gold.PLP.Chemscore.Hbond>
2.8960

> <Gold.PLP.Chemscore.CHOScore>
1.0000

> <Gold.PLP.Chemscore.Metal>
0.0000

> <Gold.Chemscore.Hbonds>
donor molecule, donor type, donor heavy atom, donor atom, acceptor molecule, acceptor atom, score
      L1  H     7    26       P1  7957  0.93
      L1  H    10    27       P1  7957  0.93
      P1  H  7989  7998       L1    16  0.44
      L1  C    17    37       P1 10171  1.00

> <Gold.PLP.Chemscore.Internal.Correction>
0.0160

> <Gold.Rescore>
     Score         DG    S(hbond)    S(metal)    S(lipo)     H(rot)  DE(clash)    DE(int)     intcor
     18.78     -19.60       2.90        0.00      76.27       1.75       0.23       0.60       ----

> <Gold.Chemscore.Fitness>
18.7754

> <Gold.Chemscore.DG>
-19.6030

> <Gold.Chemscore.ZeroCoef>
-5.4800

> <Gold.Chemscore.Hbond>
2.8970

> <Gold.Chemscore.Metal>
0.0000

> <Gold.Chemscore.Lipo>
76.2703

> <Gold.Chemscore.Internal_Hbond>
0.0000

> <Gold.Chemscore.DEClash>
0.2280

> <Gold.Chemscore.DEInternal>
0.5996

> <Gold.Chemscore.Rot>
1.7487

> <Gold.Chemscore.Internal.Correction>
   9.000000E+99

> <Gold.Chemscore.Hbonds>
donor molecule, donor type, donor heavy atom, donor atom, acceptor molecule, acceptor atom, score
      L1  H     7    26       P1  7957  0.80
      L1  H    10    27       P1  7957  0.89
      P1  H  7989  7998       L1    16  0.42

> <Gold.Chemscore.Hbond.Weighted>
-9.6761

> <Gold.Chemscore.Metal.Weighted>
-0.0000

> <Gold.Chemscore.Lipo.Weighted>
-8.9236

> <Gold.Chemscore.Internal_Hbond.Weighted>
0.0000

> <Gold.Chemscore.DEClash.Weighted>
0.2280

> <Gold.Chemscore.DEInternal.Weighted>
0.5996

> <Gold.Chemscore.Rot.Weighted>
4.4768

> <Gold.Chemscore.Internal.Correction.Weighted>
   9.000000E+99

> <Gold.Protein.RotatedTorsions>
[ 6907 6896 6895 6894 ] final  163.97 input  -60.11 | X-H torsion
[ 7974 7965 7964 7962 ] final  -27.73 input  175.53 | X-H torsion
[ 8008 7997 7996 7995 ] final  164.03 input   59.86 | X-H torsion
[ 10167 10162 10161 10158 ] final  121.13 input  -65.29 | X-H torsion
[ 10718 10713 10712 10709 ] final -100.39 input   66.30 | X-H torsion
[ 10763 10752 10751 10750 ] final   56.50 input  -60.55 | X-H torsion
[ 11005 11000 10999 10996 ] final  115.23 input  -57.11 | X-H torsion

> <Gold.Protein.ActiveResidues>
 VAL166  LYS551  ARG553  GLY616  TRP617  ASP618  TYR619  PRO620  LYS621  CYS622 
 ASP623  PHE694  ASN695  SER759  ASP760  ASP761  ALA762  ILE779  LEU786  VAL792 
 PHE793  MET794  SER795  GLU796  ALA797  LYS798  CYS799  TRP800  GLU811  SER814 

> <Gold.Protein.RotatedAtoms>
  151.9170  133.3575  159.3883 H   0  0  0  0  0  0  0  0  0  0  0  0  # atno 6907 bound_to 6896
  150.7045  134.4674  159.5418 H   0  0  0  0  0  0  0  0  0  0  0  0  # atno 6908 bound_to 6896
  152.2291  134.8340  160.0527 H   0  0  0  0  0  0  0  0  0  0  0  0  # atno 6909 bound_to 6896
  146.1337  140.5190  142.8682 H   0  0  0  0  0  0  0  0  0  0  0  0  # atno 7974 bound_to 7965
  156.1911  140.1707  156.8089 H   0  0  0  0  0  0  0  0  0  0  0  0  # atno 8008 bound_to 7997
  154.5473  140.0724  156.8642 H   0  0  0  0  0  0  0  0  0  0  0  0  # atno 8009 bound_to 7997
  155.3097  140.3367  155.4247 H   0  0  0  0  0  0  0  0  0  0  0  0  # atno 8010 bound_to 7997
  139.5939  144.7035  151.3224 H   0  0  0  0  0  0  0  0  0  0  0  0  # atno 10167 bound_to 10162
  156.0161  130.5325  150.6809 H   0  0  0  0  0  0  0  0  0  0  0  0  # atno 10718 bound_to 10713
  152.9833  135.5674  154.5239 H   0  0  0  0  0  0  0  0  0  0  0  0  # atno 10763 bound_to 10752
  154.4722  135.2785  155.1636 H   0  0  0  0  0  0  0  0  0  0  0  0  # atno 10764 bound_to 10752
  154.3179  135.6275  153.5548 H   0  0  0  0  0  0  0  0  0  0  0  0  # atno 10765 bound_to 10752
  139.9004  134.9581  156.7014 H   0  0  0  0  0  0  0  0  0  0  0  0  # atno 11005 bound_to 11000
  144.7717  140.5653  143.6665 LP  0  0  0  0  0  0  0  0  0  0  0  0  # atno 17320 bound_to 7965
  145.5203  139.1477  143.3556 LP  0  0  0  0  0  0  0  0  0  0  0  0  # atno 17321 bound_to 7965
  140.7196  143.7173  150.7723 LP  0  0  0  0  0  0  0  0  0  0  0  0  # atno 17342 bound_to 10162
  140.0735  143.5038  152.2567 LP  0  0  0  0  0  0  0  0  0  0  0  0  # atno 17343 bound_to 10162
  157.4512  131.0872  151.0844 LP  0  0  0  0  0  0  0  0  0  0  0  0  # atno 17370 bound_to 10713
  157.1359  130.6122  149.5542 LP  0  0  0  0  0  0  0  0  0  0  0  0  # atno 17371 bound_to 10713
  140.7147  133.9192  155.8107 LP  0  0  0  0  0  0  0  0  0  0  0  0  # atno 17394 bound_to 11000
  141.0273  134.0805  157.4054 LP  0  0  0  0  0  0  0  0  0  0  0  0  # atno 17395 bound_to 11000

$$$$
