AV-unprocessed.smi:2510|AV-procd|sdf|9878|dock9
  -GOLD-   2272013513D 1   1.00000     0.00000
 Structure written by MMmdl.
 48 49  0  0  0  0  0  0  0  0  1 V2000
  151.0253  142.9637  157.4312 C   0  0  0  0  0  0  0  0  0  0  0  0
  150.6204  141.6937  158.1963 C   0  0  0  0  0  0  0  0  0  0  0  0
  151.7520  140.6480  158.3871 C   0  0  0  0  0  0  0  0  0  0  0  0
  152.9107  141.3187  159.1655 C   0  0  0  0  0  0  0  0  0  0  0  0
  153.9846  140.3566  159.7013 C   0  0  0  0  0  0  0  0  0  0  0  0
  151.3703  139.2351  158.9290 C   0  0  1  0  0  0  0  0  0  0  0  0
  149.9854  138.8529  158.6621 N   0  0  0  0  0  0  0  0  0  0  0  0
  149.4624  137.6337  158.8572 C   0  0  0  0  0  0  0  0  0  0  0  0
  150.1299  136.6512  159.1777 O   0  0  0  0  0  0  0  0  0  0  0  0
  147.9451  137.5195  158.6976 C   0  0  0  0  0  0  0  0  0  0  0  0
  147.3318  136.9362  159.9325 C   0  0  0  0  0  0  0  0  0  0  0  0
  147.8995  136.4532  161.0789 C   0  0  0  0  0  0  0  0  0  0  0  0
  146.7965  135.9778  161.8458 C   0  0  0  0  0  0  0  0  0  0  0  0
  146.8226  135.3105  163.1887 C   0  0  0  0  0  0  0  0  0  0  0  0
  145.6363  136.1710  161.2365 N   0  0  0  0  0  0  0  0  0  0  0  0
  145.9743  136.7567  160.0728 N   0  0  0  0  0  0  0  0  0  0  0  0
  152.3343  138.6081  157.9059 C   0  0  1  0  0  0  0  0  0  0  0  0
  152.0414  137.2518  157.2669 C   0  0  0  0  0  0  0  0  0  0  0  0
  152.2112  139.9132  157.0977 C   0  0  1  0  0  0  0  0  0  0  0  0
  151.1727  139.8554  156.1246 O   0  0  0  0  0  0  0  0  0  0  0  0
  151.5249  139.1128  154.9708 C   0  0  0  0  0  0  0  0  0  0  0  0
  145.2788  137.0108  159.3856 H   0  0  0  0  0  0  0  0  0  0  0  0
  150.1494  143.5796  157.2281 H   0  0  0  0  0  0  0  0  0  0  0  0
  151.4851  142.7216  156.4730 H   0  0  0  0  0  0  0  0  0  0  0  0
  151.7233  143.5784  157.9985 H   0  0  0  0  0  0  0  0  0  0  0  0
  150.1786  141.9697  159.1531 H   0  0  0  0  0  0  0  0  0  0  0  0
  149.7936  141.2586  157.6370 H   0  0  0  0  0  0  0  0  0  0  0  0
  153.4199  142.0367  158.5229 H   0  0  0  0  0  0  0  0  0  0  0  0
  152.5281  141.9233  159.9869 H   0  0  0  0  0  0  0  0  0  0  0  0
  154.8220  140.9159  160.1187 H   0  0  0  0  0  0  0  0  0  0  0  0
  154.3792  139.7138  158.9147 H   0  0  0  0  0  0  0  0  0  0  0  0
  153.5998  139.7190  160.4965 H   0  0  0  0  0  0  0  0  0  0  0  0
  151.6829  139.0488  159.9573 H   0  0  0  0  0  0  0  0  0  0  0  0
  149.3560  139.5984  158.4014 H   0  0  0  0  0  0  0  0  0  0  0  0
  147.5310  138.5092  158.5035 H   0  0  0  0  0  0  0  0  0  0  0  0
  147.7103  136.9025  157.8293 H   0  0  0  0  0  0  0  0  0  0  0  0
  148.9511  136.4190  161.3222 H   0  0  0  0  0  0  0  0  0  0  0  0
  147.8401  135.2405  163.5738 H   0  0  0  0  0  0  0  0  0  0  0  0
  146.4211  134.2985  163.1304 H   0  0  0  0  0  0  0  0  0  0  0  0
  146.2291  135.8648  163.9158 H   0  0  0  0  0  0  0  0  0  0  0  0
  153.3279  138.5781  158.3556 H   0  0  0  0  0  0  0  0  0  0  0  0
  151.0933  137.2472  156.7290 H   0  0  0  0  0  0  0  0  0  0  0  0
  151.9938  136.4661  158.0210 H   0  0  0  0  0  0  0  0  0  0  0  0
  152.8212  136.9765  156.5569 H   0  0  0  0  0  0  0  0  0  0  0  0
  153.1560  140.2932  156.7044 H   0  0  0  0  0  0  0  0  0  0  0  0
  150.6760  139.0779  154.2881 H   0  0  0  0  0  0  0  0  0  0  0  0
  151.8007  138.0883  155.2207 H   0  0  0  0  0  0  0  0  0  0  0  0
  152.3588  139.5805  154.4464 H   0  0  0  0  0  0  0  0  0  0  0  0
  1  2  1  0  0  0  0
  1 23  1  0  0  0  0
  1 24  1  0  0  0  0
  1 25  1  0  0  0  0
  2  3  1  0  0  0  0
  2 26  1  0  0  0  0
  2 27  1  0  0  0  0
  3 19  1  0  0  0  0
  3  4  1  0  0  0  0
  3  6  1  0  0  0  0
  4  5  1  0  0  0  0
  4 28  1  0  0  0  0
  4 29  1  0  0  0  0
  5 30  1  0  0  0  0
  5 31  1  0  0  0  0
  5 32  1  0  0  0  0
  6  7  1  0  0  0  0
  6 17  1  0  0  0  0
  6 33  1  0  0  0  0
  7  8  1  0  0  0  0
  7 34  1  0  0  0  0
  8  9  2  0  0  0  0
  8 10  1  0  0  0  0
 10 35  1  0  0  0  0
 10 36  1  0  0  0  0
 10 11  1  0  0  0  0
 11 16  1  0  0  0  0
 11 12  2  0  0  0  0
 12 13  1  0  0  0  0
 12 37  1  0  0  0  0
 13 14  1  0  0  0  0
 13 15  2  0  0  0  0
 14 38  1  0  0  0  0
 14 39  1  0  0  0  0
 14 40  1  0  0  0  0
 15 16  1  0  0  0  0
 16 22  1  0  0  0  0
 17 18  1  0  0  0  0
 17 19  1  0  0  0  0
 17 41  1  0  0  0  0
 18 42  1  0  0  0  0
 18 43  1  0  0  0  0
 18 44  1  0  0  0  0
 19 20  1  0  0  0  0
 19 45  1  0  0  0  0
 20 21  1  0  0  0  0
 21 46  1  0  0  0  0
 21 47  1  0  0  0  0
 21 48  1  0  0  0  0
M  END
> <s_m_source_file>
AV-unprocessed.smi

> <i_m_source_file_index>
2510

> <i_lp_mmshare_version>
43012

> <i_f3d_flags>
0

> <s_epik_input>
W0NIM11PW0NAQEhdMVtDQEhdKFtDSDNdKVtDQEBIXShDMShbQ0gyXVtDSDNdKVtDSDJdW0NIM10pW05IXUMoPU8pW0NIMl1jMltjSF1jKFtDSDNdKVtuSF1uMg==

> <s_epik_cmdline>
J2VwaWtfcHl0aG9uJywgJy1waCcsICc3LjAnLCAnLXRuJywgJzgnLCAnLW1hJywgJzIwMCcsICctbWV0YWxfYmluZGluZycsICctaW1hZScsICc8aW5maWxlLm1hZT4nLCAnLW9tYWUnLCAnPG91dGZpbGUubWFlPic=

> <r_lp_tautomer_probability>
0.5

> <r_epik_Ionization_Penalty>
0.000134763

> <r_epik_Ionization_Penalty_Charging>
0

> <r_epik_Ionization_Penalty_Neutral>
0.000134763

> <r_epik_State_Penalty>
0.41068

> <r_epik_Charging_Adjusted_Penalty>
0.41068

> <i_epik_Tot_Q>
0

> <i_epik_Tot_abs_Q>
0

> <r_epik_Metal_State_Penalty>
0.410661

> <b_epik_Metal_Only>
0

> <s_lp_Force_Field>
OPLS_2005

> <r_lp_Energy>
25.663

> <b_lp_Chiralities_Consistent>
1

> <s_lp_Variant>
AV-unprocessed.smi:2510-9

> <Gold.Version>
5.8.1

> <Gold.Id.Protein>
6NUR|6NUR_protein|mol2

> <Gold.PLP.Fitness>
35.4541

> <Gold.PLP.PLP>
-32.7169

> <Gold.PLP.part.hbond>
-1.0000

> <Gold.PLP.part.metal>
0.0000

> <Gold.PLP.part.buried>
-2.0605

> <Gold.PLP.part.nonpolar>
-29.2195

> <Gold.PLP.part.repulsive>
0.2633

> <Gold.PLP.ligand.clash>
0.0000

> <Gold.PLP.ligand.torsion>
0.4600

> <Gold.PLP.Chemscore.Hbond>
1.0000

> <Gold.PLP.Chemscore.CHOScore>
0.0000

> <Gold.PLP.Chemscore.Metal>
0.0000

> <Gold.Chemscore.Hbonds>
donor molecule, donor type, donor heavy atom, donor atom, acceptor molecule, acceptor atom, score
      P1  H  6896  6909       L1     9  1.00

> <Gold.PLP.Chemscore.Internal.Correction>
0.6571

> <Gold.Rescore>
     Score         DG    S(hbond)    S(metal)    S(lipo)     H(rot)  DE(clash)    DE(int)     intcor
     10.81     -15.88       1.00        0.00      99.99       1.81       1.44       3.64       ----

> <Gold.Chemscore.Fitness>
10.8125

> <Gold.Chemscore.DG>
-15.8841

> <Gold.Chemscore.ZeroCoef>
-5.4800

> <Gold.Chemscore.Hbond>
0.9997

> <Gold.Chemscore.Metal>
0.0000

> <Gold.Chemscore.Lipo>
99.9927

> <Gold.Chemscore.Internal_Hbond>
0.0000

> <Gold.Chemscore.DEClash>
1.4366

> <Gold.Chemscore.DEInternal>
3.6350

> <Gold.Chemscore.Rot>
1.8102

> <Gold.Chemscore.Internal.Correction>
   9.000000E+99

> <Gold.Chemscore.Hbonds>
donor molecule, donor type, donor heavy atom, donor atom, acceptor molecule, acceptor atom, score
      P1  H  6896  6909       L1     9  0.99

> <Gold.Chemscore.Hbond.Weighted>
-3.3391

> <Gold.Chemscore.Metal.Weighted>
-0.0000

> <Gold.Chemscore.Lipo.Weighted>
-11.6991

> <Gold.Chemscore.Internal_Hbond.Weighted>
0.0000

> <Gold.Chemscore.DEClash.Weighted>
1.4366

> <Gold.Chemscore.DEInternal.Weighted>
3.6350

> <Gold.Chemscore.Rot.Weighted>
4.6341

> <Gold.Chemscore.Internal.Correction.Weighted>
   9.000000E+99

> <Gold.Protein.RotatedTorsions>
[ 6907 6896 6895 6894 ] final   81.01 input  -60.11 | X-H torsion
[ 7974 7965 7964 7962 ] final  152.89 input  175.53 | X-H torsion
[ 8008 7997 7996 7995 ] final   79.06 input   59.86 | X-H torsion
[ 10167 10162 10161 10158 ] final   49.75 input  -65.29 | X-H torsion
[ 10718 10713 10712 10709 ] final   15.30 input   66.30 | X-H torsion
[ 10763 10752 10751 10750 ] final  -82.26 input  -60.55 | X-H torsion
[ 11005 11000 10999 10996 ] final  123.76 input  -57.11 | X-H torsion

> <Gold.Protein.ActiveResidues>
 VAL166  LYS551  ARG553  GLY616  TRP617  ASP618  TYR619  PRO620  LYS621  CYS622 
 ASP623  PHE694  ASN695  SER759  ASP760  ASP761  ALA762  ILE779  LEU786  VAL792 
 PHE793  MET794  SER795  GLU796  ALA797  LYS798  CYS799  TRP800  GLU811  SER814 

> <Gold.Protein.RotatedAtoms>
  152.5254  134.3269  159.9168 H   0  0  0  0  0  0  0  0  0  0  0  0  # atno 6907 bound_to 6896
  151.3218  133.4030  159.2663 H   0  0  0  0  0  0  0  0  0  0  0  0  # atno 6908 bound_to 6896
  150.9952  134.9295  159.7980 H   0  0  0  0  0  0  0  0  0  0  0  0  # atno 6909 bound_to 6896
  144.8191  139.6728  143.6108 H   0  0  0  0  0  0  0  0  0  0  0  0  # atno 7974 bound_to 7965
  155.8644  140.3452  155.5778 H   0  0  0  0  0  0  0  0  0  0  0  0  # atno 8008 bound_to 7997
  155.7897  140.0870  157.2035 H   0  0  0  0  0  0  0  0  0  0  0  0  # atno 8009 bound_to 7997
  154.4013  140.1485  156.3136 H   0  0  0  0  0  0  0  0  0  0  0  0  # atno 8010 bound_to 7997
  140.2797  144.3171  150.6267 H   0  0  0  0  0  0  0  0  0  0  0  0  # atno 10167 bound_to 10162
  157.0515  130.6272  149.5769 H   0  0  0  0  0  0  0  0  0  0  0  0  # atno 10718 bound_to 10713
  154.5735  135.5597  153.7118 H   0  0  0  0  0  0  0  0  0  0  0  0  # atno 10763 bound_to 10752
  153.0057  135.6303  154.2081 H   0  0  0  0  0  0  0  0  0  0  0  0  # atno 10764 bound_to 10752
  154.2021  135.2877  155.2967 H   0  0  0  0  0  0  0  0  0  0  0  0  # atno 10765 bound_to 10752
  139.9327  134.9641  156.8308 H   0  0  0  0  0  0  0  0  0  0  0  0  # atno 11005 bound_to 11000
  146.2496  139.6171  142.9436 LP  0  0  0  0  0  0  0  0  0  0  0  0  # atno 17320 bound_to 7965
  145.5146  141.0434  143.2469 LP  0  0  0  0  0  0  0  0  0  0  0  0  # atno 17321 bound_to 7965
  140.5822  143.2172  151.7407 LP  0  0  0  0  0  0  0  0  0  0  0  0  # atno 17342 bound_to 10162
  139.4966  144.4063  152.0128 LP  0  0  0  0  0  0  0  0  0  0  0  0  # atno 17343 bound_to 10162
  156.0006  130.5084  150.7648 LP  0  0  0  0  0  0  0  0  0  0  0  0  # atno 17370 bound_to 10713
  157.5026  131.0920  151.0296 LP  0  0  0  0  0  0  0  0  0  0  0  0  # atno 17371 bound_to 10713
  140.6157  134.0040  155.7596 LP  0  0  0  0  0  0  0  0  0  0  0  0  # atno 17394 bound_to 11000
  141.0925  133.9894  157.3214 LP  0  0  0  0  0  0  0  0  0  0  0  0  # atno 17395 bound_to 11000

$$$$
