AV-unprocessed.smi:542|AV-procd|sdf|2874|dock8
  -GOLD-   2262023363D 1   1.00000     0.00000
 Structure written by MMmdl.
 45 47  0  0  0  0  0  0  0  0  2 V2000
  155.4850  137.4167  159.0123 C   0  0  0  0  0  0  0  0  0  0  0  0
  155.1019  138.7679  158.8262 O   0  0  0  0  0  0  0  0  0  0  0  0
  155.5774  139.6135  159.8598 C   0  0  0  0  0  0  0  0  0  0  0  0
  154.7650  139.3383  161.1363 C   0  0  0  0  0  0  0  0  0  0  0  0
  155.0080  140.3328  162.1782 N   0  0  0  0  0  0  0  0  0  0  0  0
  154.4550  141.5718  162.3308 C   0  0  0  0  0  0  0  0  0  0  0  0
  153.5247  142.1252  161.4389 N   0  0  0  0  0  0  0  0  0  0  0  0
  152.2843  142.8336  161.7657 C   0  0  0  0  0  0  0  0  0  0  0  0
  152.1569  144.1648  161.0020 C   0  0  0  0  0  0  0  0  0  0  0  0
  152.2123  143.9307  159.4841 C   0  0  0  0  0  0  0  0  0  0  0  0
  152.1703  145.2486  158.6984 C   0  0  0  0  0  0  0  0  0  0  0  0
  153.4636  143.1019  159.1516 C   0  0  0  0  0  0  0  0  0  0  0  0
  153.5196  141.8230  160.0058 C   0  0  0  0  0  0  0  0  0  0  0  0
  154.8512  142.2136  163.4333 N   0  0  0  0  0  0  0  0  0  0  0  0
  155.7357  141.3266  164.0227 C   0  0  0  0  0  0  0  0  0  0  0  0
  155.8395  140.1835  163.2953 C   0  0  0  0  0  0  0  0  0  0  0  0
  156.6822  139.0325  163.6942 C   0  0  0  0  0  0  0  0  0  0  0  0
  156.7184  138.0055  163.0199 O   0  0  0  0  0  0  0  0  0  0  0  0
  157.3675  139.2702  164.8572 N   0  5  0  0  0  0  0  0  0  0  0  0
  157.2988  140.4171  165.6180 C   0  0  0  0  0  0  0  0  0  0  0  0
  157.9515  140.5502  166.6540 O   0  0  0  0  0  0  0  0  0  0  0  0
  156.4862  141.4471  165.2239 N   0  0  0  0  0  0  0  0  0  0  0  0
  156.3863  142.6756  166.0172 C   0  0  0  0  0  0  0  0  0  0  0  0
  155.1004  136.8102  158.1923 H   0  0  0  0  0  0  0  0  0  0  0  0
  155.0820  137.0176  159.9441 H   0  0  0  0  0  0  0  0  0  0  0  0
  156.5706  137.3131  159.0274 H   0  0  0  0  0  0  0  0  0  0  0  0
  156.6378  139.4287  160.0313 H   0  0  0  0  0  0  0  0  0  0  0  0
  155.4863  140.6563  159.5562 H   0  0  0  0  0  0  0  0  0  0  0  0
  153.7020  139.2948  160.9136 H   0  0  0  0  0  0  0  0  0  0  0  0
  155.0045  138.3511  161.5304 H   0  0  0  0  0  0  0  0  0  0  0  0
  151.4409  142.1881  161.5169 H   0  0  0  0  0  0  0  0  0  0  0  0
  152.2062  143.0078  162.8343 H   0  0  0  0  0  0  0  0  0  0  0  0
  151.2201  144.6539  161.2703 H   0  0  0  0  0  0  0  0  0  0  0  0
  152.9560  144.8438  161.3009 H   0  0  0  0  0  0  0  0  0  0  0  0
  151.3360  143.3456  159.2007 H   0  0  0  0  0  0  0  0  0  0  0  0
  153.0242  145.8822  158.9402 H   0  0  0  0  0  0  0  0  0  0  0  0
  151.2637  145.8106  158.9241 H   0  0  0  0  0  0  0  0  0  0  0  0
  152.1855  145.0649  157.6239 H   0  0  0  0  0  0  0  0  0  0  0  0
  153.4677  142.8382  158.0935 H   0  0  0  0  0  0  0  0  0  0  0  0
  154.3624  143.6948  159.3274 H   0  0  0  0  0  0  0  0  0  0  0  0
  154.4158  141.2610  159.7410 H   0  0  0  0  0  0  0  0  0  0  0  0
  152.6723  141.1757  159.7765 H   0  0  0  0  0  0  0  0  0  0  0  0
  156.0506  142.4504  167.0301 H   0  0  0  0  0  0  0  0  0  0  0  0
  155.6834  143.3934  165.5954 H   0  0  0  0  0  0  0  0  0  0  0  0
  157.3575  143.1681  166.0808 H   0  0  0  0  0  0  0  0  0  0  0  0
  1  2  1  0  0  0  0
  1 24  1  0  0  0  0
  1 25  1  0  0  0  0
  1 26  1  0  0  0  0
  2  3  1  0  0  0  0
  3  4  1  0  0  0  0
  3 27  1  0  0  0  0
  3 28  1  0  0  0  0
  4  5  1  0  0  0  0
  4 29  1  0  0  0  0
  4 30  1  0  0  0  0
  5 16  1  0  0  0  0
  5  6  1  0  0  0  0
  6  7  1  0  0  0  0
  6 14  2  0  0  0  0
  7 13  1  0  0  0  0
  7  8  1  0  0  0  0
  8  9  1  0  0  0  0
  8 31  1  0  0  0  0
  8 32  1  0  0  0  0
  9 10  1  0  0  0  0
  9 33  1  0  0  0  0
  9 34  1  0  0  0  0
 10 11  1  0  0  0  0
 10 12  1  0  0  0  0
 10 35  1  0  0  0  0
 11 36  1  0  0  0  0
 11 37  1  0  0  0  0
 11 38  1  0  0  0  0
 12 13  1  0  0  0  0
 12 39  1  0  0  0  0
 12 40  1  0  0  0  0
 13 41  1  0  0  0  0
 13 42  1  0  0  0  0
 14 15  1  0  0  0  0
 15 22  1  0  0  0  0
 15 16  2  0  0  0  0
 16 17  1  0  0  0  0
 17 18  2  0  0  0  0
 17 19  1  0  0  0  0
 19 20  1  0  0  0  0
 20 21  2  0  0  0  0
 20 22  1  0  0  0  0
 22 23  1  0  0  0  0
 23 43  1  0  0  0  0
 23 44  1  0  0  0  0
 23 45  1  0  0  0  0
M  CHG  1  19  -1
M  END
> <s_m_source_file>
AV-unprocessed.smi

> <i_m_source_file_index>
542

> <i_lp_mmshare_version>
43012

> <i_f3d_flags>
0

> <s_epik_input>
W0NIM11uMWMoPU8pW25IXWMoPU8pYyhjMTIpbihbQ0gyXVtDSDJdT1tDSDNdKWMobjIpTjNbQ0gyXVtDSDJdW0NIXShbQ0gzXSlbQ0gyXVtDSDJdMw==

> <s_epik_cmdline>
J2VwaWtfcHl0aG9uJywgJy1waCcsICc3LjAnLCAnLXRuJywgJzgnLCAnLW1hJywgJzIwMCcsICctbWV0YWxfYmluZGluZycsICctaW1hZScsICc8aW5maWxlLm1hZT4nLCAnLW9tYWUnLCAnPG91dGZpbGUubWFlPic=

> <r_lp_tautomer_probability>
1

> <r_epik_Ionization_Penalty>
5.11335

> <r_epik_Ionization_Penalty_Charging>
0.0783784

> <r_epik_Ionization_Penalty_Neutral>
5.03497

> <r_epik_State_Penalty>
5.01923

> <r_epik_Charging_Adjusted_Penalty>
5.09761

> <i_epik_Tot_Q>
-1

> <i_epik_Tot_abs_Q>
1

> <r_epik_Metal_State_Penalty>
1.13361

> <b_epik_Metal_Only>
1

> <s_lp_Force_Field>
OPLS_2005

> <r_lp_Energy>
42.8721

> <b_lp_Chiralities_Consistent>
1

> <s_lp_Variant>
AV-unprocessed.smi:542-2

> <Gold.Version>
5.8.1

> <Gold.Id.Protein>
6NUR|6NUR_protein|mol2

> <Gold.PLP.Fitness>
44.7828

> <Gold.PLP.PLP>
-43.4844

> <Gold.PLP.part.hbond>
-2.0000

> <Gold.PLP.part.metal>
0.0000

> <Gold.PLP.part.buried>
-1.1747

> <Gold.PLP.part.nonpolar>
-40.4662

> <Gold.PLP.part.repulsive>
0.0074

> <Gold.PLP.ligand.clash>
0.0000

> <Gold.PLP.ligand.torsion>
0.9143

> <Gold.PLP.Chemscore.Hbond>
1.0000

> <Gold.PLP.Chemscore.CHOScore>
0.0000

> <Gold.PLP.Chemscore.Metal>
0.0000

> <Gold.Chemscore.Hbonds>
donor molecule, donor type, donor heavy atom, donor atom, acceptor molecule, acceptor atom, score
      P1  H  7997  8010       L1     2  1.00

> <Gold.PLP.Chemscore.Internal.Correction>
0.1270

> <Gold.Rescore>
     Score         DG    S(hbond)    S(metal)    S(lipo)     H(rot)  DE(clash)    DE(int)     intcor
     15.18     -17.28       0.97        0.00     104.58       1.44       0.11       1.98       ----

> <Gold.Chemscore.Fitness>
15.1756

> <Gold.Chemscore.DG>
-17.2753

> <Gold.Chemscore.ZeroCoef>
-5.4800

> <Gold.Chemscore.Hbond>
0.9697

> <Gold.Chemscore.Metal>
0.0000

> <Gold.Chemscore.Lipo>
104.5785

> <Gold.Chemscore.Internal_Hbond>
0.0000

> <Gold.Chemscore.DEClash>
0.1148

> <Gold.Chemscore.DEInternal>
1.9849

> <Gold.Chemscore.Rot>
1.4372

> <Gold.Chemscore.Internal.Correction>
   9.000000E+99

> <Gold.Chemscore.Hbonds>
donor molecule, donor type, donor heavy atom, donor atom, acceptor molecule, acceptor atom, score
      P1  H  7997  8010       L1     2  0.25

> <Gold.Chemscore.Hbond.Weighted>
-3.2389

> <Gold.Chemscore.Metal.Weighted>
-0.0000

> <Gold.Chemscore.Lipo.Weighted>
-12.2357

> <Gold.Chemscore.Internal_Hbond.Weighted>
0.0000

> <Gold.Chemscore.DEClash.Weighted>
0.1148

> <Gold.Chemscore.DEInternal.Weighted>
1.9849

> <Gold.Chemscore.Rot.Weighted>
3.6793

> <Gold.Chemscore.Internal.Correction.Weighted>
   9.000000E+99

> <Gold.Protein.RotatedTorsions>
[ 6907 6896 6895 6894 ] final   21.73 input  -60.11 | X-H torsion
[ 7974 7965 7964 7962 ] final -159.52 input  175.53 | X-H torsion
[ 8008 7997 7996 7995 ] final   -2.81 input   59.86 | X-H torsion
[ 10167 10162 10161 10158 ] final  -51.02 input  -65.29 | X-H torsion
[ 10718 10713 10712 10709 ] final   94.58 input   66.30 | X-H torsion
[ 10763 10752 10751 10750 ] final  -19.05 input  -60.55 | X-H torsion
[ 11005 11000 10999 10996 ] final -173.99 input  -57.11 | X-H torsion

> <Gold.Protein.ActiveResidues>
 VAL166  LYS551  ARG553  GLY616  TRP617  ASP618  TYR619  PRO620  LYS621  CYS622 
 ASP623  PHE694  ASN695  SER759  ASP760  ASP761  ALA762  ILE779  LEU786  VAL792 
 PHE793  MET794  SER795  GLU796  ALA797  LYS798  CYS799  TRP800  GLU811  SER814 

> <Gold.Protein.RotatedAtoms>
  151.9163  135.0317  160.0518 H   0  0  0  0  0  0  0  0  0  0  0  0  # atno 6907 bound_to 6896
  152.2237  133.4999  159.5185 H   0  0  0  0  0  0  0  0  0  0  0  0  # atno 6908 bound_to 6896
  150.7006  134.1225  159.4082 H   0  0  0  0  0  0  0  0  0  0  0  0  # atno 6909 bound_to 6896
  144.7462  140.3673  143.6083 H   0  0  0  0  0  0  0  0  0  0  0  0  # atno 7974 bound_to 7965
  154.6317  140.2525  155.7426 H   0  0  0  0  0  0  0  0  0  0  0  0  # atno 8008 bound_to 7997
  156.2483  140.2905  156.0592 H   0  0  0  0  0  0  0  0  0  0  0  0  # atno 8009 bound_to 7997
  155.1734  140.0387  157.2858 H   0  0  0  0  0  0  0  0  0  0  0  0  # atno 8010 bound_to 7997
  140.6609  143.2635  151.4443 H   0  0  0  0  0  0  0  0  0  0  0  0  # atno 10167 bound_to 10162
  157.6946  131.0517  150.4208 H   0  0  0  0  0  0  0  0  0  0  0  0  # atno 10718 bound_to 10713
  153.5988  135.7000  153.5393 H   0  0  0  0  0  0  0  0  0  0  0  0  # atno 10763 bound_to 10752
  153.3115  135.4100  155.1339 H   0  0  0  0  0  0  0  0  0  0  0  0  # atno 10764 bound_to 10752
  154.8586  135.3673  154.5523 H   0  0  0  0  0  0  0  0  0  0  0  0  # atno 10765 bound_to 10752
  140.4796  134.6088  157.4914 H   0  0  0  0  0  0  0  0  0  0  0  0  # atno 11005 bound_to 11000
  145.7114  139.1686  143.2536 LP  0  0  0  0  0  0  0  0  0  0  0  0  # atno 17320 bound_to 7965
  146.1344  140.7142  142.9397 LP  0  0  0  0  0  0  0  0  0  0  0  0  # atno 17321 bound_to 7965
  139.5843  144.1640  152.2009 LP  0  0  0  0  0  0  0  0  0  0  0  0  # atno 17342 bound_to 10162
  140.0974  144.5568  150.7012 LP  0  0  0  0  0  0  0  0  0  0  0  0  # atno 17343 bound_to 10162
  156.4583  130.4026  149.6592 LP  0  0  0  0  0  0  0  0  0  0  0  0  # atno 17370 bound_to 10713
  156.3716  130.7533  151.2517 LP  0  0  0  0  0  0  0  0  0  0  0  0  # atno 17371 bound_to 10713
  139.9835  134.7100  155.9817 LP  0  0  0  0  0  0  0  0  0  0  0  0  # atno 17394 bound_to 11000
  141.1538  133.6545  156.4095 LP  0  0  0  0  0  0  0  0  0  0  0  0  # atno 17395 bound_to 11000

$$$$
