AV-unprocessed.smi:61|AV-procd|sdf|599|dock3
  -GOLD-   2262016493D 1   1.00000     0.00000
 Structure written by MMmdl.
 29 30  0  0  0  0  0  0  0  0  2 V2000
  146.8625  137.8519  152.9432 N   0  0  0  0  0  0  0  0  0  0  0  0
  145.8159  137.0141  152.6441 C   0  0  0  0  0  0  0  0  0  0  0  0
  144.5828  137.3827  153.0065 N   0  0  0  0  0  0  0  0  0  0  0  0
  143.5498  136.5676  152.7167 C   0  0  0  0  0  0  0  0  0  0  0  0
  143.7426  135.3473  152.0482 C   0  0  0  0  0  0  0  0  0  0  0  0
  145.0694  135.0150  151.6964 C   0  0  0  0  0  0  0  0  0  0  0  0
  145.4182  133.8332  151.0269 N   0  0  0  0  0  0  0  0  0  0  0  0
  144.3140  133.1966  150.3151 C   0  0  0  0  0  0  0  0  0  0  0  0
  144.4612  131.6813  150.5204 C   0  0  0  0  0  0  0  0  0  0  0  0
  145.8796  131.5088  151.0589 C   0  0  0  0  0  0  0  0  0  0  0  0
  146.0792  132.8125  151.8317 C   0  0  1  0  0  0  0  0  0  0  0  0
  147.5344  133.1654  152.2026 C   0  0  0  0  0  0  0  0  0  0  0  0
  148.2818  132.0144  152.5380 O   0  0  0  0  0  0  0  0  0  0  0  0
  146.0795  135.8664  152.0041 N   0  3  0  0  0  0  0  0  0  0  0  0
  147.8064  137.6030  152.6840 H   0  0  0  0  0  0  0  0  0  0  0  0
  146.7024  138.7259  153.4228 H   0  0  0  0  0  0  0  0  0  0  0  0
  142.5653  136.8918  153.0197 H   0  0  0  0  0  0  0  0  0  0  0  0
  142.9081  134.7019  151.8159 H   0  0  0  0  0  0  0  0  0  0  0  0
  143.3364  133.5464  150.6499 H   0  0  0  0  0  0  0  0  0  0  0  0
  144.4052  133.4438  149.2571 H   0  0  0  0  0  0  0  0  0  0  0  0
  143.7423  131.3429  151.2675 H   0  0  0  0  0  0  0  0  0  0  0  0
  144.2849  131.1126  149.6068 H   0  0  0  0  0  0  0  0  0  0  0  0
  145.9937  130.6221  151.6830 H   0  0  0  0  0  0  0  0  0  0  0  0
  146.5797  131.4315  150.2261 H   0  0  0  0  0  0  0  0  0  0  0  0
  145.5255  132.7171  152.7666 H   0  0  0  0  0  0  0  0  0  0  0  0
  148.0314  133.6949  151.3891 H   0  0  0  0  0  0  0  0  0  0  0  0
  147.5411  133.8342  153.0635 H   0  0  0  0  0  0  0  0  0  0  0  0
  148.6253  131.6350  151.7431 H   0  0  0  0  0  0  0  0  0  0  0  0
  147.0362  135.6233  151.7462 H   0  0  0  0  0  0  0  0  0  0  0  0
  1  2  1  0  0  0  0
  1 15  1  0  0  0  0
  1 16  1  0  0  0  0
  2 14  1  0  0  0  0
  2  3  2  0  0  0  0
  3  4  1  0  0  0  0
  4  5  2  0  0  0  0
  4 17  1  0  0  0  0
  5  6  1  0  0  0  0
  5 18  1  0  0  0  0
  6  7  1  0  0  0  0
  6 14  2  0  0  0  0
  7 11  1  0  0  0  0
  7  8  1  0  0  0  0
  8  9  1  0  0  0  0
  8 19  1  0  0  0  0
  8 20  1  0  0  0  0
  9 10  1  0  0  0  0
  9 21  1  0  0  0  0
  9 22  1  0  0  0  0
 10 11  1  0  0  0  0
 10 23  1  0  0  0  0
 10 24  1  0  0  0  0
 11 12  1  0  0  0  0
 11 25  1  0  0  0  0
 12 13  1  0  0  0  0
 12 26  1  0  0  0  0
 12 27  1  0  0  0  0
 13 28  1  0  0  0  0
 14 29  1  0  0  0  0
M  CHG  1  14   1
M  END
> <s_m_source_file>
AV-unprocessed.smi

> <i_m_source_file_index>
61

> <i_lp_mmshare_version>
43012

> <i_f3d_flags>
0

> <s_epik_input>
W05IMl1jMW5bY0hdW2NIXWMobjEpTjJbQ0gyXVtDSDJdW0NIMl1bQ0BIXTJbQ0gyXVtPSF0=

> <s_epik_cmdline>
J2VwaWtfcHl0aG9uJywgJy1waCcsICc3LjAnLCAnLXRuJywgJzgnLCAnLW1hJywgJzIwMCcsICctbWV0YWxfYmluZGluZycsICctaW1hZScsICc8aW5maWxlLm1hZT4nLCAnLW9tYWUnLCAnPG91dGZpbGUubWFlPic=

> <r_lp_tautomer_probability>
0.424989

> <r_epik_Ionization_Penalty>
0.696162

> <r_epik_Ionization_Penalty_Charging>
0.696158

> <r_epik_Ionization_Penalty_Neutral>
4.43138e-06

> <r_epik_State_Penalty>
0.906374

> <r_epik_Charging_Adjusted_Penalty>
1.60253

> <i_epik_Tot_Q>
1

> <i_epik_Tot_abs_Q>
1

> <r_epik_Metal_State_Penalty>
1.16703

> <b_epik_Metal_Only>
0

> <s_lp_Force_Field>
OPLS_2005

> <r_lp_Energy>
33.2177

> <b_lp_Chiralities_Consistent>
1

> <s_lp_Variant>
AV-unprocessed.smi:61-5

> <Gold.Version>
5.8.1

> <Gold.Id.Protein>
6NUR|6NUR_protein|mol2

> <Gold.PLP.Fitness>
37.9454

> <Gold.PLP.PLP>
-25.3146

> <Gold.PLP.part.hbond>
-3.0000

> <Gold.PLP.part.metal>
0.0000

> <Gold.PLP.part.buried>
-5.2183

> <Gold.PLP.part.nonpolar>
-18.3972

> <Gold.PLP.part.repulsive>
0.8962

> <Gold.PLP.ligand.clash>
0.0000

> <Gold.PLP.ligand.torsion>
0.6797

> <Gold.PLP.Chemscore.Hbond>
4.6480

> <Gold.PLP.Chemscore.CHOScore>
0.0000

> <Gold.PLP.Chemscore.Metal>
0.0000

> <Gold.Chemscore.Hbonds>
donor molecule, donor type, donor heavy atom, donor atom, acceptor molecule, acceptor atom, score
      L1  H     1    15       P1  7948  1.82
      L1  H    13    28       P1 10747  1.00
      L1  H    14    29       P1  7948  1.79

> <Gold.PLP.Chemscore.Internal.Correction>
0.0461

> <Gold.Rescore>
     Score         DG    S(hbond)    S(metal)    S(lipo)     H(rot)  DE(clash)    DE(int)     intcor
     14.76     -15.42       2.73        0.00      50.30       1.98       0.01       0.65       ----

> <Gold.Chemscore.Fitness>
14.7570

> <Gold.Chemscore.DG>
-15.4178

> <Gold.Chemscore.ZeroCoef>
-5.4800

> <Gold.Chemscore.Hbond>
2.7340

> <Gold.Chemscore.Metal>
0.0000

> <Gold.Chemscore.Lipo>
50.2964

> <Gold.Chemscore.Internal_Hbond>
0.0000

> <Gold.Chemscore.DEClash>
0.0077

> <Gold.Chemscore.DEInternal>
0.6531

> <Gold.Chemscore.Rot>
1.9838

> <Gold.Chemscore.Internal.Correction>
   9.000000E+99

> <Gold.Chemscore.Hbonds>
donor molecule, donor type, donor heavy atom, donor atom, acceptor molecule, acceptor atom, score
      L1  H     1    15       P1  7948  0.88
      L1  H    13    28       P1 10747  0.99
      L1  H    14    29       P1  7948  0.86

> <Gold.Chemscore.Hbond.Weighted>
-9.1317

> <Gold.Chemscore.Metal.Weighted>
-0.0000

> <Gold.Chemscore.Lipo.Weighted>
-5.8847

> <Gold.Chemscore.Internal_Hbond.Weighted>
0.0000

> <Gold.Chemscore.DEClash.Weighted>
0.0077

> <Gold.Chemscore.DEInternal.Weighted>
0.6531

> <Gold.Chemscore.Rot.Weighted>
5.0786

> <Gold.Chemscore.Internal.Correction.Weighted>
   9.000000E+99

> <Gold.Protein.RotatedTorsions>
[ 6907 6896 6895 6894 ] final   90.72 input  -60.11 | X-H torsion
[ 7974 7965 7964 7962 ] final -142.26 input  175.53 | X-H torsion
[ 8008 7997 7996 7995 ] final -135.93 input   59.86 | X-H torsion
[ 10167 10162 10161 10158 ] final   41.11 input  -65.29 | X-H torsion
[ 10718 10713 10712 10709 ] final  141.32 input   66.30 | X-H torsion
[ 10763 10752 10751 10750 ] final   75.92 input  -60.55 | X-H torsion
[ 11005 11000 10999 10996 ] final -116.23 input  -57.11 | X-H torsion

> <Gold.Protein.ActiveResidues>
 VAL166  LYS551  ARG553  GLY616  TRP617  ASP618  TYR619  PRO620  LYS621  CYS622 
 ASP623  PHE694  ASN695  SER759  ASP760  ASP761  ALA762  ILE779  LEU786  VAL792 
 PHE793  MET794  SER795  GLU796  ALA797  LYS798  CYS799  TRP800  GLU811  SER814 

> <Gold.Protein.RotatedAtoms>
  152.5446  134.1767  159.8618 H   0  0  0  0  0  0  0  0  0  0  0  0  # atno 6907 bound_to 6896
  151.1773  133.4740  159.2601 H   0  0  0  0  0  0  0  0  0  0  0  0  # atno 6908 bound_to 6896
  151.1214  135.0093  159.8595 H   0  0  0  0  0  0  0  0  0  0  0  0  # atno 6909 bound_to 6896
  144.8457  140.5980  143.5423 H   0  0  0  0  0  0  0  0  0  0  0  0  # atno 7974 bound_to 7965
  155.3868  140.0497  157.3042 H   0  0  0  0  0  0  0  0  0  0  0  0  # atno 8008 bound_to 7997
  154.5056  140.2173  155.9220 H   0  0  0  0  0  0  0  0  0  0  0  0  # atno 8009 bound_to 7997
  156.1521  140.3134  155.8670 H   0  0  0  0  0  0  0  0  0  0  0  0  # atno 8010 bound_to 7997
  140.3675  144.2148  150.6134 H   0  0  0  0  0  0  0  0  0  0  0  0  # atno 10167 bound_to 10162
  157.3933  131.1007  151.0625 H   0  0  0  0  0  0  0  0  0  0  0  0  # atno 10718 bound_to 10713
  153.0689  135.4970  154.8260 H   0  0  0  0  0  0  0  0  0  0  0  0  # atno 10763 bound_to 10752
  154.6993  135.2999  154.9367 H   0  0  0  0  0  0  0  0  0  0  0  0  # atno 10764 bound_to 10752
  154.0096  135.6756  153.4817 H   0  0  0  0  0  0  0  0  0  0  0  0  # atno 10765 bound_to 10752
  141.0436  133.9797  157.2954 H   0  0  0  0  0  0  0  0  0  0  0  0  # atno 11005 bound_to 11000
  145.4602  139.1513  143.3870 LP  0  0  0  0  0  0  0  0  0  0  0  0  # atno 17320 bound_to 7965
  146.2742  140.4732  142.8802 LP  0  0  0  0  0  0  0  0  0  0  0  0  # atno 17321 bound_to 7965
  140.5066  143.2302  151.8599 LP  0  0  0  0  0  0  0  0  0  0  0  0  # atno 17342 bound_to 10162
  139.4807  144.4998  151.9075 LP  0  0  0  0  0  0  0  0  0  0  0  0  # atno 17343 bound_to 10162
  157.1651  130.6242  149.5623 LP  0  0  0  0  0  0  0  0  0  0  0  0  # atno 17370 bound_to 10713
  155.9804  130.4804  150.6769 LP  0  0  0  0  0  0  0  0  0  0  0  0  # atno 17371 bound_to 10713
  139.9294  135.0200  156.8349 LP  0  0  0  0  0  0  0  0  0  0  0  0  # atno 17394 bound_to 11000
  140.6189  134.0013  155.7609 LP  0  0  0  0  0  0  0  0  0  0  0  0  # atno 17395 bound_to 11000

$$$$
