AV-unprocessed.smi:2563|AV-procd|sdf|10056|dock4
  -GOLD-   2272014 93D 1   1.00000     0.00000
 Structure written by MMmdl.
 35 36  0  0  0  0  0  0  0  0  2 V2000
  152.2505  144.1877  157.8843 C   0  0  0  0  0  0  0  0  0  0  0  0
  151.2368  143.0561  158.0985 C   0  0  0  0  0  0  0  0  0  0  0  0
  151.8341  141.7366  157.9045 N   0  0  0  0  0  0  0  0  0  0  0  0
  151.3446  140.8966  156.8105 C   0  0  0  0  0  0  0  0  0  0  0  0
  150.1883  141.5538  156.0358 C   0  0  2  0  0  0  0  0  0  0  0  0
  148.8922  141.5889  156.8686 C   0  0  0  0  0  0  0  0  0  0  0  0
  147.7905  142.1618  156.0700 N   0  3  0  0  0  0  0  0  0  0  0  0
  147.6087  141.4378  154.7968 C   0  0  0  0  0  0  0  0  0  0  0  0
  148.9393  141.3809  154.0278 C   0  0  0  0  0  0  0  0  0  0  0  0
  149.9399  140.7952  154.8540 O   0  0  0  0  0  0  0  0  0  0  0  0
  152.8635  141.2707  158.7585 C   0  0  0  0  0  0  0  0  0  0  0  0
  153.2804  142.0011  159.8983 C   0  0  0  0  0  0  0  0  0  0  0  0
  154.3044  141.4601  160.6947 C   0  0  0  0  0  0  0  0  0  0  0  0
  154.8464  140.2250  160.3012 C   0  0  0  0  0  0  0  0  0  0  0  0
  154.4198  139.5636  159.2042 N   0  0  0  0  0  0  0  0  0  0  0  0
  153.4464  140.0824  158.4489 N   0  0  0  0  0  0  0  0  0  0  0  0
  151.7764  145.1600  158.0187 H   0  0  0  0  0  0  0  0  0  0  0  0
  152.6676  144.1591  156.8772 H   0  0  0  0  0  0  0  0  0  0  0  0
  153.0781  144.1223  158.5908 H   0  0  0  0  0  0  0  0  0  0  0  0
  150.7688  143.1329  159.0796 H   0  0  0  0  0  0  0  0  0  0  0  0
  150.4225  143.1770  157.3838 H   0  0  0  0  0  0  0  0  0  0  0  0
  152.1668  140.6804  156.1272 H   0  0  0  0  0  0  0  0  0  0  0  0
  151.0342  139.9279  157.2042 H   0  0  0  0  0  0  0  0  0  0  0  0
  150.4645  142.5738  155.7631 H   0  0  0  0  0  0  0  0  0  0  0  0
  148.6175  140.5834  157.1912 H   0  0  0  0  0  0  0  0  0  0  0  0
  149.0293  142.1899  157.7681 H   0  0  0  0  0  0  0  0  0  0  0  0
  146.9336  142.1265  156.6038 H   0  0  0  0  0  0  0  0  0  0  0  0
  147.2516  140.4288  155.0066 H   0  0  0  0  0  0  0  0  0  0  0  0
  146.8413  141.9346  154.2026 H   0  0  0  0  0  0  0  0  0  0  0  0
  148.8273  140.7784  153.1264 H   0  0  0  0  0  0  0  0  0  0  0  0
  149.2509  142.3768  153.7092 H   0  0  0  0  0  0  0  0  0  0  0  0
  152.8497  142.9522  160.1707 H   0  0  0  0  0  0  0  0  0  0  0  0
  154.6621  141.9740  161.5744 H   0  0  0  0  0  0  0  0  0  0  0  0
  155.6354  139.7597  160.8734 H   0  0  0  0  0  0  0  0  0  0  0  0
  148.0107  143.1260  155.8641 H   0  0  0  0  0  0  0  0  0  0  0  0
  1  2  1  0  0  0  0
  1 17  1  0  0  0  0
  1 18  1  0  0  0  0
  1 19  1  0  0  0  0
  2  3  1  0  0  0  0
  2 20  1  0  0  0  0
  2 21  1  0  0  0  0
  3  4  1  0  0  0  0
  3 11  1  0  0  0  0
  4  5  1  0  0  0  0
  4 22  1  0  0  0  0
  4 23  1  0  0  0  0
  5 10  1  0  0  0  0
  5  6  1  0  0  0  0
  5 24  1  0  0  0  0
  6  7  1  0  0  0  0
  6 25  1  0  0  0  0
  6 26  1  0  0  0  0
  7  8  1  0  0  0  0
  7 27  1  0  0  0  0
  7 35  1  0  0  0  0
  8  9  1  0  0  0  0
  8 28  1  0  0  0  0
  8 29  1  0  0  0  0
  9 10  1  0  0  0  0
  9 30  1  0  0  0  0
  9 31  1  0  0  0  0
 11 16  1  0  0  0  0
 11 12  2  0  0  0  0
 12 13  1  0  0  0  0
 12 32  1  0  0  0  0
 13 14  2  0  0  0  0
 13 33  1  0  0  0  0
 14 15  1  0  0  0  0
 14 34  1  0  0  0  0
 15 16  2  0  0  0  0
M  CHG  1   7   1
M  END
> <s_m_source_file>
AV-unprocessed.smi

> <i_m_source_file_index>
2563

> <i_lp_mmshare_version>
43012

> <i_f3d_flags>
0

> <s_epik_input>
bjFuW2NIXVtjSF1bY0hdYzFOKFtDSDJdW0NIM10pW0NIMl1bQ0BASF0yW0NIMl1bTkhdW0NIMl1bQ0gyXU8y

> <s_epik_cmdline>
J2VwaWtfcHl0aG9uJywgJy1waCcsICc3LjAnLCAnLXRuJywgJzgnLCAnLW1hJywgJzIwMCcsICctbWV0YWxfYmluZGluZycsICctaW1hZScsICc8aW5maWxlLm1hZT4nLCAnLW9tYWUnLCAnPG91dGZpbGUubWFlPic=

> <r_lp_tautomer_probability>
1

> <r_epik_Ionization_Penalty>
0.0472862

> <r_epik_Ionization_Penalty_Charging>
0.0127794

> <r_epik_Ionization_Penalty_Neutral>
0.0345068

> <r_epik_State_Penalty>
0.0614045

> <r_epik_Charging_Adjusted_Penalty>
0.0741839

> <i_epik_Tot_Q>
1

> <i_epik_Tot_abs_Q>
1

> <r_epik_Metal_State_Penalty>
0.0547208

> <b_epik_Metal_Only>
0

> <s_lp_Force_Field>
OPLS_2005

> <r_lp_Energy>
24.8207

> <b_lp_Chiralities_Consistent>
1

> <s_lp_Variant>
AV-unprocessed.smi:2563-1

> <Gold.Version>
5.8.1

> <Gold.Id.Protein>
6NUR|6NUR_protein|mol2

> <Gold.PLP.Fitness>
43.0609

> <Gold.PLP.PLP>
-33.5513

> <Gold.PLP.part.hbond>
-3.2485

> <Gold.PLP.part.metal>
0.0000

> <Gold.PLP.part.buried>
-0.7116

> <Gold.PLP.part.nonpolar>
-29.2741

> <Gold.PLP.part.repulsive>
0.1348

> <Gold.PLP.ligand.clash>
0.0000

> <Gold.PLP.ligand.torsion>
0.0950

> <Gold.PLP.Chemscore.Hbond>
3.2257

> <Gold.PLP.Chemscore.CHOScore>
0.0000

> <Gold.PLP.Chemscore.Metal>
0.0000

> <Gold.Chemscore.Hbonds>
donor molecule, donor type, donor heavy atom, donor atom, acceptor molecule, acceptor atom, score
      L1  H     7    35       P1  8028  2.00
      P1  H  7989  7998       L1    10  0.50
      P1  H  7997  8010       L1    16  0.51

> <Gold.PLP.Chemscore.Internal.Correction>
0.0227

> <Gold.Rescore>
     Score         DG    S(hbond)    S(metal)    S(lipo)     H(rot)  DE(clash)    DE(int)     intcor
     13.29     -14.20       0.82        0.00      81.93       1.40       0.60       0.31       ----

> <Gold.Chemscore.Fitness>
13.2920

> <Gold.Chemscore.DG>
-14.1967

> <Gold.Chemscore.ZeroCoef>
-5.4800

> <Gold.Chemscore.Hbond>
0.8155

> <Gold.Chemscore.Metal>
0.0000

> <Gold.Chemscore.Lipo>
81.9265

> <Gold.Chemscore.Internal_Hbond>
0.0000

> <Gold.Chemscore.DEClash>
0.5989

> <Gold.Chemscore.DEInternal>
0.3058

> <Gold.Chemscore.Rot>
1.4033

> <Gold.Chemscore.Internal.Correction>
   9.000000E+99

> <Gold.Chemscore.Hbonds>
donor molecule, donor type, donor heavy atom, donor atom, acceptor molecule, acceptor atom, score
      L1  H     7    35       P1  8028  0.60
      P1  H  7989  7998       L1    10  0.09
      P1  H  7997  8010       L1    16  0.03

> <Gold.Chemscore.Hbond.Weighted>
-2.7237

> <Gold.Chemscore.Metal.Weighted>
-0.0000

> <Gold.Chemscore.Lipo.Weighted>
-9.5854

> <Gold.Chemscore.Internal_Hbond.Weighted>
0.0000

> <Gold.Chemscore.DEClash.Weighted>
0.5989

> <Gold.Chemscore.DEInternal.Weighted>
0.3058

> <Gold.Chemscore.Rot.Weighted>
3.5924

> <Gold.Chemscore.Internal.Correction.Weighted>
   9.000000E+99

> <Gold.Protein.RotatedTorsions>
[ 6907 6896 6895 6894 ] final   16.78 input  -60.11 | X-H torsion
[ 7974 7965 7964 7962 ] final   36.59 input  175.53 | X-H torsion
[ 8008 7997 7996 7995 ] final   40.53 input   59.86 | X-H torsion
[ 10167 10162 10161 10158 ] final  -96.64 input  -65.29 | X-H torsion
[ 10718 10713 10712 10709 ] final  164.18 input   66.30 | X-H torsion
[ 10763 10752 10751 10750 ] final -101.70 input  -60.55 | X-H torsion
[ 11005 11000 10999 10996 ] final -171.85 input  -57.11 | X-H torsion

> <Gold.Protein.ActiveResidues>
 VAL166  LYS551  ARG553  GLY616  TRP617  ASP618  TYR619  PRO620  LYS621  CYS622 
 ASP623  PHE694  ASN695  SER759  ASP760  ASP761  ALA762  ILE779  LEU786  VAL792 
 PHE793  MET794  SER795  GLU796  ALA797  LYS798  CYS799  TRP800  GLU811  SER814 

> <Gold.Protein.RotatedAtoms>
  151.8393  135.0595  160.0445 H   0  0  0  0  0  0  0  0  0  0  0  0  # atno 6907 bound_to 6896
  152.2821  133.5476  159.5512 H   0  0  0  0  0  0  0  0  0  0  0  0  # atno 6908 bound_to 6896
  150.7194  134.0465  159.3826 H   0  0  0  0  0  0  0  0  0  0  0  0  # atno 6909 bound_to 6896
  146.1200  139.5999  142.9296 H   0  0  0  0  0  0  0  0  0  0  0  0  # atno 7974 bound_to 7965
  155.2546  140.3355  155.4279 H   0  0  0  0  0  0  0  0  0  0  0  0  # atno 8008 bound_to 7997
  156.2201  140.1805  156.7541 H   0  0  0  0  0  0  0  0  0  0  0  0  # atno 8009 bound_to 7997
  154.5812  140.0653  156.9091 H   0  0  0  0  0  0  0  0  0  0  0  0  # atno 8010 bound_to 7997
  140.2917  143.3217  152.0339 H   0  0  0  0  0  0  0  0  0  0  0  0  # atno 10167 bound_to 10162
  157.0979  131.0435  151.2510 H   0  0  0  0  0  0  0  0  0  0  0  0  # atno 10718 bound_to 10713
  154.7678  135.4888  153.9588 H   0  0  0  0  0  0  0  0  0  0  0  0  # atno 10763 bound_to 10752
  153.1329  135.6756  153.9156 H   0  0  0  0  0  0  0  0  0  0  0  0  # atno 10764 bound_to 10752
  153.8854  135.3127  155.3425 H   0  0  0  0  0  0  0  0  0  0  0  0  # atno 10765 bound_to 10752
  140.5036  134.5870  157.4996 H   0  0  0  0  0  0  0  0  0  0  0  0  # atno 11005 bound_to 11000
  145.5486  141.0415  143.2291 LP  0  0  0  0  0  0  0  0  0  0  0  0  # atno 17320 bound_to 7965
  144.7588  139.7007  143.7243 LP  0  0  0  0  0  0  0  0  0  0  0  0  # atno 17321 bound_to 7965
  139.4936  144.6520  151.6654 LP  0  0  0  0  0  0  0  0  0  0  0  0  # atno 17342 bound_to 10162
  140.5727  144.0082  150.6225 LP  0  0  0  0  0  0  0  0  0  0  0  0  # atno 17343 bound_to 10162
  157.4665  130.7684  149.7284 LP  0  0  0  0  0  0  0  0  0  0  0  0  # atno 17370 bound_to 10713
  155.9881  130.3962  150.3134 LP  0  0  0  0  0  0  0  0  0  0  0  0  # atno 17371 bound_to 10713
  139.9699  134.7310  156.0062 LP  0  0  0  0  0  0  0  0  0  0  0  0  # atno 17394 bound_to 11000
  141.1423  133.6562  156.3765 LP  0  0  0  0  0  0  0  0  0  0  0  0  # atno 17395 bound_to 11000

$$$$
