AV-unprocessed.smi:1476|AV-procd|sdf|5980|dock2
  -GOLD-   22720 6 73D 1   1.00000     0.00000
 Structure written by MMmdl.
 41 42  0  0  0  0  0  0  0  0  1 V2000
  149.9589  139.3375  157.8281 C   0  0  0  0  0  0  0  0  0  0  0  0
  150.9735  140.6344  157.0087 S   0  0  0  0  0  0  0  0  0  0  0  0
  150.5538  141.9432  157.5327 O   0  0  0  0  0  0  0  0  0  0  0  0
  152.3864  140.2341  157.0946 O   0  0  0  0  0  0  0  0  0  0  0  0
  150.4974  140.5528  155.3367 N   0  0  0  0  0  0  0  0  0  0  0  0
  150.6562  139.2930  154.5839 C   0  0  0  0  0  0  0  0  0  0  0  0
  149.3213  138.5405  154.4476 C   0  0  0  0  0  0  0  0  0  0  0  0
  148.2287  139.4299  153.8336 C   0  0  0  0  0  0  0  0  0  0  0  0
  146.9005  138.6566  153.6900 C   0  0  0  0  0  0  0  0  0  0  0  0
  147.0495  137.4140  152.9387 N   0  0  0  0  0  0  0  0  0  0  0  0
  146.0575  136.5520  152.6718 C   0  0  0  0  0  0  0  0  0  0  0  0
  144.8942  136.7236  153.0372 O   0  0  0  0  0  0  0  0  0  0  0  0
  146.5044  135.4995  151.9639 N   0  0  0  0  0  0  0  0  0  0  0  0
  145.7724  134.3679  151.5151 C   0  0  0  0  0  0  0  0  0  0  0  0
  146.5592  133.3040  151.0179 C   0  0  0  0  0  0  0  0  0  0  0  0
  145.9282  132.1344  150.5513 C   0  0  0  0  0  0  0  0  0  0  0  0
  144.5248  132.0578  150.5952 C   0  0  0  0  0  0  0  0  0  0  0  0
  143.8163  133.1611  151.1057 C   0  0  0  0  0  0  0  0  0  0  0  0
  144.4188  134.2832  151.5524 N   0  0  0  0  0  0  0  0  0  0  0  0
  148.0908  140.7027  154.6896 C   0  0  0  0  0  0  0  0  0  0  0  0
  149.4339  141.4416  154.8291 C   0  0  0  0  0  0  0  0  0  0  0  0
  150.1981  139.3182  158.8909 H   0  0  0  0  0  0  0  0  0  0  0  0
  150.1841  138.3634  157.3979 H   0  0  0  0  0  0  0  0  0  0  0  0
  148.9010  139.5638  157.7083 H   0  0  0  0  0  0  0  0  0  0  0  0
  151.0423  139.5320  153.5923 H   0  0  0  0  0  0  0  0  0  0  0  0
  151.4030  138.6575  155.0588 H   0  0  0  0  0  0  0  0  0  0  0  0
  149.4698  137.6564  153.8267 H   0  0  0  0  0  0  0  0  0  0  0  0
  148.9974  138.1751  155.4216 H   0  0  0  0  0  0  0  0  0  0  0  0
  148.5611  139.7246  152.8369 H   0  0  0  0  0  0  0  0  0  0  0  0
  146.4817  138.4377  154.6738 H   0  0  0  0  0  0  0  0  0  0  0  0
  146.1635  139.2743  153.1762 H   0  0  0  0  0  0  0  0  0  0  0  0
  147.9751  137.1964  152.5995 H   0  0  0  0  0  0  0  0  0  0  0  0
  147.4848  135.5038  151.7245 H   0  0  0  0  0  0  0  0  0  0  0  0
  147.6368  133.3787  150.9921 H   0  0  0  0  0  0  0  0  0  0  0  0
  146.5113  131.3105  150.1669 H   0  0  0  0  0  0  0  0  0  0  0  0
  144.0050  131.1773  150.2474 H   0  0  0  0  0  0  0  0  0  0  0  0
  142.7378  133.1424  151.1572 H   0  0  0  0  0  0  0  0  0  0  0  0
  147.3623  141.3803  154.2439 H   0  0  0  0  0  0  0  0  0  0  0  0
  147.7013  140.4453  155.6738 H   0  0  0  0  0  0  0  0  0  0  0  0
  149.3231  142.3098  155.4780 H   0  0  0  0  0  0  0  0  0  0  0  0
  149.7418  141.8238  153.8551 H   0  0  0  0  0  0  0  0  0  0  0  0
  1  2  1  0  0  0  0
  1 22  1  0  0  0  0
  1 23  1  0  0  0  0
  1 24  1  0  0  0  0
  2  3  2  0  0  0  0
  2  4  2  0  0  0  0
  2  5  1  0  0  0  0
  5 21  1  0  0  0  0
  5  6  1  0  0  0  0
  6  7  1  0  0  0  0
  6 25  1  0  0  0  0
  6 26  1  0  0  0  0
  7  8  1  0  0  0  0
  7 27  1  0  0  0  0
  7 28  1  0  0  0  0
  8  9  1  0  0  0  0
  8 20  1  0  0  0  0
  8 29  1  0  0  0  0
  9 10  1  0  0  0  0
  9 30  1  0  0  0  0
  9 31  1  0  0  0  0
 10 11  1  0  0  0  0
 10 32  1  0  0  0  0
 11 12  2  0  0  0  0
 11 13  1  0  0  0  0
 13 14  1  0  0  0  0
 13 33  1  0  0  0  0
 14 19  1  0  0  0  0
 14 15  2  0  0  0  0
 15 16  1  0  0  0  0
 15 34  1  0  0  0  0
 16 17  2  0  0  0  0
 16 35  1  0  0  0  0
 17 18  1  0  0  0  0
 17 36  1  0  0  0  0
 18 19  2  0  0  0  0
 18 37  1  0  0  0  0
 20 21  1  0  0  0  0
 20 38  1  0  0  0  0
 20 39  1  0  0  0  0
 21 40  1  0  0  0  0
 21 41  1  0  0  0  0
M  END
> <s_m_source_file>
AV-unprocessed.smi

> <i_m_source_file_index>
1476

> <i_lp_mmshare_version>
43012

> <i_f3d_flags>
0

> <s_epik_input>
W0NIM11TKD1PKSg9TylOMVtDSDJdW0NIMl1bQ0hdKFtDSDJdW0NIMl0xKVtDSDJdW05IXUMoPU8pW05IXWMyW2NIXVtjSF1bY0hdW2NIXW4y

> <s_epik_cmdline>
J2VwaWtfcHl0aG9uJywgJy1waCcsICc3LjAnLCAnLXRuJywgJzgnLCAnLW1hJywgJzIwMCcsICctbWV0YWxfYmluZGluZycsICctaW1hZScsICc8aW5maWxlLm1hZT4nLCAnLW9tYWUnLCAnPG91dGZpbGUubWFlPic=

> <r_lp_tautomer_probability>
1

> <r_epik_Ionization_Penalty>
4.9822e-05

> <r_epik_Ionization_Penalty_Charging>
0

> <r_epik_Ionization_Penalty_Neutral>
4.9822e-05

> <r_epik_State_Penalty>
-0

> <r_epik_Charging_Adjusted_Penalty>
0

> <i_epik_Tot_Q>
0

> <i_epik_Tot_abs_Q>
0

> <r_epik_Metal_State_Penalty>
-0

> <b_epik_Metal_Only>
0

> <s_lp_Force_Field>
OPLS_2005

> <r_lp_Energy>
3.82985

> <b_lp_Chiralities_Consistent>
1

> <s_lp_Variant>
AV-unprocessed.smi:1476-1

> <Gold.Version>
5.8.1

> <Gold.Id.Protein>
6NUR|6NUR_protein|mol2

> <Gold.PLP.Fitness>
46.6704

> <Gold.PLP.PLP>
-34.7879

> <Gold.PLP.part.hbond>
-2.8510

> <Gold.PLP.part.metal>
0.0000

> <Gold.PLP.part.buried>
-1.6547

> <Gold.PLP.part.nonpolar>
-30.1303

> <Gold.PLP.part.repulsive>
0.4712

> <Gold.PLP.ligand.clash>
0.0000

> <Gold.PLP.ligand.torsion>
1.0833

> <Gold.PLP.Chemscore.Hbond>
2.9920

> <Gold.PLP.Chemscore.CHOScore>
1.0000

> <Gold.PLP.Chemscore.Metal>
0.0000

> <Gold.Chemscore.Hbonds>
donor molecule, donor type, donor heavy atom, donor atom, acceptor molecule, acceptor atom, score
      L1  H    10    32       P1  7948  1.00
      L1  H    13    33       P1  7948  1.00
      P1  H  7997  8010       L1     4  0.96
      L1  C    18    37       P1 10186  0.60

> <Gold.PLP.Chemscore.Internal.Correction>
2.0732

> <Gold.Rescore>
     Score         DG    S(hbond)    S(metal)    S(lipo)     H(rot)  DE(clash)    DE(int)     intcor
     17.77     -20.36       2.93        0.00      72.26       1.32       0.21       2.37       ----

> <Gold.Chemscore.Fitness>
17.7715

> <Gold.Chemscore.DG>
-20.3591

> <Gold.Chemscore.ZeroCoef>
-5.4800

> <Gold.Chemscore.Hbond>
2.9321

> <Gold.Chemscore.Metal>
0.0000

> <Gold.Chemscore.Lipo>
72.2587

> <Gold.Chemscore.Internal_Hbond>
0.0000

> <Gold.Chemscore.DEClash>
0.2135

> <Gold.Chemscore.DEInternal>
2.3741

> <Gold.Chemscore.Rot>
1.3157

> <Gold.Chemscore.Internal.Correction>
   9.000000E+99

> <Gold.Chemscore.Hbonds>
donor molecule, donor type, donor heavy atom, donor atom, acceptor molecule, acceptor atom, score
      L1  H    10    32       P1  7948  0.91
      L1  H    13    33       P1  7948  0.92
      P1  H  7997  8010       L1     4  0.87

> <Gold.Chemscore.Hbond.Weighted>
-9.7931

> <Gold.Chemscore.Metal.Weighted>
-0.0000

> <Gold.Chemscore.Lipo.Weighted>
-8.4543

> <Gold.Chemscore.Internal_Hbond.Weighted>
0.0000

> <Gold.Chemscore.DEClash.Weighted>
0.2135

> <Gold.Chemscore.DEInternal.Weighted>
2.3741

> <Gold.Chemscore.Rot.Weighted>
3.3682

> <Gold.Chemscore.Internal.Correction.Weighted>
   9.000000E+99

> <Gold.Protein.RotatedTorsions>
[ 6907 6896 6895 6894 ] final   -8.15 input  -60.11 | X-H torsion
[ 7974 7965 7964 7962 ] final  116.52 input  175.53 | X-H torsion
[ 8008 7997 7996 7995 ] final   68.86 input   59.86 | X-H torsion
[ 10167 10162 10161 10158 ] final   73.79 input  -65.29 | X-H torsion
[ 10718 10713 10712 10709 ] final -120.72 input   66.30 | X-H torsion
[ 10763 10752 10751 10750 ] final -157.50 input  -60.55 | X-H torsion
[ 11005 11000 10999 10996 ] final   96.16 input  -57.11 | X-H torsion

> <Gold.Protein.ActiveResidues>
 VAL166  LYS551  ARG553  GLY616  TRP617  ASP618  TYR619  PRO620  LYS621  CYS622 
 ASP623  PHE694  ASN695  SER759  ASP760  ASP761  ALA762  ILE779  LEU786  VAL792 
 PHE793  MET794  SER795  GLU796  ALA797  LYS798  CYS799  TRP800  GLU811  SER814 

> <Gold.Protein.RotatedAtoms>
  151.4382  135.1017  159.9662 H   0  0  0  0  0  0  0  0  0  0  0  0  # atno 6907 bound_to 6896
  152.4932  133.8553  159.7233 H   0  0  0  0  0  0  0  0  0  0  0  0  # atno 6908 bound_to 6896
  150.9107  133.6943  159.2883 H   0  0  0  0  0  0  0  0  0  0  0  0  # atno 6909 bound_to 6896
  145.1786  139.3062  143.4430 H   0  0  0  0  0  0  0  0  0  0  0  0  # atno 7974 bound_to 7965
  155.7147  140.3494  155.4989 H   0  0  0  0  0  0  0  0  0  0  0  0  # atno 8008 bound_to 7997
  155.9324  140.1086  157.1144 H   0  0  0  0  0  0  0  0  0  0  0  0  # atno 8009 bound_to 7997
  154.4087  140.1228  156.4806 H   0  0  0  0  0  0  0  0  0  0  0  0  # atno 8010 bound_to 7997
  140.0206  144.5543  150.7585 H   0  0  0  0  0  0  0  0  0  0  0  0  # atno 10167 bound_to 10162
  156.1281  130.6374  150.9575 H   0  0  0  0  0  0  0  0  0  0  0  0  # atno 10718 bound_to 10713
  154.7631  135.3123  154.8340 H   0  0  0  0  0  0  0  0  0  0  0  0  # atno 10763 bound_to 10752
  153.9096  135.6807  153.4756 H   0  0  0  0  0  0  0  0  0  0  0  0  # atno 10764 bound_to 10752
  153.1233  135.4812  154.9164 H   0  0  0  0  0  0  0  0  0  0  0  0  # atno 10765 bound_to 10752
  139.8783  134.8936  156.4117 H   0  0  0  0  0  0  0  0  0  0  0  0  # atno 11005 bound_to 11000
  146.3457  140.1958  142.8589 LP  0  0  0  0  0  0  0  0  0  0  0  0  # atno 17320 bound_to 7965
  145.0159  140.8753  143.5196 LP  0  0  0  0  0  0  0  0  0  0  0  0  # atno 17321 bound_to 7965
  140.7344  143.2728  151.3834 LP  0  0  0  0  0  0  0  0  0  0  0  0  # atno 17342 bound_to 10162
  139.6142  144.1036  152.2329 LP  0  0  0  0  0  0  0  0  0  0  0  0  # atno 17343 bound_to 10162
  157.6461  131.0904  150.8151 LP  0  0  0  0  0  0  0  0  0  0  0  0  # atno 17370 bound_to 10713
  156.8239  130.4993  149.5340 LP  0  0  0  0  0  0  0  0  0  0  0  0  # atno 17371 bound_to 10713
  140.9195  133.7655  155.9889 LP  0  0  0  0  0  0  0  0  0  0  0  0  # atno 17394 bound_to 11000
  140.8455  134.3016  157.5296 LP  0  0  0  0  0  0  0  0  0  0  0  0  # atno 17395 bound_to 11000

$$$$
