AV-unprocessed.smi:1007|AV-procd|sdf|4406|dock4
  -GOLD-   22720 2353D 1   1.00000     0.00000
 Structure written by MMmdl.
 57 59  0  0  0  0  0  0  0  0  3 V2000
  146.1245  133.0591  151.2698 C   0  0  0  0  0  0  0  0  0  0  0  0
  146.3249  134.3010  150.6168 O   0  0  0  0  0  0  0  0  0  0  0  0
  145.3044  135.2407  150.9104 C   0  0  0  0  0  0  0  0  0  0  0  0
  145.4384  135.6771  152.3776 C   0  0  0  0  0  0  0  0  0  0  0  0
  146.1553  136.9695  152.5257 N   0  3  2  0  0  0  0  0  0  0  0  0
  146.0026  137.5823  153.8702 C   0  0  0  0  0  0  0  0  0  0  0  0
  146.8265  138.8773  153.9890 C   0  0  0  0  0  0  0  0  0  0  0  0
  146.4670  139.8434  152.9198 N   0  3  1  0  0  0  0  0  0  0  0  0
  147.1783  141.1428  153.0311 C   0  0  0  0  0  0  0  0  0  0  0  0
  147.5980  141.4707  154.4814 C   0  0  2  0  0  0  0  0  0  0  0  0
  146.8583  142.5957  154.9150 O   0  0  0  0  0  0  0  0  0  0  0  0
  149.1065  141.7676  154.6336 C   0  0  0  0  0  0  0  0  0  0  0  0
  149.7067  141.1485  155.8044 N   0  0  0  0  0  0  0  0  0  0  0  0
  149.6282  139.8542  156.1709 C   0  0  0  0  0  0  0  0  0  0  0  0
  150.2431  139.5012  157.2953 N   0  0  0  0  0  0  0  0  0  0  0  0
  150.7949  140.7035  157.7018 C   0  0  0  0  0  0  0  0  0  0  0  0
  151.5769  141.0171  158.8347 C   0  0  0  0  0  0  0  0  0  0  0  0
  152.0406  142.3339  159.0535 C   0  0  0  0  0  0  0  0  0  0  0  0
  152.8817  142.6257  160.2839 C   0  0  0  0  0  0  0  0  0  0  0  0
  151.7227  143.3618  158.1299 C   0  0  0  0  0  0  0  0  0  0  0  0
  152.2159  144.7822  158.3411 C   0  0  0  0  0  0  0  0  0  0  0  0
  150.9398  143.0665  156.9946 C   0  0  0  0  0  0  0  0  0  0  0  0
  150.4833  141.7525  156.7881 C   0  0  0  0  0  0  0  0  0  0  0  0
  146.6197  139.2304  151.5775 C   0  0  0  0  0  0  0  0  0  0  0  0
  145.7961  137.9362  151.4590 C   0  0  0  0  0  0  0  0  0  0  0  0
  146.9382  132.3783  151.0198 H   0  0  0  0  0  0  0  0  0  0  0  0
  145.1894  132.5942  150.9544 H   0  0  0  0  0  0  0  0  0  0  0  0
  146.1073  133.1801  152.3537 H   0  0  0  0  0  0  0  0  0  0  0  0
  145.4168  136.1132  150.2649 H   0  0  0  0  0  0  0  0  0  0  0  0
  144.3205  134.8184  150.7051 H   0  0  0  0  0  0  0  0  0  0  0  0
  144.4337  135.7643  152.7943 H   0  0  0  0  0  0  0  0  0  0  0  0
  145.9451  134.9064  152.9603 H   0  0  0  0  0  0  0  0  0  0  0  0
  144.9482  137.7943  154.0558 H   0  0  0  0  0  0  0  0  0  0  0  0
  146.3245  136.8859  154.6437 H   0  0  0  0  0  0  0  0  0  0  0  0
  146.6565  139.3172  154.9711 H   0  0  0  0  0  0  0  0  0  0  0  0
  147.8913  138.6461  153.9277 H   0  0  0  0  0  0  0  0  0  0  0  0
  148.0480  141.1357  152.3725 H   0  0  0  0  0  0  0  0  0  0  0  0
  146.5277  141.9392  152.6659 H   0  0  0  0  0  0  0  0  0  0  0  0
  147.3558  140.6411  155.1446 H   0  0  0  0  0  0  0  0  0  0  0  0
  147.4302  143.1586  155.4159 H   0  0  0  0  0  0  0  0  0  0  0  0
  149.6515  141.4368  153.7483 H   0  0  0  0  0  0  0  0  0  0  0  0
  149.2641  142.8448  154.6999 H   0  0  0  0  0  0  0  0  0  0  0  0
  149.0805  139.1320  155.5830 H   0  0  0  0  0  0  0  0  0  0  0  0
  151.8202  140.2334  159.5373 H   0  0  0  0  0  0  0  0  0  0  0  0
  153.8652  142.9966  159.9947 H   0  0  0  0  0  0  0  0  0  0  0  0
  153.0265  141.7303  160.8890 H   0  0  0  0  0  0  0  0  0  0  0  0
  152.3984  143.3766  160.9089 H   0  0  0  0  0  0  0  0  0  0  0  0
  151.8720  145.4451  157.5468 H   0  0  0  0  0  0  0  0  0  0  0  0
  153.3055  144.8091  158.3509 H   0  0  0  0  0  0  0  0  0  0  0  0
  151.8510  145.1782  159.2891 H   0  0  0  0  0  0  0  0  0  0  0  0
  150.6922  143.8411  156.2842 H   0  0  0  0  0  0  0  0  0  0  0  0
  146.2918  139.9342  150.8113 H   0  0  0  0  0  0  0  0  0  0  0  0
  147.6745  139.0240  151.3890 H   0  0  0  0  0  0  0  0  0  0  0  0
  145.9718  137.4876  150.4805 H   0  0  0  0  0  0  0  0  0  0  0  0
  144.7301  138.1628  151.5178 H   0  0  0  0  0  0  0  0  0  0  0  0
  145.4841  140.0550  153.0231 H   0  0  0  0  0  0  0  0  0  0  0  0
  147.1366  136.7624  152.4011 H   0  0  0  0  0  0  0  0  0  0  0  0
  1  2  1  0  0  0  0
  1 26  1  0  0  0  0
  1 27  1  0  0  0  0
  1 28  1  0  0  0  0
  2  3  1  0  0  0  0
  3  4  1  0  0  0  0
  3 29  1  0  0  0  0
  3 30  1  0  0  0  0
  4  5  1  0  0  0  0
  4 31  1  0  0  0  0
  4 32  1  0  0  0  0
  5 25  1  0  0  0  0
  5  6  1  0  0  0  0
  5 57  1  0  0  0  0
  6  7  1  0  0  0  0
  6 33  1  0  0  0  0
  6 34  1  0  0  0  0
  7  8  1  0  0  0  0
  7 35  1  0  0  0  0
  7 36  1  0  0  0  0
  8  9  1  0  0  0  0
  8 24  1  0  0  0  0
  8 56  1  0  0  0  0
  9 10  1  0  0  0  0
  9 37  1  0  0  0  0
  9 38  1  0  0  0  0
 10 11  1  0  0  0  0
 10 12  1  0  0  0  0
 10 39  1  0  0  0  0
 11 40  1  0  0  0  0
 12 13  1  0  0  0  0
 12 41  1  0  0  0  0
 12 42  1  0  0  0  0
 13 23  1  0  0  0  0
 13 14  1  0  0  0  0
 14 15  2  0  0  0  0
 14 43  1  0  0  0  0
 15 16  1  0  0  0  0
 16 23  2  0  0  0  0
 16 17  1  0  0  0  0
 17 18  2  0  0  0  0
 17 44  1  0  0  0  0
 18 19  1  0  0  0  0
 18 20  1  0  0  0  0
 19 45  1  0  0  0  0
 19 46  1  0  0  0  0
 19 47  1  0  0  0  0
 20 21  1  0  0  0  0
 20 22  2  0  0  0  0
 21 48  1  0  0  0  0
 21 49  1  0  0  0  0
 21 50  1  0  0  0  0
 22 23  1  0  0  0  0
 22 51  1  0  0  0  0
 24 25  1  0  0  0  0
 24 52  1  0  0  0  0
 24 53  1  0  0  0  0
 25 54  1  0  0  0  0
 25 55  1  0  0  0  0
M  CHG  1   5   1
M  CHG  1   8   1
M  END
> <s_m_source_file>
AV-unprocessed.smi

> <i_m_source_file_index>
1007

> <i_lp_mmshare_version>
43012

> <i_f3d_flags>
0

> <s_epik_input>
W0NIM11PW0NIMl1bQ0gyXU4xW0NIMl1bQ0gyXU4oW0NIMl1bQ0gyXTEpW0NIMl1bQ0BIXShbT0hdKVtDSDJdbihbY0hdbjIpYyhjMjMpW2NIXWMoW0NIM10pYyhbY0hdMylbQ0gzXQ==

> <s_epik_cmdline>
J2VwaWtfcHl0aG9uJywgJy1waCcsICc3LjAnLCAnLXRuJywgJzgnLCAnLW1hJywgJzIwMCcsICctbWV0YWxfYmluZGluZycsICctaW1hZScsICc8aW5maWxlLm1hZT4nLCAnLW9tYWUnLCAnPG91dGZpbGUubWFlPic=

> <r_epik_Ionization_Penalty>
3.88944

> <r_epik_Ionization_Penalty_Charging>
3.80608

> <r_epik_Ionization_Penalty_Neutral>
0.0833653

> <r_epik_State_Penalty>
2.70739

> <r_epik_Charging_Adjusted_Penalty>
6.51347

> <i_epik_Tot_Q>
2

> <i_epik_Tot_abs_Q>
2

> <r_epik_Metal_State_Penalty>
2.62239

> <b_epik_Metal_Only>
0

> <s_lp_Force_Field>
OPLS_2005

> <r_lp_Energy>
26.7916

> <b_lp_Chiralities_Consistent>
1

> <s_lp_Variant>
AV-unprocessed.smi:1007-9

> <Gold.Version>
5.8.1

> <Gold.Id.Protein>
6NUR|6NUR_protein|mol2

> <Gold.PLP.Fitness>
58.0151

> <Gold.PLP.PLP>
-47.3991

> <Gold.PLP.part.hbond>
-3.0000

> <Gold.PLP.part.metal>
0.0000

> <Gold.PLP.part.buried>
1.0392

> <Gold.PLP.part.nonpolar>
-45.8805

> <Gold.PLP.part.repulsive>
0.2366

> <Gold.PLP.ligand.clash>
0.0000

> <Gold.PLP.ligand.torsion>
2.2279

> <Gold.PLP.Chemscore.Hbond>
4.9825

> <Gold.PLP.Chemscore.CHOScore>
0.0000

> <Gold.PLP.Chemscore.Metal>
0.0000

> <Gold.Chemscore.Hbonds>
donor molecule, donor type, donor heavy atom, donor atom, acceptor molecule, acceptor atom, score
      L1  H     5    57       P1  7948  2.00
      L1  H     8    56       P1 10175  2.00
      L1  H    11    40       P1  8028  0.72

> <Gold.PLP.Chemscore.Internal.Correction>
0.1243

> <Gold.Rescore>
     Score         DG    S(hbond)    S(metal)    S(lipo)     H(rot)  DE(clash)    DE(int)     intcor
     18.24     -23.54       2.43        0.00     142.58       2.63       3.31       2.00       ----

> <Gold.Chemscore.Fitness>
18.2362

> <Gold.Chemscore.DG>
-23.5390

> <Gold.Chemscore.ZeroCoef>
-5.4800

> <Gold.Chemscore.Hbond>
2.4315

> <Gold.Chemscore.Metal>
0.0000

> <Gold.Chemscore.Lipo>
142.5850

> <Gold.Chemscore.Internal_Hbond>
0.0000

> <Gold.Chemscore.DEClash>
3.3068

> <Gold.Chemscore.DEInternal>
1.9960

> <Gold.Chemscore.Rot>
2.6347

> <Gold.Chemscore.Internal.Correction>
   9.000000E+99

> <Gold.Chemscore.Hbonds>
donor molecule, donor type, donor heavy atom, donor atom, acceptor molecule, acceptor atom, score
      L1  H     5    57       P1  7948  0.99
      L1  H     8    56       P1 10175  0.98
      L1  H    11    40       P1  8028  0.14

> <Gold.Chemscore.Hbond.Weighted>
-8.1213

> <Gold.Chemscore.Metal.Weighted>
-0.0000

> <Gold.Chemscore.Lipo.Weighted>
-16.6824

> <Gold.Chemscore.Internal_Hbond.Weighted>
0.0000

> <Gold.Chemscore.DEClash.Weighted>
3.3068

> <Gold.Chemscore.DEInternal.Weighted>
1.9960

> <Gold.Chemscore.Rot.Weighted>
6.7448

> <Gold.Chemscore.Internal.Correction.Weighted>
   9.000000E+99

> <Gold.Protein.RotatedTorsions>
[ 6907 6896 6895 6894 ] final -169.33 input  -60.11 | X-H torsion
[ 7974 7965 7964 7962 ] final  141.63 input  175.53 | X-H torsion
[ 8008 7997 7996 7995 ] final  121.29 input   59.86 | X-H torsion
[ 10167 10162 10161 10158 ] final -109.93 input  -65.29 | X-H torsion
[ 10718 10713 10712 10709 ] final   15.40 input   66.30 | X-H torsion
[ 10763 10752 10751 10750 ] final  -36.14 input  -60.55 | X-H torsion
[ 11005 11000 10999 10996 ] final   93.64 input  -57.11 | X-H torsion

> <Gold.Protein.ActiveResidues>
 VAL166  LYS551  ARG553  GLY616  TRP617  ASP618  TYR619  PRO620  LYS621  CYS622 
 ASP623  PHE694  ASN695  SER759  ASP760  ASP761  ALA762  ILE779  LEU786  VAL792 
 PHE793  MET794  SER795  GLU796  ALA797  LYS798  CYS799  TRP800  GLU811  SER814 

> <Gold.Protein.RotatedAtoms>
  151.4900  133.3527  159.2851 H   0  0  0  0  0  0  0  0  0  0  0  0  # atno 6907 bound_to 6896
  150.8841  134.8238  159.7257 H   0  0  0  0  0  0  0  0  0  0  0  0  # atno 6908 bound_to 6896
  152.4782  134.4801  159.9714 H   0  0  0  0  0  0  0  0  0  0  0  0  # atno 6909 bound_to 6896
  144.9079  139.5333  143.5722 H   0  0  0  0  0  0  0  0  0  0  0  0  # atno 7974 bound_to 7965
  156.2680  140.2812  156.1284 H   0  0  0  0  0  0  0  0  0  0  0  0  # atno 8008 bound_to 7997
  155.1080  140.0390  157.2733 H   0  0  0  0  0  0  0  0  0  0  0  0  # atno 8009 bound_to 7997
  154.6764  140.2599  155.6959 H   0  0  0  0  0  0  0  0  0  0  0  0  # atno 8010 bound_to 7997
  140.1500  143.4207  152.1501 H   0  0  0  0  0  0  0  0  0  0  0  0  # atno 10167 bound_to 10162
  157.0530  130.6277  149.5771 H   0  0  0  0  0  0  0  0  0  0  0  0  # atno 10718 bound_to 10713
  153.8749  135.6827  153.4771 H   0  0  0  0  0  0  0  0  0  0  0  0  # atno 10763 bound_to 10752
  153.1266  135.4716  154.9280 H   0  0  0  0  0  0  0  0  0  0  0  0  # atno 10764 bound_to 10752
  154.7697  135.3235  154.8166 H   0  0  0  0  0  0  0  0  0  0  0  0  # atno 10765 bound_to 10752
  139.8807  134.8801  156.3748 H   0  0  0  0  0  0  0  0  0  0  0  0  # atno 11005 bound_to 11000
  146.3143  139.7862  142.8995 LP  0  0  0  0  0  0  0  0  0  0  0  0  # atno 17320 bound_to 7965
  145.3504  141.0306  143.3342 LP  0  0  0  0  0  0  0  0  0  0  0  0  # atno 17321 bound_to 7965
  139.5430  144.7274  151.4672 LP  0  0  0  0  0  0  0  0  0  0  0  0  # atno 17342 bound_to 10162
  140.6708  143.8297  150.6997 LP  0  0  0  0  0  0  0  0  0  0  0  0  # atno 17343 bound_to 10162
  156.0002  130.5079  150.7633 LP  0  0  0  0  0  0  0  0  0  0  0  0  # atno 17370 bound_to 10713
  157.5015  131.0919  151.0308 LP  0  0  0  0  0  0  0  0  0  0  0  0  # atno 17371 bound_to 10713
  140.9439  133.7496  156.0183 LP  0  0  0  0  0  0  0  0  0  0  0  0  # atno 17394 bound_to 11000
  140.8186  134.3315  157.5389 LP  0  0  0  0  0  0  0  0  0  0  0  0  # atno 17395 bound_to 11000

$$$$
