AV-unprocessed.smi:851|AV-procd|sdf|3949|dock1
  -GOLD-   22720 1423D 1   1.00000     0.00000
 Structure written by MMmdl.
 34 35  0  0  0  0  0  0  0  0  1 V2000
  145.8143  133.1580  151.2744 C   0  0  0  0  0  0  0  0  0  0  0  0
  146.9077  133.4249  152.1452 O   0  0  0  0  0  0  0  0  0  0  0  0
  147.4813  132.3694  152.8286 C   0  0  0  0  0  0  0  0  0  0  0  0
  146.9421  131.1333  152.6808 N   0  0  0  0  0  0  0  0  0  0  0  0
  147.5058  130.1034  153.3451 C   0  0  0  0  0  0  0  0  0  0  0  0
  148.6301  130.2473  154.1788 C   0  0  0  0  0  0  0  0  0  0  0  0
  149.1908  131.5285  154.3341 C   0  0  0  0  0  0  0  0  0  0  0  0
  148.6012  132.6216  153.6545 C   0  0  0  0  0  0  0  0  0  0  0  0
  149.0907  133.9542  153.7208 N   0  0  0  0  0  0  0  0  0  0  0  0
  149.8570  134.5333  154.6649 C   0  0  0  0  0  0  0  0  0  0  0  0
  150.3032  133.9602  155.6562 O   0  0  0  0  0  0  0  0  0  0  0  0
  150.0909  135.8411  154.4527 N   0  0  0  0  0  0  0  0  0  0  0  0
  150.8764  136.7636  155.2751 C   0  0  2  0  0  0  0  0  0  0  0  0
  150.0040  137.4096  156.3675 C   0  0  0  0  0  0  0  0  0  0  0  0
  150.7646  138.6001  156.9654 C   0  0  0  0  0  0  0  0  0  0  0  0
  151.8179  139.2604  155.6177 S   0  0  0  0  0  0  0  0  0  0  0  0
  151.2302  140.5020  155.0926 O   0  0  0  0  0  0  0  0  0  0  0  0
  153.2243  139.2092  156.0448 O   0  0  0  0  0  0  0  0  0  0  0  0
  151.4921  137.8976  154.4387 C   0  0  0  0  0  0  0  0  0  0  0  0
  145.4805  134.0909  150.8201 H   0  0  0  0  0  0  0  0  0  0  0  0
  144.9676  132.7322  151.8148 H   0  0  0  0  0  0  0  0  0  0  0  0
  146.1024  132.4820  150.4681 H   0  0  0  0  0  0  0  0  0  0  0  0
  147.0506  129.1344  153.2032 H   0  0  0  0  0  0  0  0  0  0  0  0
  149.0558  129.3932  154.6843 H   0  0  0  0  0  0  0  0  0  0  0  0
  150.0648  131.6418  154.9561 H   0  0  0  0  0  0  0  0  0  0  0  0
  148.7428  134.5716  153.0017 H   0  0  0  0  0  0  0  0  0  0  0  0
  149.6567  136.2454  153.6354 H   0  0  0  0  0  0  0  0  0  0  0  0
  151.6788  136.2210  155.7788 H   0  0  0  0  0  0  0  0  0  0  0  0
  149.0806  137.7779  155.9179 H   0  0  0  0  0  0  0  0  0  0  0  0
  149.7184  136.6913  157.1366 H   0  0  0  0  0  0  0  0  0  0  0  0
  150.1037  139.3792  157.3455 H   0  0  0  0  0  0  0  0  0  0  0  0
  151.4193  138.2738  157.7738 H   0  0  0  0  0  0  0  0  0  0  0  0
  152.4148  137.6123  153.9329 H   0  0  0  0  0  0  0  0  0  0  0  0
  150.7861  138.2652  153.6930 H   0  0  0  0  0  0  0  0  0  0  0  0
  1  2  1  0  0  0  0
  1 20  1  0  0  0  0
  1 21  1  0  0  0  0
  1 22  1  0  0  0  0
  2  3  1  0  0  0  0
  3  8  1  0  0  0  0
  3  4  2  0  0  0  0
  4  5  1  0  0  0  0
  5  6  2  0  0  0  0
  5 23  1  0  0  0  0
  6  7  1  0  0  0  0
  6 24  1  0  0  0  0
  7  8  2  0  0  0  0
  7 25  1  0  0  0  0
  8  9  1  0  0  0  0
  9 10  1  0  0  0  0
  9 26  1  0  0  0  0
 10 11  2  0  0  0  0
 10 12  1  0  0  0  0
 12 13  1  0  0  0  0
 12 27  1  0  0  0  0
 13 19  1  0  0  0  0
 13 14  1  0  0  0  0
 13 28  1  0  0  0  0
 14 15  1  0  0  0  0
 14 29  1  0  0  0  0
 14 30  1  0  0  0  0
 15 16  1  0  0  0  0
 15 31  1  0  0  0  0
 15 32  1  0  0  0  0
 16 17  2  0  0  0  0
 16 18  2  0  0  0  0
 16 19  1  0  0  0  0
 19 33  1  0  0  0  0
 19 34  1  0  0  0  0
M  END
> <s_m_source_file>
AV-unprocessed.smi

> <i_m_source_file_index>
851

> <i_lp_mmshare_version>
43012

> <i_f3d_flags>
0

> <s_epik_input>
W0NIM11PYzFuW2NIXVtjSF1bY0hdYzFbTkhdQyg9TylbTkhdW0NAQEhdKFtDSDJdMilbQ0gyXVtDSDJdUzIoPU8pPU8=

> <s_epik_cmdline>
J2VwaWtfcHl0aG9uJywgJy1waCcsICc3LjAnLCAnLXRuJywgJzgnLCAnLW1hJywgJzIwMCcsICctbWV0YWxfYmluZGluZycsICctaW1hZScsICc8aW5maWxlLm1hZT4nLCAnLW9tYWUnLCAnPG91dGZpbGUubWFlPic=

> <r_lp_tautomer_probability>
1

> <r_epik_Ionization_Penalty>
7.64927e-05

> <r_epik_Ionization_Penalty_Charging>
0

> <r_epik_Ionization_Penalty_Neutral>
7.64927e-05

> <r_epik_State_Penalty>
-0

> <r_epik_Charging_Adjusted_Penalty>
0

> <i_epik_Tot_Q>
0

> <i_epik_Tot_abs_Q>
0

> <r_epik_Metal_State_Penalty>
-0

> <b_epik_Metal_Only>
0

> <s_lp_Force_Field>
OPLS_2005

> <r_lp_Energy>
17.9576

> <b_lp_Chiralities_Consistent>
1

> <s_lp_Variant>
AV-unprocessed.smi:851-1

> <Gold.Version>
5.8.1

> <Gold.Id.Protein>
6NUR|6NUR_protein|mol2

> <Gold.PLP.Fitness>
39.6070

> <Gold.PLP.PLP>
-29.0494

> <Gold.PLP.part.hbond>
-4.3369

> <Gold.PLP.part.metal>
0.0000

> <Gold.PLP.part.buried>
-4.7098

> <Gold.PLP.part.nonpolar>
-21.2182

> <Gold.PLP.part.repulsive>
0.4189

> <Gold.PLP.ligand.clash>
0.0000

> <Gold.PLP.ligand.torsion>
0.4791

> <Gold.PLP.Chemscore.Hbond>
3.8384

> <Gold.PLP.Chemscore.CHOScore>
0.0000

> <Gold.PLP.Chemscore.Metal>
0.0000

> <Gold.Chemscore.Hbonds>
donor molecule, donor type, donor heavy atom, donor atom, acceptor molecule, acceptor atom, score
      L1  H     9    26       P1  7948  0.79
      L1  H    12    27       P1  7948  1.00
      P1  H  7989  7998       L1    17  0.96
      P1  H  7997  8010       L1    18  0.96

> <Gold.PLP.Chemscore.Internal.Correction>
0.0006

> <Gold.Rescore>
     Score         DG    S(hbond)    S(metal)    S(lipo)     H(rot)  DE(clash)    DE(int)     intcor
     16.52     -18.10       3.17        0.00      46.14       1.31       0.03       1.55       ----

> <Gold.Chemscore.Fitness>
16.5226

> <Gold.Chemscore.DG>
-18.0997

> <Gold.Chemscore.ZeroCoef>
-5.4800

> <Gold.Chemscore.Hbond>
3.1669

> <Gold.Chemscore.Metal>
0.0000

> <Gold.Chemscore.Lipo>
46.1389

> <Gold.Chemscore.Internal_Hbond>
0.0000

> <Gold.Chemscore.DEClash>
0.0300

> <Gold.Chemscore.DEInternal>
1.5471

> <Gold.Chemscore.Rot>
1.3109

> <Gold.Chemscore.Internal.Correction>
   9.000000E+99

> <Gold.Chemscore.Hbonds>
donor molecule, donor type, donor heavy atom, donor atom, acceptor molecule, acceptor atom, score
      L1  H     9    26       P1  7948  0.11
      L1  H    12    27       P1  7948  0.39
      P1  H  7989  7998       L1    17  0.85
      P1  H  7997  8010       L1    18  0.87

> <Gold.Chemscore.Hbond.Weighted>
-10.5774

> <Gold.Chemscore.Metal.Weighted>
-0.0000

> <Gold.Chemscore.Lipo.Weighted>
-5.3983

> <Gold.Chemscore.Internal_Hbond.Weighted>
0.0000

> <Gold.Chemscore.DEClash.Weighted>
0.0300

> <Gold.Chemscore.DEInternal.Weighted>
1.5471

> <Gold.Chemscore.Rot.Weighted>
3.3559

> <Gold.Chemscore.Internal.Correction.Weighted>
   9.000000E+99

> <Gold.Protein.RotatedTorsions>
[ 6907 6896 6895 6894 ] final -170.74 input  -60.11 | X-H torsion
[ 7974 7965 7964 7962 ] final  164.64 input  175.53 | X-H torsion
[ 8008 7997 7996 7995 ] final   64.33 input   59.86 | X-H torsion
[ 10167 10162 10161 10158 ] final -119.69 input  -65.29 | X-H torsion
[ 10718 10713 10712 10709 ] final   11.98 input   66.30 | X-H torsion
[ 10763 10752 10751 10750 ] final  -64.58 input  -60.55 | X-H torsion
[ 11005 11000 10999 10996 ] final -134.74 input  -57.11 | X-H torsion

> <Gold.Protein.ActiveResidues>
 VAL166  LYS551  ARG553  GLY616  TRP617  ASP618  TYR619  PRO620  LYS621  CYS622 
 ASP623  PHE694  ASN695  SER759  ASP760  ASP761  ALA762  ILE779  LEU786  VAL792 
 PHE793  MET794  SER795  GLU796  ALA797  LYS798  CYS799  TRP800  GLU811  SER814 

> <Gold.Protein.RotatedAtoms>
  151.5126  133.3482  159.2887 H   0  0  0  0  0  0  0  0  0  0  0  0  # atno 6907 bound_to 6896
  150.8702  134.8077  159.7160 H   0  0  0  0  0  0  0  0  0  0  0  0  # atno 6908 bound_to 6896
  152.4693  134.5009  159.9776 H   0  0  0  0  0  0  0  0  0  0  0  0  # atno 6909 bound_to 6896
  144.7536  139.8355  143.6357 H   0  0  0  0  0  0  0  0  0  0  0  0  # atno 7974 bound_to 7965
  155.6444  140.3497  155.4726 H   0  0  0  0  0  0  0  0  0  0  0  0  # atno 8008 bound_to 7997
  155.9900  140.1191  157.0671 H   0  0  0  0  0  0  0  0  0  0  0  0  # atno 8009 bound_to 7997
  154.4216  140.1121  156.5538 H   0  0  0  0  0  0  0  0  0  0  0  0  # atno 8010 bound_to 7997
  140.0439  143.5126  152.2116 H   0  0  0  0  0  0  0  0  0  0  0  0  # atno 10167 bound_to 10162
  157.0034  130.6089  149.5699 H   0  0  0  0  0  0  0  0  0  0  0  0  # atno 10718 bound_to 10713
  154.3322  135.6174  153.5556 H   0  0  0  0  0  0  0  0  0  0  0  0  # atno 10763 bound_to 10752
  152.9810  135.5749  154.4949 H   0  0  0  0  0  0  0  0  0  0  0  0  # atno 10764 bound_to 10752
  154.4637  135.2857  155.1671 H   0  0  0  0  0  0  0  0  0  0  0  0  # atno 10765 bound_to 10752
  140.8962  134.1748  157.4493 H   0  0  0  0  0  0  0  0  0  0  0  0  # atno 11005 bound_to 11000
  146.1519  139.4605  143.0043 LP  0  0  0  0  0  0  0  0  0  0  0  0  # atno 17320 bound_to 7965
  145.6856  141.0179  143.1583 LP  0  0  0  0  0  0  0  0  0  0  0  0  # atno 17321 bound_to 7965
  139.5996  144.7578  151.3203 LP  0  0  0  0  0  0  0  0  0  0  0  0  # atno 17342 bound_to 10162
  140.7248  143.7036  150.7825 LP  0  0  0  0  0  0  0  0  0  0  0  0  # atno 17343 bound_to 10162
  156.0162  130.5256  150.8142 LP  0  0  0  0  0  0  0  0  0  0  0  0  # atno 17370 bound_to 10713
  157.5373  131.0939  150.9875 LP  0  0  0  0  0  0  0  0  0  0  0  0  # atno 17371 bound_to 10713
  139.8736  134.9879  156.5389 LP  0  0  0  0  0  0  0  0  0  0  0  0  # atno 17394 bound_to 11000
  140.8286  133.8297  155.8963 LP  0  0  0  0  0  0  0  0  0  0  0  0  # atno 17395 bound_to 11000

$$$$
