AV-unprocessed.smi:2809|AV-procd|sdf|10826|dock2
  -GOLD-   2272015263D 1   1.00000     0.00000
 Structure written by MMmdl.
 44 45  0  0  0  0  0  0  0  0  1 V2000
  150.8781  144.2945  158.2896 C   0  0  0  0  0  0  0  0  0  0  0  0
  151.1584  144.7362  159.7299 C   0  0  0  0  0  0  0  0  0  0  0  0
  151.9418  143.6966  160.5090 C   0  0  0  0  0  0  0  0  0  0  0  0
  152.4340  142.5460  159.8618 C   0  0  0  0  0  0  0  0  0  0  0  0
  153.1578  141.5815  160.5887 C   0  0  0  0  0  0  0  0  0  0  0  0
  153.4010  141.7482  161.9673 C   0  0  0  0  0  0  0  0  0  0  0  0
  154.1116  140.7514  162.6001 O   0  0  0  0  0  0  0  0  0  0  0  0
  154.5982  139.6670  161.8186 C   0  0  0  0  0  0  0  0  0  0  0  0
  153.9455  138.3562  162.2884 C   0  0  1  0  0  0  0  0  0  0  0  0
  152.8628  138.0846  161.4212 O   0  0  0  0  0  0  0  0  0  0  0  0
  154.9274  137.1636  162.3157 C   0  0  0  0  0  0  0  0  0  0  0  0
  154.4781  136.0982  163.2273 N   0  0  0  0  0  0  0  0  0  0  0  0
  154.2134  136.4840  164.5514 C   0  0  0  0  0  0  0  0  0  0  0  0
  153.8204  135.6325  165.4415 N   0  0  0  0  0  0  0  0  0  0  0  0
  153.6540  134.2885  165.0946 C   0  0  0  0  0  0  0  0  0  0  0  0
  153.1952  133.3734  166.2162 C   0  0  0  0  0  0  0  0  0  0  0  0
  153.8971  133.8494  163.8295 C   0  0  0  0  0  0  0  0  0  0  0  0
  153.7396  132.3974  163.3959 C   0  0  0  0  0  0  0  0  0  0  0  0
  154.3470  134.8070  162.8062 C   0  0  0  0  0  0  0  0  0  0  0  0
  154.5960  134.4769  161.6450 O   0  0  0  0  0  0  0  0  0  0  0  0
  152.9087  142.9108  162.6122 C   0  0  0  0  0  0  0  0  0  0  0  0
  152.1842  143.8759  161.8857 C   0  0  0  0  0  0  0  0  0  0  0  0
  150.3154  145.0583  157.7525 H   0  0  0  0  0  0  0  0  0  0  0  0
  150.2949  143.3736  158.2662 H   0  0  0  0  0  0  0  0  0  0  0  0
  151.8053  144.1187  157.7436 H   0  0  0  0  0  0  0  0  0  0  0  0
  151.7135  145.6750  159.7278 H   0  0  0  0  0  0  0  0  0  0  0  0
  150.2179  144.9378  160.2442 H   0  0  0  0  0  0  0  0  0  0  0  0
  152.2580  142.3988  158.8061 H   0  0  0  0  0  0  0  0  0  0  0  0
  153.5292  140.7026  160.0824 H   0  0  0  0  0  0  0  0  0  0  0  0
  154.3350  139.8379  160.7734 H   0  0  0  0  0  0  0  0  0  0  0  0
  155.6854  139.5897  161.8784 H   0  0  0  0  0  0  0  0  0  0  0  0
  153.5316  138.5278  163.2827 H   0  0  0  0  0  0  0  0  0  0  0  0
  152.1662  138.6937  161.6141 H   0  0  0  0  0  0  0  0  0  0  0  0
  155.1047  136.7900  161.3049 H   0  0  0  0  0  0  0  0  0  0  0  0
  155.9073  137.5120  162.6476 H   0  0  0  0  0  0  0  0  0  0  0  0
  154.3661  137.5418  164.7723 H   0  0  0  0  0  0  0  0  0  0  0  0
  152.2344  132.9208  165.9708 H   0  0  0  0  0  0  0  0  0  0  0  0
  153.0768  133.9202  167.1526 H   0  0  0  0  0  0  0  0  0  0  0  0
  153.9235  132.5793  166.3834 H   0  0  0  0  0  0  0  0  0  0  0  0
  154.7030  131.9935  163.0837 H   0  0  0  0  0  0  0  0  0  0  0  0
  153.0529  132.3279  162.5516 H   0  0  0  0  0  0  0  0  0  0  0  0
  153.3521  131.7538  164.1840 H   0  0  0  0  0  0  0  0  0  0  0  0
  153.0732  143.0867  163.6641 H   0  0  0  0  0  0  0  0  0  0  0  0
  151.8147  144.7566  162.3905 H   0  0  0  0  0  0  0  0  0  0  0  0
  1  2  1  0  0  0  0
  1 23  1  0  0  0  0
  1 24  1  0  0  0  0
  1 25  1  0  0  0  0
  2  3  1  0  0  0  0
  2 26  1  0  0  0  0
  2 27  1  0  0  0  0
  3 22  1  0  0  0  0
  3  4  2  0  0  0  0
  4  5  1  0  0  0  0
  4 28  1  0  0  0  0
  5  6  2  0  0  0  0
  5 29  1  0  0  0  0
  6  7  1  0  0  0  0
  6 21  1  0  0  0  0
  7  8  1  0  0  0  0
  8  9  1  0  0  0  0
  8 30  1  0  0  0  0
  8 31  1  0  0  0  0
  9 10  1  0  0  0  0
  9 11  1  0  0  0  0
  9 32  1  0  0  0  0
 10 33  1  0  0  0  0
 11 12  1  0  0  0  0
 11 34  1  0  0  0  0
 11 35  1  0  0  0  0
 12 19  1  0  0  0  0
 12 13  1  0  0  0  0
 13 14  2  0  0  0  0
 13 36  1  0  0  0  0
 14 15  1  0  0  0  0
 15 16  1  0  0  0  0
 15 17  2  0  0  0  0
 16 37  1  0  0  0  0
 16 38  1  0  0  0  0
 16 39  1  0  0  0  0
 17 18  1  0  0  0  0
 17 19  1  0  0  0  0
 18 40  1  0  0  0  0
 18 41  1  0  0  0  0
 18 42  1  0  0  0  0
 19 20  2  0  0  0  0
 21 22  2  0  0  0  0
 21 43  1  0  0  0  0
 22 44  1  0  0  0  0
M  END
> <s_m_source_file>
AV-unprocessed.smi

> <i_m_source_file_index>
2809

> <i_lp_mmshare_version>
43012

> <i_f3d_flags>
0

> <s_epik_input>
W0NIM11bQ0gyXWMxW2NIXVtjSF1jKFtjSF1bY0hdMSlPW0NIMl1bQ0BIXShbT0hdKVtDSDJdbjJbY0hdbmMoW0NIM10pYyhbQ0gzXSljMj1P

> <s_epik_cmdline>
J2VwaWtfcHl0aG9uJywgJy1waCcsICc3LjAnLCAnLXRuJywgJzgnLCAnLW1hJywgJzIwMCcsICctbWV0YWxfYmluZGluZycsICctaW1hZScsICc8aW5maWxlLm1hZT4nLCAnLW9tYWUnLCAnPG91dGZpbGUubWFlPic=

> <r_lp_tautomer_probability>
1

> <r_epik_Ionization_Penalty>
3.74127e-05

> <r_epik_Ionization_Penalty_Charging>
8.43242e-08

> <r_epik_Ionization_Penalty_Neutral>
3.73284e-05

> <r_epik_State_Penalty>
-0

> <r_epik_Charging_Adjusted_Penalty>
8.43242e-08

> <i_epik_Tot_Q>
0

> <i_epik_Tot_abs_Q>
0

> <r_epik_Metal_State_Penalty>
-0

> <b_epik_Metal_Only>
0

> <s_lp_Force_Field>
OPLS_2005

> <r_lp_Energy>
23.3526

> <b_lp_Chiralities_Consistent>
1

> <s_lp_Variant>
AV-unprocessed.smi:2809-2

> <Gold.Version>
5.8.1

> <Gold.Id.Protein>
6NUR|6NUR_protein|mol2

> <Gold.PLP.Fitness>
47.4510

> <Gold.PLP.PLP>
-51.8809

> <Gold.PLP.part.hbond>
-0.3537

> <Gold.PLP.part.metal>
0.0000

> <Gold.PLP.part.buried>
-6.3824

> <Gold.PLP.part.nonpolar>
-46.1077

> <Gold.PLP.part.repulsive>
1.1505

> <Gold.PLP.ligand.clash>
2.0483

> <Gold.PLP.ligand.torsion>
1.2189

> <Gold.PLP.Chemscore.Hbond>
0.0000

> <Gold.PLP.Chemscore.CHOScore>
0.0000

> <Gold.PLP.Chemscore.Metal>
0.0000

> <Gold.PLP.Chemscore.Internal.Correction>
0.0562

> <Gold.Rescore>
     Score         DG    S(hbond)    S(metal)    S(lipo)     H(rot)  DE(clash)    DE(int)     intcor
     14.26     -15.62       0.00        0.00     140.60       2.47       0.14       1.21       ----

> <Gold.Chemscore.Fitness>
14.2611

> <Gold.Chemscore.DG>
-15.6179

> <Gold.Chemscore.ZeroCoef>
-5.4800

> <Gold.Chemscore.Hbond>
0.0000

> <Gold.Chemscore.Metal>
0.0000

> <Gold.Chemscore.Lipo>
140.5983

> <Gold.Chemscore.Internal_Hbond>
0.0000

> <Gold.Chemscore.DEClash>
0.1436

> <Gold.Chemscore.DEInternal>
1.2132

> <Gold.Chemscore.Rot>
2.4657

> <Gold.Chemscore.Internal.Correction>
   9.000000E+99

> <Gold.Chemscore.Hbond.Weighted>
-0.0000

> <Gold.Chemscore.Metal.Weighted>
-0.0000

> <Gold.Chemscore.Lipo.Weighted>
-16.4500

> <Gold.Chemscore.Internal_Hbond.Weighted>
0.0000

> <Gold.Chemscore.DEClash.Weighted>
0.1436

> <Gold.Chemscore.DEInternal.Weighted>
1.2132

> <Gold.Chemscore.Rot.Weighted>
6.3121

> <Gold.Chemscore.Internal.Correction.Weighted>
   9.000000E+99

> <Gold.Protein.RotatedTorsions>
[ 6907 6896 6895 6894 ] final   83.68 input  -60.11 | X-H torsion
[ 7974 7965 7964 7962 ] final    3.57 input  175.53 | X-H torsion
[ 8008 7997 7996 7995 ] final  -37.89 input   59.86 | X-H torsion
[ 10167 10162 10161 10158 ] final   93.41 input  -65.29 | X-H torsion
[ 10718 10713 10712 10709 ] final  138.79 input   66.30 | X-H torsion
[ 10763 10752 10751 10750 ] final   10.99 input  -60.55 | X-H torsion
[ 11005 11000 10999 10996 ] final    7.31 input  -57.11 | X-H torsion

> <Gold.Protein.ActiveResidues>
 VAL166  LYS551  ARG553  GLY616  TRP617  ASP618  TYR619  PRO620  LYS621  CYS622 
 ASP623  PHE694  ASN695  SER759  ASP760  ASP761  ALA762  ILE779  LEU786  VAL792 
 PHE793  MET794  SER795  GLU796  ALA797  LYS798  CYS799  TRP800  GLU811  SER814 

> <Gold.Protein.RotatedAtoms>
  152.5333  134.2858  159.9024 H   0  0  0  0  0  0  0  0  0  0  0  0  # atno 6907 bound_to 6896
  151.2811  133.4203  159.2634 H   0  0  0  0  0  0  0  0  0  0  0  0  # atno 6908 bound_to 6896
  151.0283  134.9536  159.8154 H   0  0  0  0  0  0  0  0  0  0  0  0  # atno 6909 bound_to 6896
  146.2445  140.0665  142.8365 H   0  0  0  0  0  0  0  0  0  0  0  0  # atno 7974 bound_to 7965
  154.4046  140.1592  156.2610 H   0  0  0  0  0  0  0  0  0  0  0  0  # atno 8008 bound_to 7997
  155.9036  140.3431  155.6023 H   0  0  0  0  0  0  0  0  0  0  0  0  # atno 8009 bound_to 7997
  155.7419  140.0793  157.2232 H   0  0  0  0  0  0  0  0  0  0  0  0  # atno 8010 bound_to 7997
  139.8182  144.6743  150.9552 H   0  0  0  0  0  0  0  0  0  0  0  0  # atno 10167 bound_to 10162
  157.4215  131.1039  151.0348 H   0  0  0  0  0  0  0  0  0  0  0  0  # atno 10718 bound_to 10713
  153.1973  135.6851  153.8276 H   0  0  0  0  0  0  0  0  0  0  0  0  # atno 10763 bound_to 10752
  153.7554  135.3217  155.3329 H   0  0  0  0  0  0  0  0  0  0  0  0  # atno 10764 bound_to 10752
  154.8152  135.4691  154.0723 H   0  0  0  0  0  0  0  0  0  0  0  0  # atno 10765 bound_to 10752
  140.5497  134.0295  155.7932 H   0  0  0  0  0  0  0  0  0  0  0  0  # atno 11005 bound_to 11000
  145.0854  140.9249  143.4801 LP  0  0  0  0  0  0  0  0  0  0  0  0  # atno 17320 bound_to 7965
  145.0827  139.2948  143.5775 LP  0  0  0  0  0  0  0  0  0  0  0  0  # atno 17321 bound_to 7965
  140.7814  143.4117  151.0982 LP  0  0  0  0  0  0  0  0  0  0  0  0  # atno 17342 bound_to 10162
  139.7780  143.8397  152.3132 LP  0  0  0  0  0  0  0  0  0  0  0  0  # atno 17343 bound_to 10162
  157.1277  130.6089  149.5521 LP  0  0  0  0  0  0  0  0  0  0  0  0  # atno 17370 bound_to 10713
  155.9882  130.4924  150.7160 LP  0  0  0  0  0  0  0  0  0  0  0  0  # atno 17371 bound_to 10713
  141.1179  133.9510  157.2787 LP  0  0  0  0  0  0  0  0  0  0  0  0  # atno 17394 bound_to 11000
  139.9462  135.0183  156.8858 LP  0  0  0  0  0  0  0  0  0  0  0  0  # atno 17395 bound_to 11000

$$$$
