AV-unprocessed.smi:2775|AV-procd|sdf|10693|dock2
  -GOLD-   2272015133D 1   1.00000     0.00000
 Structure written by MMmdl.
 42 45  0  0  0  0  0  0  0  0  1 V2000
  143.5412  133.0695  151.0338 C   0  0  0  0  0  0  0  0  0  0  0  0
  143.7311  134.3334  151.8511 C   0  0  0  0  0  0  0  0  0  0  0  0
  142.5999  134.9023  152.3215 N   0  0  0  0  0  0  0  0  0  0  0  0
  142.7141  136.0249  153.0600 C   0  0  0  0  0  0  0  0  0  0  0  0
  143.9475  136.6342  153.3597 C   0  0  0  0  0  0  0  0  0  0  0  0
  145.1339  136.0485  152.8568 C   0  0  0  0  0  0  0  0  0  0  0  0
  146.4380  136.5597  153.1011 N   0  0  0  0  0  0  0  0  0  0  0  0
  146.8723  137.4028  154.0578 C   0  0  0  0  0  0  0  0  0  0  0  0
  146.1678  137.9062  154.9296 O   0  0  0  0  0  0  0  0  0  0  0  0
  148.1866  137.6756  153.9804 N   0  0  0  0  0  0  0  0  0  0  0  0
  148.9643  138.5481  154.8621 C   0  0  1  0  0  0  0  0  0  0  0  0
  150.3789  138.8232  154.3187 C   0  0  2  0  0  0  0  0  0  0  0  0
  151.5808  138.3478  155.0893 C   0  0  0  0  0  0  0  0  0  0  0  0
  151.9985  139.5939  155.8754 C   0  0  0  0  0  0  0  0  0  0  0  0
  150.8212  140.3959  155.9332 O   0  0  0  0  0  0  0  0  0  0  0  0
  150.1682  140.2914  154.6717 C   0  0  2  0  0  0  0  0  0  0  0  0
  148.6541  140.0542  154.7266 C   0  0  0  0  0  0  0  0  0  0  0  0
  147.7451  140.6266  153.6221 C   0  0  0  0  0  0  0  0  0  0  0  0
  146.6737  140.8747  154.6874 C   0  0  0  0  0  0  0  0  0  0  0  0
  147.7731  140.7845  155.7499 C   0  0  0  0  0  0  0  0  0  0  0  0
  145.0201  134.8629  152.0932 C   0  0  0  0  0  0  0  0  0  0  0  0
  146.4306  134.0774  151.4635 Cl  0  0  0  0  0  0  0  0  0  0  0  0
  143.9432  133.2040  150.0295 H   0  0  0  0  0  0  0  0  0  0  0  0
  142.4871  132.8042  150.9422 H   0  0  0  0  0  0  0  0  0  0  0  0
  144.0595  132.2338  151.5042 H   0  0  0  0  0  0  0  0  0  0  0  0
  141.7923  136.4494  153.4297 H   0  0  0  0  0  0  0  0  0  0  0  0
  143.9530  137.5219  153.9720 H   0  0  0  0  0  0  0  0  0  0  0  0
  147.1337  136.2806  152.4247 H   0  0  0  0  0  0  0  0  0  0  0  0
  148.6998  137.2306  153.2330 H   0  0  0  0  0  0  0  0  0  0  0  0
  148.9969  138.2280  155.9059 H   0  0  0  0  0  0  0  0  0  0  0  0
  150.4467  138.6829  153.2382 H   0  0  0  0  0  0  0  0  0  0  0  0
  151.3141  137.5345  155.7650 H   0  0  0  0  0  0  0  0  0  0  0  0
  152.3829  137.9947  154.4407 H   0  0  0  0  0  0  0  0  0  0  0  0
  152.3724  139.3578  156.8718 H   0  0  0  0  0  0  0  0  0  0  0  0
  152.7748  140.1420  155.3396 H   0  0  0  0  0  0  0  0  0  0  0  0
  150.5279  140.9923  153.9170 H   0  0  0  0  0  0  0  0  0  0  0  0
  148.1318  141.5567  153.2030 H   0  0  0  0  0  0  0  0  0  0  0  0
  147.4507  139.9337  152.8341 H   0  0  0  0  0  0  0  0  0  0  0  0
  146.1839  141.8466  154.6216 H   0  0  0  0  0  0  0  0  0  0  0  0
  145.9488  140.0631  154.7563 H   0  0  0  0  0  0  0  0  0  0  0  0
  147.5071  140.1956  156.6281 H   0  0  0  0  0  0  0  0  0  0  0  0
  148.1725  141.7615  156.0261 H   0  0  0  0  0  0  0  0  0  0  0  0
  1  2  1  0  0  0  0
  1 23  1  0  0  0  0
  1 24  1  0  0  0  0
  1 25  1  0  0  0  0
  2 21  1  0  0  0  0
  2  3  2  0  0  0  0
  3  4  1  0  0  0  0
  4  5  2  0  0  0  0
  4 26  1  0  0  0  0
  5  6  1  0  0  0  0
  5 27  1  0  0  0  0
  6  7  1  0  0  0  0
  6 21  2  0  0  0  0
  7  8  1  0  0  0  0
  7 28  1  0  0  0  0
  8  9  2  0  0  0  0
  8 10  1  0  0  0  0
 10 11  1  0  0  0  0
 10 29  1  0  0  0  0
 11 17  1  0  0  0  0
 11 12  1  0  0  0  0
 11 30  1  0  0  0  0
 12 16  1  0  0  0  0
 12 13  1  0  0  0  0
 12 31  1  0  0  0  0
 13 14  1  0  0  0  0
 13 32  1  0  0  0  0
 13 33  1  0  0  0  0
 14 15  1  0  0  0  0
 14 34  1  0  0  0  0
 14 35  1  0  0  0  0
 15 16  1  0  0  0  0
 16 17  1  0  0  0  0
 16 36  1  0  0  0  0
 17 20  1  0  0  0  0
 17 18  1  0  0  0  0
 18 19  1  0  0  0  0
 18 37  1  0  0  0  0
 18 38  1  0  0  0  0
 19 20  1  0  0  0  0
 19 39  1  0  0  0  0
 19 40  1  0  0  0  0
 20 41  1  0  0  0  0
 20 42  1  0  0  0  0
 21 22  1  0  0  0  0
M  END
> <s_m_source_file>
AV-unprocessed.smi

> <i_m_source_file_index>
2775

> <i_lp_mmshare_version>
43012

> <i_f3d_flags>
0

> <s_epik_input>
W0NIM11jMW5bY0hdW2NIXWMoYzFDbClbTkhdQyg9TylbTkhdW0NAQEhdMltDQEhdKFtDSDJdW0NIMl1PMylbQ0BASF0zQzI0W0NIMl1bQ0gyXVtDSDJdNA==

> <s_epik_cmdline>
J2VwaWtfcHl0aG9uJywgJy1waCcsICc3LjAnLCAnLXRuJywgJzgnLCAnLW1hJywgJzIwMCcsICctbWV0YWxfYmluZGluZycsICctaW1hZScsICc8aW5maWxlLm1hZT4nLCAnLW9tYWUnLCAnPG91dGZpbGUubWFlPic=

> <r_epik_Ionization_Penalty>
0.01026

> <r_epik_Ionization_Penalty_Charging>
0

> <r_epik_Ionization_Penalty_Neutral>
0.01026

> <r_epik_State_Penalty>
0.00780685

> <r_epik_Charging_Adjusted_Penalty>
0.00780685

> <i_epik_Tot_Q>
0

> <i_epik_Tot_abs_Q>
0

> <r_epik_Metal_State_Penalty>
0.00767411

> <b_epik_Metal_Only>
0

> <s_lp_Force_Field>
OPLS_2005

> <r_lp_Energy>
55.7344

> <b_lp_Chiralities_Consistent>
1

> <s_lp_Variant>
AV-unprocessed.smi:2775-6

> <Gold.Version>
5.8.1

> <Gold.Id.Protein>
6NUR|6NUR_protein|mol2

> <Gold.PLP.Fitness>
38.0839

> <Gold.PLP.PLP>
-32.2584

> <Gold.PLP.part.hbond>
-2.4565

> <Gold.PLP.part.metal>
0.0000

> <Gold.PLP.part.buried>
0.4992

> <Gold.PLP.part.nonpolar>
-30.0240

> <Gold.PLP.part.repulsive>
0.3514

> <Gold.PLP.ligand.clash>
0.0000

> <Gold.PLP.ligand.torsion>
0.1842

> <Gold.PLP.Chemscore.Hbond>
2.0000

> <Gold.PLP.Chemscore.CHOScore>
0.0000

> <Gold.PLP.Chemscore.Metal>
0.0000

> <Gold.Chemscore.Hbonds>
donor molecule, donor type, donor heavy atom, donor atom, acceptor molecule, acceptor atom, score
      L1  H     7    28       P1  7948  1.00
      L1  H    10    29       P1  7948  1.00

> <Gold.PLP.Chemscore.Internal.Correction>
0.1940

> <Gold.Rescore>
     Score         DG    S(hbond)    S(metal)    S(lipo)     H(rot)  DE(clash)    DE(int)     intcor
     17.66     -19.17       1.97        0.00      82.72       1.00       0.25       1.25       ----

> <Gold.Chemscore.Fitness>
17.6594

> <Gold.Chemscore.DG>
-19.1657

> <Gold.Chemscore.ZeroCoef>
-5.4800

> <Gold.Chemscore.Hbond>
1.9661

> <Gold.Chemscore.Metal>
0.0000

> <Gold.Chemscore.Lipo>
82.7249

> <Gold.Chemscore.Internal_Hbond>
0.0000

> <Gold.Chemscore.DEClash>
0.2536

> <Gold.Chemscore.DEInternal>
1.2528

> <Gold.Chemscore.Rot>
1.0000

> <Gold.Chemscore.Internal.Correction>
   9.000000E+99

> <Gold.Chemscore.Hbonds>
donor molecule, donor type, donor heavy atom, donor atom, acceptor molecule, acceptor atom, score
      L1  H     7    28       P1  7948  0.95
      L1  H    10    29       P1  7948  0.99

> <Gold.Chemscore.Hbond.Weighted>
-6.5669

> <Gold.Chemscore.Metal.Weighted>
-0.0000

> <Gold.Chemscore.Lipo.Weighted>
-9.6788

> <Gold.Chemscore.Internal_Hbond.Weighted>
0.0000

> <Gold.Chemscore.DEClash.Weighted>
0.2536

> <Gold.Chemscore.DEInternal.Weighted>
1.2528

> <Gold.Chemscore.Rot.Weighted>
2.5600

> <Gold.Chemscore.Internal.Correction.Weighted>
   9.000000E+99

> <Gold.Protein.RotatedTorsions>
[ 6907 6896 6895 6894 ] final  136.27 input  -60.11 | X-H torsion
[ 7974 7965 7964 7962 ] final   80.45 input  175.53 | X-H torsion
[ 8008 7997 7996 7995 ] final  146.91 input   59.86 | X-H torsion
[ 10167 10162 10161 10158 ] final  145.14 input  -65.29 | X-H torsion
[ 10718 10713 10712 10709 ] final  -13.61 input   66.30 | X-H torsion
[ 10763 10752 10751 10750 ] final -114.96 input  -60.55 | X-H torsion
[ 11005 11000 10999 10996 ] final   51.04 input  -57.11 | X-H torsion

> <Gold.Protein.ActiveResidues>
 VAL166  LYS551  ARG553  GLY616  TRP617  ASP618  TYR619  PRO620  LYS621  CYS622 
 ASP623  PHE694  ASN695  SER759  ASP760  ASP761  ALA762  ILE779  LEU786  VAL792 
 PHE793  MET794  SER795  GLU796  ALA797  LYS798  CYS799  TRP800  GLU811  SER814 

> <Gold.Protein.RotatedAtoms>
  152.2912  133.5563  159.5558 H   0  0  0  0  0  0  0  0  0  0  0  0  # atno 6907 bound_to 6896
  150.7236  134.0426  159.3780 H   0  0  0  0  0  0  0  0  0  0  0  0  # atno 6908 bound_to 6896
  151.8332  135.0615  160.0490 H   0  0  0  0  0  0  0  0  0  0  0  0  # atno 6909 bound_to 6896
  145.6511  139.2448  143.1976 H   0  0  0  0  0  0  0  0  0  0  0  0  # atno 7974 bound_to 7965
  156.2841  140.2170  156.5452 H   0  0  0  0  0  0  0  0  0  0  0  0  # atno 8008 bound_to 7997
  154.7336  140.0493  157.0771 H   0  0  0  0  0  0  0  0  0  0  0  0  # atno 8009 bound_to 7997
  155.0321  140.3136  155.4757 H   0  0  0  0  0  0  0  0  0  0  0  0  # atno 8010 bound_to 7997
  139.4932  144.5922  151.6656 H   0  0  0  0  0  0  0  0  0  0  0  0  # atno 10167 bound_to 10162
  156.6278  130.4893  149.6140 H   0  0  0  0  0  0  0  0  0  0  0  0  # atno 10718 bound_to 10713
  154.8462  135.4399  154.1588 H   0  0  0  0  0  0  0  0  0  0  0  0  # atno 10763 bound_to 10752
  153.2730  135.6947  153.7467 H   0  0  0  0  0  0  0  0  0  0  0  0  # atno 10764 bound_to 10752
  153.6700  135.3420  155.3126 H   0  0  0  0  0  0  0  0  0  0  0  0  # atno 10765 bound_to 10752
  140.0966  134.5137  155.8801 H   0  0  0  0  0  0  0  0  0  0  0  0  # atno 11005 bound_to 11000
  146.1203  140.7317  142.9461 LP  0  0  0  0  0  0  0  0  0  0  0  0  # atno 17320 bound_to 7965
  144.7122  140.4081  143.7071 LP  0  0  0  0  0  0  0  0  0  0  0  0  # atno 17321 bound_to 7965
  140.5552  144.0360  150.6144 LP  0  0  0  0  0  0  0  0  0  0  0  0  # atno 17342 bound_to 10162
  140.3427  143.3010  152.0571 LP  0  0  0  0  0  0  0  0  0  0  0  0  # atno 17343 bound_to 10162
  156.2259  130.6765  151.1416 LP  0  0  0  0  0  0  0  0  0  0  0  0  # atno 17370 bound_to 10713
  157.7209  131.0682  150.6139 LP  0  0  0  0  0  0  0  0  0  0  0  0  # atno 17371 bound_to 10713
  141.2094  133.6683  156.6434 LP  0  0  0  0  0  0  0  0  0  0  0  0  # atno 17394 bound_to 11000
  140.3278  134.7954  157.4303 LP  0  0  0  0  0  0  0  0  0  0  0  0  # atno 17395 bound_to 11000

$$$$
