AV-unprocessed.smi:2919|AV-procd|sdf|11193|dock6
  -GOLD-   2272016 83D 1   1.00000     0.00000
 Structure written by MMmdl.
 34 36  0  0  0  0  0  0  0  0  1 V2000
  151.7751  144.3947  160.8939 C   0  0  0  0  0  0  0  0  0  0  0  0
  152.0606  143.1461  160.0785 C   0  0  0  0  0  0  0  0  0  0  0  0
  151.2254  142.9426  159.0363 N   0  0  0  0  0  0  0  0  0  0  0  0
  151.3771  141.8791  158.2457 N   0  0  0  0  0  0  0  0  0  0  0  0
  152.3658  140.9802  158.4692 C   0  0  0  0  0  0  0  0  0  0  0  0
  152.4622  139.8850  157.5912 N   0  0  0  0  0  0  0  0  0  0  0  0
  151.9601  139.9752  156.2234 C   0  0  1  0  0  0  0  0  0  0  0  0
  152.3912  138.7940  155.3509 C   0  0  0  0  0  0  0  0  0  0  0  0
  151.0450  138.2940  154.8080 C   0  0  1  0  0  0  0  0  0  0  0  0
  150.2496  137.5403  155.8818 C   0  0  0  0  0  0  0  0  0  0  0  0
  149.8005  138.6810  156.7926 C   0  0  0  0  0  0  0  0  0  0  0  0
  150.4242  139.9054  156.1009 C   0  0  2  0  0  0  0  0  0  0  0  0
  150.3114  139.5056  154.7454 O   0  0  0  0  0  0  0  0  0  0  0  0
  153.2801  141.1324  159.5438 C   0  0  0  0  0  0  0  0  0  0  0  0
  154.3439  140.1583  159.7803 C   0  0  0  0  0  0  0  0  0  0  0  0
  155.1864  139.3875  159.9671 N   0  0  0  0  0  0  0  0  0  0  0  0
  153.1224  142.2612  160.3867 C   0  0  0  0  0  0  0  0  0  0  0  0
  154.0573  142.5046  161.5688 C   0  0  0  0  0  0  0  0  0  0  0  0
  152.6385  145.0606  160.8863 H   0  0  0  0  0  0  0  0  0  0  0  0
  151.5450  144.1313  161.9265 H   0  0  0  0  0  0  0  0  0  0  0  0
  150.9241  144.9483  160.4941 H   0  0  0  0  0  0  0  0  0  0  0  0
  152.5536  138.9624  157.9916 H   0  0  0  0  0  0  0  0  0  0  0  0
  152.3230  140.8950  155.7622 H   0  0  0  0  0  0  0  0  0  0  0  0
  153.0336  139.1394  154.5402 H   0  0  0  0  0  0  0  0  0  0  0  0
  152.9259  138.0147  155.8959 H   0  0  0  0  0  0  0  0  0  0  0  0
  151.1201  137.7625  153.8590 H   0  0  0  0  0  0  0  0  0  0  0  0
  149.3861  137.0367  155.4456 H   0  0  0  0  0  0  0  0  0  0  0  0
  150.8540  136.7958  156.4010 H   0  0  0  0  0  0  0  0  0  0  0  0
  148.7127  138.7566  156.7943 H   0  0  0  0  0  0  0  0  0  0  0  0
  150.1283  138.5571  157.8249 H   0  0  0  0  0  0  0  0  0  0  0  0
  149.9185  140.8440  156.3291 H   0  0  0  0  0  0  0  0  0  0  0  0
  154.0267  141.6571  162.2545 H   0  0  0  0  0  0  0  0  0  0  0  0
  153.8052  143.3940  162.1436 H   0  0  0  0  0  0  0  0  0  0  0  0
  155.0831  142.6234  161.2181 H   0  0  0  0  0  0  0  0  0  0  0  0
  1  2  1  0  0  0  0
  1 19  1  0  0  0  0
  1 20  1  0  0  0  0
  1 21  1  0  0  0  0
  2 17  1  0  0  0  0
  2  3  2  0  0  0  0
  3  4  1  0  0  0  0
  4  5  2  0  0  0  0
  5  6  1  0  0  0  0
  5 14  1  0  0  0  0
  6  7  1  0  0  0  0
  6 22  1  0  0  0  0
  7 12  1  0  0  0  0
  7  8  1  0  0  0  0
  7 23  1  0  0  0  0
  8  9  1  0  0  0  0
  8 24  1  0  0  0  0
  8 25  1  0  0  0  0
  9 13  1  0  0  0  0
  9 10  1  0  0  0  0
  9 26  1  0  0  0  0
 10 11  1  0  0  0  0
 10 27  1  0  0  0  0
 10 28  1  0  0  0  0
 11 12  1  0  0  0  0
 11 29  1  0  0  0  0
 11 30  1  0  0  0  0
 12 13  1  0  0  0  0
 12 31  1  0  0  0  0
 14 15  1  0  0  0  0
 14 17  2  0  0  0  0
 15 16  3  0  0  0  0
 17 18  1  0  0  0  0
 18 32  1  0  0  0  0
 18 33  1  0  0  0  0
 18 34  1  0  0  0  0
M  END
> <s_m_source_file>
AV-unprocessed.smi

> <i_m_source_file_index>
2919

> <i_lp_mmshare_version>
43012

> <i_f3d_flags>
0

> <s_epik_input>
W0NIM11jMW5uYyhjKEMjTiljMVtDSDNdKVtOSF1bQ0BIXShbQ0gyXVtDQEBIXTIzKVtDQEBIXShPMylbQ0gyXVtDSDJdMg==

> <s_epik_cmdline>
J2VwaWtfcHl0aG9uJywgJy1waCcsICc3LjAnLCAnLXRuJywgJzgnLCAnLW1hJywgJzIwMCcsICctbWV0YWxfYmluZGluZycsICctaW1hZScsICc8aW5maWxlLm1hZT4nLCAnLW9tYWUnLCAnPG91dGZpbGUubWFlPic=

> <r_lp_tautomer_probability>
1

> <r_epik_Ionization_Penalty>
0.00143865

> <r_epik_Ionization_Penalty_Charging>
0

> <r_epik_Ionization_Penalty_Neutral>
0.00143865

> <r_epik_State_Penalty>
-0

> <r_epik_Charging_Adjusted_Penalty>
0

> <i_epik_Tot_Q>
0

> <i_epik_Tot_abs_Q>
0

> <r_epik_Metal_State_Penalty>
-0

> <b_epik_Metal_Only>
0

> <s_lp_Force_Field>
OPLS_2005

> <r_lp_Energy>
49.159

> <b_lp_Chiralities_Consistent>
1

> <s_lp_Variant>
AV-unprocessed.smi:2919-2

> <Gold.Version>
5.8.1

> <Gold.Id.Protein>
6NUR|6NUR_protein|mol2

> <Gold.PLP.Fitness>
39.7236

> <Gold.PLP.PLP>
-37.3132

> <Gold.PLP.part.hbond>
-0.8612

> <Gold.PLP.part.metal>
0.0000

> <Gold.PLP.part.buried>
-6.4727

> <Gold.PLP.part.nonpolar>
-30.8497

> <Gold.PLP.part.repulsive>
0.3369

> <Gold.PLP.ligand.clash>
0.0000

> <Gold.PLP.ligand.torsion>
0.2999

> <Gold.PLP.Chemscore.Hbond>
1.0000

> <Gold.PLP.Chemscore.CHOScore>
0.0000

> <Gold.PLP.Chemscore.Metal>
0.0000

> <Gold.Chemscore.Hbonds>
donor molecule, donor type, donor heavy atom, donor atom, acceptor molecule, acceptor atom, score
      P1  H  7989  7998       L1    13  0.41

> <Gold.PLP.Chemscore.Internal.Correction>
0.0102

> <Gold.Rescore>
     Score         DG    S(hbond)    S(metal)    S(lipo)     H(rot)  DE(clash)    DE(int)     intcor
     16.01     -16.39       0.92        0.00      88.80       1.00       0.00       0.38       ----

> <Gold.Chemscore.Fitness>
16.0105

> <Gold.Chemscore.DG>
-16.3928

> <Gold.Chemscore.ZeroCoef>
-5.4800

> <Gold.Chemscore.Hbond>
0.9232

> <Gold.Chemscore.Metal>
0.0000

> <Gold.Chemscore.Lipo>
88.7965

> <Gold.Chemscore.Internal_Hbond>
0.0000

> <Gold.Chemscore.DEClash>
0.0000

> <Gold.Chemscore.DEInternal>
0.3823

> <Gold.Chemscore.Rot>
1.0000

> <Gold.Chemscore.Internal.Correction>
   9.000000E+99

> <Gold.Chemscore.Hbonds>
donor molecule, donor type, donor heavy atom, donor atom, acceptor molecule, acceptor atom, score
      P1  H  7989  7998       L1    13  0.11

> <Gold.Chemscore.Hbond.Weighted>
-3.0836

> <Gold.Chemscore.Metal.Weighted>
-0.0000

> <Gold.Chemscore.Lipo.Weighted>
-10.3892

> <Gold.Chemscore.Internal_Hbond.Weighted>
0.0000

> <Gold.Chemscore.DEClash.Weighted>
0.0000

> <Gold.Chemscore.DEInternal.Weighted>
0.3823

> <Gold.Chemscore.Rot.Weighted>
2.5600

> <Gold.Chemscore.Internal.Correction.Weighted>
   9.000000E+99

> <Gold.Protein.RotatedTorsions>
[ 6907 6896 6895 6894 ] final  132.68 input  -60.11 | X-H torsion
[ 7974 7965 7964 7962 ] final  -31.50 input  175.53 | X-H torsion
[ 8008 7997 7996 7995 ] final   10.20 input   59.86 | X-H torsion
[ 10167 10162 10161 10158 ] final  138.70 input  -65.29 | X-H torsion
[ 10718 10713 10712 10709 ] final -142.47 input   66.30 | X-H torsion
[ 10763 10752 10751 10750 ] final   25.04 input  -60.55 | X-H torsion
[ 11005 11000 10999 10996 ] final -118.75 input  -57.11 | X-H torsion

> <Gold.Protein.ActiveResidues>
 VAL166  LYS551  ARG553  GLY616  TRP617  ASP618  TYR619  PRO620  LYS621  CYS622 
 ASP623  PHE694  ASN695  SER759  ASP760  ASP761  ALA762  ILE779  LEU786  VAL792 
 PHE793  MET794  SER795  GLU796  ALA797  LYS798  CYS799  TRP800  GLU811  SER814 

> <Gold.Protein.RotatedAtoms>
  152.3299  133.5947  159.5802 H   0  0  0  0  0  0  0  0  0  0  0  0  # atno 6907 bound_to 6896
  150.7417  133.9883  159.3608 H   0  0  0  0  0  0  0  0  0  0  0  0  # atno 6908 bound_to 6896
  151.7759  135.0775  160.0418 H   0  0  0  0  0  0  0  0  0  0  0  0  # atno 6909 bound_to 6896
  146.1062  140.5675  142.8798 H   0  0  0  0  0  0  0  0  0  0  0  0  # atno 7974 bound_to 7965
  154.7902  140.2834  155.5997 H   0  0  0  0  0  0  0  0  0  0  0  0  # atno 8008 bound_to 7997
  156.2963  140.2606  156.2676 H   0  0  0  0  0  0  0  0  0  0  0  0  # atno 8009 bound_to 7997
  154.9679  140.0376  157.2210 H   0  0  0  0  0  0  0  0  0  0  0  0  # atno 8010 bound_to 7997
  139.5102  144.6338  151.5750 H   0  0  0  0  0  0  0  0  0  0  0  0  # atno 10167 bound_to 10162
  156.3463  130.7664  151.1809 H   0  0  0  0  0  0  0  0  0  0  0  0  # atno 10718 bound_to 10713
  153.0720  135.6592  154.0226 H   0  0  0  0  0  0  0  0  0  0  0  0  # atno 10763 bound_to 10752
  153.9869  135.2950  155.3417 H   0  0  0  0  0  0  0  0  0  0  0  0  # atno 10764 bound_to 10752
  154.7098  135.5210  153.8719 H   0  0  0  0  0  0  0  0  0  0  0  0  # atno 10765 bound_to 10752
  141.0264  134.0047  157.3208 H   0  0  0  0  0  0  0  0  0  0  0  0  # atno 11005 bound_to 11000
  144.7473  140.5101  143.6826 LP  0  0  0  0  0  0  0  0  0  0  0  0  # atno 17320 bound_to 7965
  145.5755  139.1486  143.3264 LP  0  0  0  0  0  0  0  0  0  0  0  0  # atno 17321 bound_to 7965
  140.6080  143.9489  150.6432 LP  0  0  0  0  0  0  0  0  0  0  0  0  # atno 17342 bound_to 10162
  140.2722  143.3448  152.1227 LP  0  0  0  0  0  0  0  0  0  0  0  0  # atno 17343 bound_to 10162
  157.7454  131.0440  150.4773 LP  0  0  0  0  0  0  0  0  0  0  0  0  # atno 17370 bound_to 10713
  156.4961  130.4106  149.6379 LP  0  0  0  0  0  0  0  0  0  0  0  0  # atno 17371 bound_to 10713
  139.9179  135.0198  156.7951 LP  0  0  0  0  0  0  0  0  0  0  0  0  # atno 17394 bound_to 11000
  140.6484  133.9754  155.7742 LP  0  0  0  0  0  0  0  0  0  0  0  0  # atno 17395 bound_to 11000

$$$$
