AV-unprocessed.smi:2954|AV-procd|sdf|11297|dock5
  -GOLD-   2272016193D 1   1.00000     0.00000
 Structure written by MMmdl.
 42 44  0  0  0  0  0  0  0  0  1 V2000
  152.4074  138.5798  154.8380 C   0  0  0  0  0  0  0  0  0  0  0  0
  152.2093  138.3576  156.3491 C   0  0  2  0  0  0  0  0  0  0  0  0
  151.0847  137.4754  156.6697 N   0  0  0  0  0  0  0  0  0  0  0  0
  151.0865  136.1347  156.6528 C   0  0  0  0  0  0  0  0  0  0  0  0
  152.0762  135.4696  156.3576 O   0  0  0  0  0  0  0  0  0  0  0  0
  152.0855  139.6496  157.1226 C   0  0  0  0  0  0  0  0  0  0  0  0
  152.9975  140.0261  158.0233 N   0  0  0  0  0  0  0  0  0  0  0  0
  152.4976  141.2236  158.4921 C   0  0  0  0  0  0  0  0  0  0  0  0
  153.0031  142.1095  159.4701 C   0  0  0  0  0  0  0  0  0  0  0  0
  152.3016  143.2887  159.7956 C   0  0  0  0  0  0  0  0  0  0  0  0
  151.0879  143.5980  159.1485 C   0  0  0  0  0  0  0  0  0  0  0  0
  150.5694  142.7301  158.1685 C   0  0  0  0  0  0  0  0  0  0  0  0
  151.2744  141.5543  157.8463 C   0  0  0  0  0  0  0  0  0  0  0  0
  151.0455  140.5096  156.9549 N   0  0  0  0  0  0  0  0  0  0  0  0
  149.9000  140.3941  156.0619 C   0  0  0  0  0  0  0  0  0  0  0  0
  148.6237  140.0028  156.8201 C   0  0  0  0  0  0  0  0  0  0  0  0
  147.8880  141.1843  157.1064 O   0  0  0  0  0  0  0  0  0  0  0  0
  147.1524  141.7673  156.0975 C   0  0  0  0  0  0  0  0  0  0  0  0
  147.4554  141.6322  154.7189 C   0  0  0  0  0  0  0  0  0  0  0  0
  146.6526  142.2606  153.7472 C   0  0  0  0  0  0  0  0  0  0  0  0
  145.5417  143.0301  154.1382 C   0  0  0  0  0  0  0  0  0  0  0  0
  145.2342  143.1717  155.5038 C   0  0  0  0  0  0  0  0  0  0  0  0
  146.0351  142.5436  156.4778 C   0  0  0  0  0  0  0  0  0  0  0  0
  145.6336  142.7253  158.1485 Cl  0  0  0  0  0  0  0  0  0  0  0  0
  153.3187  139.1482  154.6493 H   0  0  0  0  0  0  0  0  0  0  0  0
  151.5809  139.1342  154.3922 H   0  0  0  0  0  0  0  0  0  0  0  0
  152.4970  137.6304  154.3094 H   0  0  0  0  0  0  0  0  0  0  0  0
  153.0893  137.8158  156.6874 H   0  0  0  0  0  0  0  0  0  0  0  0
  150.2229  137.9305  156.9329 H   0  0  0  0  0  0  0  0  0  0  0  0
  150.1094  135.7145  156.9355 H   0  0  0  0  0  0  0  0  0  0  0  0
  153.9306  141.8793  159.9733 H   0  0  0  0  0  0  0  0  0  0  0  0
  152.6956  143.9576  160.5465 H   0  0  0  0  0  0  0  0  0  0  0  0
  150.5544  144.5014  159.4056 H   0  0  0  0  0  0  0  0  0  0  0  0
  149.6370  142.9633  157.6763 H   0  0  0  0  0  0  0  0  0  0  0  0
  149.7494  141.3528  155.5649 H   0  0  0  0  0  0  0  0  0  0  0  0
  150.1230  139.6825  155.2674 H   0  0  0  0  0  0  0  0  0  0  0  0
  148.0270  139.3218  156.2115 H   0  0  0  0  0  0  0  0  0  0  0  0
  148.8874  139.4880  157.7451 H   0  0  0  0  0  0  0  0  0  0  0  0
  148.3008  141.0528  154.3805 H   0  0  0  0  0  0  0  0  0  0  0  0
  146.8905  142.1515  152.6995 H   0  0  0  0  0  0  0  0  0  0  0  0
  144.9265  143.5114  153.3922 H   0  0  0  0  0  0  0  0  0  0  0  0
  144.3813  143.7624  155.8044 H   0  0  0  0  0  0  0  0  0  0  0  0
  1  2  1  0  0  0  0
  1 25  1  0  0  0  0
  1 26  1  0  0  0  0
  1 27  1  0  0  0  0
  2  3  1  0  0  0  0
  2  6  1  0  0  0  0
  2 28  1  0  0  0  0
  3  4  1  0  0  0  0
  3 29  1  0  0  0  0
  4  5  2  0  0  0  0
  4 30  1  0  0  0  0
  6 14  1  0  0  0  0
  6  7  2  0  0  0  0
  7  8  1  0  0  0  0
  8 13  2  0  0  0  0
  8  9  1  0  0  0  0
  9 10  2  0  0  0  0
  9 31  1  0  0  0  0
 10 11  1  0  0  0  0
 10 32  1  0  0  0  0
 11 12  2  0  0  0  0
 11 33  1  0  0  0  0
 12 13  1  0  0  0  0
 12 34  1  0  0  0  0
 13 14  1  0  0  0  0
 14 15  1  0  0  0  0
 15 16  1  0  0  0  0
 15 35  1  0  0  0  0
 15 36  1  0  0  0  0
 16 17  1  0  0  0  0
 16 37  1  0  0  0  0
 16 38  1  0  0  0  0
 17 18  1  0  0  0  0
 18 23  1  0  0  0  0
 18 19  2  0  0  0  0
 19 20  1  0  0  0  0
 19 39  1  0  0  0  0
 20 21  2  0  0  0  0
 20 40  1  0  0  0  0
 21 22  1  0  0  0  0
 21 41  1  0  0  0  0
 22 23  2  0  0  0  0
 22 42  1  0  0  0  0
 23 24  1  0  0  0  0
M  END
> <s_m_source_file>
AV-unprocessed.smi

> <i_m_source_file_index>
2954

> <i_lp_mmshare_version>
43012

> <i_f3d_flags>
0

> <s_epik_input>
Tz1bQ0hdW05IXVtDQEBIXShbQ0gzXSljKG4xKW4oYyhjMTIpW2NIXVtjSF1bY0hdW2NIXTIpW0NIMl1bQ0gyXU9jM1tjSF1bY0hdW2NIXVtjSF1jM0Ns

> <s_epik_cmdline>
J2VwaWtfcHl0aG9uJywgJy1waCcsICc3LjAnLCAnLXRuJywgJzgnLCAnLW1hJywgJzIwMCcsICctbWV0YWxfYmluZGluZycsICctaW1hZScsICc8aW5maWxlLm1hZT4nLCAnLW9tYWUnLCAnPG91dGZpbGUubWFlPic=

> <r_lp_tautomer_probability>
1

> <r_epik_Ionization_Penalty>
0.0861383

> <r_epik_Ionization_Penalty_Charging>
0

> <r_epik_Ionization_Penalty_Neutral>
0.0861383

> <r_epik_State_Penalty>
0.0766841

> <r_epik_Charging_Adjusted_Penalty>
0.0766841

> <i_epik_Tot_Q>
0

> <i_epik_Tot_abs_Q>
0

> <r_epik_Metal_State_Penalty>
0.0668745

> <b_epik_Metal_Only>
0

> <s_lp_Force_Field>
OPLS_2005

> <r_lp_Energy>
13.8103

> <b_lp_Chiralities_Consistent>
1

> <s_lp_Variant>
AV-unprocessed.smi:2954-1

> <Gold.Version>
5.8.1

> <Gold.Id.Protein>
6NUR|6NUR_protein|mol2

> <Gold.PLP.Fitness>
45.6814

> <Gold.PLP.PLP>
-42.0680

> <Gold.PLP.part.hbond>
-2.0000

> <Gold.PLP.part.metal>
0.0000

> <Gold.PLP.part.buried>
-5.9678

> <Gold.PLP.part.nonpolar>
-34.3827

> <Gold.PLP.part.repulsive>
0.1293

> <Gold.PLP.ligand.clash>
0.0000

> <Gold.PLP.ligand.torsion>
1.2446

> <Gold.PLP.Chemscore.Hbond>
2.0000

> <Gold.PLP.Chemscore.CHOScore>
0.0000

> <Gold.PLP.Chemscore.Metal>
0.0000

> <Gold.Chemscore.Hbonds>
donor molecule, donor type, donor heavy atom, donor atom, acceptor molecule, acceptor atom, score
      P1  H  7997  8009       L1     7  0.99
      P1  H 10752 10763       L1     5  1.00

> <Gold.PLP.Chemscore.Internal.Correction>
0.1026

> <Gold.Rescore>
     Score         DG    S(hbond)    S(metal)    S(lipo)     H(rot)  DE(clash)    DE(int)     intcor
     16.58     -17.82       1.65        0.00     108.28       2.28       0.09       1.15       ----

> <Gold.Chemscore.Fitness>
16.5804

> <Gold.Chemscore.DG>
-17.8205

> <Gold.Chemscore.ZeroCoef>
-5.4800

> <Gold.Chemscore.Hbond>
1.6530

> <Gold.Chemscore.Metal>
0.0000

> <Gold.Chemscore.Lipo>
108.2822

> <Gold.Chemscore.Internal_Hbond>
0.0000

> <Gold.Chemscore.DEClash>
0.0871

> <Gold.Chemscore.DEInternal>
1.1530

> <Gold.Chemscore.Rot>
2.2849

> <Gold.Chemscore.Internal.Correction>
   9.000000E+99

> <Gold.Chemscore.Hbonds>
donor molecule, donor type, donor heavy atom, donor atom, acceptor molecule, acceptor atom, score
      P1  H  7997  8009       L1     7  0.45
      P1  H 10752 10763       L1     5  1.00

> <Gold.Chemscore.Hbond.Weighted>
-5.5209

> <Gold.Chemscore.Metal.Weighted>
-0.0000

> <Gold.Chemscore.Lipo.Weighted>
-12.6690

> <Gold.Chemscore.Internal_Hbond.Weighted>
0.0000

> <Gold.Chemscore.DEClash.Weighted>
0.0871

> <Gold.Chemscore.DEInternal.Weighted>
1.1530

> <Gold.Chemscore.Rot.Weighted>
5.8495

> <Gold.Chemscore.Internal.Correction.Weighted>
   9.000000E+99

> <Gold.Protein.RotatedTorsions>
[ 6907 6896 6895 6894 ] final  108.55 input  -60.11 | X-H torsion
[ 7974 7965 7964 7962 ] final   87.92 input  175.53 | X-H torsion
[ 8008 7997 7996 7995 ] final  149.86 input   59.86 | X-H torsion
[ 10167 10162 10161 10158 ] final -135.00 input  -65.29 | X-H torsion
[ 10718 10713 10712 10709 ] final   18.24 input   66.30 | X-H torsion
[ 10763 10752 10751 10750 ] final   86.81 input  -60.55 | X-H torsion
[ 11005 11000 10999 10996 ] final  156.97 input  -57.11 | X-H torsion

> <Gold.Protein.ActiveResidues>
 VAL166  LYS551  ARG553  GLY616  TRP617  ASP618  TYR619  PRO620  LYS621  CYS622 
 ASP623  PHE694  ASN695  SER759  ASP760  ASP761  ALA762  ILE779  LEU786  VAL792 
 PHE793  MET794  SER795  GLU796  ALA797  LYS798  CYS799  TRP800  GLU811  SER814 

> <Gold.Protein.RotatedAtoms>
  152.5107  133.9072  159.7469 H   0  0  0  0  0  0  0  0  0  0  0  0  # atno 6907 bound_to 6896
  150.9474  133.6579  159.2785 H   0  0  0  0  0  0  0  0  0  0  0  0  # atno 6908 bound_to 6896
  151.3870  135.0954  159.9567 H   0  0  0  0  0  0  0  0  0  0  0  0  # atno 6909 bound_to 6896
  145.5526  139.2297  143.2504 H   0  0  0  0  0  0  0  0  0  0  0  0  # atno 7974 bound_to 7965
  156.2738  140.2090  156.5925 H   0  0  0  0  0  0  0  0  0  0  0  0  # atno 8008 bound_to 7997
  154.6971  140.0524  157.0444 H   0  0  0  0  0  0  0  0  0  0  0  0  # atno 8009 bound_to 7997
  155.0786  140.3184  155.4611 H   0  0  0  0  0  0  0  0  0  0  0  0  # atno 8010 bound_to 7997
  139.8823  143.6824  152.2625 H   0  0  0  0  0  0  0  0  0  0  0  0  # atno 10167 bound_to 10162
  157.0936  130.6438  149.5855 H   0  0  0  0  0  0  0  0  0  0  0  0  # atno 10718 bound_to 10713
  153.1607  135.4566  154.9768 H   0  0  0  0  0  0  0  0  0  0  0  0  # atno 10763 bound_to 10752
  154.7895  135.3215  154.7812 H   0  0  0  0  0  0  0  0  0  0  0  0  # atno 10764 bound_to 10752
  153.8302  135.6939  153.4870 H   0  0  0  0  0  0  0  0  0  0  0  0  # atno 10765 bound_to 10752
  140.1725  134.8533  157.2707 H   0  0  0  0  0  0  0  0  0  0  0  0  # atno 11005 bound_to 11000
  146.1906  140.6349  142.9147 LP  0  0  0  0  0  0  0  0  0  0  0  0  # atno 17320 bound_to 7965
  144.7522  140.5219  143.6794 LP  0  0  0  0  0  0  0  0  0  0  0  0  # atno 17321 bound_to 7965
  139.7185  144.7607  151.0995 LP  0  0  0  0  0  0  0  0  0  0  0  0  # atno 17342 bound_to 10162
  140.7742  143.5238  150.9504 LP  0  0  0  0  0  0  0  0  0  0  0  0  # atno 17343 bound_to 10162
  155.9891  130.4938  150.7202 LP  0  0  0  0  0  0  0  0  0  0  0  0  # atno 17370 bound_to 10713
  157.4700  131.0892  151.0652 LP  0  0  0  0  0  0  0  0  0  0  0  0  # atno 17371 bound_to 10713
  140.2361  134.3851  155.7500 LP  0  0  0  0  0  0  0  0  0  0  0  0  # atno 17394 bound_to 11000
  141.2218  133.7240  156.8716 LP  0  0  0  0  0  0  0  0  0  0  0  0  # atno 17395 bound_to 11000

$$$$
