AV-unprocessed.smi:1102|AV-procd|sdf|4770|dock10
  -GOLD-   22720 3313D 1   1.00000     0.00000
 Structure written by MMmdl.
 39 40  0  0  0  0  0  0  0  0  1 V2000
  151.0395  145.2439  160.2300 C   0  0  0  0  0  0  0  0  0  0  0  0
  151.9258  144.4075  159.4300 N   0  0  0  0  0  0  0  0  0  0  0  0
  152.0752  144.6662  158.0016 C   0  0  0  0  0  0  0  0  0  0  0  0
  152.5750  143.2964  160.0154 C   0  0  0  0  0  0  0  0  0  0  0  0
  153.0284  142.2069  159.2308 C   0  0  0  0  0  0  0  0  0  0  0  0
  153.6713  141.1230  159.8591 C   0  0  0  0  0  0  0  0  0  0  0  0
  153.8557  141.1530  161.2603 C   0  0  0  0  0  0  0  0  0  0  0  0
  154.4711  140.1158  162.0120 N   0  0  0  0  0  0  0  0  0  0  0  0
  154.7722  138.8649  161.6235 C   0  0  0  0  0  0  0  0  0  0  0  0
  154.5804  138.4013  160.4994 O   0  0  0  0  0  0  0  0  0  0  0  0
  155.3357  138.1708  162.6219 N   0  0  0  0  0  0  0  0  0  0  0  0
  155.7800  136.7846  162.5315 C   0  0  0  0  0  0  0  0  0  0  0  0
  155.4181  135.9903  163.7974 C   0  0  1  0  0  0  0  0  0  0  0  0
  153.9154  135.8286  164.0184 C   0  0  0  0  0  0  0  0  0  0  0  0
  153.8086  134.5499  164.8360 C   0  0  0  0  0  0  0  0  0  0  0  0
  155.1939  133.9083  164.7127 C   0  0  0  0  0  0  0  0  0  0  0  0
  155.8526  134.6439  163.6917 O   0  0  0  0  0  0  0  0  0  0  0  0
  153.3579  142.2700  161.9585 C   0  0  0  0  0  0  0  0  0  0  0  0
  152.7423  143.3108  161.3605 N   0  0  0  0  0  0  0  0  0  0  0  0
  151.5935  145.7307  161.0330 H   0  0  0  0  0  0  0  0  0  0  0  0
  150.2394  144.6465  160.6682 H   0  0  0  0  0  0  0  0  0  0  0  0
  150.5772  146.0244  159.6253 H   0  0  0  0  0  0  0  0  0  0  0  0
  153.1267  144.7928  157.7419 H   0  0  0  0  0  0  0  0  0  0  0  0
  151.5488  145.5728  157.7038 H   0  0  0  0  0  0  0  0  0  0  0  0
  151.6715  143.8376  157.4189 H   0  0  0  0  0  0  0  0  0  0  0  0
  152.8920  142.1766  158.1605 H   0  0  0  0  0  0  0  0  0  0  0  0
  153.9943  140.2898  159.2554 H   0  0  0  0  0  0  0  0  0  0  0  0
  154.7639  140.3729  162.9433 H   0  0  0  0  0  0  0  0  0  0  0  0
  155.4569  138.6290  163.5133 H   0  0  0  0  0  0  0  0  0  0  0  0
  155.3401  136.3131  161.6511 H   0  0  0  0  0  0  0  0  0  0  0  0
  156.8595  136.7785  162.3792 H   0  0  0  0  0  0  0  0  0  0  0  0
  155.8703  136.4431  164.6821 H   0  0  0  0  0  0  0  0  0  0  0  0
  153.4708  136.6905  164.5168 H   0  0  0  0  0  0  0  0  0  0  0  0
  153.4049  135.6928  163.0639 H   0  0  0  0  0  0  0  0  0  0  0  0
  153.5718  134.7585  165.8799 H   0  0  0  0  0  0  0  0  0  0  0  0
  153.0281  133.9009  164.4381 H   0  0  0  0  0  0  0  0  0  0  0  0
  155.7500  134.0146  165.6453 H   0  0  0  0  0  0  0  0  0  0  0  0
  155.1450  132.8479  164.4648 H   0  0  0  0  0  0  0  0  0  0  0  0
  153.4594  142.3361  163.0320 H   0  0  0  0  0  0  0  0  0  0  0  0
  1  2  1  0  0  0  0
  1 20  1  0  0  0  0
  1 21  1  0  0  0  0
  1 22  1  0  0  0  0
  2  3  1  0  0  0  0
  2  4  1  0  0  0  0
  3 23  1  0  0  0  0
  3 24  1  0  0  0  0
  3 25  1  0  0  0  0
  4 19  1  0  0  0  0
  4  5  2  0  0  0  0
  5  6  1  0  0  0  0
  5 26  1  0  0  0  0
  6  7  2  0  0  0  0
  6 27  1  0  0  0  0
  7  8  1  0  0  0  0
  7 18  1  0  0  0  0
  8  9  1  0  0  0  0
  8 28  1  0  0  0  0
  9 10  2  0  0  0  0
  9 11  1  0  0  0  0
 11 12  1  0  0  0  0
 11 29  1  0  0  0  0
 12 13  1  0  0  0  0
 12 30  1  0  0  0  0
 12 31  1  0  0  0  0
 13 17  1  0  0  0  0
 13 14  1  0  0  0  0
 13 32  1  0  0  0  0
 14 15  1  0  0  0  0
 14 33  1  0  0  0  0
 14 34  1  0  0  0  0
 15 16  1  0  0  0  0
 15 35  1  0  0  0  0
 15 36  1  0  0  0  0
 16 17  1  0  0  0  0
 16 37  1  0  0  0  0
 16 38  1  0  0  0  0
 18 19  2  0  0  0  0
 18 39  1  0  0  0  0
M  END
> <s_m_source_file>
AV-unprocessed.smi

> <i_m_source_file_index>
1102

> <i_lp_mmshare_version>
43012

> <i_f3d_flags>
0

> <s_epik_input>
W0NIM11OKFtDSDNdKWMxW2NIXVtjSF1jKFtjSF1uMSlbTkhdQyg9TylbTkhdW0NIMl1bQ0BASF0yW0NIMl1bQ0gyXVtDSDJdTzI=

> <s_epik_cmdline>
J2VwaWtfcHl0aG9uJywgJy1waCcsICc3LjAnLCAnLXRuJywgJzgnLCAnLW1hJywgJzIwMCcsICctbWV0YWxfYmluZGluZycsICctaW1hZScsICc8aW5maWxlLm1hZT4nLCAnLW9tYWUnLCAnPG91dGZpbGUubWFlPic=

> <r_lp_tautomer_probability>
1

> <r_epik_Ionization_Penalty>
0.605145

> <r_epik_Ionization_Penalty_Charging>
0

> <r_epik_Ionization_Penalty_Neutral>
0.605145

> <r_epik_State_Penalty>
0.618734

> <r_epik_Charging_Adjusted_Penalty>
0.618734

> <i_epik_Tot_Q>
0

> <i_epik_Tot_abs_Q>
0

> <r_epik_Metal_State_Penalty>
0.302184

> <b_epik_Metal_Only>
0

> <s_lp_Force_Field>
OPLS_2005

> <r_lp_Energy>
20.895

> <b_lp_Chiralities_Consistent>
1

> <s_lp_Variant>
AV-unprocessed.smi:1102-4

> <Gold.Version>
5.8.1

> <Gold.Id.Protein>
6NUR|6NUR_protein|mol2

> <Gold.PLP.Fitness>
40.8947

> <Gold.PLP.PLP>
-41.6269

> <Gold.PLP.part.hbond>
0.0000

> <Gold.PLP.part.metal>
0.0000

> <Gold.PLP.part.buried>
-3.8656

> <Gold.PLP.part.nonpolar>
-36.8193

> <Gold.PLP.part.repulsive>
0.1087

> <Gold.PLP.ligand.clash>
0.0000

> <Gold.PLP.ligand.torsion>
0.3724

> <Gold.PLP.Chemscore.Hbond>
0.0000

> <Gold.PLP.Chemscore.CHOScore>
0.0000

> <Gold.PLP.Chemscore.Metal>
0.0000

> <Gold.PLP.Chemscore.Internal.Correction>
0.0126

> <Gold.Rescore>
     Score         DG    S(hbond)    S(metal)    S(lipo)     H(rot)  DE(clash)    DE(int)     intcor
     12.68     -14.22       0.00        0.00     101.24       1.21       0.16       1.37       ----

> <Gold.Chemscore.Fitness>
12.6817

> <Gold.Chemscore.DG>
-14.2157

> <Gold.Chemscore.ZeroCoef>
-5.4800

> <Gold.Chemscore.Hbond>
0.0000

> <Gold.Chemscore.Metal>
0.0000

> <Gold.Chemscore.Lipo>
101.2397

> <Gold.Chemscore.Internal_Hbond>
0.0000

> <Gold.Chemscore.DEClash>
0.1626

> <Gold.Chemscore.DEInternal>
1.3714

> <Gold.Chemscore.Rot>
1.2146

> <Gold.Chemscore.Internal.Correction>
   9.000000E+99

> <Gold.Chemscore.Hbond.Weighted>
-0.0000

> <Gold.Chemscore.Metal.Weighted>
-0.0000

> <Gold.Chemscore.Lipo.Weighted>
-11.8450

> <Gold.Chemscore.Internal_Hbond.Weighted>
0.0000

> <Gold.Chemscore.DEClash.Weighted>
0.1626

> <Gold.Chemscore.DEInternal.Weighted>
1.3714

> <Gold.Chemscore.Rot.Weighted>
3.1093

> <Gold.Chemscore.Internal.Correction.Weighted>
   9.000000E+99

> <Gold.Protein.RotatedTorsions>
[ 6907 6896 6895 6894 ] final  -50.17 input  -60.11 | X-H torsion
[ 7974 7965 7964 7962 ] final  114.46 input  175.53 | X-H torsion
[ 8008 7997 7996 7995 ] final    3.38 input   59.86 | X-H torsion
[ 10167 10162 10161 10158 ] final   96.25 input  -65.29 | X-H torsion
[ 10718 10713 10712 10709 ] final   78.71 input   66.30 | X-H torsion
[ 10763 10752 10751 10750 ] final  104.65 input  -60.55 | X-H torsion
[ 11005 11000 10999 10996 ] final  120.32 input  -57.11 | X-H torsion

> <Gold.Protein.ActiveResidues>
 VAL166  LYS551  ARG553  GLY616  TRP617  ASP618  TYR619  PRO620  LYS621  CYS622 
 ASP623  PHE694  ASN695  SER759  ASP760  ASP761  ALA762  ILE779  LEU786  VAL792 
 PHE793  MET794  SER795  GLU796  ALA797  LYS798  CYS799  TRP800  GLU811  SER814 

> <Gold.Protein.RotatedAtoms>
  150.8733  134.8111  159.7170 H   0  0  0  0  0  0  0  0  0  0  0  0  # atno 6907 bound_to 6896
  152.4729  134.4911  159.9705 H   0  0  0  0  0  0  0  0  0  0  0  0  # atno 6908 bound_to 6896
  151.4997  133.3468  159.2902 H   0  0  0  0  0  0  0  0  0  0  0  0  # atno 6909 bound_to 6896
  145.2041  139.2938  143.4303 H   0  0  0  0  0  0  0  0  0  0  0  0  # atno 7974 bound_to 7965
  154.7030  140.2677  155.6701 H   0  0  0  0  0  0  0  0  0  0  0  0  # atno 8008 bound_to 7997
  156.2771  140.2768  156.1571 H   0  0  0  0  0  0  0  0  0  0  0  0  # atno 8009 bound_to 7997
  155.0738  140.0372  157.2607 H   0  0  0  0  0  0  0  0  0  0  0  0  # atno 8010 bound_to 7997
  139.7912  144.6851  150.9890 H   0  0  0  0  0  0  0  0  0  0  0  0  # atno 10167 bound_to 10162
  157.6754  130.9881  150.1827 H   0  0  0  0  0  0  0  0  0  0  0  0  # atno 10718 bound_to 10713
  153.3688  135.3936  155.1773 H   0  0  0  0  0  0  0  0  0  0  0  0  # atno 10763 bound_to 10752
  154.8691  135.3697  154.5004 H   0  0  0  0  0  0  0  0  0  0  0  0  # atno 10764 bound_to 10752
  153.5470  135.7083  153.5670 H   0  0  0  0  0  0  0  0  0  0  0  0  # atno 10765 bound_to 10752
  139.9181  134.9634  156.7789 H   0  0  0  0  0  0  0  0  0  0  0  0  # atno 11005 bound_to 11000
  146.3411  140.2296  142.8593 LP  0  0  0  0  0  0  0  0  0  0  0  0  # atno 17320 bound_to 7965
  144.9919  140.8554  143.5334 LP  0  0  0  0  0  0  0  0  0  0  0  0  # atno 17321 bound_to 7965
  140.7820  143.4379  151.0596 LP  0  0  0  0  0  0  0  0  0  0  0  0  # atno 17342 bound_to 10162
  139.8055  143.8023  152.3167 LP  0  0  0  0  0  0  0  0  0  0  0  0  # atno 17343 bound_to 10162
  156.2555  130.3705  149.8186 LP  0  0  0  0  0  0  0  0  0  0  0  0  # atno 17370 bound_to 10713
  156.5946  130.8521  151.3416 LP  0  0  0  0  0  0  0  0  0  0  0  0  # atno 17371 bound_to 10713
  140.6560  133.9688  155.7780 LP  0  0  0  0  0  0  0  0  0  0  0  0  # atno 17394 bound_to 11000
  141.0676  134.0254  157.3572 LP  0  0  0  0  0  0  0  0  0  0  0  0  # atno 17395 bound_to 11000

$$$$
