AV-unprocessed.smi:2340|AV-procd|sdf|9348|dock7
  -GOLD-   2272012573D 1   1.00000     0.00000
 Structure written by MMmdl.
 40 41  0  0  0  0  0  0  0  0  1 V2000
  146.3748  150.8177  160.1992 C   0  0  0  0  0  0  0  0  0  0  0  0
  145.8895  149.7014  159.3292 C   0  0  0  0  0  0  0  0  0  0  0  0
  145.8283  149.6892  157.9581 C   0  0  0  0  0  0  0  0  0  0  0  0
  145.1970  148.1837  157.3503 S   0  0  0  0  0  0  0  0  0  0  0  0
  145.0363  147.6139  159.0105 C   0  0  0  0  0  0  0  0  0  0  0  0
  144.5027  146.2636  159.3767 C   0  0  2  0  0  0  0  0  0  0  0  0
  143.0838  146.3619  159.9631 C   0  0  0  0  0  0  0  0  0  0  0  0
  145.4933  145.4981  160.2803 C   0  0  0  0  0  0  0  0  0  0  0  0
  146.8331  145.4137  159.7073 N   0  0  0  0  0  0  0  0  0  0  0  0
  147.8799  144.8119  160.2883 C   0  0  0  0  0  0  0  0  0  0  0  0
  147.8344  144.2567  161.3861 O   0  0  0  0  0  0  0  0  0  0  0  0
  148.9796  144.8832  159.5255 N   0  0  0  0  0  0  0  0  0  0  0  0
  150.2880  144.3276  159.8732 C   0  0  2  0  0  0  0  0  0  0  0  0
  151.3767  145.3909  159.7323 C   0  0  0  0  0  0  0  0  0  0  0  0
  152.4616  144.7072  158.9069 C   0  0  0  0  0  0  0  0  0  0  0  0
  151.7321  143.8021  158.0979 O   0  0  0  0  0  0  0  0  0  0  0  0
  150.7547  143.1941  158.9294 C   0  0  2  0  0  0  0  0  0  0  0  0
  149.6894  142.4982  158.0667 C   0  0  0  0  0  0  0  0  0  0  0  0
  145.4356  148.5151  159.9126 N   0  0  0  0  0  0  0  0  0  0  0  0
  146.6318  151.6993  159.6113 H   0  0  0  0  0  0  0  0  0  0  0  0
  147.2637  150.5230  160.7571 H   0  0  0  0  0  0  0  0  0  0  0  0
  145.6133  151.1143  160.9209 H   0  0  0  0  0  0  0  0  0  0  0  0
  146.1151  150.4716  157.2711 H   0  0  0  0  0  0  0  0  0  0  0  0
  144.4153  145.7021  158.4449 H   0  0  0  0  0  0  0  0  0  0  0  0
  142.4142  146.8815  159.2771 H   0  0  0  0  0  0  0  0  0  0  0  0
  143.0806  146.9071  160.9074 H   0  0  0  0  0  0  0  0  0  0  0  0
  142.6566  145.3762  160.1477 H   0  0  0  0  0  0  0  0  0  0  0  0
  145.5487  145.9697  161.2631 H   0  0  0  0  0  0  0  0  0  0  0  0
  145.1374  144.4815  160.4488 H   0  0  0  0  0  0  0  0  0  0  0  0
  146.9701  145.8405  158.8028 H   0  0  0  0  0  0  0  0  0  0  0  0
  148.9106  145.3548  158.6357 H   0  0  0  0  0  0  0  0  0  0  0  0
  150.2760  143.9562  160.8996 H   0  0  0  0  0  0  0  0  0  0  0  0
  151.0063  146.2609  159.1873 H   0  0  0  0  0  0  0  0  0  0  0  0
  151.7509  145.7404  160.6950 H   0  0  0  0  0  0  0  0  0  0  0  0
  153.0416  145.4087  158.3069 H   0  0  0  0  0  0  0  0  0  0  0  0
  153.1483  144.1524  159.5482 H   0  0  0  0  0  0  0  0  0  0  0  0
  151.2647  142.4368  159.5278 H   0  0  0  0  0  0  0  0  0  0  0  0
  148.9237  142.0317  158.6871 H   0  0  0  0  0  0  0  0  0  0  0  0
  150.1402  141.7152  157.4568 H   0  0  0  0  0  0  0  0  0  0  0  0
  149.1988  143.1980  157.3899 H   0  0  0  0  0  0  0  0  0  0  0  0
  1  2  1  0  0  0  0
  1 20  1  0  0  0  0
  1 21  1  0  0  0  0
  1 22  1  0  0  0  0
  2 19  1  0  0  0  0
  2  3  2  0  0  0  0
  3  4  1  0  0  0  0
  3 23  1  0  0  0  0
  4  5  1  0  0  0  0
  5  6  1  0  0  0  0
  5 19  2  0  0  0  0
  6  7  1  0  0  0  0
  6  8  1  0  0  0  0
  6 24  1  0  0  0  0
  7 25  1  0  0  0  0
  7 26  1  0  0  0  0
  7 27  1  0  0  0  0
  8  9  1  0  0  0  0
  8 28  1  0  0  0  0
  8 29  1  0  0  0  0
  9 10  1  0  0  0  0
  9 30  1  0  0  0  0
 10 11  2  0  0  0  0
 10 12  1  0  0  0  0
 12 13  1  0  0  0  0
 12 31  1  0  0  0  0
 13 17  1  0  0  0  0
 13 14  1  0  0  0  0
 13 32  1  0  0  0  0
 14 15  1  0  0  0  0
 14 33  1  0  0  0  0
 14 34  1  0  0  0  0
 15 16  1  0  0  0  0
 15 35  1  0  0  0  0
 15 36  1  0  0  0  0
 16 17  1  0  0  0  0
 17 18  1  0  0  0  0
 17 37  1  0  0  0  0
 18 38  1  0  0  0  0
 18 39  1  0  0  0  0
 18 40  1  0  0  0  0
M  END
> <s_m_source_file>
AV-unprocessed.smi

> <i_m_source_file_index>
2340

> <i_lp_mmshare_version>
43012

> <i_f3d_flags>
0

> <s_epik_input>
W0NIM11jMVtjSF1zYyhuMSlbQ0BIXShbQ0gzXSlbQ0gyXVtOSF1DKD1PKVtOSF1bQ0BASF0yW0NIMl1bQ0gyXU9bQ0BIXTJbQ0gzXQ==

> <s_epik_cmdline>
J2VwaWtfcHl0aG9uJywgJy1waCcsICc3LjAnLCAnLXRuJywgJzgnLCAnLW1hJywgJzIwMCcsICctbWV0YWxfYmluZGluZycsICctaW1hZScsICc8aW5maWxlLm1hZT4nLCAnLW9tYWUnLCAnPG91dGZpbGUubWFlPic=

> <r_epik_Ionization_Penalty>
0.00156622

> <r_epik_Ionization_Penalty_Charging>
0

> <r_epik_Ionization_Penalty_Neutral>
0.00156622

> <r_epik_State_Penalty>
0.00101902

> <r_epik_Charging_Adjusted_Penalty>
0.00101902

> <i_epik_Tot_Q>
0

> <i_epik_Tot_abs_Q>
0

> <r_epik_Metal_State_Penalty>
-0

> <b_epik_Metal_Only>
0

> <s_lp_Force_Field>
OPLS_2005

> <r_lp_Energy>
6.07196

> <b_lp_Chiralities_Consistent>
1

> <s_lp_Variant>
AV-unprocessed.smi:2340-5

> <Gold.Version>
5.8.1

> <Gold.Id.Protein>
6NUR|6NUR_protein|mol2

> <Gold.PLP.Fitness>
51.2530

> <Gold.PLP.PLP>
-42.6670

> <Gold.PLP.part.hbond>
-3.0000

> <Gold.PLP.part.metal>
0.0000

> <Gold.PLP.part.buried>
-9.6416

> <Gold.PLP.part.nonpolar>
-30.0076

> <Gold.PLP.part.repulsive>
0.6354

> <Gold.PLP.ligand.clash>
0.0000

> <Gold.PLP.ligand.torsion>
0.2388

> <Gold.PLP.Chemscore.Hbond>
2.9920

> <Gold.PLP.Chemscore.CHOScore>
0.0000

> <Gold.PLP.Chemscore.Metal>
0.0000

> <Gold.Chemscore.Hbonds>
donor molecule, donor type, donor heavy atom, donor atom, acceptor molecule, acceptor atom, score
      L1  H     9    30       P1  8029  1.00
      L1  H    12    31       P1  8029  0.99
      P1  H  6933  6944       L1    11  1.00

> <Gold.PLP.Chemscore.Internal.Correction>
0.0876

> <Gold.Rescore>
     Score         DG    S(hbond)    S(metal)    S(lipo)     H(rot)  DE(clash)    DE(int)     intcor
     23.05     -23.27       2.86        0.00     103.91       1.53       0.03       0.19       ----

> <Gold.Chemscore.Fitness>
23.0492

> <Gold.Chemscore.DG>
-23.2687

> <Gold.Chemscore.ZeroCoef>
-5.4800

> <Gold.Chemscore.Hbond>
2.8606

> <Gold.Chemscore.Metal>
0.0000

> <Gold.Chemscore.Lipo>
103.9118

> <Gold.Chemscore.Internal_Hbond>
0.0000

> <Gold.Chemscore.DEClash>
0.0254

> <Gold.Chemscore.DEInternal>
0.1941

> <Gold.Chemscore.Rot>
1.5325

> <Gold.Chemscore.Internal.Correction>
   9.000000E+99

> <Gold.Chemscore.Hbonds>
donor molecule, donor type, donor heavy atom, donor atom, acceptor molecule, acceptor atom, score
      L1  H     9    30       P1  8029  0.95
      L1  H    12    31       P1  8029  0.94
      P1  H  6933  6944       L1    11  0.90

> <Gold.Chemscore.Hbond.Weighted>
-9.5544

> <Gold.Chemscore.Metal.Weighted>
-0.0000

> <Gold.Chemscore.Lipo.Weighted>
-12.1577

> <Gold.Chemscore.Internal_Hbond.Weighted>
0.0000

> <Gold.Chemscore.DEClash.Weighted>
0.0254

> <Gold.Chemscore.DEInternal.Weighted>
0.1941

> <Gold.Chemscore.Rot.Weighted>
3.9233

> <Gold.Chemscore.Internal.Correction.Weighted>
   9.000000E+99

> <Gold.Protein.RotatedTorsions>
[ 6907 6896 6895 6894 ] final   -5.89 input  -60.11 | X-H torsion
[ 7974 7965 7964 7962 ] final  179.01 input  175.53 | X-H torsion
[ 8008 7997 7996 7995 ] final -130.22 input   59.86 | X-H torsion
[ 10167 10162 10161 10158 ] final -161.34 input  -65.29 | X-H torsion
[ 10718 10713 10712 10709 ] final  -64.86 input   66.30 | X-H torsion
[ 10763 10752 10751 10750 ] final -179.07 input  -60.55 | X-H torsion
[ 11005 11000 10999 10996 ] final -168.05 input  -57.11 | X-H torsion

> <Gold.Protein.ActiveResidues>
 VAL166  LYS551  ARG553  GLY616  TRP617  ASP618  TYR619  PRO620  LYS621  CYS622 
 ASP623  PHE694  ASN695  SER759  ASP760  ASP761  ALA762  ILE779  LEU786  VAL792 
 PHE793  MET794  SER795  GLU796  ALA797  LYS798  CYS799  TRP800  GLU811  SER814 

> <Gold.Protein.RotatedAtoms>
  151.4744  135.1048  159.9760 H   0  0  0  0  0  0  0  0  0  0  0  0  # atno 6907 bound_to 6896
  152.4804  133.8236  159.7077 H   0  0  0  0  0  0  0  0  0  0  0  0  # atno 6908 bound_to 6896
  150.8871  133.7231  159.2942 H   0  0  0  0  0  0  0  0  0  0  0  0  # atno 6909 bound_to 6896
  144.7150  140.0484  143.6436 H   0  0  0  0  0  0  0  0  0  0  0  0  # atno 7974 bound_to 7965
  155.2922  140.0449  157.3024 H   0  0  0  0  0  0  0  0  0  0  0  0  # atno 8008 bound_to 7997
  154.5535  140.2324  155.8415 H   0  0  0  0  0  0  0  0  0  0  0  0  # atno 8009 bound_to 7997
  156.1987  140.3031  155.9488 H   0  0  0  0  0  0  0  0  0  0  0  0  # atno 8010 bound_to 7997
  139.6473  144.0149  152.2136 H   0  0  0  0  0  0  0  0  0  0  0  0  # atno 10167 bound_to 10162
  156.0703  130.4239  150.1481 H   0  0  0  0  0  0  0  0  0  0  0  0  # atno 10718 bound_to 10713
  154.5398  135.2805  155.1106 H   0  0  0  0  0  0  0  0  0  0  0  0  # atno 10763 bound_to 10752
  154.2593  135.6324  153.5272 H   0  0  0  0  0  0  0  0  0  0  0  0  # atno 10764 bound_to 10752
  152.9976  135.5601  154.5934 H   0  0  0  0  0  0  0  0  0  0  0  0  # atno 10765 bound_to 10752
  140.5463  134.5472  157.5112 H   0  0  0  0  0  0  0  0  0  0  0  0  # atno 11005 bound_to 11000
  145.9965  139.3056  143.0953 LP  0  0  0  0  0  0  0  0  0  0  0  0  # atno 17320 bound_to 7965
  145.8843  140.9343  143.0585 LP  0  0  0  0  0  0  0  0  0  0  0  0  # atno 17321 bound_to 7965
  139.9854  144.6399  150.7862 LP  0  0  0  0  0  0  0  0  0  0  0  0  # atno 17342 bound_to 10162
  140.7520  143.2983  151.3146 LP  0  0  0  0  0  0  0  0  0  0  0  0  # atno 17343 bound_to 10162
  156.9533  130.9782  151.3494 LP  0  0  0  0  0  0  0  0  0  0  0  0  # atno 17370 bound_to 10713
  157.5770  130.8350  149.8470 LP  0  0  0  0  0  0  0  0  0  0  0  0  # atno 17371 bound_to 10713
  139.9478  134.7671  156.0521 LP  0  0  0  0  0  0  0  0  0  0  0  0  # atno 17394 bound_to 11000
  141.1198  133.6616  156.3185 LP  0  0  0  0  0  0  0  0  0  0  0  0  # atno 17395 bound_to 11000

$$$$
