AV-unprocessed.smi:1005|AV-procd|sdf|4376|dock7
  -GOLD-   22720 2293D 1   1.00000     0.00000
 Structure written by MMmdl.
 57 59  0  0  0  0  0  0  0  0  3 V2000
  152.0818  143.7851  160.3599 C   0  0  0  0  0  0  0  0  0  0  0  0
  151.8945  142.7776  159.2382 C   0  0  0  0  0  0  0  0  0  0  0  0
  150.9613  143.0698  158.2183 C   0  0  0  0  0  0  0  0  0  0  0  0
  150.8165  142.1317  157.2033 C   0  0  0  0  0  0  0  0  0  0  0  0
  149.9973  142.1284  156.0724 N   0  3  0  0  0  0  0  0  0  0  0  0
  150.2090  140.9871  155.3609 C   0  0  0  0  0  0  0  0  0  0  0  0
  151.1528  140.2613  156.0196 N   0  0  0  0  0  0  0  0  0  0  0  0
  151.7341  138.9560  155.6757 C   0  0  0  0  0  0  0  0  0  0  0  0
  150.7022  137.8109  155.7057 C   0  0  2  0  0  0  0  0  0  0  0  0
  149.8700  138.0258  156.8260 O   0  0  0  0  0  0  0  0  0  0  0  0
  151.3400  136.4106  155.8346 C   0  0  0  0  0  0  0  0  0  0  0  0
  150.4007  135.2951  155.9586 N   0  0  0  0  0  0  0  0  0  0  0  0
  151.0671  134.1211  156.5117 C   0  0  0  0  0  0  0  0  0  0  0  0
  150.1078  132.9288  156.6521 C   0  0  0  0  0  0  0  0  0  0  0  0
  149.5353  132.6340  155.3829 O   0  0  0  0  0  0  0  0  0  0  0  0
  148.8210  133.7339  154.8238 C   0  0  2  0  0  0  0  0  0  0  0  0
  148.2592  133.2897  153.4617 C   0  0  0  0  0  0  0  0  0  0  0  0
  147.3795  134.3168  152.8477 N   0  3  0  0  0  0  0  0  0  0  0  0
  146.6755  133.8393  151.6352 C   0  0  0  0  0  0  0  0  0  0  0  0
  146.4383  134.9041  153.8269 C   0  0  0  0  0  0  0  0  0  0  0  0
  149.7844  134.9311  154.6837 C   0  0  0  0  0  0  0  0  0  0  0  0
  151.5577  140.9340  157.1793 C   0  0  0  0  0  0  0  0  0  0  0  0
  152.4783  140.6293  158.1798 C   0  0  0  0  0  0  0  0  0  0  0  0
  152.6447  141.5735  159.2180 C   0  0  0  0  0  0  0  0  0  0  0  0
  153.6497  141.2716  160.3166 C   0  0  0  0  0  0  0  0  0  0  0  0
  151.3922  144.6242  160.2617 H   0  0  0  0  0  0  0  0  0  0  0  0
  153.0965  144.1837  160.3487 H   0  0  0  0  0  0  0  0  0  0  0  0
  151.9024  143.3195  161.3293 H   0  0  0  0  0  0  0  0  0  0  0  0
  150.3877  143.9851  158.2264 H   0  0  0  0  0  0  0  0  0  0  0  0
  149.7171  140.7077  154.4402 H   0  0  0  0  0  0  0  0  0  0  0  0
  152.2275  139.0222  154.7058 H   0  0  0  0  0  0  0  0  0  0  0  0
  152.5234  138.7617  156.4035 H   0  0  0  0  0  0  0  0  0  0  0  0
  150.0895  137.8786  154.8075 H   0  0  0  0  0  0  0  0  0  0  0  0
  148.9698  137.9411  156.5506 H   0  0  0  0  0  0  0  0  0  0  0  0
  151.9867  136.2221  154.9775 H   0  0  0  0  0  0  0  0  0  0  0  0
  151.9995  136.4238  156.7039 H   0  0  0  0  0  0  0  0  0  0  0  0
  151.9052  133.8354  155.8736 H   0  0  0  0  0  0  0  0  0  0  0  0
  151.4879  134.3595  157.4894 H   0  0  0  0  0  0  0  0  0  0  0  0
  150.6434  132.0512  157.0147 H   0  0  0  0  0  0  0  0  0  0  0  0
  149.3202  133.1466  157.3751 H   0  0  0  0  0  0  0  0  0  0  0  0
  148.0086  134.0149  155.4947 H   0  0  0  0  0  0  0  0  0  0  0  0
  149.0683  133.0437  152.7721 H   0  0  0  0  0  0  0  0  0  0  0  0
  147.6937  132.3687  153.6116 H   0  0  0  0  0  0  0  0  0  0  0  0
  146.0168  133.0020  151.8699 H   0  0  0  0  0  0  0  0  0  0  0  0
  147.3755  133.5176  150.8650 H   0  0  0  0  0  0  0  0  0  0  0  0
  146.0685  134.6372  151.2061 H   0  0  0  0  0  0  0  0  0  0  0  0
  145.7463  134.1501  154.2048 H   0  0  0  0  0  0  0  0  0  0  0  0
  145.8563  135.7052  153.3699 H   0  0  0  0  0  0  0  0  0  0  0  0
  146.9759  135.3320  154.6739 H   0  0  0  0  0  0  0  0  0  0  0  0
  149.2290  135.7755  154.2777 H   0  0  0  0  0  0  0  0  0  0  0  0
  150.5608  134.6896  153.9558 H   0  0  0  0  0  0  0  0  0  0  0  0
  153.0526  139.7149  158.1663 H   0  0  0  0  0  0  0  0  0  0  0  0
  154.1893  140.3446  160.1204 H   0  0  0  0  0  0  0  0  0  0  0  0
  153.1449  141.1675  161.2772 H   0  0  0  0  0  0  0  0  0  0  0  0
  154.3855  142.0723  160.3961 H   0  0  0  0  0  0  0  0  0  0  0  0
  147.9850  135.0724  152.5582 H   0  0  0  0  0  0  0  0  0  0  0  0
  149.3401  142.8501  155.8043 H   0  0  0  0  0  0  0  0  0  0  0  0
  1  2  1  0  0  0  0
  1 26  1  0  0  0  0
  1 27  1  0  0  0  0
  1 28  1  0  0  0  0
  2 24  1  0  0  0  0
  2  3  2  0  0  0  0
  3  4  1  0  0  0  0
  3 29  1  0  0  0  0
  4 22  2  0  0  0  0
  4  5  1  0  0  0  0
  5  6  2  0  0  0  0
  5 57  1  0  0  0  0
  6  7  1  0  0  0  0
  6 30  1  0  0  0  0
  7  8  1  0  0  0  0
  7 22  1  0  0  0  0
  8  9  1  0  0  0  0
  8 31  1  0  0  0  0
  8 32  1  0  0  0  0
  9 10  1  0  0  0  0
  9 11  1  0  0  0  0
  9 33  1  0  0  0  0
 10 34  1  0  0  0  0
 11 12  1  0  0  0  0
 11 35  1  0  0  0  0
 11 36  1  0  0  0  0
 12 21  1  0  0  0  0
 12 13  1  0  0  0  0
 13 14  1  0  0  0  0
 13 37  1  0  0  0  0
 13 38  1  0  0  0  0
 14 15  1  0  0  0  0
 14 39  1  0  0  0  0
 14 40  1  0  0  0  0
 15 16  1  0  0  0  0
 16 17  1  0  0  0  0
 16 21  1  0  0  0  0
 16 41  1  0  0  0  0
 17 18  1  0  0  0  0
 17 42  1  0  0  0  0
 17 43  1  0  0  0  0
 18 19  1  0  0  0  0
 18 20  1  0  0  0  0
 18 56  1  0  0  0  0
 19 44  1  0  0  0  0
 19 45  1  0  0  0  0
 19 46  1  0  0  0  0
 20 47  1  0  0  0  0
 20 48  1  0  0  0  0
 20 49  1  0  0  0  0
 21 50  1  0  0  0  0
 21 51  1  0  0  0  0
 22 23  1  0  0  0  0
 23 24  2  0  0  0  0
 23 52  1  0  0  0  0
 24 25  1  0  0  0  0
 25 53  1  0  0  0  0
 25 54  1  0  0  0  0
 25 55  1  0  0  0  0
M  CHG  1   5   1
M  CHG  1  18   1
M  END
> <s_m_source_file>
AV-unprocessed.smi

> <i_m_source_file_index>
1005

> <i_lp_mmshare_version>
43012

> <i_f3d_flags>
0

> <s_epik_input>
W0NIM11jKFtjSF0xKWMoW0NIM10pW2NIXWMoYzEyKW4oW2NIXW4yKVtDSDJdW0NASF0oW09IXSlbQ0gyXU4zW0NIMl1bQ0gyXU9bQ0BIXShbQ0gyXTMpW0NIMl1OKFtDSDNdKVtDSDNd

> <s_epik_cmdline>
J2VwaWtfcHl0aG9uJywgJy1waCcsICc3LjAnLCAnLXRuJywgJzgnLCAnLW1hJywgJzIwMCcsICctbWV0YWxfYmluZGluZycsICctaW1hZScsICc8aW5maWxlLm1hZT4nLCAnLW9tYWUnLCAnPG91dGZpbGUubWFlPic=

> <r_epik_Ionization_Penalty>
1.3281

> <r_epik_Ionization_Penalty_Charging>
1.21988

> <r_epik_Ionization_Penalty_Neutral>
0.10822

> <r_epik_State_Penalty>
1.32886

> <r_epik_Charging_Adjusted_Penalty>
2.54875

> <i_epik_Tot_Q>
2

> <i_epik_Tot_abs_Q>
2

> <r_epik_Metal_State_Penalty>
5.33912

> <b_epik_Metal_Only>
0

> <s_lp_Force_Field>
OPLS_2005

> <r_lp_Energy>
45.8235

> <b_lp_Chiralities_Consistent>
1

> <s_lp_Variant>
AV-unprocessed.smi:1005-15

> <Gold.Version>
5.8.1

> <Gold.Id.Protein>
6NUR|6NUR_protein|mol2

> <Gold.PLP.Fitness>
55.0145

> <Gold.PLP.PLP>
-44.1017

> <Gold.PLP.part.hbond>
-2.0000

> <Gold.PLP.part.metal>
0.0000

> <Gold.PLP.part.buried>
-2.3898

> <Gold.PLP.part.nonpolar>
-39.3706

> <Gold.PLP.part.repulsive>
0.1605

> <Gold.PLP.ligand.clash>
0.0000

> <Gold.PLP.ligand.torsion>
0.4598

> <Gold.PLP.Chemscore.Hbond>
3.9200

> <Gold.PLP.Chemscore.CHOScore>
0.0000

> <Gold.PLP.Chemscore.Metal>
0.0000

> <Gold.Chemscore.Hbonds>
donor molecule, donor type, donor heavy atom, donor atom, acceptor molecule, acceptor atom, score
      L1  H     5    57       P1  8028  2.00
      L1  H    18    56       P1  7948  2.00

> <Gold.PLP.Chemscore.Internal.Correction>
0.0725

> <Gold.Rescore>
     Score         DG    S(hbond)    S(metal)    S(lipo)     H(rot)  DE(clash)    DE(int)     intcor
     19.10     -19.59       1.99        0.00     118.43       2.49       0.04       0.45       ----

> <Gold.Chemscore.Fitness>
19.1013

> <Gold.Chemscore.DG>
-19.5948

> <Gold.Chemscore.ZeroCoef>
-5.4800

> <Gold.Chemscore.Hbond>
1.9856

> <Gold.Chemscore.Metal>
0.0000

> <Gold.Chemscore.Lipo>
118.4327

> <Gold.Chemscore.Internal_Hbond>
0.0000

> <Gold.Chemscore.DEClash>
0.0417

> <Gold.Chemscore.DEInternal>
0.4517

> <Gold.Chemscore.Rot>
2.4897

> <Gold.Chemscore.Internal.Correction>
   9.000000E+99

> <Gold.Chemscore.Hbonds>
donor molecule, donor type, donor heavy atom, donor atom, acceptor molecule, acceptor atom, score
      L1  H     5    57       P1  8028  0.94
      L1  H    18    56       P1  7948  0.92

> <Gold.Chemscore.Hbond.Weighted>
-6.6318

> <Gold.Chemscore.Metal.Weighted>
-0.0000

> <Gold.Chemscore.Lipo.Weighted>
-13.8566

> <Gold.Chemscore.Internal_Hbond.Weighted>
0.0000

> <Gold.Chemscore.DEClash.Weighted>
0.0417

> <Gold.Chemscore.DEInternal.Weighted>
0.4517

> <Gold.Chemscore.Rot.Weighted>
6.3737

> <Gold.Chemscore.Internal.Correction.Weighted>
   9.000000E+99

> <Gold.Protein.RotatedTorsions>
[ 6907 6896 6895 6894 ] final   75.28 input  -60.11 | X-H torsion
[ 7974 7965 7964 7962 ] final   50.98 input  175.53 | X-H torsion
[ 8008 7997 7996 7995 ] final  -55.86 input   59.86 | X-H torsion
[ 10167 10162 10161 10158 ] final   -1.22 input  -65.29 | X-H torsion
[ 10718 10713 10712 10709 ] final    7.98 input   66.30 | X-H torsion
[ 10763 10752 10751 10750 ] final -138.93 input  -60.55 | X-H torsion
[ 11005 11000 10999 10996 ] final  -60.69 input  -57.11 | X-H torsion

> <Gold.Protein.ActiveResidues>
 VAL166  LYS551  ARG553  GLY616  TRP617  ASP618  TYR619  PRO620  LYS621  CYS622 
 ASP623  PHE694  ASN695  SER759  ASP760  ASP761  ALA762  ILE779  LEU786  VAL792 
 PHE793  MET794  SER795  GLU796  ALA797  LYS798  CYS799  TRP800  GLU811  SER814 

> <Gold.Protein.RotatedAtoms>
  152.5018  134.4144  159.9459 H   0  0  0  0  0  0  0  0  0  0  0  0  # atno 6907 bound_to 6896
  151.4113  133.3720  159.2752 H   0  0  0  0  0  0  0  0  0  0  0  0  # atno 6908 bound_to 6896
  150.9289  134.8727  159.7598 H   0  0  0  0  0  0  0  0  0  0  0  0  # atno 6909 bound_to 6896
  145.9958  139.4387  143.0045 H   0  0  0  0  0  0  0  0  0  0  0  0  # atno 7974 bound_to 7965
  154.4209  140.1143  156.5545 H   0  0  0  0  0  0  0  0  0  0  0  0  # atno 8008 bound_to 7997
  155.6376  140.3496  155.4685 H   0  0  0  0  0  0  0  0  0  0  0  0  # atno 8009 bound_to 7997
  155.9897  140.1177  157.0639 H   0  0  0  0  0  0  0  0  0  0  0  0  # atno 8010 bound_to 7997
  140.6801  143.6801  150.8112 H   0  0  0  0  0  0  0  0  0  0  0  0  # atno 10167 bound_to 10162
  156.9449  130.5875  149.5654 H   0  0  0  0  0  0  0  0  0  0  0  0  # atno 10718 bound_to 10713
  154.8623  135.3597  154.5464 H   0  0  0  0  0  0  0  0  0  0  0  0  # atno 10763 bound_to 10752
  153.6084  135.7010  153.5361 H   0  0  0  0  0  0  0  0  0  0  0  0  # atno 10764 bound_to 10752
  153.3230  135.4146  155.1393 H   0  0  0  0  0  0  0  0  0  0  0  0  # atno 10765 bound_to 10752
  141.1296  133.6624  156.5261 H   0  0  0  0  0  0  0  0  0  0  0  0  # atno 11005 bound_to 11000
  145.7561  140.9953  143.1224 LP  0  0  0  0  0  0  0  0  0  0  0  0  # atno 17320 bound_to 7965
  144.6903  139.9274  143.7470 LP  0  0  0  0  0  0  0  0  0  0  0  0  # atno 17321 bound_to 7965
  140.0500  143.5259  152.2678 LP  0  0  0  0  0  0  0  0  0  0  0  0  # atno 17342 bound_to 10162
  139.6117  144.7610  151.2936 LP  0  0  0  0  0  0  0  0  0  0  0  0  # atno 17343 bound_to 10162
  156.0388  130.5473  150.8720 LP  0  0  0  0  0  0  0  0  0  0  0  0  # atno 17370 bound_to 10713
  157.5761  131.0946  150.9344 LP  0  0  0  0  0  0  0  0  0  0  0  0  # atno 17371 bound_to 10713
  140.4253  134.7150  157.4912 LP  0  0  0  0  0  0  0  0  0  0  0  0  # atno 17394 bound_to 11000
  140.0331  134.6377  155.9079 LP  0  0  0  0  0  0  0  0  0  0  0  0  # atno 17395 bound_to 11000

$$$$
