AV-unprocessed.smi:3000|AV-procd|sdf|11429|dock9
  -GOLD-   2272016353D 1   1.00000     0.00000
 Structure written by MMmdl.
 44 45  0  0  0  0  0  0  0  0  1 V2000
  149.8698  142.0858  155.7013 C   0  0  0  0  0  0  0  0  0  0  0  0
  149.7692  140.7791  155.0873 N   0  0  0  0  0  0  0  0  0  0  0  0
  148.6401  140.1354  154.6217 C   0  0  0  0  0  0  0  0  0  0  0  0
  149.0706  138.9383  154.1337 C   0  0  0  0  0  0  0  0  0  0  0  0
  148.2328  137.9542  153.5522 N   0  0  0  0  0  0  0  0  0  0  0  0
  146.9583  137.6786  153.8718 C   0  0  0  0  0  0  0  0  0  0  0  0
  146.3103  138.2597  154.7415 O   0  0  0  0  0  0  0  0  0  0  0  0
  146.4787  136.6811  153.1102 N   0  0  0  0  0  0  0  0  0  0  0  0
  145.1392  136.0724  153.1177 C   0  0  1  0  0  0  0  0  0  0  0  0
  144.8144  135.5387  154.5366 C   0  0  0  0  0  0  0  0  0  0  0  0
  144.0826  137.1529  152.7416 C   0  0  0  0  0  0  0  0  0  0  0  0
  143.9857  138.1723  153.7162 O   0  0  0  0  0  0  0  0  0  0  0  0
  145.1549  134.8934  152.0802 C   0  0  0  0  0  0  0  0  0  0  0  0
  143.7940  134.1547  151.9580 C   0  0  0  0  0  0  0  0  0  0  0  0
  143.8271  133.0425  150.8976 C   0  0  0  0  0  0  0  0  0  0  0  0
  144.9425  132.0302  151.1856 C   0  0  0  0  0  0  0  0  0  0  0  0
  146.2997  132.7364  151.2882 C   0  0  0  0  0  0  0  0  0  0  0  0
  146.2727  133.8489  152.3482 C   0  0  0  0  0  0  0  0  0  0  0  0
  150.4797  138.9202  154.3358 C   0  0  0  0  0  0  0  0  0  0  0  0
  150.8912  140.0398  154.9125 N   0  0  0  0  0  0  0  0  0  0  0  0
  148.8749  142.4704  155.9276 H   0  0  0  0  0  0  0  0  0  0  0  0
  150.3703  142.7743  155.0200 H   0  0  0  0  0  0  0  0  0  0  0  0
  150.4416  142.0186  156.6275 H   0  0  0  0  0  0  0  0  0  0  0  0
  147.6551  140.5749  154.6765 H   0  0  0  0  0  0  0  0  0  0  0  0
  148.6462  137.4039  152.8141 H   0  0  0  0  0  0  0  0  0  0  0  0
  147.1169  136.2898  152.4331 H   0  0  0  0  0  0  0  0  0  0  0  0
  143.9219  134.9124  154.5286 H   0  0  0  0  0  0  0  0  0  0  0  0
  144.6258  136.3474  155.2426 H   0  0  0  0  0  0  0  0  0  0  0  0
  145.6301  134.9471  154.9511 H   0  0  0  0  0  0  0  0  0  0  0  0
  144.3295  137.6320  151.7944 H   0  0  0  0  0  0  0  0  0  0  0  0
  143.0959  136.7111  152.6021 H   0  0  0  0  0  0  0  0  0  0  0  0
  144.1169  139.0063  153.2914 H   0  0  0  0  0  0  0  0  0  0  0  0
  145.3549  135.3252  151.0985 H   0  0  0  0  0  0  0  0  0  0  0  0
  143.5091  133.7219  152.9176 H   0  0  0  0  0  0  0  0  0  0  0  0
  143.0004  134.8490  151.6860 H   0  0  0  0  0  0  0  0  0  0  0  0
  142.8639  132.5326  150.8640 H   0  0  0  0  0  0  0  0  0  0  0  0
  143.9774  133.4826  149.9109 H   0  0  0  0  0  0  0  0  0  0  0  0
  144.7303  131.5028  152.1166 H   0  0  0  0  0  0  0  0  0  0  0  0
  144.9731  131.2748  150.4000 H   0  0  0  0  0  0  0  0  0  0  0  0
  147.0768  132.0113  151.5315 H   0  0  0  0  0  0  0  0  0  0  0  0
  146.5663  133.1614  150.3196 H   0  0  0  0  0  0  0  0  0  0  0  0
  147.2525  134.3240  152.3560 H   0  0  0  0  0  0  0  0  0  0  0  0
  146.1412  133.3987  153.3327 H   0  0  0  0  0  0  0  0  0  0  0  0
  151.2077  138.1607  154.0932 H   0  0  0  0  0  0  0  0  0  0  0  0
  1  2  1  0  0  0  0
  1 21  1  0  0  0  0
  1 22  1  0  0  0  0
  1 23  1  0  0  0  0
  2 20  1  0  0  0  0
  2  3  1  0  0  0  0
  3  4  2  0  0  0  0
  3 24  1  0  0  0  0
  4  5  1  0  0  0  0
  4 19  1  0  0  0  0
  5  6  1  0  0  0  0
  5 25  1  0  0  0  0
  6  7  2  0  0  0  0
  6  8  1  0  0  0  0
  8  9  1  0  0  0  0
  8 26  1  0  0  0  0
  9 10  1  0  0  0  0
  9 11  1  0  0  0  0
  9 13  1  0  0  0  0
 10 27  1  0  0  0  0
 10 28  1  0  0  0  0
 10 29  1  0  0  0  0
 11 12  1  0  0  0  0
 11 30  1  0  0  0  0
 11 31  1  0  0  0  0
 12 32  1  0  0  0  0
 13 18  1  0  0  0  0
 13 14  1  0  0  0  0
 13 33  1  0  0  0  0
 14 15  1  0  0  0  0
 14 34  1  0  0  0  0
 14 35  1  0  0  0  0
 15 16  1  0  0  0  0
 15 36  1  0  0  0  0
 15 37  1  0  0  0  0
 16 17  1  0  0  0  0
 16 38  1  0  0  0  0
 16 39  1  0  0  0  0
 17 18  1  0  0  0  0
 17 40  1  0  0  0  0
 17 41  1  0  0  0  0
 18 42  1  0  0  0  0
 18 43  1  0  0  0  0
 19 20  2  0  0  0  0
 19 44  1  0  0  0  0
M  END
> <s_m_source_file>
AV-unprocessed.smi

> <i_m_source_file_index>
3000

> <i_lp_mmshare_version>
43012

> <i_f3d_flags>
0

> <s_epik_input>
W0NIM11uMVtjSF1jKFtjSF1uMSlbTkhdQyg9TylbTkhdW0NAQF0oW0NIM10pKFtDSDJdW09IXSlbQ0hdMltDSDJdW0NIMl1bQ0gyXVtDSDJdW0NIMl0y

> <s_epik_cmdline>
J2VwaWtfcHl0aG9uJywgJy1waCcsICc3LjAnLCAnLXRuJywgJzgnLCAnLW1hJywgJzIwMCcsICctbWV0YWxfYmluZGluZycsICctaW1hZScsICc8aW5maWxlLm1hZT4nLCAnLW9tYWUnLCAnPG91dGZpbGUubWFlPic=

> <r_lp_tautomer_probability>
1

> <r_epik_Ionization_Penalty>
0.000189471

> <r_epik_Ionization_Penalty_Charging>
0

> <r_epik_Ionization_Penalty_Neutral>
0.000189471

> <r_epik_State_Penalty>
-0

> <r_epik_Charging_Adjusted_Penalty>
0

> <i_epik_Tot_Q>
0

> <i_epik_Tot_abs_Q>
0

> <r_epik_Metal_State_Penalty>
-0

> <b_epik_Metal_Only>
0

> <s_lp_Force_Field>
OPLS_2005

> <r_lp_Energy>
20.4121

> <b_lp_Chiralities_Consistent>
1

> <s_lp_Variant>
AV-unprocessed.smi:3000-1

> <Gold.Version>
5.8.1

> <Gold.Id.Protein>
6NUR|6NUR_protein|mol2

> <Gold.PLP.Fitness>
41.9800

> <Gold.PLP.PLP>
-30.7842

> <Gold.PLP.part.hbond>
-3.7427

> <Gold.PLP.part.metal>
0.0000

> <Gold.PLP.part.buried>
-0.2109

> <Gold.PLP.part.nonpolar>
-25.8935

> <Gold.PLP.part.repulsive>
0.1753

> <Gold.PLP.ligand.clash>
0.0000

> <Gold.PLP.ligand.torsion>
0.2689

> <Gold.PLP.Chemscore.Hbond>
3.9030

> <Gold.PLP.Chemscore.CHOScore>
0.0000

> <Gold.PLP.Chemscore.Metal>
0.0000

> <Gold.Chemscore.Hbonds>
donor molecule, donor type, donor heavy atom, donor atom, acceptor molecule, acceptor atom, score
      L1  H     5    25       P1  7948  0.99
      L1  H     8    26       P1  7948  0.91
      L1  H    12    32       P1 10175  1.00
      P1  H  7989  7998       L1    20  1.00

> <Gold.PLP.Chemscore.Internal.Correction>
0.0246

> <Gold.Rescore>
     Score         DG    S(hbond)    S(metal)    S(lipo)     H(rot)  DE(clash)    DE(int)     intcor
     16.87     -18.49       2.92        0.00      71.89       2.02       0.13       1.49       ----

> <Gold.Chemscore.Fitness>
16.8725

> <Gold.Chemscore.DG>
-18.4896

> <Gold.Chemscore.ZeroCoef>
-5.4800

> <Gold.Chemscore.Hbond>
2.9225

> <Gold.Chemscore.Metal>
0.0000

> <Gold.Chemscore.Lipo>
71.8851

> <Gold.Chemscore.Internal_Hbond>
0.0000

> <Gold.Chemscore.DEClash>
0.1319

> <Gold.Chemscore.DEInternal>
1.4852

> <Gold.Chemscore.Rot>
2.0165

> <Gold.Chemscore.Internal.Correction>
   9.000000E+99

> <Gold.Chemscore.Hbonds>
donor molecule, donor type, donor heavy atom, donor atom, acceptor molecule, acceptor atom, score
      L1  H     5    25       P1  7948  0.92
      L1  H     8    26       P1  7948  0.89
      L1  H    12    32       P1 10175  0.99
      P1  H  7989  7998       L1    20  0.08

> <Gold.Chemscore.Hbond.Weighted>
-9.7612

> <Gold.Chemscore.Metal.Weighted>
-0.0000

> <Gold.Chemscore.Lipo.Weighted>
-8.4106

> <Gold.Chemscore.Internal_Hbond.Weighted>
0.0000

> <Gold.Chemscore.DEClash.Weighted>
0.1319

> <Gold.Chemscore.DEInternal.Weighted>
1.4852

> <Gold.Chemscore.Rot.Weighted>
5.1622

> <Gold.Chemscore.Internal.Correction.Weighted>
   9.000000E+99

> <Gold.Protein.RotatedTorsions>
[ 6907 6896 6895 6894 ] final    0.70 input  -60.11 | X-H torsion
[ 7974 7965 7964 7962 ] final   69.87 input  175.53 | X-H torsion
[ 8008 7997 7996 7995 ] final  -66.97 input   59.86 | X-H torsion
[ 10167 10162 10161 10158 ] final -138.17 input  -65.29 | X-H torsion
[ 10718 10713 10712 10709 ] final -108.01 input   66.30 | X-H torsion
[ 10763 10752 10751 10750 ] final   40.84 input  -60.55 | X-H torsion
[ 11005 11000 10999 10996 ] final   59.01 input  -57.11 | X-H torsion

> <Gold.Protein.ActiveResidues>
 VAL166  LYS551  ARG553  GLY616  TRP617  ASP618  TYR619  PRO620  LYS621  CYS622 
 ASP623  PHE694  ASN695  SER759  ASP760  ASP761  ALA762  ILE779  LEU786  VAL792 
 PHE793  MET794  SER795  GLU796  ALA797  LYS798  CYS799  TRP800  GLU811  SER814 

> <Gold.Protein.RotatedAtoms>
  151.5807  135.1058  160.0016 H   0  0  0  0  0  0  0  0  0  0  0  0  # atno 6907 bound_to 6896
  152.4355  133.7350  159.6619 H   0  0  0  0  0  0  0  0  0  0  0  0  # atno 6908 bound_to 6896
  150.8253  133.8113  159.3144 H   0  0  0  0  0  0  0  0  0  0  0  0  # atno 6909 bound_to 6896
  145.7852  139.2907  143.1243 H   0  0  0  0  0  0  0  0  0  0  0  0  # atno 7974 bound_to 7965
  154.4769  140.0902  156.7284 H   0  0  0  0  0  0  0  0  0  0  0  0  # atno 8008 bound_to 7997
  155.4573  140.3459  155.4290 H   0  0  0  0  0  0  0  0  0  0  0  0  # atno 8009 bound_to 7997
  156.1130  140.1453  156.9300 H   0  0  0  0  0  0  0  0  0  0  0  0  # atno 8010 bound_to 7997
  139.8504  143.7205  152.2658 H   0  0  0  0  0  0  0  0  0  0  0  0  # atno 10167 bound_to 10162
  156.0464  130.5691  150.7901 H   0  0  0  0  0  0  0  0  0  0  0  0  # atno 10718 bound_to 10713
  152.9924  135.6179  154.2692 H   0  0  0  0  0  0  0  0  0  0  0  0  # atno 10763 bound_to 10752
  154.2425  135.2788  155.2850 H   0  0  0  0  0  0  0  0  0  0  0  0  # atno 10764 bound_to 10752
  154.5357  135.5775  153.6854 H   0  0  0  0  0  0  0  0  0  0  0  0  # atno 10765 bound_to 10752
  140.0335  134.5977  155.9475 H   0  0  0  0  0  0  0  0  0  0  0  0  # atno 11005 bound_to 11000
  146.0034  140.8500  143.0007 LP  0  0  0  0  0  0  0  0  0  0  0  0  # atno 17320 bound_to 7965
  144.6790  140.2385  143.7346 LP  0  0  0  0  0  0  0  0  0  0  0  0  # atno 17321 bound_to 7965
  139.7471  144.7544  151.0564 LP  0  0  0  0  0  0  0  0  0  0  0  0  # atno 17342 bound_to 10162
  140.7788  143.4904  150.9901 LP  0  0  0  0  0  0  0  0  0  0  0  0  # atno 17343 bound_to 10162
  157.5344  131.0938  150.9912 LP  0  0  0  0  0  0  0  0  0  0  0  0  # atno 17370 bound_to 10713
  157.0210  130.5674  149.5331 LP  0  0  0  0  0  0  0  0  0  0  0  0  # atno 17371 bound_to 10713
  141.1844  133.6553  156.5157 LP  0  0  0  0  0  0  0  0  0  0  0  0  # atno 17394 bound_to 11000
  140.4185  134.7208  157.4877 LP  0  0  0  0  0  0  0  0  0  0  0  0  # atno 17395 bound_to 11000

$$$$
