#       Name:                AV-unprocessed.smi:2974
#       Creating user name   scv26
#       Creation time:       Fri Mar 27 16:27:13 2020


#       File generated by GOLD software.
#

@<TRIPOS>MOLECULE
AV-unprocessed.smi:2974
    34    35     1
SMALL
NO_CHARGES


@<TRIPOS>ATOM
      1 ****        -4.1219  -1.1946   0.0005 O.co2          1 S1                 0.0000
      2 ****        -3.4460  -2.2481   0.0024 C.2            1 S1                 0.0000
      3 ****        -3.9778  -3.3815   0.0018 O.co2          1 S1                -1.0000
      4 ****        -1.9439  -2.1476   0.0055 C.ar           1 S1                 0.0000
      5 ****        -1.3106  -0.8817   0.0057 C.ar           1 S1                 0.0000
      6 ****         0.1006  -0.8192   0.0072 C.ar           1 S1                 0.0000
      7 ****         0.7926   0.3999   0.0059 N.3            1 S1                 0.0000
      8 ****         0.5970   1.1705  -1.2155 C.3            1 S1                 0.0000
      9 ****         1.4775   2.4320  -1.1876 C.3            1 S1                 0.0000
     10 ****         1.1903   3.1905  -0.0157 O.3            1 S1                 0.0000
     11 ****         1.4513   2.4540   1.1761 C.3            1 S1                 0.0000
     12 ****         0.5695   1.1934   1.2078 C.3            1 S1                 0.0000
     13 ****         0.8257  -2.0262   0.0079 C.ar           1 S1                 0.0000
     14 ****         0.1102  -3.2382   0.0083 C.ar           1 S1                 0.0000
     15 ****        -1.2370  -3.3037   0.0071 N.ar           1 S1                 0.0000
     16 ****        -1.8945   0.0274   0.0037 H              1 S1                 0.0000
     17 ****         0.8463   0.5582  -2.0832 H              1 S1                 0.0000
     18 ****        -0.4519   1.4547  -1.3110 H              1 S1                 0.0000
     19 ****         2.5360   2.1682  -1.2119 H              1 S1                 0.0000
     20 ****         1.2815   3.0467  -2.0662 H              1 S1                 0.0000
     21 ****         2.5089   2.1903   1.2285 H              1 S1                 0.0000
     22 ****         1.2365   3.0850   2.0385 H              1 S1                 0.0000
     23 ****        -0.4808   1.4805   1.2743 H              1 S1                 0.0000
     24 ****         0.7984   0.5975   2.0923 H              1 S1                 0.0000
     25 ****         1.9059  -2.0263   0.0082 H              1 S1                 0.0000
     26 ****         0.6351  -4.1819   0.0092 H              1 S1                 0.0000
     27 ****        -5.1208  -1.2414  -0.0016 LP             1 S1                 0.0000
     28 ****        -3.6629  -0.3061   0.0011 LP             1 S1                 0.0000
     29 ****        -4.9742  -3.4663  -0.0002 LP             1 S1                 0.0000
     30 ****        -3.4061  -4.2020   0.0034 LP             1 S1                 0.0000
     31 ****         1.7602   0.1477   0.0214 LP             1 S1                 0.0000
     32 ****         0.2251   3.4514  -0.0288 LP             1 S1                 0.0000
     33 ****         1.7581   4.0137  -0.0171 LP             1 S1                 0.0000
     34 ****        -1.7047  -4.1876   0.0074 LP             1 S1                 0.0000
@<TRIPOS>BOND
    1    1    2 ar    
    2    2    3 ar    
    3    2    4 1     
    4    4   15 ar    
    5    4    5 ar    
    6    5    6 ar    
    7    5   16 1     
    8    6    7 1     
    9    6   13 ar    
   10    7   12 1     
   11    7    8 1     
   12    8    9 1     
   13    8   17 1     
   14    8   18 1     
   15    9   10 1     
   16    9   19 1     
   17    9   20 1     
   18   10   11 1     
   19   11   12 1     
   20   11   21 1     
   21   11   22 1     
   22   12   23 1     
   23   12   24 1     
   24   13   14 ar    
   25   13   25 1     
   26   14   15 ar    
   27   14   26 1     
   28    1   27 1     
   29    1   28 1     
   30    3   29 1     
   31    3   30 1     
   32    7   31 1     
   33   10   32 1     
   34   10   33 1     
   35   15   34 1     
@<TRIPOS>SUBSTRUCTURE
      1 S1             1
@<TRIPOS>SET
LONE_PAIRS      STATIC     ATOMS    <user>   **** ""
8 27 28 29 30 31 32 33 34
ATOM$BLUE        STATIC     ATOMS    COLORGROUP SYSTEM
8 27 28 29 30 31 32 33 34
