AV-unprocessed.smi:2428|AV-procd|sdf|9580|dock9
  -GOLD-   2272013213D 1   1.00000     0.00000
 Structure written by MMmdl.
 30 31  0  0  0  0  0  0  0  0  1 V2000
  151.2369  144.7539  159.6079 F   0  0  0  0  0  0  0  0  0  0  0  0
  151.8744  144.0214  158.6944 C   0  0  0  0  0  0  0  0  0  0  0  0
  151.0096  143.7055  157.7300 F   0  0  0  0  0  0  0  0  0  0  0  0
  152.8557  144.7521  158.1666 F   0  0  0  0  0  0  0  0  0  0  0  0
  152.4658  142.7819  159.3457 C   0  0  0  0  0  0  0  0  0  0  0  0
  153.4358  142.9027  160.3616 C   0  0  0  0  0  0  0  0  0  0  0  0
  153.9676  141.7354  160.9429 C   0  0  0  0  0  0  0  0  0  0  0  0
  153.5111  140.4807  160.4889 C   0  0  0  0  0  0  0  0  0  0  0  0
  154.0449  139.3229  161.0734 N   0  0  0  0  0  0  0  0  0  0  0  0
  153.5014  138.0052  160.7668 C   0  0  0  0  0  0  0  0  0  0  0  0
  153.7450  136.9950  161.9003 C   0  0  2  0  0  0  0  0  0  0  0  0
  153.1111  137.4056  163.2265 C   0  0  0  0  0  0  0  0  0  0  0  0
  153.9228  136.6346  164.2537 C   0  0  0  0  0  0  0  0  0  0  0  0
  155.2193  136.2876  163.5155 C   0  0  0  0  0  0  0  0  0  0  0  0
  155.1187  136.9262  162.2496 O   0  0  0  0  0  0  0  0  0  0  0  0
  152.5877  140.3586  159.5062 N   0  0  0  0  0  0  0  0  0  0  0  0
  152.0803  141.4815  158.9542 C   0  0  0  0  0  0  0  0  0  0  0  0
  153.7688  143.8757  160.6916 H   0  0  0  0  0  0  0  0  0  0  0  0
  154.7103  141.8068  161.7243 H   0  0  0  0  0  0  0  0  0  0  0  0
  154.5872  139.4206  161.9194 H   0  0  0  0  0  0  0  0  0  0  0  0
  152.4428  138.0603  160.5108 H   0  0  0  0  0  0  0  0  0  0  0  0
  154.0098  137.6573  159.8674 H   0  0  0  0  0  0  0  0  0  0  0  0
  153.3916  136.0017  161.6164 H   0  0  0  0  0  0  0  0  0  0  0  0
  153.2395  138.4769  163.3880 H   0  0  0  0  0  0  0  0  0  0  0  0
  152.0449  137.1829  163.2725 H   0  0  0  0  0  0  0  0  0  0  0  0
  154.1047  137.2316  165.1477 H   0  0  0  0  0  0  0  0  0  0  0  0
  153.4056  135.7238  164.5568 H   0  0  0  0  0  0  0  0  0  0  0  0
  156.1068  136.6291  164.0485 H   0  0  0  0  0  0  0  0  0  0  0  0
  155.3022  135.2096  163.3714 H   0  0  0  0  0  0  0  0  0  0  0  0
  151.3478  141.3287  158.1756 H   0  0  0  0  0  0  0  0  0  0  0  0
  1  2  1  0  0  0  0
  2  3  1  0  0  0  0
  2  4  1  0  0  0  0
  2  5  1  0  0  0  0
  5 17  1  0  0  0  0
  5  6  2  0  0  0  0
  6  7  1  0  0  0  0
  6 18  1  0  0  0  0
  7  8  2  0  0  0  0
  7 19  1  0  0  0  0
  8  9  1  0  0  0  0
  8 16  1  0  0  0  0
  9 10  1  0  0  0  0
  9 20  1  0  0  0  0
 10 11  1  0  0  0  0
 10 21  1  0  0  0  0
 10 22  1  0  0  0  0
 11 15  1  0  0  0  0
 11 12  1  0  0  0  0
 11 23  1  0  0  0  0
 12 13  1  0  0  0  0
 12 24  1  0  0  0  0
 12 25  1  0  0  0  0
 13 14  1  0  0  0  0
 13 26  1  0  0  0  0
 13 27  1  0  0  0  0
 14 15  1  0  0  0  0
 14 28  1  0  0  0  0
 14 29  1  0  0  0  0
 16 17  2  0  0  0  0
 17 30  1  0  0  0  0
M  END
> <s_m_source_file>
AV-unprocessed.smi

> <i_m_source_file_index>
2428

> <i_lp_mmshare_version>
43012

> <i_f3d_flags>
0

> <s_epik_input>
RkMoRikoRiljMVtjSF1bY0hdYyhuW2NIXTEpW05IXVtDSDJdW0NAQEhdMltDSDJdW0NIMl1bQ0gyXU8y

> <s_epik_cmdline>
J2VwaWtfcHl0aG9uJywgJy1waCcsICc3LjAnLCAnLXRuJywgJzgnLCAnLW1hJywgJzIwMCcsICctbWV0YWxfYmluZGluZycsICctaW1hZScsICc8aW5maWxlLm1hZT4nLCAnLW9tYWUnLCAnPG91dGZpbGUubWFlPic=

> <r_lp_tautomer_probability>
1

> <r_epik_Ionization_Penalty>
0.000819842

> <r_epik_Ionization_Penalty_Charging>
0

> <r_epik_Ionization_Penalty_Neutral>
0.000819842

> <r_epik_State_Penalty>
0.000527207

> <r_epik_Charging_Adjusted_Penalty>
0.000527207

> <i_epik_Tot_Q>
0

> <i_epik_Tot_abs_Q>
0

> <r_epik_Metal_State_Penalty>
-0

> <b_epik_Metal_Only>
0

> <s_lp_Force_Field>
OPLS_2005

> <r_lp_Energy>
19.3564

> <b_lp_Chiralities_Consistent>
1

> <s_lp_Variant>
AV-unprocessed.smi:2428-1

> <Gold.Version>
5.8.1

> <Gold.Id.Protein>
6NUR|6NUR_protein|mol2

> <Gold.PLP.Fitness>
41.5613

> <Gold.PLP.PLP>
-41.9621

> <Gold.PLP.part.hbond>
0.0000

> <Gold.PLP.part.metal>
0.0000

> <Gold.PLP.part.buried>
-4.1482

> <Gold.PLP.part.nonpolar>
-37.3527

> <Gold.PLP.part.repulsive>
0.0031

> <Gold.PLP.ligand.clash>
0.0000

> <Gold.PLP.ligand.torsion>
0.2108

> <Gold.PLP.Chemscore.Hbond>
0.0000

> <Gold.PLP.Chemscore.CHOScore>
0.0000

> <Gold.PLP.Chemscore.Metal>
0.0000

> <Gold.PLP.Chemscore.Internal.Correction>
0.0208

> <Gold.Rescore>
     Score         DG    S(hbond)    S(metal)    S(lipo)     H(rot)  DE(clash)    DE(int)     intcor
     12.79     -13.04       0.00        0.00      92.00       1.25       0.08       0.17       ----

> <Gold.Chemscore.Fitness>
12.7945

> <Gold.Chemscore.DG>
-13.0408

> <Gold.Chemscore.ZeroCoef>
-5.4800

> <Gold.Chemscore.Hbond>
0.0000

> <Gold.Chemscore.Metal>
0.0000

> <Gold.Chemscore.Lipo>
92.0030

> <Gold.Chemscore.Internal_Hbond>
0.0000

> <Gold.Chemscore.DEClash>
0.0787

> <Gold.Chemscore.DEInternal>
0.1676

> <Gold.Chemscore.Rot>
1.2514

> <Gold.Chemscore.Internal.Correction>
   9.000000E+99

> <Gold.Chemscore.Hbond.Weighted>
-0.0000

> <Gold.Chemscore.Metal.Weighted>
-0.0000

> <Gold.Chemscore.Lipo.Weighted>
-10.7644

> <Gold.Chemscore.Internal_Hbond.Weighted>
0.0000

> <Gold.Chemscore.DEClash.Weighted>
0.0787

> <Gold.Chemscore.DEInternal.Weighted>
0.1676

> <Gold.Chemscore.Rot.Weighted>
3.2036

> <Gold.Chemscore.Internal.Correction.Weighted>
   9.000000E+99

> <Gold.Protein.RotatedTorsions>
[ 6907 6896 6895 6894 ] final  148.54 input  -60.11 | X-H torsion
[ 7974 7965 7964 7962 ] final -155.52 input  175.53 | X-H torsion
[ 8008 7997 7996 7995 ] final -161.98 input   59.86 | X-H torsion
[ 10167 10162 10161 10158 ] final -143.04 input  -65.29 | X-H torsion
[ 10718 10713 10712 10709 ] final -138.62 input   66.30 | X-H torsion
[ 10763 10752 10751 10750 ] final   38.64 input  -60.55 | X-H torsion
[ 11005 11000 10999 10996 ] final  -88.33 input  -57.11 | X-H torsion

> <Gold.Protein.ActiveResidues>
 VAL166  LYS551  ARG553  GLY616  TRP617  ASP618  TYR619  PRO620  LYS621  CYS622 
 ASP623  PHE694  ASN695  SER759  ASP760  ASP761  ALA762  ILE779  LEU786  VAL792 
 PHE793  MET794  SER795  GLU796  ALA797  LYS798  CYS799  TRP800  GLU811  SER814 

> <Gold.Protein.RotatedAtoms>
  152.1401  133.4458  159.4762 H   0  0  0  0  0  0  0  0  0  0  0  0  # atno 6907 bound_to 6896
  150.6885  134.2316  159.4446 H   0  0  0  0  0  0  0  0  0  0  0  0  # atno 6908 bound_to 6896
  152.0206  134.9824  160.0621 H   0  0  0  0  0  0  0  0  0  0  0  0  # atno 6909 bound_to 6896
  144.7636  140.4238  143.5958 H   0  0  0  0  0  0  0  0  0  0  0  0  # atno 7974 bound_to 7965
  155.8002  140.0890  157.1961 H   0  0  0  0  0  0  0  0  0  0  0  0  # atno 8008 bound_to 7997
  154.3982  140.1474  156.3324 H   0  0  0  0  0  0  0  0  0  0  0  0  # atno 8009 bound_to 7997
  155.8471  140.3436  155.5671 H   0  0  0  0  0  0  0  0  0  0  0  0  # atno 8010 bound_to 7997
  139.8031  143.7805  152.2659 H   0  0  0  0  0  0  0  0  0  0  0  0  # atno 10167 bound_to 10162
  156.3014  130.7431  151.1483 H   0  0  0  0  0  0  0  0  0  0  0  0  # atno 10718 bound_to 10713
  152.9994  135.6243  154.2337 H   0  0  0  0  0  0  0  0  0  0  0  0  # atno 10763 bound_to 10752
  154.2079  135.2801  155.2970 H   0  0  0  0  0  0  0  0  0  0  0  0  # atno 10764 bound_to 10752
  154.5630  135.5699  153.7084 H   0  0  0  0  0  0  0  0  0  0  0  0  # atno 10765 bound_to 10752
  141.1603  133.7564  156.9436 H   0  0  0  0  0  0  0  0  0  0  0  0  # atno 11005 bound_to 11000
  145.6540  139.1570  143.2846 LP  0  0  0  0  0  0  0  0  0  0  0  0  # atno 17320 bound_to 7965
  146.1723  140.6626  142.9227 LP  0  0  0  0  0  0  0  0  0  0  0  0  # atno 17321 bound_to 7965
  139.7932  144.7402  150.9927 LP  0  0  0  0  0  0  0  0  0  0  0  0  # atno 17342 bound_to 10162
  140.7820  143.4421  151.0536 LP  0  0  0  0  0  0  0  0  0  0  0  0  # atno 17343 bound_to 10162
  157.7369  131.0558  150.5388 LP  0  0  0  0  0  0  0  0  0  0  0  0  # atno 17370 bound_to 10713
  156.5516  130.4233  149.6105 LP  0  0  0  0  0  0  0  0  0  0  0  0  # atno 17371 bound_to 10713
  140.1305  134.9359  157.2330 LP  0  0  0  0  0  0  0  0  0  0  0  0  # atno 17394 bound_to 11000
  140.2959  134.3186  155.7302 LP  0  0  0  0  0  0  0  0  0  0  0  0  # atno 17395 bound_to 11000

$$$$
