AV-unprocessed.smi:502|AV-procd|sdf|2744|dock4
  -GOLD-   2262023203D 1   1.00000     0.00000
 Structure written by MMmdl.
 48 50  0  0  0  0  0  0  0  0  1 V2000
  152.5155  138.5745  159.6659 C   0  0  0  0  0  0  0  0  0  0  0  0
  151.7026  137.6673  158.7496 C   0  0  0  0  0  0  0  0  0  0  0  0
  150.7902  136.9815  159.2093 O   0  0  0  0  0  0  0  0  0  0  0  0
  152.0523  137.6650  157.4551 N   0  0  0  0  0  0  0  0  0  0  0  0
  151.4126  136.8625  156.4173 C   0  0  0  0  0  0  0  0  0  0  0  0
  151.5110  137.5058  155.0208 C   0  0  0  0  0  0  0  0  0  0  0  0
  150.4277  138.5077  154.7376 C   0  0  0  0  0  0  0  0  0  0  0  0
  149.3461  138.1762  154.0307 N   0  0  0  0  0  0  0  0  0  0  0  0
  148.6311  139.3565  153.9924 C   0  0  0  0  0  0  0  0  0  0  0  0
  147.3917  139.6604  153.3848 C   0  0  0  0  0  0  0  0  0  0  0  0
  146.8529  140.9606  153.4735 C   0  0  0  0  0  0  0  0  0  0  0  0
  147.5432  141.9731  154.1705 C   0  0  0  0  0  0  0  0  0  0  0  0
  148.7782  141.6905  154.7850 C   0  0  0  0  0  0  0  0  0  0  0  0
  149.3119  140.3907  154.6937 C   0  0  0  0  0  0  0  0  0  0  0  0
  150.4785  139.7957  155.1656 N   0  0  0  0  0  0  0  0  0  0  0  0
  151.5215  140.4602  155.9346 C   0  0  0  0  0  0  0  0  0  0  0  0
  150.9522  141.5555  156.8472 C   0  0  0  0  0  0  0  0  0  0  0  0
  151.8142  141.7188  157.9652 O   0  0  0  0  0  0  0  0  0  0  0  0
  151.7218  142.8762  158.7079 C   0  0  0  0  0  0  0  0  0  0  0  0
  151.1350  144.0743  158.2276 C   0  0  0  0  0  0  0  0  0  0  0  0
  151.0797  145.2202  159.0438 C   0  0  0  0  0  0  0  0  0  0  0  0
  151.6090  145.1849  160.3462 C   0  0  0  0  0  0  0  0  0  0  0  0
  152.1932  144.0014  160.8330 C   0  0  0  0  0  0  0  0  0  0  0  0
  152.2505  142.8502  160.0195 C   0  0  0  0  0  0  0  0  0  0  0  0
  152.8768  141.5783  160.5606 C   0  0  0  0  0  0  0  0  0  0  0  0
  152.3878  139.6185  159.3786 H   0  0  0  0  0  0  0  0  0  0  0  0
  153.5752  138.3248  159.6053 H   0  0  0  0  0  0  0  0  0  0  0  0
  152.1974  138.4635  160.7032 H   0  0  0  0  0  0  0  0  0  0  0  0
  152.8184  138.2568  157.1674 H   0  0  0  0  0  0  0  0  0  0  0  0
  151.8358  135.8569  156.3996 H   0  0  0  0  0  0  0  0  0  0  0  0
  150.3638  136.7455  156.6910 H   0  0  0  0  0  0  0  0  0  0  0  0
  152.4925  137.9589  154.8901 H   0  0  0  0  0  0  0  0  0  0  0  0
  151.4524  136.7233  154.2633 H   0  0  0  0  0  0  0  0  0  0  0  0
  146.8562  138.8922  152.8469 H   0  0  0  0  0  0  0  0  0  0  0  0
  145.9061  141.1829  153.0035 H   0  0  0  0  0  0  0  0  0  0  0  0
  147.1252  142.9672  154.2322 H   0  0  0  0  0  0  0  0  0  0  0  0
  149.3121  142.4659  155.3139 H   0  0  0  0  0  0  0  0  0  0  0  0
  152.0383  139.7110  156.5351 H   0  0  0  0  0  0  0  0  0  0  0  0
  152.2705  140.8723  155.2610 H   0  0  0  0  0  0  0  0  0  0  0  0
  150.8708  142.4896  156.2901 H   0  0  0  0  0  0  0  0  0  0  0  0
  149.9529  141.2728  157.1817 H   0  0  0  0  0  0  0  0  0  0  0  0
  150.7220  144.1414  157.2328 H   0  0  0  0  0  0  0  0  0  0  0  0
  150.6312  146.1282  158.6685 H   0  0  0  0  0  0  0  0  0  0  0  0
  151.5668  146.0648  160.9712 H   0  0  0  0  0  0  0  0  0  0  0  0
  152.5965  143.9810  161.8350 H   0  0  0  0  0  0  0  0  0  0  0  0
  153.2160  141.7053  161.5891 H   0  0  0  0  0  0  0  0  0  0  0  0
  153.7349  141.2903  159.9528 H   0  0  0  0  0  0  0  0  0  0  0  0
  152.1539  140.7619  160.5415 H   0  0  0  0  0  0  0  0  0  0  0  0
  1  2  1  0  0  0  0
  1 26  1  0  0  0  0
  1 27  1  0  0  0  0
  1 28  1  0  0  0  0
  2  3  2  0  0  0  0
  2  4  1  0  0  0  0
  4  5  1  0  0  0  0
  4 29  1  0  0  0  0
  5  6  1  0  0  0  0
  5 30  1  0  0  0  0
  5 31  1  0  0  0  0
  6  7  1  0  0  0  0
  6 32  1  0  0  0  0
  6 33  1  0  0  0  0
  7 15  1  0  0  0  0
  7  8  2  0  0  0  0
  8  9  1  0  0  0  0
  9 14  2  0  0  0  0
  9 10  1  0  0  0  0
 10 11  2  0  0  0  0
 10 34  1  0  0  0  0
 11 12  1  0  0  0  0
 11 35  1  0  0  0  0
 12 13  2  0  0  0  0
 12 36  1  0  0  0  0
 13 14  1  0  0  0  0
 13 37  1  0  0  0  0
 14 15  1  0  0  0  0
 15 16  1  0  0  0  0
 16 17  1  0  0  0  0
 16 38  1  0  0  0  0
 16 39  1  0  0  0  0
 17 18  1  0  0  0  0
 17 40  1  0  0  0  0
 17 41  1  0  0  0  0
 18 19  1  0  0  0  0
 19 24  1  0  0  0  0
 19 20  2  0  0  0  0
 20 21  1  0  0  0  0
 20 42  1  0  0  0  0
 21 22  2  0  0  0  0
 21 43  1  0  0  0  0
 22 23  1  0  0  0  0
 22 44  1  0  0  0  0
 23 24  2  0  0  0  0
 23 45  1  0  0  0  0
 24 25  1  0  0  0  0
 25 46  1  0  0  0  0
 25 47  1  0  0  0  0
 25 48  1  0  0  0  0
M  END
> <s_m_source_file>
AV-unprocessed.smi

> <i_m_source_file_index>
502

> <i_lp_mmshare_version>
43012

> <i_f3d_flags>
0

> <s_epik_input>
W0NIM11DKD1PKVtOSF1bQ0gyXVtDSDJdYyhuMSluKGMoYzEyKVtjSF1bY0hdW2NIXVtjSF0yKVtDSDJdW0NIMl1PYzNbY0hdW2NIXVtjSF1bY0hdYzNbQ0gzXQ==

> <s_epik_cmdline>
J2VwaWtfcHl0aG9uJywgJy1waCcsICc3LjAnLCAnLXRuJywgJzgnLCAnLW1hJywgJzIwMCcsICctbWV0YWxfYmluZGluZycsICctaW1hZScsICc8aW5maWxlLm1hZT4nLCAnLW9tYWUnLCAnPG91dGZpbGUubWFlPic=

> <r_lp_tautomer_probability>
1

> <r_epik_Ionization_Penalty>
0.0991824

> <r_epik_Ionization_Penalty_Charging>
0

> <r_epik_Ionization_Penalty_Neutral>
0.0991824

> <r_epik_State_Penalty>
0.0892428

> <r_epik_Charging_Adjusted_Penalty>
0.0892428

> <i_epik_Tot_Q>
0

> <i_epik_Tot_abs_Q>
0

> <r_epik_Metal_State_Penalty>
0.076345

> <b_epik_Metal_Only>
0

> <s_lp_Force_Field>
OPLS_2005

> <r_lp_Energy>
12.9543

> <b_lp_Chiralities_Consistent>
1

> <s_lp_Variant>
AV-unprocessed.smi:502-1

> <Gold.Version>
5.8.1

> <Gold.Id.Protein>
6NUR|6NUR_protein|mol2

> <Gold.PLP.Fitness>
55.5048

> <Gold.PLP.PLP>
-55.3855

> <Gold.PLP.part.hbond>
-1.0000

> <Gold.PLP.part.metal>
0.0000

> <Gold.PLP.part.buried>
-3.4753

> <Gold.PLP.part.nonpolar>
-52.8266

> <Gold.PLP.part.repulsive>
1.6239

> <Gold.PLP.ligand.clash>
0.0161

> <Gold.PLP.ligand.torsion>
1.5191

> <Gold.PLP.Chemscore.Hbond>
1.0000

> <Gold.PLP.Chemscore.CHOScore>
0.0000

> <Gold.PLP.Chemscore.Metal>
0.0000

> <Gold.Chemscore.Hbonds>
donor molecule, donor type, donor heavy atom, donor atom, acceptor molecule, acceptor atom, score
      P1  H  6896  6908       L1     3  0.93

> <Gold.PLP.Chemscore.Internal.Correction>
0.1736

> <Gold.Rescore>
     Score         DG    S(hbond)    S(metal)    S(lipo)     H(rot)  DE(clash)    DE(int)     intcor
     17.49     -20.62       0.97        0.00     147.78       2.11       0.60       2.53       ----

> <Gold.Chemscore.Fitness>
17.4895

> <Gold.Chemscore.DG>
-20.6176

> <Gold.Chemscore.ZeroCoef>
-5.4800

> <Gold.Chemscore.Hbond>
0.9711

> <Gold.Chemscore.Metal>
0.0000

> <Gold.Chemscore.Lipo>
147.7797

> <Gold.Chemscore.Internal_Hbond>
0.0000

> <Gold.Chemscore.DEClash>
0.6022

> <Gold.Chemscore.DEInternal>
2.5258

> <Gold.Chemscore.Rot>
2.1078

> <Gold.Chemscore.Internal.Correction>
   9.000000E+99

> <Gold.Chemscore.Hbonds>
donor molecule, donor type, donor heavy atom, donor atom, acceptor molecule, acceptor atom, score
      P1  H  6896  6908       L1     3  0.87

> <Gold.Chemscore.Hbond.Weighted>
-3.2435

> <Gold.Chemscore.Metal.Weighted>
-0.0000

> <Gold.Chemscore.Lipo.Weighted>
-17.2902

> <Gold.Chemscore.Internal_Hbond.Weighted>
0.0000

> <Gold.Chemscore.DEClash.Weighted>
0.6022

> <Gold.Chemscore.DEInternal.Weighted>
2.5258

> <Gold.Chemscore.Rot.Weighted>
5.3961

> <Gold.Chemscore.Internal.Correction.Weighted>
   9.000000E+99

> <Gold.Protein.RotatedTorsions>
[ 6907 6896 6895 6894 ] final -156.05 input  -60.11 | X-H torsion
[ 7974 7965 7964 7962 ] final   63.66 input  175.53 | X-H torsion
[ 8008 7997 7996 7995 ] final  111.45 input   59.86 | X-H torsion
[ 10167 10162 10161 10158 ] final  -30.82 input  -65.29 | X-H torsion
[ 10718 10713 10712 10709 ] final  155.27 input   66.30 | X-H torsion
[ 10763 10752 10751 10750 ] final -151.68 input  -60.55 | X-H torsion
[ 11005 11000 10999 10996 ] final   78.18 input  -57.11 | X-H torsion

> <Gold.Protein.ActiveResidues>
 VAL166  LYS551  ARG553  GLY616  TRP617  ASP618  TYR619  PRO620  LYS621  CYS622 
 ASP623  PHE694  ASN695  SER759  ASP760  ASP761  ALA762  ILE779  LEU786  VAL792 
 PHE793  MET794  SER795  GLU796  ALA797  LYS798  CYS799  TRP800  GLU811  SER814 

> <Gold.Protein.RotatedAtoms>
  151.2817  133.4206  159.2627 H   0  0  0  0  0  0  0  0  0  0  0  0  # atno 6907 bound_to 6896
  151.0355  134.9570  159.8144 H   0  0  0  0  0  0  0  0  0  0  0  0  # atno 6908 bound_to 6896
  152.5354  134.2777  159.9048 H   0  0  0  0  0  0  0  0  0  0  0  0  # atno 6909 bound_to 6896
  145.8593  139.3304  143.0828 H   0  0  0  0  0  0  0  0  0  0  0  0  # atno 7974 bound_to 7965
  156.2124  140.3019  155.9763 H   0  0  0  0  0  0  0  0  0  0  0  0  # atno 8008 bound_to 7997
  155.2690  140.0433  157.3022 H   0  0  0  0  0  0  0  0  0  0  0  0  # atno 8009 bound_to 7997
  154.5719  140.2350  155.8188 H   0  0  0  0  0  0  0  0  0  0  0  0  # atno 8010 bound_to 7997
  140.7244  143.3819  151.1586 H   0  0  0  0  0  0  0  0  0  0  0  0  # atno 10167 bound_to 10162
  157.2206  131.0717  151.1914 H   0  0  0  0  0  0  0  0  0  0  0  0  # atno 10718 bound_to 10713
  154.8042  135.3254  154.7473 H   0  0  0  0  0  0  0  0  0  0  0  0  # atno 10763 bound_to 10752
  153.8135  135.6893  153.4842 H   0  0  0  0  0  0  0  0  0  0  0  0  # atno 10764 bound_to 10752
  153.1777  135.4598  154.9931 H   0  0  0  0  0  0  0  0  0  0  0  0  # atno 10765 bound_to 10752
  139.9223  134.7742  156.1616 H   0  0  0  0  0  0  0  0  0  0  0  0  # atno 11005 bound_to 11000
  145.9267  140.9077  143.0377 LP  0  0  0  0  0  0  0  0  0  0  0  0  # atno 17320 bound_to 7965
  144.6727  140.1362  143.7440 LP  0  0  0  0  0  0  0  0  0  0  0  0  # atno 17321 bound_to 7965
  139.7409  143.8926  152.3049 LP  0  0  0  0  0  0  0  0  0  0  0  0  # atno 17342 bound_to 10162
  139.8747  144.7050  150.8947 LP  0  0  0  0  0  0  0  0  0  0  0  0  # atno 17343 bound_to 10162
  157.3580  130.7116  149.6483 LP  0  0  0  0  0  0  0  0  0  0  0  0  # atno 17370 bound_to 10713
  155.9682  130.4234  150.4559 LP  0  0  0  0  0  0  0  0  0  0  0  0  # atno 17371 bound_to 10713
  141.0754  133.6778  156.2226 LP  0  0  0  0  0  0  0  0  0  0  0  0  # atno 17394 bound_to 11000
  140.6437  134.5139  157.5572 LP  0  0  0  0  0  0  0  0  0  0  0  0  # atno 17395 bound_to 11000

$$$$
