AV-unprocessed.smi:1560|AV-procd|sdf|6282|dock4
  -GOLD-   22720 6483D 1   1.00000     0.00000
 Structure written by MMmdl.
 47 48  0  0  0  0  0  0  0  0  3 V2000
  149.9604  133.2670  155.1850 C   0  0  0  0  0  0  0  0  0  0  0  0
  148.9108  133.6250  154.1177 C   0  0  0  0  0  0  0  0  0  0  0  0
  147.8736  134.7149  154.5303 C   0  0  2  0  0  0  0  0  0  0  0  0
  148.6719  135.9016  155.1337 C   0  0  0  0  0  0  0  0  0  0  0  0
  146.9125  134.1221  155.6095 C   0  0  0  0  0  0  0  0  0  0  0  0
  147.5602  133.9010  156.9005 N   0  0  0  0  0  0  0  0  0  0  0  0
  147.0988  134.3177  158.0889 C   0  0  0  0  0  0  0  0  0  0  0  0
  146.0149  134.8825  158.2376 O   0  0  0  0  0  0  0  0  0  0  0  0
  148.0064  134.0596  159.2956 C   0  0  0  0  0  0  0  0  0  0  0  0
  147.6888  134.9660  160.4093 N   0  0  0  0  0  0  0  0  0  0  0  0
  147.2396  134.3957  161.6133 C   0  0  0  0  0  0  0  0  0  0  0  0
  146.9113  135.1520  162.6780 C   0  0  0  0  0  0  0  0  0  0  0  0
  147.0317  136.5999  162.5601 C   0  0  0  0  0  0  0  0  0  0  0  0
  146.7388  137.3061  163.5230 O   0  0  0  0  0  0  0  0  0  0  0  0
  147.4686  137.1058  161.3696 N   0  5  0  0  0  0  0  0  0  0  0  0
  147.7960  136.3249  160.2942 C   0  0  0  0  0  0  0  0  0  0  0  0
  148.1803  136.8026  159.2254 O   0  0  0  0  0  0  0  0  0  0  0  0
  147.0964  135.1785  153.3231 N   0  3  0  0  0  0  0  0  0  0  0  0
  146.4570  134.1061  152.5092 C   0  0  0  0  0  0  0  0  0  0  0  0
  145.8857  134.6879  151.2061 C   0  0  0  0  0  0  0  0  0  0  0  0
  144.9419  135.7037  151.5144 O   0  0  0  0  0  0  0  0  0  0  0  0
  145.5405  136.7802  152.2220 C   0  0  0  0  0  0  0  0  0  0  0  0
  146.1144  136.2756  153.5571 C   0  0  0  0  0  0  0  0  0  0  0  0
  150.6383  132.5008  154.8085 H   0  0  0  0  0  0  0  0  0  0  0  0
  149.4994  132.8707  156.0895 H   0  0  0  0  0  0  0  0  0  0  0  0
  150.5679  134.1277  155.4641 H   0  0  0  0  0  0  0  0  0  0  0  0
  149.4241  133.9131  153.2007 H   0  0  0  0  0  0  0  0  0  0  0  0
  148.3874  132.7046  153.8549 H   0  0  0  0  0  0  0  0  0  0  0  0
  149.4253  135.5634  155.8456 H   0  0  0  0  0  0  0  0  0  0  0  0
  148.0287  136.5940  155.6768 H   0  0  0  0  0  0  0  0  0  0  0  0
  149.1953  136.4718  154.3660 H   0  0  0  0  0  0  0  0  0  0  0  0
  146.0324  134.7522  155.7400 H   0  0  0  0  0  0  0  0  0  0  0  0
  146.5370  133.1491  155.2949 H   0  0  0  0  0  0  0  0  0  0  0  0
  148.4627  133.4480  156.8844 H   0  0  0  0  0  0  0  0  0  0  0  0
  147.8872  133.0186  159.5981 H   0  0  0  0  0  0  0  0  0  0  0  0
  149.0566  134.1595  159.0143 H   0  0  0  0  0  0  0  0  0  0  0  0
  147.1716  133.3177  161.6150 H   0  0  0  0  0  0  0  0  0  0  0  0
  146.5638  134.6988  163.5948 H   0  0  0  0  0  0  0  0  0  0  0  0
  147.1665  133.3236  152.2481 H   0  0  0  0  0  0  0  0  0  0  0  0
  145.6497  133.6353  153.0706 H   0  0  0  0  0  0  0  0  0  0  0  0
  146.6804  135.0868  150.5734 H   0  0  0  0  0  0  0  0  0  0  0  0
  145.3853  133.9063  150.6342 H   0  0  0  0  0  0  0  0  0  0  0  0
  146.3198  137.2425  151.6139 H   0  0  0  0  0  0  0  0  0  0  0  0
  144.7851  137.5450  152.4043 H   0  0  0  0  0  0  0  0  0  0  0  0
  145.3018  135.9256  154.1941 H   0  0  0  0  0  0  0  0  0  0  0  0
  146.5713  137.1268  154.0581 H   0  0  0  0  0  0  0  0  0  0  0  0
  147.7974  135.5848  152.7199 H   0  0  0  0  0  0  0  0  0  0  0  0
  1  2  1  0  0  0  0
  1 24  1  0  0  0  0
  1 25  1  0  0  0  0
  1 26  1  0  0  0  0
  2  3  1  0  0  0  0
  2 27  1  0  0  0  0
  2 28  1  0  0  0  0
  3  4  1  0  0  0  0
  3  5  1  0  0  0  0
  3 18  1  0  0  0  0
  4 29  1  0  0  0  0
  4 30  1  0  0  0  0
  4 31  1  0  0  0  0
  5  6  1  0  0  0  0
  5 32  1  0  0  0  0
  5 33  1  0  0  0  0
  6  7  1  0  0  0  0
  6 34  1  0  0  0  0
  7  8  2  0  0  0  0
  7  9  1  0  0  0  0
  9 10  1  0  0  0  0
  9 35  1  0  0  0  0
  9 36  1  0  0  0  0
 10 16  1  0  0  0  0
 10 11  1  0  0  0  0
 11 12  2  0  0  0  0
 11 37  1  0  0  0  0
 12 13  1  0  0  0  0
 12 38  1  0  0  0  0
 13 14  2  0  0  0  0
 13 15  1  0  0  0  0
 15 16  1  0  0  0  0
 16 17  2  0  0  0  0
 18 23  1  0  0  0  0
 18 19  1  0  0  0  0
 18 47  1  0  0  0  0
 19 20  1  0  0  0  0
 19 39  1  0  0  0  0
 19 40  1  0  0  0  0
 20 21  1  0  0  0  0
 20 41  1  0  0  0  0
 20 42  1  0  0  0  0
 21 22  1  0  0  0  0
 22 23  1  0  0  0  0
 22 43  1  0  0  0  0
 22 44  1  0  0  0  0
 23 45  1  0  0  0  0
 23 46  1  0  0  0  0
M  CHG  1  15  -1
M  CHG  1  18   1
M  END
> <s_m_source_file>
AV-unprocessed.smi

> <i_m_source_file_index>
1560

> <i_lp_mmshare_version>
43012

> <i_f3d_flags>
0

> <s_epik_input>
W0NIMl0xW0NIMl1PW0NIMl1bQ0gyXU4xW0NAQF0oW0NIM10pKFtDSDJdW0NIM10pW0NIMl1bTkhdQyg9TylbQ0gyXW4yW2NIXVtjSF1jKD1PKVtuSF1jMj1P

> <s_epik_cmdline>
J2VwaWtfcHl0aG9uJywgJy1waCcsICc3LjAnLCAnLXRuJywgJzgnLCAnLW1hJywgJzIwMCcsICctbWV0YWxfYmluZGluZycsICctaW1hZScsICc8aW5maWxlLm1hZT4nLCAnLW9tYWUnLCAnPG91dGZpbGUubWFlPic=

> <r_lp_tautomer_probability>
0.999537

> <r_epik_Ionization_Penalty>
3.51944

> <r_epik_Ionization_Penalty_Charging>
0.588852

> <r_epik_Ionization_Penalty_Neutral>
2.93059

> <r_epik_State_Penalty>
3.4987

> <r_epik_Charging_Adjusted_Penalty>
4.08755

> <i_epik_Tot_Q>
0

> <i_epik_Tot_abs_Q>
2

> <r_epik_Metal_State_Penalty>
1.01204

> <b_epik_Metal_Only>
1

> <s_lp_Force_Field>
OPLS_2005

> <r_lp_Energy>
35.7671

> <b_lp_Chiralities_Consistent>
1

> <s_lp_Variant>
AV-unprocessed.smi:1560-8

> <Gold.Version>
5.8.1

> <Gold.Id.Protein>
6NUR|6NUR_protein|mol2

> <Gold.PLP.Fitness>
46.6670

> <Gold.PLP.PLP>
-30.7334

> <Gold.PLP.part.hbond>
-3.1118

> <Gold.PLP.part.metal>
0.0000

> <Gold.PLP.part.buried>
-2.1849

> <Gold.PLP.part.nonpolar>
-25.7762

> <Gold.PLP.part.repulsive>
0.2102

> <Gold.PLP.ligand.clash>
0.0000

> <Gold.PLP.ligand.torsion>
0.6038

> <Gold.PLP.Chemscore.Hbond>
5.6320

> <Gold.PLP.Chemscore.CHOScore>
0.0000

> <Gold.PLP.Chemscore.Metal>
0.0000

> <Gold.Chemscore.Hbonds>
donor molecule, donor type, donor heavy atom, donor atom, acceptor molecule, acceptor atom, score
      L1  H    18    47       P1  7948  2.00
      P1  H  6931  6943       L1    15  1.92
      P1  H  6934  6947       L1    15  1.86

> <Gold.PLP.Chemscore.Internal.Correction>
0.2452

> <Gold.Rescore>
     Score         DG    S(hbond)    S(metal)    S(lipo)     H(rot)  DE(clash)    DE(int)     intcor
     10.16     -12.99       2.22        0.00      55.43       2.50       1.20       1.63       ----

> <Gold.Chemscore.Fitness>
10.1609

> <Gold.Chemscore.DG>
-12.9900

> <Gold.Chemscore.ZeroCoef>
-5.4800

> <Gold.Chemscore.Hbond>
2.2208

> <Gold.Chemscore.Metal>
0.0000

> <Gold.Chemscore.Lipo>
55.4319

> <Gold.Chemscore.Internal_Hbond>
0.0000

> <Gold.Chemscore.DEClash>
1.1987

> <Gold.Chemscore.DEInternal>
1.6304

> <Gold.Chemscore.Rot>
2.4973

> <Gold.Chemscore.Internal.Correction>
   9.000000E+99

> <Gold.Chemscore.Hbonds>
donor molecule, donor type, donor heavy atom, donor atom, acceptor molecule, acceptor atom, score
      L1  H    18    47       P1  7948  0.96
      P1  H  6931  6943       L1    15  0.27
      P1  H  6934  6947       L1    15  0.77

> <Gold.Chemscore.Hbond.Weighted>
-7.4175

> <Gold.Chemscore.Metal.Weighted>
-0.0000

> <Gold.Chemscore.Lipo.Weighted>
-6.4855

> <Gold.Chemscore.Internal_Hbond.Weighted>
0.0000

> <Gold.Chemscore.DEClash.Weighted>
1.1987

> <Gold.Chemscore.DEInternal.Weighted>
1.6304

> <Gold.Chemscore.Rot.Weighted>
6.3930

> <Gold.Chemscore.Internal.Correction.Weighted>
   9.000000E+99

> <Gold.Protein.RotatedTorsions>
[ 6907 6896 6895 6894 ] final   48.31 input  -60.11 | X-H torsion
[ 7974 7965 7964 7962 ] final -164.56 input  175.53 | X-H torsion
[ 8008 7997 7996 7995 ] final   54.56 input   59.86 | X-H torsion
[ 10167 10162 10161 10158 ] final  -18.48 input  -65.29 | X-H torsion
[ 10718 10713 10712 10709 ] final  -76.96 input   66.30 | X-H torsion
[ 10763 10752 10751 10750 ] final    8.53 input  -60.55 | X-H torsion
[ 11005 11000 10999 10996 ] final  121.66 input  -57.11 | X-H torsion

> <Gold.Protein.ActiveResidues>
 VAL166  LYS551  ARG553  GLY616  TRP617  ASP618  TYR619  PRO620  LYS621  CYS622 
 ASP623  PHE694  ASN695  SER759  ASP760  ASP761  ALA762  ILE779  LEU786  VAL792 
 PHE793  MET794  SER795  GLU796  ALA797  LYS798  CYS799  TRP800  GLU811  SER814 

> <Gold.Protein.RotatedAtoms>
  152.2780  134.7859  160.0401 H   0  0  0  0  0  0  0  0  0  0  0  0  # atno 6907 bound_to 6896
  151.8449  133.3424  159.3663 H   0  0  0  0  0  0  0  0  0  0  0  0  # atno 6908 bound_to 6896
  150.7178  134.5284  159.5732 H   0  0  0  0  0  0  0  0  0  0  0  0  # atno 6909 bound_to 6896
  144.7293  140.2943  143.6215 H   0  0  0  0  0  0  0  0  0  0  0  0  # atno 7974 bound_to 7965
  155.4867  140.3470  155.4348 H   0  0  0  0  0  0  0  0  0  0  0  0  # atno 8008 bound_to 7997
  156.1003  140.1434  156.9504 H   0  0  0  0  0  0  0  0  0  0  0  0  # atno 8009 bound_to 7997
  154.4690  140.0907  156.7072 H   0  0  0  0  0  0  0  0  0  0  0  0  # atno 8010 bound_to 7997
  140.7259  143.4912  150.9989 H   0  0  0  0  0  0  0  0  0  0  0  0  # atno 10167 bound_to 10162
  156.0159  130.4479  150.3273 H   0  0  0  0  0  0  0  0  0  0  0  0  # atno 10718 bound_to 10713
  153.2240  135.6884  153.7967 H   0  0  0  0  0  0  0  0  0  0  0  0  # atno 10763 bound_to 10752
  153.7155  135.3275  155.3256 H   0  0  0  0  0  0  0  0  0  0  0  0  # atno 10764 bound_to 10752
  154.8283  135.4600  154.1099 H   0  0  0  0  0  0  0  0  0  0  0  0  # atno 10765 bound_to 10752
  139.9235  134.9639  156.7992 H   0  0  0  0  0  0  0  0  0  0  0  0  # atno 11005 bound_to 11000
  145.7824  139.1896  143.2150 LP  0  0  0  0  0  0  0  0  0  0  0  0  # atno 17320 bound_to 7965
  146.0823  140.7750  142.9635 LP  0  0  0  0  0  0  0  0  0  0  0  0  # atno 17321 bound_to 7965
  139.8616  143.7306  152.3173 LP  0  0  0  0  0  0  0  0  0  0  0  0  # atno 17342 bound_to 10162
  139.7524  144.7530  151.0486 LP  0  0  0  0  0  0  0  0  0  0  0  0  # atno 17343 bound_to 10162
  157.1372  131.0287  151.2944 LP  0  0  0  0  0  0  0  0  0  0  0  0  # atno 17370 bound_to 10713
  157.4502  130.7594  149.7144 LP  0  0  0  0  0  0  0  0  0  0  0  0  # atno 17371 bound_to 10713
  140.6404  133.9824  155.7704 LP  0  0  0  0  0  0  0  0  0  0  0  0  # atno 17394 bound_to 11000
  141.0775  134.0113  157.3436 LP  0  0  0  0  0  0  0  0  0  0  0  0  # atno 17395 bound_to 11000

$$$$
