AV-unprocessed.smi:713|AV-procd|sdf|3479|dock3
  -GOLD-   22720 0473D 1   1.00000     0.00000
 Structure written by MMmdl.
 41 42  0  0  0  0  0  0  0  0  1 V2000
  151.0147  138.2764  153.7064 C   0  0  0  0  0  0  0  0  0  0  0  0
  150.4759  139.1070  154.8895 C   0  0  1  0  0  0  0  0  0  0  0  0
  151.5915  139.8567  155.6326 C   0  0  0  0  0  0  0  0  0  0  0  0
  152.7126  139.9670  155.1345 O   0  0  0  0  0  0  0  0  0  0  0  0
  151.2649  140.3767  156.8265 N   0  0  0  0  0  0  0  0  0  0  0  0
  152.1628  141.1398  157.6871 C   0  0  2  0  0  0  0  0  0  0  0  0
  152.9216  140.1806  158.6215 C   0  0  0  0  0  0  0  0  0  0  0  0
  153.8381  140.9495  159.5850 C   0  0  0  0  0  0  0  0  0  0  0  0
  153.0476  141.9904  160.3921 C   0  0  0  0  0  0  0  0  0  0  0  0
  152.2863  142.9605  159.4699 C   0  0  2  0  0  0  0  0  0  0  0  0
  151.3162  144.1594  160.4926 S   0  0  0  0  0  0  0  0  0  0  0  0
  151.8446  145.7911  159.8232 C   0  0  0  0  0  0  0  0  0  0  0  0
  149.8872  143.9864  160.1898 O   0  0  0  0  0  0  0  0  0  0  0  0
  151.7793  144.0568  161.8848 O   0  0  0  0  0  0  0  0  0  0  0  0
  151.3730  142.1873  158.4978 C   0  0  0  0  0  0  0  0  0  0  0  0
  149.4272  140.0389  154.4891 N   0  0  0  0  0  0  0  0  0  0  0  0
  149.4115  141.4110  154.6397 C   0  0  0  0  0  0  0  0  0  0  0  0
  148.2550  141.8739  154.0806 C   0  0  0  0  0  0  0  0  0  0  0  0
  147.6227  140.6977  153.5912 C   0  0  0  0  0  0  0  0  0  0  0  0
  148.3296  139.6048  153.8261 N   0  0  0  0  0  0  0  0  0  0  0  0
  151.7540  137.5490  154.0434 H   0  0  0  0  0  0  0  0  0  0  0  0
  151.4895  138.8988  152.9469 H   0  0  0  0  0  0  0  0  0  0  0  0
  150.2097  137.7225  153.2227 H   0  0  0  0  0  0  0  0  0  0  0  0
  150.0248  138.4042  155.5923 H   0  0  0  0  0  0  0  0  0  0  0  0
  150.3215  140.2418  157.1597 H   0  0  0  0  0  0  0  0  0  0  0  0
  152.8978  141.6557  157.0660 H   0  0  0  0  0  0  0  0  0  0  0  0
  152.2119  139.5838  159.1966 H   0  0  0  0  0  0  0  0  0  0  0  0
  153.5139  139.4771  158.0348 H   0  0  0  0  0  0  0  0  0  0  0  0
  154.3334  140.2529  160.2620 H   0  0  0  0  0  0  0  0  0  0  0  0
  154.6280  141.4470  159.0210 H   0  0  0  0  0  0  0  0  0  0  0  0
  152.3427  141.4808  161.0506 H   0  0  0  0  0  0  0  0  0  0  0  0
  153.7277  142.5452  161.0390 H   0  0  0  0  0  0  0  0  0  0  0  0
  153.0089  143.5430  158.8972 H   0  0  0  0  0  0  0  0  0  0  0  0
  151.4060  146.5852  160.4271 H   0  0  0  0  0  0  0  0  0  0  0  0
  151.5042  145.9014  158.7944 H   0  0  0  0  0  0  0  0  0  0  0  0
  152.9308  145.8690  159.8616 H   0  0  0  0  0  0  0  0  0  0  0  0
  150.8841  142.8807  157.8143 H   0  0  0  0  0  0  0  0  0  0  0  0
  150.5778  141.6921  159.0569 H   0  0  0  0  0  0  0  0  0  0  0  0
  150.2173  141.9392  155.1275 H   0  0  0  0  0  0  0  0  0  0  0  0
  147.9151  142.8974  154.0244 H   0  0  0  0  0  0  0  0  0  0  0  0
  146.6808  140.6066  153.0705 H   0  0  0  0  0  0  0  0  0  0  0  0
  1  2  1  0  0  0  0
  1 21  1  0  0  0  0
  1 22  1  0  0  0  0
  1 23  1  0  0  0  0
  2  3  1  0  0  0  0
  2 16  1  0  0  0  0
  2 24  1  0  0  0  0
  3  4  2  0  0  0  0
  3  5  1  0  0  0  0
  5  6  1  0  0  0  0
  5 25  1  0  0  0  0
  6 15  1  0  0  0  0
  6  7  1  0  0  0  0
  6 26  1  0  0  0  0
  7  8  1  0  0  0  0
  7 27  1  0  0  0  0
  7 28  1  0  0  0  0
  8  9  1  0  0  0  0
  8 29  1  0  0  0  0
  8 30  1  0  0  0  0
  9 10  1  0  0  0  0
  9 31  1  0  0  0  0
  9 32  1  0  0  0  0
 10 11  1  0  0  0  0
 10 15  1  0  0  0  0
 10 33  1  0  0  0  0
 11 12  1  0  0  0  0
 11 13  2  0  0  0  0
 11 14  2  0  0  0  0
 12 34  1  0  0  0  0
 12 35  1  0  0  0  0
 12 36  1  0  0  0  0
 15 37  1  0  0  0  0
 15 38  1  0  0  0  0
 16 20  1  0  0  0  0
 16 17  1  0  0  0  0
 17 18  2  0  0  0  0
 17 39  1  0  0  0  0
 18 19  1  0  0  0  0
 18 40  1  0  0  0  0
 19 20  2  0  0  0  0
 19 41  1  0  0  0  0
M  END
> <s_m_source_file>
AV-unprocessed.smi

> <i_m_source_file_index>
713

> <i_lp_mmshare_version>
43012

> <i_f3d_flags>
0

> <s_epik_input>
bjFbY0hdW2NIXVtjSF1uMVtDQEhdKFtDSDNdKUMoPU8pW05IXVtDQEBIXTJbQ0gyXVtDSDJdW0NIMl1bQ0BIXShbQ0gyXTIpUyg9TykoPU8pW0NIM10=

> <s_epik_cmdline>
J2VwaWtfcHl0aG9uJywgJy1waCcsICc3LjAnLCAnLXRuJywgJzgnLCAnLW1hJywgJzIwMCcsICctbWV0YWxfYmluZGluZycsICctaW1hZScsICc8aW5maWxlLm1hZT4nLCAnLW9tYWUnLCAnPG91dGZpbGUubWFlPic=

> <r_lp_tautomer_probability>
1

> <r_epik_Ionization_Penalty>
4.07816e-05

> <r_epik_Ionization_Penalty_Charging>
0

> <r_epik_Ionization_Penalty_Neutral>
4.07816e-05

> <r_epik_State_Penalty>
-0

> <r_epik_Charging_Adjusted_Penalty>
0

> <i_epik_Tot_Q>
0

> <i_epik_Tot_abs_Q>
0

> <r_epik_Metal_State_Penalty>
-0

> <b_epik_Metal_Only>
0

> <s_lp_Force_Field>
OPLS_2005

> <r_lp_Energy>
7.30822

> <b_lp_Chiralities_Consistent>
1

> <s_lp_Variant>
AV-unprocessed.smi:713-6

> <Gold.Version>
5.8.1

> <Gold.Id.Protein>
6NUR|6NUR_protein|mol2

> <Gold.PLP.Fitness>
44.4317

> <Gold.PLP.PLP>
-42.3732

> <Gold.PLP.part.hbond>
-3.0000

> <Gold.PLP.part.metal>
0.0000

> <Gold.PLP.part.buried>
-3.3768

> <Gold.PLP.part.nonpolar>
-36.9306

> <Gold.PLP.part.repulsive>
1.1883

> <Gold.PLP.ligand.clash>
0.0000

> <Gold.PLP.ligand.torsion>
0.8740

> <Gold.PLP.Chemscore.Hbond>
1.1895

> <Gold.PLP.Chemscore.CHOScore>
0.0000

> <Gold.PLP.Chemscore.Metal>
0.0000

> <Gold.Chemscore.Hbonds>
donor molecule, donor type, donor heavy atom, donor atom, acceptor molecule, acceptor atom, score
      P1  H  7989  7998       L1     4  0.09
      P1  H  7997  8009       L1     4  1.00

> <Gold.PLP.Chemscore.Internal.Correction>
0.2379

> <Gold.Rescore>
     Score         DG    S(hbond)    S(metal)    S(lipo)     H(rot)  DE(clash)    DE(int)     intcor
     14.80     -16.56       0.98        0.00     104.52       1.72       0.18       1.58       ----

> <Gold.Chemscore.Fitness>
14.8012

> <Gold.Chemscore.DG>
-16.5586

> <Gold.Chemscore.ZeroCoef>
-5.4800

> <Gold.Chemscore.Hbond>
0.9776

> <Gold.Chemscore.Metal>
0.0000

> <Gold.Chemscore.Lipo>
104.5223

> <Gold.Chemscore.Internal_Hbond>
0.0000

> <Gold.Chemscore.DEClash>
0.1804

> <Gold.Chemscore.DEInternal>
1.5770

> <Gold.Chemscore.Rot>
1.7249

> <Gold.Chemscore.Internal.Correction>
   9.000000E+99

> <Gold.Chemscore.Hbonds>
donor molecule, donor type, donor heavy atom, donor atom, acceptor molecule, acceptor atom, score
      P1  H  6933  6944       L1    13  0.02
      P1  H  7997  8009       L1     4  0.98

> <Gold.Chemscore.Hbond.Weighted>
-3.2652

> <Gold.Chemscore.Metal.Weighted>
-0.0000

> <Gold.Chemscore.Lipo.Weighted>
-12.2291

> <Gold.Chemscore.Internal_Hbond.Weighted>
0.0000

> <Gold.Chemscore.DEClash.Weighted>
0.1804

> <Gold.Chemscore.DEInternal.Weighted>
1.5770

> <Gold.Chemscore.Rot.Weighted>
4.4157

> <Gold.Chemscore.Internal.Correction.Weighted>
   9.000000E+99

> <Gold.Protein.RotatedTorsions>
[ 6907 6896 6895 6894 ] final -159.60 input  -60.11 | X-H torsion
[ 7974 7965 7964 7962 ] final -125.73 input  175.53 | X-H torsion
[ 8008 7997 7996 7995 ] final -153.37 input   59.86 | X-H torsion
[ 10167 10162 10161 10158 ] final  -87.27 input  -65.29 | X-H torsion
[ 10718 10713 10712 10709 ] final   71.76 input   66.30 | X-H torsion
[ 10763 10752 10751 10750 ] final   95.82 input  -60.55 | X-H torsion
[ 11005 11000 10999 10996 ] final -155.48 input  -57.11 | X-H torsion

> <Gold.Protein.ActiveResidues>
 VAL166  LYS551  ARG553  GLY616  TRP617  ASP618  TYR619  PRO620  LYS621  CYS622 
 ASP623  PHE694  ASN695  SER759  ASP760  ASP761  ALA762  ILE779  LEU786  VAL792 
 PHE793  MET794  SER795  GLU796  ALA797  LYS798  CYS799  TRP800  GLU811  SER814 

> <Gold.Protein.RotatedAtoms>
  151.3361  133.3981  159.2666 H   0  0  0  0  0  0  0  0  0  0  0  0  # atno 6907 bound_to 6896
  150.9916  134.9250  159.7913 H   0  0  0  0  0  0  0  0  0  0  0  0  # atno 6908 bound_to 6896
  152.5249  134.3326  159.9240 H   0  0  0  0  0  0  0  0  0  0  0  0  # atno 6909 bound_to 6896
  144.9945  140.7763  143.4533 H   0  0  0  0  0  0  0  0  0  0  0  0  # atno 7974 bound_to 7965
  155.6698  140.0732  157.2524 H   0  0  0  0  0  0  0  0  0  0  0  0  # atno 8008 bound_to 7997
  154.4125  140.1701  156.1918 H   0  0  0  0  0  0  0  0  0  0  0  0  # atno 8009 bound_to 7997
  155.9626  140.3368  155.6507 H   0  0  0  0  0  0  0  0  0  0  0  0  # atno 8010 bound_to 7997
  140.3860  143.2726  151.9324 H   0  0  0  0  0  0  0  0  0  0  0  0  # atno 10167 bound_to 10162
  157.6468  130.9544  150.0834 H   0  0  0  0  0  0  0  0  0  0  0  0  # atno 10718 bound_to 10713
  153.2577  135.4240  155.0862 H   0  0  0  0  0  0  0  0  0  0  0  0  # atno 10763 bound_to 10752
  154.8408  135.3441  154.6422 H   0  0  0  0  0  0  0  0  0  0  0  0  # atno 10764 bound_to 10752
  153.6842  135.7037  153.5166 H   0  0  0  0  0  0  0  0  0  0  0  0  # atno 10765 bound_to 10752
  140.6860  134.4093  157.5223 H   0  0  0  0  0  0  0  0  0  0  0  0  # atno 11005 bound_to 11000
  145.2238  139.2146  143.5079 LP  0  0  0  0  0  0  0  0  0  0  0  0  # atno 17320 bound_to 7965
  146.3439  140.2102  142.8590 LP  0  0  0  0  0  0  0  0  0  0  0  0  # atno 17321 bound_to 7965
  139.4792  144.5773  151.7991 LP  0  0  0  0  0  0  0  0  0  0  0  0  # atno 17342 bound_to 10162
  140.4888  144.1341  150.5946 LP  0  0  0  0  0  0  0  0  0  0  0  0  # atno 17343 bound_to 10162
  156.1804  130.3650  149.9043 LP  0  0  0  0  0  0  0  0  0  0  0  0  # atno 17370 bound_to 10713
  156.6997  130.8928  151.3598 LP  0  0  0  0  0  0  0  0  0  0  0  0  # atno 17371 bound_to 10713
  139.8937  134.8723  156.2209 LP  0  0  0  0  0  0  0  0  0  0  0  0  # atno 17394 bound_to 11000
  141.0280  133.7004  156.1381 LP  0  0  0  0  0  0  0  0  0  0  0  0  # atno 17395 bound_to 11000

$$$$
