AV-unprocessed.smi:902|AV-procd|sdf|4094|dock10
  -GOLD-   22720 1583D 1   1.00000     0.00000
 Structure written by MMmdl.
 42 44  0  0  0  0  0  0  0  0  1 V2000
  152.2254  138.8377  154.6703 C   0  0  0  0  0  0  0  0  0  0  0  0
  151.2878  139.7747  155.2579 N   0  0  0  0  0  0  0  0  0  0  0  0
  151.7210  140.7002  156.1398 N   0  0  0  0  0  0  0  0  0  0  0  0
  150.6386  141.3922  156.4823 C   0  0  0  0  0  0  0  0  0  0  0  0
  150.7539  142.5249  157.4667 C   0  0  0  0  0  0  0  0  0  0  0  0
  151.5434  143.7915  157.1061 C   0  0  0  0  0  0  0  0  0  0  0  0
  151.9982  143.8722  158.5670 C   0  0  0  0  0  0  0  0  0  0  0  0
  151.6448  142.3880  158.7096 C   0  0  0  0  0  0  0  0  0  0  0  0
  149.4624  140.9290  155.8235 C   0  0  0  0  0  0  0  0  0  0  0  0
  149.9317  139.8990  155.0552 C   0  0  0  0  0  0  0  0  0  0  0  0
  149.2500  139.0865  154.2050 N   0  0  0  0  0  0  0  0  0  0  0  0
  147.9236  139.0034  154.0029 C   0  0  0  0  0  0  0  0  0  0  0  0
  147.0679  139.6663  154.5897 O   0  0  0  0  0  0  0  0  0  0  0  0
  147.6366  138.0913  153.0635 N   0  0  0  0  0  0  0  0  0  0  0  0
  146.2966  137.7842  152.5759 C   0  0  0  0  0  0  0  0  0  0  0  0
  145.7444  136.4011  152.9183 C   0  0  0  0  0  0  0  0  0  0  0  0
  145.9264  135.3993  151.7820 C   0  0  0  0  0  0  0  0  0  0  0  0
  145.2693  135.8205  150.6044 O   0  0  0  0  0  0  0  0  0  0  0  0
  145.9474  135.9031  154.3363 C   0  0  0  0  0  0  0  0  0  0  0  0
  144.5651  136.2616  153.8594 C   0  0  0  0  0  0  0  0  0  0  0  0
  151.8275  137.8250  154.7415 H   0  0  0  0  0  0  0  0  0  0  0  0
  153.1830  138.8760  155.1912 H   0  0  0  0  0  0  0  0  0  0  0  0
  152.3810  139.0880  153.6210 H   0  0  0  0  0  0  0  0  0  0  0  0
  149.7536  142.8210  157.7887 H   0  0  0  0  0  0  0  0  0  0  0  0
  152.3711  143.6006  156.4210 H   0  0  0  0  0  0  0  0  0  0  0  0
  150.9306  144.6289  156.7712 H   0  0  0  0  0  0  0  0  0  0  0  0
  153.0551  144.1032  158.7030 H   0  0  0  0  0  0  0  0  0  0  0  0
  151.3603  144.5173  159.1730 H   0  0  0  0  0  0  0  0  0  0  0  0
  151.1116  142.1316  159.6253 H   0  0  0  0  0  0  0  0  0  0  0  0
  152.5057  141.7369  158.5503 H   0  0  0  0  0  0  0  0  0  0  0  0
  148.4548  141.3056  155.9133 H   0  0  0  0  0  0  0  0  0  0  0  0
  149.8229  138.4698  153.6483 H   0  0  0  0  0  0  0  0  0  0  0  0
  148.4019  137.5933  152.6331 H   0  0  0  0  0  0  0  0  0  0  0  0
  145.6196  138.5322  152.9893 H   0  0  0  0  0  0  0  0  0  0  0  0
  146.2675  137.9275  151.4942 H   0  0  0  0  0  0  0  0  0  0  0  0
  146.9876  135.2503  151.5804 H   0  0  0  0  0  0  0  0  0  0  0  0
  145.5148  134.4319  152.0716 H   0  0  0  0  0  0  0  0  0  0  0  0
  144.7166  136.5575  150.8153 H   0  0  0  0  0  0  0  0  0  0  0  0
  146.1651  134.8472  154.4850 H   0  0  0  0  0  0  0  0  0  0  0  0
  146.4176  136.5759  155.0510 H   0  0  0  0  0  0  0  0  0  0  0  0
  144.1191  137.1723  154.2540 H   0  0  0  0  0  0  0  0  0  0  0  0
  143.8684  135.4458  153.6772 H   0  0  0  0  0  0  0  0  0  0  0  0
  1  2  1  0  0  0  0
  1 21  1  0  0  0  0
  1 22  1  0  0  0  0
  1 23  1  0  0  0  0
  2 10  1  0  0  0  0
  2  3  1  0  0  0  0
  3  4  2  0  0  0  0
  4  5  1  0  0  0  0
  4  9  1  0  0  0  0
  5  8  1  0  0  0  0
  5  6  1  0  0  0  0
  5 24  1  0  0  0  0
  6  7  1  0  0  0  0
  6 25  1  0  0  0  0
  6 26  1  0  0  0  0
  7  8  1  0  0  0  0
  7 27  1  0  0  0  0
  7 28  1  0  0  0  0
  8 29  1  0  0  0  0
  8 30  1  0  0  0  0
  9 10  2  0  0  0  0
  9 31  1  0  0  0  0
 10 11  1  0  0  0  0
 11 12  1  0  0  0  0
 11 32  1  0  0  0  0
 12 13  2  0  0  0  0
 12 14  1  0  0  0  0
 14 15  1  0  0  0  0
 14 33  1  0  0  0  0
 15 16  1  0  0  0  0
 15 34  1  0  0  0  0
 15 35  1  0  0  0  0
 16 20  1  0  0  0  0
 16 17  1  0  0  0  0
 16 19  1  0  0  0  0
 17 18  1  0  0  0  0
 17 36  1  0  0  0  0
 17 37  1  0  0  0  0
 18 38  1  0  0  0  0
 19 20  1  0  0  0  0
 19 39  1  0  0  0  0
 19 40  1  0  0  0  0
 20 41  1  0  0  0  0
 20 42  1  0  0  0  0
M  END
> <s_m_source_file>
AV-unprocessed.smi

> <i_m_source_file_index>
902

> <i_lp_mmshare_version>
43012

> <i_f3d_flags>
0

> <s_epik_input>
W0NIMl0xW0NIMl1bQ0gyXVtDSF0xYyhubjJbQ0gzXSlbY0hdYzJbTkhdQyg9TylbTkhdW0NIMl1DMyhbQ0gyXVtPSF0pW0NIMl1bQ0gyXTM=

> <s_epik_cmdline>
J2VwaWtfcHl0aG9uJywgJy1waCcsICc3LjAnLCAnLXRuJywgJzgnLCAnLW1hJywgJzIwMCcsICctbWV0YWxfYmluZGluZycsICctaW1hZScsICc8aW5maWxlLm1hZT4nLCAnLW9tYWUnLCAnPG91dGZpbGUubWFlPic=

> <r_lp_tautomer_probability>
1

> <r_epik_Ionization_Penalty>
9.68756e-05

> <r_epik_Ionization_Penalty_Charging>
0

> <r_epik_Ionization_Penalty_Neutral>
9.68756e-05

> <r_epik_State_Penalty>
-0

> <r_epik_Charging_Adjusted_Penalty>
0

> <i_epik_Tot_Q>
0

> <i_epik_Tot_abs_Q>
0

> <r_epik_Metal_State_Penalty>
-0

> <b_epik_Metal_Only>
0

> <s_lp_Force_Field>
OPLS_2005

> <r_lp_Energy>
26.4992

> <b_lp_Chiralities_Consistent>
1

> <s_lp_Variant>
AV-unprocessed.smi:902-1

> <Gold.Version>
5.8.1

> <Gold.Id.Protein>
6NUR|6NUR_protein|mol2

> <Gold.PLP.Fitness>
45.6702

> <Gold.PLP.PLP>
-41.1254

> <Gold.PLP.part.hbond>
-5.0000

> <Gold.PLP.part.metal>
0.0000

> <Gold.PLP.part.buried>
-2.3564

> <Gold.PLP.part.nonpolar>
-35.4529

> <Gold.PLP.part.repulsive>
0.2960

> <Gold.PLP.ligand.clash>
0.0000

> <Gold.PLP.ligand.torsion>
1.3101

> <Gold.PLP.Chemscore.Hbond>
1.9440

> <Gold.PLP.Chemscore.CHOScore>
0.0000

> <Gold.PLP.Chemscore.Metal>
0.0000

> <Gold.Chemscore.Hbonds>
donor molecule, donor type, donor heavy atom, donor atom, acceptor molecule, acceptor atom, score
      L1  H    14    33       P1  7948  0.99
      L1  H    18    38       P1 10171  0.04

> <Gold.PLP.Chemscore.Internal.Correction>
1.3329

> <Gold.Rescore>
     Score         DG    S(hbond)    S(metal)    S(lipo)     H(rot)  DE(clash)    DE(int)     intcor
     13.37     -16.18       1.88        0.00      87.35       2.26       0.12       2.69       ----

> <Gold.Chemscore.Fitness>
13.3717

> <Gold.Chemscore.DG>
-16.1765

> <Gold.Chemscore.ZeroCoef>
-5.4800

> <Gold.Chemscore.Hbond>
1.8768

> <Gold.Chemscore.Metal>
0.0000

> <Gold.Chemscore.Lipo>
87.3525

> <Gold.Chemscore.Internal_Hbond>
0.0000

> <Gold.Chemscore.DEClash>
0.1198

> <Gold.Chemscore.DEInternal>
2.6850

> <Gold.Chemscore.Rot>
2.2626

> <Gold.Chemscore.Internal.Correction>
   9.000000E+99

> <Gold.Chemscore.Hbonds>
donor molecule, donor type, donor heavy atom, donor atom, acceptor molecule, acceptor atom, score
      L1  H    14    33       P1  7948  0.94
      L1  H    18    38       P1 10171  0.08

> <Gold.Chemscore.Hbond.Weighted>
-6.2685

> <Gold.Chemscore.Metal.Weighted>
-0.0000

> <Gold.Chemscore.Lipo.Weighted>
-10.2202

> <Gold.Chemscore.Internal_Hbond.Weighted>
0.0000

> <Gold.Chemscore.DEClash.Weighted>
0.1198

> <Gold.Chemscore.DEInternal.Weighted>
2.6850

> <Gold.Chemscore.Rot.Weighted>
5.7922

> <Gold.Chemscore.Internal.Correction.Weighted>
   9.000000E+99

> <Gold.Protein.RotatedTorsions>
[ 6907 6896 6895 6894 ] final   77.23 input  -60.11 | X-H torsion
[ 7974 7965 7964 7962 ] final  -66.61 input  175.53 | X-H torsion
[ 8008 7997 7996 7995 ] final  144.89 input   59.86 | X-H torsion
[ 10167 10162 10161 10158 ] final  179.56 input  -65.29 | X-H torsion
[ 10718 10713 10712 10709 ] final  -43.11 input   66.30 | X-H torsion
[ 10763 10752 10751 10750 ] final -121.21 input  -60.55 | X-H torsion
[ 11005 11000 10999 10996 ] final  -10.42 input  -57.11 | X-H torsion

> <Gold.Protein.ActiveResidues>
 VAL166  LYS551  ARG553  GLY616  TRP617  ASP618  TYR619  PRO620  LYS621  CYS622 
 ASP623  PHE694  ASN695  SER759  ASP760  ASP761  ALA762  ILE779  LEU786  VAL792 
 PHE793  MET794  SER795  GLU796  ALA797  LYS798  CYS799  TRP800  GLU811  SER814 

> <Gold.Protein.RotatedAtoms>
  152.5109  134.3848  159.9363 H   0  0  0  0  0  0  0  0  0  0  0  0  # atno 6907 bound_to 6896
  151.3806  133.3816  159.2717 H   0  0  0  0  0  0  0  0  0  0  0  0  # atno 6908 bound_to 6896
  150.9508  134.8928  159.7729 H   0  0  0  0  0  0  0  0  0  0  0  0  # atno 6909 bound_to 6896
  145.7397  140.8959  143.0536 H   0  0  0  0  0  0  0  0  0  0  0  0  # atno 7974 bound_to 7965
  156.2897  140.2223  156.5127 H   0  0  0  0  0  0  0  0  0  0  0  0  # atno 8008 bound_to 7997
  154.7595  140.0474  157.0983 H   0  0  0  0  0  0  0  0  0  0  0  0  # atno 8009 bound_to 7997
  155.0009  140.3101  155.4871 H   0  0  0  0  0  0  0  0  0  0  0  0  # atno 8010 bound_to 7997
  139.5342  144.2546  152.0756 H   0  0  0  0  0  0  0  0  0  0  0  0  # atno 10167 bound_to 10162
  156.2524  130.4189  149.8634 H   0  0  0  0  0  0  0  0  0  0  0  0  # atno 10718 bound_to 10713
  154.8663  135.4176  154.2583 H   0  0  0  0  0  0  0  0  0  0  0  0  # atno 10763 bound_to 10752
  153.3516  135.6999  153.6790 H   0  0  0  0  0  0  0  0  0  0  0  0  # atno 10764 bound_to 10752
  153.5727  135.3588  155.2817 H   0  0  0  0  0  0  0  0  0  0  0  0  # atno 10765 bound_to 10752
  140.7445  133.8643  155.8995 H   0  0  0  0  0  0  0  0  0  0  0  0  # atno 11005 bound_to 11000
  144.6873  139.9443  143.7476 LP  0  0  0  0  0  0  0  0  0  0  0  0  # atno 17320 bound_to 7965
  146.0460  139.3466  143.0668 LP  0  0  0  0  0  0  0  0  0  0  0  0  # atno 17321 bound_to 7965
  140.2014  144.4654  150.6429 LP  0  0  0  0  0  0  0  0  0  0  0  0  # atno 17342 bound_to 10162
  140.6538  143.2232  151.6015 LP  0  0  0  0  0  0  0  0  0  0  0  0  # atno 17343 bound_to 10162
  156.6178  130.8614  151.3469 LP  0  0  0  0  0  0  0  0  0  0  0  0  # atno 17370 bound_to 10713
  157.7219  130.9570  150.1475 LP  0  0  0  0  0  0  0  0  0  0  0  0  # atno 17371 bound_to 10713
  140.9806  134.1410  157.4497 LP  0  0  0  0  0  0  0  0  0  0  0  0  # atno 17394 bound_to 11000
  139.8799  135.0009  156.6038 LP  0  0  0  0  0  0  0  0  0  0  0  0  # atno 17395 bound_to 11000

$$$$
