AV-unprocessed.smi:3058|AV-procd|sdf|11670|dock1
  -GOLD-   2272017 73D 1   1.00000     0.00000
 Structure written by MMmdl.
 38 40  0  0  0  0  0  0  0  0  1 V2000
  150.8850  140.4892  155.2899 O   0  0  0  0  0  0  0  0  0  0  0  0
  150.0286  141.3722  155.3540 C   0  0  0  0  0  0  0  0  0  0  0  0
  150.0421  142.3349  156.2888 N   0  0  0  0  0  0  0  0  0  0  0  0
  151.0388  142.4610  157.3451 C   0  0  0  0  0  0  0  0  0  0  0  0
  150.9307  141.3155  158.3645 C   0  0  0  0  0  0  0  0  0  0  0  0
  152.0628  141.3425  159.3721 C   0  0  0  0  0  0  0  0  0  0  0  0
  152.2523  142.4563  160.2156 C   0  0  0  0  0  0  0  0  0  0  0  0
  153.3137  142.4335  161.1408 C   0  0  0  0  0  0  0  0  0  0  0  0
  154.1418  141.2939  161.1831 C   0  0  0  0  0  0  0  0  0  0  0  0
  153.9691  140.2213  160.3806 N   0  0  0  0  0  0  0  0  0  0  0  0
  152.9493  140.2516  159.4960 C   0  0  0  0  0  0  0  0  0  0  0  0
  148.8800  141.4390  154.3320 C   0  0  1  0  0  0  0  0  0  0  0  0
  148.2016  140.0798  154.0294 C   0  0  0  0  0  0  0  0  0  0  0  0
  146.7099  140.3753  154.2746 C   0  0  1  0  0  0  0  0  0  0  0  0
  146.4537  140.5112  155.7874 C   0  0  0  0  0  0  0  0  0  0  0  0
  147.0681  141.8848  156.1132 C   0  0  0  0  0  0  0  0  0  0  0  0
  147.6732  142.3165  154.7589 C   0  0  2  0  0  0  0  0  0  0  0  0
  146.5950  141.8196  153.8002 C   0  0  0  0  0  0  0  0  0  0  0  0
  149.3077  143.0276  156.2679 H   0  0  0  0  0  0  0  0  0  0  0  0
  152.0398  142.4953  156.9114 H   0  0  0  0  0  0  0  0  0  0  0  0
  150.8839  143.4183  157.8436 H   0  0  0  0  0  0  0  0  0  0  0  0
  149.9800  141.3750  158.8961 H   0  0  0  0  0  0  0  0  0  0  0  0
  150.9377  140.3512  157.8545 H   0  0  0  0  0  0  0  0  0  0  0  0
  151.5959  143.3123  160.1579 H   0  0  0  0  0  0  0  0  0  0  0  0
  153.4882  143.2688  161.8027 H   0  0  0  0  0  0  0  0  0  0  0  0
  154.9646  141.2427  161.8808 H   0  0  0  0  0  0  0  0  0  0  0  0
  152.8359  139.3774  158.8715 H   0  0  0  0  0  0  0  0  0  0  0  0
  149.2812  141.8336  153.3962 H   0  0  0  0  0  0  0  0  0  0  0  0
  148.3676  139.8021  152.9877 H   0  0  0  0  0  0  0  0  0  0  0  0
  148.5568  139.2503  154.6423 H   0  0  0  0  0  0  0  0  0  0  0  0
  146.0394  139.6721  153.7800 H   0  0  0  0  0  0  0  0  0  0  0  0
  145.3854  140.5072  156.0069 H   0  0  0  0  0  0  0  0  0  0  0  0
  146.9165  139.7041  156.3567 H   0  0  0  0  0  0  0  0  0  0  0  0
  146.2852  142.5822  156.4138 H   0  0  0  0  0  0  0  0  0  0  0  0
  147.7880  141.8471  156.9298 H   0  0  0  0  0  0  0  0  0  0  0  0
  147.8703  143.3868  154.6921 H   0  0  0  0  0  0  0  0  0  0  0  0
  146.8530  141.9520  152.7478 H   0  0  0  0  0  0  0  0  0  0  0  0
  145.6125  142.2582  153.9838 H   0  0  0  0  0  0  0  0  0  0  0  0
  1  2  2  0  0  0  0
  2  3  1  0  0  0  0
  2 12  1  0  0  0  0
  3  4  1  0  0  0  0
  3 19  1  0  0  0  0
  4  5  1  0  0  0  0
  4 20  1  0  0  0  0
  4 21  1  0  0  0  0
  5  6  1  0  0  0  0
  5 22  1  0  0  0  0
  5 23  1  0  0  0  0
  6 11  1  0  0  0  0
  6  7  2  0  0  0  0
  7  8  1  0  0  0  0
  7 24  1  0  0  0  0
  8  9  2  0  0  0  0
  8 25  1  0  0  0  0
  9 10  1  0  0  0  0
  9 26  1  0  0  0  0
 10 11  2  0  0  0  0
 11 27  1  0  0  0  0
 12 17  1  0  0  0  0
 12 13  1  0  0  0  0
 12 28  1  0  0  0  0
 13 14  1  0  0  0  0
 13 29  1  0  0  0  0
 13 30  1  0  0  0  0
 14 18  1  0  0  0  0
 14 15  1  0  0  0  0
 14 31  1  0  0  0  0
 15 16  1  0  0  0  0
 15 32  1  0  0  0  0
 15 33  1  0  0  0  0
 16 17  1  0  0  0  0
 16 34  1  0  0  0  0
 16 35  1  0  0  0  0
 17 18  1  0  0  0  0
 17 36  1  0  0  0  0
 18 37  1  0  0  0  0
 18 38  1  0  0  0  0
M  END
> <s_m_source_file>
AV-unprocessed.smi

> <i_m_source_file_index>
3058

> <i_lp_mmshare_version>
43012

> <i_f3d_flags>
0

> <s_epik_input>
W0NIMl0xW0NIMl1bQ0BIXShbQ0gyXTIpW0NAQEhdKFtDSDJdW0NAQEhdMTIpQyg9TylbTkhdW0NIMl1bQ0gyXWMzW2NIXVtjSF1bY0hdbltjSF0z

> <s_epik_cmdline>
J2VwaWtfcHl0aG9uJywgJy1waCcsICc3LjAnLCAnLXRuJywgJzgnLCAnLW1hJywgJzIwMCcsICctbWV0YWxfYmluZGluZycsICctaW1hZScsICc8aW5maWxlLm1hZT4nLCAnLW9tYWUnLCAnPG91dGZpbGUubWFlPic=

> <r_epik_Ionization_Penalty>
0.0135821

> <r_epik_Ionization_Penalty_Charging>
0

> <r_epik_Ionization_Penalty_Neutral>
0.0135821

> <r_epik_State_Penalty>
0.0105782

> <r_epik_Charging_Adjusted_Penalty>
0.0105782

> <i_epik_Tot_Q>
0

> <i_epik_Tot_abs_Q>
0

> <r_epik_Metal_State_Penalty>
0.0103407

> <b_epik_Metal_Only>
0

> <s_lp_Force_Field>
OPLS_2005

> <r_lp_Energy>
46.4092

> <b_lp_Chiralities_Consistent>
1

> <s_lp_Variant>
AV-unprocessed.smi:3058-2

> <Gold.Version>
5.8.1

> <Gold.Id.Protein>
6NUR|6NUR_protein|mol2

> <Gold.PLP.Fitness>
40.9182

> <Gold.PLP.PLP>
-36.2278

> <Gold.PLP.part.hbond>
-2.0000

> <Gold.PLP.part.metal>
0.0000

> <Gold.PLP.part.buried>
-1.4614

> <Gold.PLP.part.nonpolar>
-32.6326

> <Gold.PLP.part.repulsive>
0.1346

> <Gold.PLP.ligand.clash>
0.0000

> <Gold.PLP.ligand.torsion>
0.4776

> <Gold.PLP.Chemscore.Hbond>
1.8720

> <Gold.PLP.Chemscore.CHOScore>
0.0000

> <Gold.PLP.Chemscore.Metal>
0.0000

> <Gold.Chemscore.Hbonds>
donor molecule, donor type, donor heavy atom, donor atom, acceptor molecule, acceptor atom, score
      L1  H     3    19       P1  8028  0.86
      P1  H  7989  7998       L1     1  0.99

> <Gold.PLP.Chemscore.Internal.Correction>
0.0295

> <Gold.Rescore>
     Score         DG    S(hbond)    S(metal)    S(lipo)     H(rot)  DE(clash)    DE(int)     intcor
     15.01     -17.35       1.08        0.00     100.44       1.37       0.86       1.47       ----

> <Gold.Chemscore.Fitness>
15.0136

> <Gold.Chemscore.DG>
-17.3456

> <Gold.Chemscore.ZeroCoef>
-5.4800

> <Gold.Chemscore.Hbond>
1.0806

> <Gold.Chemscore.Metal>
0.0000

> <Gold.Chemscore.Lipo>
100.4392

> <Gold.Chemscore.Internal_Hbond>
0.0000

> <Gold.Chemscore.DEClash>
0.8644

> <Gold.Chemscore.DEInternal>
1.4676

> <Gold.Chemscore.Rot>
1.3653

> <Gold.Chemscore.Internal.Correction>
   9.000000E+99

> <Gold.Chemscore.Hbonds>
donor molecule, donor type, donor heavy atom, donor atom, acceptor molecule, acceptor atom, score
      L1  H     3    19       P1  8028  0.86
      P1  H  7989  7998       L1     1  0.23

> <Gold.Chemscore.Hbond.Weighted>
-3.6093

> <Gold.Chemscore.Metal.Weighted>
-0.0000

> <Gold.Chemscore.Lipo.Weighted>
-11.7514

> <Gold.Chemscore.Internal_Hbond.Weighted>
0.0000

> <Gold.Chemscore.DEClash.Weighted>
0.8644

> <Gold.Chemscore.DEInternal.Weighted>
1.4676

> <Gold.Chemscore.Rot.Weighted>
3.4951

> <Gold.Chemscore.Internal.Correction.Weighted>
   9.000000E+99

> <Gold.Protein.RotatedTorsions>
[ 6907 6896 6895 6894 ] final   82.95 input  -60.11 | X-H torsion
[ 7974 7965 7964 7962 ] final  -99.33 input  175.53 | X-H torsion
[ 8008 7997 7996 7995 ] final -117.98 input   59.86 | X-H torsion
[ 10167 10162 10161 10158 ] final -110.98 input  -65.29 | X-H torsion
[ 10718 10713 10712 10709 ] final  -31.59 input   66.30 | X-H torsion
[ 10763 10752 10751 10750 ] final  -45.97 input  -60.55 | X-H torsion
[ 11005 11000 10999 10996 ] final  -70.69 input  -57.11 | X-H torsion

> <Gold.Protein.ActiveResidues>
 VAL166  LYS551  ARG553  GLY616  TRP617  ASP618  TYR619  PRO620  LYS621  CYS622 
 ASP623  PHE694  ASN695  SER759  ASP760  ASP761  ALA762  ILE779  LEU786  VAL792 
 PHE793  MET794  SER795  GLU796  ALA797  LYS798  CYS799  TRP800  GLU811  SER814 

> <Gold.Protein.RotatedAtoms>
  152.5314  134.2971  159.9064 H   0  0  0  0  0  0  0  0  0  0  0  0  # atno 6907 bound_to 6896
  151.2922  133.4154  159.2641 H   0  0  0  0  0  0  0  0  0  0  0  0  # atno 6908 bound_to 6896
  151.0191  134.9471  159.8106 H   0  0  0  0  0  0  0  0  0  0  0  0  # atno 6909 bound_to 6896
  145.3089  140.9395  143.2781 H   0  0  0  0  0  0  0  0  0  0  0  0  # atno 7974 bound_to 7965
  155.0924  140.0395  157.2672 H   0  0  0  0  0  0  0  0  0  0  0  0  # atno 8008 bound_to 7997
  154.6821  140.2635  155.6872 H   0  0  0  0  0  0  0  0  0  0  0  0  # atno 8009 bound_to 7997
  156.2698  140.2776  156.1369 H   0  0  0  0  0  0  0  0  0  0  0  0  # atno 8010 bound_to 7997
  140.1386  143.4299  152.1578 H   0  0  0  0  0  0  0  0  0  0  0  0  # atno 10167 bound_to 10162
  156.3854  130.4363  149.7436 H   0  0  0  0  0  0  0  0  0  0  0  0  # atno 10718 bound_to 10713
  154.0372  135.6649  153.4786 H   0  0  0  0  0  0  0  0  0  0  0  0  # atno 10763 bound_to 10752
  153.0516  135.5081  154.7876 H   0  0  0  0  0  0  0  0  0  0  0  0  # atno 10764 bound_to 10752
  154.6841  135.3050  154.9538 H   0  0  0  0  0  0  0  0  0  0  0  0  # atno 10765 bound_to 10752
  141.1579  133.6797  156.6791 H   0  0  0  0  0  0  0  0  0  0  0  0  # atno 11005 bound_to 11000
  144.9032  139.4623  143.6622 LP  0  0  0  0  0  0  0  0  0  0  0  0  # atno 17320 bound_to 7965
  146.3125  139.7798  142.9009 LP  0  0  0  0  0  0  0  0  0  0  0  0  # atno 17321 bound_to 7965
  139.5483  144.7317  151.4513 LP  0  0  0  0  0  0  0  0  0  0  0  0  # atno 17342 bound_to 10162
  140.6774  143.8158  150.7076 LP  0  0  0  0  0  0  0  0  0  0  0  0  # atno 17343 bound_to 10162
  156.4510  130.7906  151.2928 LP  0  0  0  0  0  0  0  0  0  0  0  0  # atno 17370 bound_to 10713
  157.7495  131.0095  150.3271 LP  0  0  0  0  0  0  0  0  0  0  0  0  # atno 17371 bound_to 10713
  140.3116  134.8081  157.4181 LP  0  0  0  0  0  0  0  0  0  0  0  0  # atno 17394 bound_to 11000
  140.1173  134.5266  155.8213 LP  0  0  0  0  0  0  0  0  0  0  0  0  # atno 17395 bound_to 11000

$$$$
