AV-unprocessed.smi:1235|AV-procd|sdf|5178|dock8
  -GOLD-   22720 4253D 1   1.00000     0.00000
 Structure written by MMmdl.
 50 51  0  0  0  0  0  0  0  0  2 V2000
  146.1288  137.8439  151.8207 C   0  0  0  0  0  0  0  0  0  0  0  0
  146.5850  138.3653  153.0566 O   0  0  0  0  0  0  0  0  0  0  0  0
  147.7025  139.2236  152.9036 C   0  0  0  0  0  0  0  0  0  0  0  0
  148.2152  139.6253  154.2950 C   0  0  0  0  0  0  0  0  0  0  0  0
  149.4021  138.8523  154.6751 N   0  0  0  0  0  0  0  0  0  0  0  0
  149.2182  137.4798  154.6395 N   0  0  0  0  0  0  0  0  0  0  0  0
  150.1876  136.6859  154.9623 C   0  0  0  0  0  0  0  0  0  0  0  0
  150.0341  135.2046  154.9335 C   0  0  0  0  0  0  0  0  0  0  0  0
  150.5724  134.4780  155.7706 O   0  0  0  0  0  0  0  0  0  0  0  0
  149.2770  134.7194  153.9326 N   0  0  0  0  0  0  0  0  0  0  0  0
  148.9981  133.3058  153.7052 C   0  0  0  0  0  0  0  0  0  0  0  0
  147.7110  133.1126  152.8751 C   0  0  0  0  0  0  0  0  0  0  0  0
  147.5871  131.7502  152.2796 N   0  3  1  0  0  0  0  0  0  0  0  0
  148.0696  130.6929  153.2158 C   0  0  0  0  0  0  0  0  0  0  0  0
  148.0589  129.2991  152.5730 C   0  0  0  0  0  0  0  0  0  0  0  0
  146.6558  128.9468  152.0826 C   0  0  0  0  0  0  0  0  0  0  0  0
  146.1750  130.0311  151.1165 C   0  0  0  0  0  0  0  0  0  0  0  0
  146.2162  131.4387  151.7527 C   0  0  2  0  0  0  0  0  0  0  0  0
  145.7159  132.4582  150.7072 C   0  0  0  0  0  0  0  0  0  0  0  0
  151.4793  137.2146  155.3672 C   0  0  0  0  0  0  0  0  0  0  0  0
  151.6428  138.5552  155.3986 C   0  0  0  0  0  0  0  0  0  0  0  0
  150.5628  139.4758  155.0404 C   0  0  0  0  0  0  0  0  0  0  0  0
  150.6847  140.7000  155.0689 O   0  0  0  0  0  0  0  0  0  0  0  0
  145.2707  137.1941  151.9919 H   0  0  0  0  0  0  0  0  0  0  0  0
  146.9045  137.2541  151.3305 H   0  0  0  0  0  0  0  0  0  0  0  0
  145.8171  138.6424  151.1459 H   0  0  0  0  0  0  0  0  0  0  0  0
  148.4867  138.7151  152.3406 H   0  0  0  0  0  0  0  0  0  0  0  0
  147.4141  140.1123  152.3393 H   0  0  0  0  0  0  0  0  0  0  0  0
  148.4486  140.6915  154.3004 H   0  0  0  0  0  0  0  0  0  0  0  0
  147.4242  139.4984  155.0364 H   0  0  0  0  0  0  0  0  0  0  0  0
  148.8662  135.3794  153.2871 H   0  0  0  0  0  0  0  0  0  0  0  0
  149.8488  132.8320  153.2124 H   0  0  0  0  0  0  0  0  0  0  0  0
  148.9094  132.8467  154.6884 H   0  0  0  0  0  0  0  0  0  0  0  0
  146.8290  133.3302  153.4795 H   0  0  0  0  0  0  0  0  0  0  0  0
  147.7353  133.8641  152.0907 H   0  0  0  0  0  0  0  0  0  0  0  0
  149.0887  130.8965  153.5380 H   0  0  0  0  0  0  0  0  0  0  0  0
  147.4501  130.6932  154.1141 H   0  0  0  0  0  0  0  0  0  0  0  0
  148.7621  129.2703  151.7396 H   0  0  0  0  0  0  0  0  0  0  0  0
  148.3991  128.5537  153.2926 H   0  0  0  0  0  0  0  0  0  0  0  0
  146.6598  127.9744  151.5890 H   0  0  0  0  0  0  0  0  0  0  0  0
  145.9715  128.8686  152.9284 H   0  0  0  0  0  0  0  0  0  0  0  0
  146.7935  130.0145  150.2176 H   0  0  0  0  0  0  0  0  0  0  0  0
  145.1602  129.7954  150.7936 H   0  0  0  0  0  0  0  0  0  0  0  0
  145.5231  131.4510  152.5958 H   0  0  0  0  0  0  0  0  0  0  0  0
  144.8064  132.1024  150.2219 H   0  0  0  0  0  0  0  0  0  0  0  0
  146.4580  132.6259  149.9262 H   0  0  0  0  0  0  0  0  0  0  0  0
  145.4586  133.4201  151.1489 H   0  0  0  0  0  0  0  0  0  0  0  0
  152.2944  136.5592  155.6378 H   0  0  0  0  0  0  0  0  0  0  0  0
  152.5978  138.9620  155.6971 H   0  0  0  0  0  0  0  0  0  0  0  0
  148.2030  131.7329  151.4793 H   0  0  0  0  0  0  0  0  0  0  0  0
  1  2  1  0  0  0  0
  1 24  1  0  0  0  0
  1 25  1  0  0  0  0
  1 26  1  0  0  0  0
  2  3  1  0  0  0  0
  3  4  1  0  0  0  0
  3 27  1  0  0  0  0
  3 28  1  0  0  0  0
  4  5  1  0  0  0  0
  4 29  1  0  0  0  0
  4 30  1  0  0  0  0
  5 22  1  0  0  0  0
  5  6  1  0  0  0  0
  6  7  2  0  0  0  0
  7  8  1  0  0  0  0
  7 20  1  0  0  0  0
  8  9  2  0  0  0  0
  8 10  1  0  0  0  0
 10 11  1  0  0  0  0
 10 31  1  0  0  0  0
 11 12  1  0  0  0  0
 11 32  1  0  0  0  0
 11 33  1  0  0  0  0
 12 13  1  0  0  0  0
 12 34  1  0  0  0  0
 12 35  1  0  0  0  0
 13 18  1  0  0  0  0
 13 14  1  0  0  0  0
 13 50  1  0  0  0  0
 14 15  1  0  0  0  0
 14 36  1  0  0  0  0
 14 37  1  0  0  0  0
 15 16  1  0  0  0  0
 15 38  1  0  0  0  0
 15 39  1  0  0  0  0
 16 17  1  0  0  0  0
 16 40  1  0  0  0  0
 16 41  1  0  0  0  0
 17 18  1  0  0  0  0
 17 42  1  0  0  0  0
 17 43  1  0  0  0  0
 18 19  1  0  0  0  0
 18 44  1  0  0  0  0
 19 45  1  0  0  0  0
 19 46  1  0  0  0  0
 19 47  1  0  0  0  0
 20 21  2  0  0  0  0
 20 48  1  0  0  0  0
 21 22  1  0  0  0  0
 21 49  1  0  0  0  0
 22 23  2  0  0  0  0
M  CHG  1  13   1
M  END
> <s_m_source_file>
AV-unprocessed.smi

> <i_m_source_file_index>
1235

> <i_lp_mmshare_version>
43012

> <i_f3d_flags>
0

> <s_epik_input>
W0NIM11PW0NIMl1bQ0gyXW4xbmMoW2NIXVtjSF1jMT1PKUMoPU8pW05IXVtDSDJdW0NIMl1OMltDSDJdW0NIMl1bQ0gyXVtDSDJdW0NASF0yW0NIM10=

> <s_epik_cmdline>
J2VwaWtfcHl0aG9uJywgJy1waCcsICc3LjAnLCAnLXRuJywgJzgnLCAnLW1hJywgJzIwMCcsICctbWV0YWxfYmluZGluZycsICctaW1hZScsICc8aW5maWxlLm1hZT4nLCAnLW9tYWUnLCAnPG91dGZpbGUubWFlPic=

> <r_lp_tautomer_probability>
1

> <r_epik_Ionization_Penalty>
0.00271975

> <r_epik_Ionization_Penalty_Charging>
0.00271407

> <r_epik_Ionization_Penalty_Neutral>
5.6803e-06

> <r_epik_State_Penalty>
0.00189271

> <r_epik_Charging_Adjusted_Penalty>
0.00460678

> <i_epik_Tot_Q>
1

> <i_epik_Tot_abs_Q>
1

> <r_epik_Metal_State_Penalty>
-0

> <b_epik_Metal_Only>
0

> <s_lp_Force_Field>
OPLS_2005

> <r_lp_Energy>
40.1633

> <b_lp_Chiralities_Consistent>
1

> <s_lp_Variant>
AV-unprocessed.smi:1235-4

> <Gold.Version>
5.8.1

> <Gold.Id.Protein>
6NUR|6NUR_protein|mol2

> <Gold.PLP.Fitness>
44.5519

> <Gold.PLP.PLP>
-38.4579

> <Gold.PLP.part.hbond>
-3.0000

> <Gold.PLP.part.metal>
0.0000

> <Gold.PLP.part.buried>
-2.4956

> <Gold.PLP.part.nonpolar>
-33.6901

> <Gold.PLP.part.repulsive>
0.7247

> <Gold.PLP.ligand.clash>
0.0000

> <Gold.PLP.ligand.torsion>
1.2376

> <Gold.PLP.Chemscore.Hbond>
2.8080

> <Gold.PLP.Chemscore.CHOScore>
0.0000

> <Gold.PLP.Chemscore.Metal>
0.0000

> <Gold.Chemscore.Hbonds>
donor molecule, donor type, donor heavy atom, donor atom, acceptor molecule, acceptor atom, score
      L1  H    10    31       P1  7948  0.94
      L1  H    13    50       P1 10747  0.99
      P1  H  7989  7998       L1    23  0.81

> <Gold.PLP.Chemscore.Internal.Correction>
0.1452

> <Gold.Rescore>
     Score         DG    S(hbond)    S(metal)    S(lipo)     H(rot)  DE(clash)    DE(int)     intcor
     16.04     -17.69       1.92        0.00      93.33       2.00       0.45       1.20       ----

> <Gold.Chemscore.Fitness>
16.0432

> <Gold.Chemscore.DG>
-17.6927

> <Gold.Chemscore.ZeroCoef>
-5.4800

> <Gold.Chemscore.Hbond>
1.9216

> <Gold.Chemscore.Metal>
0.0000

> <Gold.Chemscore.Lipo>
93.3298

> <Gold.Chemscore.Internal_Hbond>
0.0000

> <Gold.Chemscore.DEClash>
0.4538

> <Gold.Chemscore.DEInternal>
1.1957

> <Gold.Chemscore.Rot>
2.0020

> <Gold.Chemscore.Internal.Correction>
   9.000000E+99

> <Gold.Chemscore.Hbonds>
donor molecule, donor type, donor heavy atom, donor atom, acceptor molecule, acceptor atom, score
      L1  H    10    31       P1  7948  0.64
      L1  H    13    50       P1 10747  0.94
      P1  H  7989  7998       L1    23  0.16

> <Gold.Chemscore.Hbond.Weighted>
-6.4183

> <Gold.Chemscore.Metal.Weighted>
-0.0000

> <Gold.Chemscore.Lipo.Weighted>
-10.9196

> <Gold.Chemscore.Internal_Hbond.Weighted>
0.0000

> <Gold.Chemscore.DEClash.Weighted>
0.4538

> <Gold.Chemscore.DEInternal.Weighted>
1.1957

> <Gold.Chemscore.Rot.Weighted>
5.1252

> <Gold.Chemscore.Internal.Correction.Weighted>
   9.000000E+99

> <Gold.Protein.RotatedTorsions>
[ 6907 6896 6895 6894 ] final   -2.15 input  -60.11 | X-H torsion
[ 7974 7965 7964 7962 ] final  -42.14 input  175.53 | X-H torsion
[ 8008 7997 7996 7995 ] final  -45.02 input   59.86 | X-H torsion
[ 10167 10162 10161 10158 ] final  118.79 input  -65.29 | X-H torsion
[ 10718 10713 10712 10709 ] final   70.77 input   66.30 | X-H torsion
[ 10763 10752 10751 10750 ] final  -86.79 input  -60.55 | X-H torsion
[ 11005 11000 10999 10996 ] final   18.60 input  -57.11 | X-H torsion

> <Gold.Protein.ActiveResidues>
 VAL166  LYS551  ARG553  GLY616  TRP617  ASP618  TYR619  PRO620  LYS621  CYS622 
 ASP623  PHE694  ASN695  SER759  ASP760  ASP761  ALA762  ILE779  LEU786  VAL792 
 PHE793  MET794  SER795  GLU796  ALA797  LYS798  CYS799  TRP800  GLU811  SER814 

> <Gold.Protein.RotatedAtoms>
  151.5345  135.1068  159.9910 H   0  0  0  0  0  0  0  0  0  0  0  0  # atno 6907 bound_to 6896
  152.4563  133.7726  159.6818 H   0  0  0  0  0  0  0  0  0  0  0  0  # atno 6908 bound_to 6896
  150.8508  133.7724  159.3051 H   0  0  0  0  0  0  0  0  0  0  0  0  # atno 6909 bound_to 6896
  146.0144  140.6925  142.9208 H   0  0  0  0  0  0  0  0  0  0  0  0  # atno 7974 bound_to 7965
  154.3999  140.1407  156.3779 H   0  0  0  0  0  0  0  0  0  0  0  0  # atno 8008 bound_to 7997
  155.8031  140.3475  155.5393 H   0  0  0  0  0  0  0  0  0  0  0  0  # atno 8009 bound_to 7997
  155.8463  140.0934  157.1693 H   0  0  0  0  0  0  0  0  0  0  0  0  # atno 8010 bound_to 7997
  139.6088  144.7077  151.2891 H   0  0  0  0  0  0  0  0  0  0  0  0  # atno 10167 bound_to 10162
  157.6417  130.9494  150.0697 H   0  0  0  0  0  0  0  0  0  0  0  0  # atno 10718 bound_to 10713
  154.6264  135.5436  153.7632 H   0  0  0  0  0  0  0  0  0  0  0  0  # atno 10763 bound_to 10752
  153.0263  135.6425  154.1365 H   0  0  0  0  0  0  0  0  0  0  0  0  # atno 10764 bound_to 10752
  154.1297  135.2915  155.3168 H   0  0  0  0  0  0  0  0  0  0  0  0  # atno 10765 bound_to 10752
  140.4230  134.1499  155.7674 H   0  0  0  0  0  0  0  0  0  0  0  0  # atno 11005 bound_to 11000
  144.6965  140.3455  143.7191 LP  0  0  0  0  0  0  0  0  0  0  0  0  # atno 17320 bound_to 7965
  145.7292  139.1731  143.2440 LP  0  0  0  0  0  0  0  0  0  0  0  0  # atno 17321 bound_to 7965
  140.7304  143.6880  150.7945 LP  0  0  0  0  0  0  0  0  0  0  0  0  # atno 17342 bound_to 10162
  140.0471  143.5287  152.2691 LP  0  0  0  0  0  0  0  0  0  0  0  0  # atno 17343 bound_to 10162
  156.1704  130.3646  149.9172 LP  0  0  0  0  0  0  0  0  0  0  0  0  # atno 17370 bound_to 10713
  156.7149  130.8984  151.3613 LP  0  0  0  0  0  0  0  0  0  0  0  0  # atno 17371 bound_to 10713
  141.1776  133.8481  157.1368 LP  0  0  0  0  0  0  0  0  0  0  0  0  # atno 17394 bound_to 11000
  140.0187  134.9956  157.0546 LP  0  0  0  0  0  0  0  0  0  0  0  0  # atno 17395 bound_to 11000

$$$$
