AV-unprocessed.smi:2738|AV-procd|sdf|10548|dock2
  -GOLD-   2272014593D 1   1.00000     0.00000
 Structure written by MMmdl.
 32 33  0  0  0  0  0  0  0  0  1 V2000
  155.4261  140.5454  160.2377 C   0  0  0  0  0  0  0  0  0  0  0  0
  154.0381  140.8136  160.8329 C   0  0  0  0  0  0  0  0  0  0  0  0
  153.1302  141.3672  159.8313 N   0  0  0  0  0  0  0  0  0  0  0  0
  152.7592  140.7828  158.6677 C   0  0  0  0  0  0  0  0  0  0  0  0
  153.1293  139.6816  158.2613 O   0  0  0  0  0  0  0  0  0  0  0  0
  151.9243  141.6287  158.0200 N   0  0  0  0  0  0  0  0  0  0  0  0
  151.2957  141.4036  156.7200 C   0  0  0  0  0  0  0  0  0  0  0  0
  149.7737  141.6385  156.7763 C   0  0  2  0  0  0  0  0  0  0  0  0
  149.0303  140.4326  157.3657 C   0  0  0  0  0  0  0  0  0  0  0  0
  149.2862  141.8244  155.4632 O   0  0  0  0  0  0  0  0  0  0  0  0
  151.7791  142.8000  158.7772 C   0  0  0  0  0  0  0  0  0  0  0  0
  151.0500  143.9765  158.5311 C   0  0  0  0  0  0  0  0  0  0  0  0
  151.1195  144.9963  159.5090 C   0  0  0  0  0  0  0  0  0  0  0  0
  151.8983  144.8260  160.6832 C   0  0  0  0  0  0  0  0  0  0  0  0
  152.6251  143.6326  160.9041 C   0  0  0  0  0  0  0  0  0  0  0  0
  152.5370  142.6349  159.9176 C   0  0  0  0  0  0  0  0  0  0  0  0
  156.0967  140.1312  160.9907 H   0  0  0  0  0  0  0  0  0  0  0  0
  155.8773  141.4629  159.8594 H   0  0  0  0  0  0  0  0  0  0  0  0
  155.3713  139.8333  159.4137 H   0  0  0  0  0  0  0  0  0  0  0  0
  153.6242  139.8892  161.2384 H   0  0  0  0  0  0  0  0  0  0  0  0
  154.1186  141.5023  161.6743 H   0  0  0  0  0  0  0  0  0  0  0  0
  151.7612  142.0183  155.9474 H   0  0  0  0  0  0  0  0  0  0  0  0
  151.4989  140.3716  156.4319 H   0  0  0  0  0  0  0  0  0  0  0  0
  149.5425  142.5222  157.3728 H   0  0  0  0  0  0  0  0  0  0  0  0
  149.3428  140.2451  158.3932 H   0  0  0  0  0  0  0  0  0  0  0  0
  149.2212  139.5264  156.7894 H   0  0  0  0  0  0  0  0  0  0  0  0
  147.9528  140.6006  157.3768 H   0  0  0  0  0  0  0  0  0  0  0  0
  149.3311  142.7447  155.2521 H   0  0  0  0  0  0  0  0  0  0  0  0
  150.4629  144.1027  157.6334 H   0  0  0  0  0  0  0  0  0  0  0  0
  150.5744  145.9166  159.3589 H   0  0  0  0  0  0  0  0  0  0  0  0
  151.9387  145.6180  161.4165 H   0  0  0  0  0  0  0  0  0  0  0  0
  153.2232  143.4992  161.7933 H   0  0  0  0  0  0  0  0  0  0  0  0
  1  2  1  0  0  0  0
  1 17  1  0  0  0  0
  1 18  1  0  0  0  0
  1 19  1  0  0  0  0
  2  3  1  0  0  0  0
  2 20  1  0  0  0  0
  2 21  1  0  0  0  0
  3 16  1  0  0  0  0
  3  4  1  0  0  0  0
  4  5  2  0  0  0  0
  4  6  1  0  0  0  0
  6  7  1  0  0  0  0
  6 11  1  0  0  0  0
  7  8  1  0  0  0  0
  7 22  1  0  0  0  0
  7 23  1  0  0  0  0
  8  9  1  0  0  0  0
  8 10  1  0  0  0  0
  8 24  1  0  0  0  0
  9 25  1  0  0  0  0
  9 26  1  0  0  0  0
  9 27  1  0  0  0  0
 10 28  1  0  0  0  0
 11 16  2  0  0  0  0
 11 12  1  0  0  0  0
 12 13  2  0  0  0  0
 12 29  1  0  0  0  0
 13 14  1  0  0  0  0
 13 30  1  0  0  0  0
 14 15  2  0  0  0  0
 14 31  1  0  0  0  0
 15 16  1  0  0  0  0
 15 32  1  0  0  0  0
M  END
> <s_m_source_file>
AV-unprocessed.smi

> <i_m_source_file_index>
2738

> <i_lp_mmshare_version>
43012

> <i_f3d_flags>
0

> <s_epik_input>
W2NIXTFbY0hdW2NIXVtjSF1jKGMxMiluKFtDSDJdW0NIM10pYyg9TyluMltDSDJdW0NASF0oW0NIM10pW09IXQ==

> <s_epik_cmdline>
J2VwaWtfcHl0aG9uJywgJy1waCcsICc3LjAnLCAnLXRuJywgJzgnLCAnLW1hJywgJzIwMCcsICctbWV0YWxfYmluZGluZycsICctaW1hZScsICc8aW5maWxlLm1hZT4nLCAnLW9tYWUnLCAnPG91dGZpbGUubWFlPic=

> <r_lp_tautomer_probability>
1

> <r_epik_Ionization_Penalty>
5.28302e-08

> <r_epik_Ionization_Penalty_Charging>
2.52071e-09

> <r_epik_Ionization_Penalty_Neutral>
5.03095e-08

> <r_epik_State_Penalty>
-0

> <r_epik_Charging_Adjusted_Penalty>
2.52071e-09

> <i_epik_Tot_Q>
0

> <i_epik_Tot_abs_Q>
0

> <r_epik_Metal_State_Penalty>
-0

> <b_epik_Metal_Only>
0

> <s_lp_Force_Field>
OPLS_2005

> <r_lp_Energy>
38.1008

> <b_lp_Chiralities_Consistent>
1

> <s_lp_Variant>
AV-unprocessed.smi:2738-1

> <Gold.Version>
5.8.1

> <Gold.Id.Protein>
6NUR|6NUR_protein|mol2

> <Gold.PLP.Fitness>
44.1045

> <Gold.PLP.PLP>
-38.5583

> <Gold.PLP.part.hbond>
-2.0000

> <Gold.PLP.part.metal>
0.0000

> <Gold.PLP.part.buried>
-5.9378

> <Gold.PLP.part.nonpolar>
-30.7366

> <Gold.PLP.part.repulsive>
0.0000

> <Gold.PLP.ligand.clash>
0.0000

> <Gold.PLP.ligand.torsion>
0.2331

> <Gold.PLP.Chemscore.Hbond>
2.0000

> <Gold.PLP.Chemscore.CHOScore>
0.0000

> <Gold.PLP.Chemscore.Metal>
0.0000

> <Gold.Chemscore.Hbonds>
donor molecule, donor type, donor heavy atom, donor atom, acceptor molecule, acceptor atom, score
      L1  H    10    28       P1  8028  0.93
      P1  H  7997  8008       L1     5  1.00

> <Gold.PLP.Chemscore.Internal.Correction>
0.0123

> <Gold.Rescore>
     Score         DG    S(hbond)    S(metal)    S(lipo)     H(rot)  DE(clash)    DE(int)     intcor
     18.63     -18.83       1.90        0.00      99.55       1.81       0.02       0.18       ----

> <Gold.Chemscore.Fitness>
18.6288

> <Gold.Chemscore.DG>
-18.8287

> <Gold.Chemscore.ZeroCoef>
-5.4800

> <Gold.Chemscore.Hbond>
1.8974

> <Gold.Chemscore.Metal>
0.0000

> <Gold.Chemscore.Lipo>
99.5479

> <Gold.Chemscore.Internal_Hbond>
0.0000

> <Gold.Chemscore.DEClash>
0.0184

> <Gold.Chemscore.DEInternal>
0.1815

> <Gold.Chemscore.Rot>
1.8109

> <Gold.Chemscore.Internal.Correction>
   9.000000E+99

> <Gold.Chemscore.Hbonds>
donor molecule, donor type, donor heavy atom, donor atom, acceptor molecule, acceptor atom, score
      L1  H    10    28       P1  8028  0.85
      P1  H  7997  8008       L1     5  0.49

> <Gold.Chemscore.Hbond.Weighted>
-6.3374

> <Gold.Chemscore.Metal.Weighted>
-0.0000

> <Gold.Chemscore.Lipo.Weighted>
-11.6471

> <Gold.Chemscore.Internal_Hbond.Weighted>
0.0000

> <Gold.Chemscore.DEClash.Weighted>
0.0184

> <Gold.Chemscore.DEInternal.Weighted>
0.1815

> <Gold.Chemscore.Rot.Weighted>
4.6358

> <Gold.Chemscore.Internal.Correction.Weighted>
   9.000000E+99

> <Gold.Protein.RotatedTorsions>
[ 6907 6896 6895 6894 ] final -139.00 input  -60.11 | X-H torsion
[ 7974 7965 7964 7962 ] final  135.40 input  175.53 | X-H torsion
[ 8008 7997 7996 7995 ] final  -78.18 input   59.86 | X-H torsion
[ 10167 10162 10161 10158 ] final -172.30 input  -65.29 | X-H torsion
[ 10718 10713 10712 10709 ] final  -58.40 input   66.30 | X-H torsion
[ 10763 10752 10751 10750 ] final   36.85 input  -60.55 | X-H torsion
[ 11005 11000 10999 10996 ] final  170.48 input  -57.11 | X-H torsion

> <Gold.Protein.ActiveResidues>
 VAL166  LYS551  ARG553  GLY616  TRP617  ASP618  TYR619  PRO620  LYS621  CYS622 
 ASP623  PHE694  ASN695  SER759  ASP760  ASP761  ALA762  ILE779  LEU786  VAL792 
 PHE793  MET794  SER795  GLU796  ALA797  LYS798  CYS799  TRP800  GLU811  SER814 

> <Gold.Protein.RotatedAtoms>
  151.0422  133.5696  159.2649 H   0  0  0  0  0  0  0  0  0  0  0  0  # atno 6907 bound_to 6896
  151.2738  135.0692  159.9154 H   0  0  0  0  0  0  0  0  0  0  0  0  # atno 6908 bound_to 6896
  152.5366  134.0148  159.8009 H   0  0  0  0  0  0  0  0  0  0  0  0  # atno 6909 bound_to 6896
  144.9667  139.4650  143.5453 H   0  0  0  0  0  0  0  0  0  0  0  0  # atno 7974 bound_to 7965
  154.5665  140.0698  156.8900 H   0  0  0  0  0  0  0  0  0  0  0  0  # atno 8008 bound_to 7997
  155.2713  140.3365  155.4247 H   0  0  0  0  0  0  0  0  0  0  0  0  # atno 8009 bound_to 7997
  156.2085  140.1749  156.7733 H   0  0  0  0  0  0  0  0  0  0  0  0  # atno 8010 bound_to 7997
  139.5752  144.1548  152.1441 H   0  0  0  0  0  0  0  0  0  0  0  0  # atno 10167 bound_to 10162
  156.1138  130.4172  150.0572 H   0  0  0  0  0  0  0  0  0  0  0  0  # atno 10718 bound_to 10713
  153.0060  135.6294  154.2051 H   0  0  0  0  0  0  0  0  0  0  0  0  # atno 10763 bound_to 10752
  154.1794  135.2814  155.3058 H   0  0  0  0  0  0  0  0  0  0  0  0  # atno 10764 bound_to 10752
  154.5846  135.5636  153.7278 H   0  0  0  0  0  0  0  0  0  0  0  0  # atno 10765 bound_to 10752
  140.3088  134.7534  157.3975 H   0  0  0  0  0  0  0  0  0  0  0  0  # atno 11005 bound_to 11000
  146.3370  139.8853  142.8818 LP  0  0  0  0  0  0  0  0  0  0  0  0  # atno 17320 bound_to 7965
  145.2619  141.0080  143.3821 LP  0  0  0  0  0  0  0  0  0  0  0  0  # atno 17321 bound_to 7965
  140.1089  144.5474  150.6938 LP  0  0  0  0  0  0  0  0  0  0  0  0  # atno 17342 bound_to 10162
  140.7035  143.2451  151.4794 LP  0  0  0  0  0  0  0  0  0  0  0  0  # atno 17343 bound_to 10162
  156.8528  130.9465  151.3624 LP  0  0  0  0  0  0  0  0  0  0  0  0  # atno 17370 bound_to 10713
  157.6321  130.8737  149.9292 LP  0  0  0  0  0  0  0  0  0  0  0  0  # atno 17371 bound_to 10713
  140.1043  134.5431  155.8324 LP  0  0  0  0  0  0  0  0  0  0  0  0  # atno 17394 bound_to 11000
  141.2112  133.6704  156.6569 LP  0  0  0  0  0  0  0  0  0  0  0  0  # atno 17395 bound_to 11000

$$$$
