AV-unprocessed.smi:2904|AV-procd|sdf|11160|dock6
  -GOLD-   2272016 43D 1   1.00000     0.00000
 Structure written by MMmdl.
 39 40  0  0  0  0  0  0  0  0  1 V2000
  146.2095  136.9278  150.9165 C   0  0  0  0  0  0  0  0  0  0  0  0
  145.1559  135.9184  151.2715 C   0  0  0  0  0  0  0  0  0  0  0  0
  145.1289  134.7599  150.6350 N   0  0  0  0  0  0  0  0  0  0  0  0
  144.1003  134.0839  151.1881 N   0  0  0  0  0  0  0  0  0  0  0  0
  143.7659  132.7597  150.6921 C   0  0  0  0  0  0  0  0  0  0  0  0
  143.8704  132.7350  149.3640 F   0  0  0  0  0  0  0  0  0  0  0  0
  144.5707  131.8407  151.2283 F   0  0  0  0  0  0  0  0  0  0  0  0
  143.4546  134.8353  152.1515 C   0  0  0  0  0  0  0  0  0  0  0  0
  142.2645  134.3227  152.8954 C   0  0  0  0  0  0  0  0  0  0  0  0
  144.1172  136.0305  152.2414 C   0  0  0  0  0  0  0  0  0  0  0  0
  143.8317  137.2054  153.1466 C   0  0  0  0  0  0  0  0  0  0  0  0
  145.0982  137.7002  153.8566 C   0  0  0  0  0  0  0  0  0  0  0  0
  145.7801  136.9442  154.5509 O   0  0  0  0  0  0  0  0  0  0  0  0
  145.4016  138.9936  153.6692 N   0  0  0  0  0  0  0  0  0  0  0  0
  146.5564  139.6788  154.2424 C   0  0  0  0  0  0  0  0  0  0  0  0
  146.6154  141.1245  153.7282 C   0  0  0  0  0  0  0  0  0  0  0  0
  147.9019  141.8176  154.2055 C   0  0  0  0  0  0  0  0  0  0  0  0
  149.0403  141.0727  153.7857 O   0  0  0  0  0  0  0  0  0  0  0  0
  149.0825  139.7629  154.3420 C   0  0  0  0  0  0  0  0  0  0  0  0
  147.8619  138.9527  153.8759 C   0  0  0  0  0  0  0  0  0  0  0  0
  146.5255  137.4912  151.7950 H   0  0  0  0  0  0  0  0  0  0  0  0
  145.8338  137.6402  150.1820 H   0  0  0  0  0  0  0  0  0  0  0  0
  147.0960  136.4512  150.4968 H   0  0  0  0  0  0  0  0  0  0  0  0
  142.7424  132.4972  150.9590 H   0  0  0  0  0  0  0  0  0  0  0  0
  141.8414  135.0889  153.5446 H   0  0  0  0  0  0  0  0  0  0  0  0
  142.5373  133.4718  153.5197 H   0  0  0  0  0  0  0  0  0  0  0  0
  141.4841  134.0021  152.2050 H   0  0  0  0  0  0  0  0  0  0  0  0
  143.4062  138.0351  152.5809 H   0  0  0  0  0  0  0  0  0  0  0  0
  143.0902  136.9498  153.9037 H   0  0  0  0  0  0  0  0  0  0  0  0
  144.7891  139.5443  153.0850 H   0  0  0  0  0  0  0  0  0  0  0  0
  146.4581  139.7080  155.3295 H   0  0  0  0  0  0  0  0  0  0  0  0
  146.5887  141.1330  152.6375 H   0  0  0  0  0  0  0  0  0  0  0  0
  145.7423  141.6829  154.0674 H   0  0  0  0  0  0  0  0  0  0  0  0
  147.9635  142.8216  153.7856 H   0  0  0  0  0  0  0  0  0  0  0  0
  147.9055  141.9264  155.2912 H   0  0  0  0  0  0  0  0  0  0  0  0
  150.0017  139.2734  154.0194 H   0  0  0  0  0  0  0  0  0  0  0  0
  149.1182  139.8197  155.4309 H   0  0  0  0  0  0  0  0  0  0  0  0
  147.8838  137.9575  154.3215 H   0  0  0  0  0  0  0  0  0  0  0  0
  147.9175  138.8122  152.7955 H   0  0  0  0  0  0  0  0  0  0  0  0
  1  2  1  0  0  0  0
  1 21  1  0  0  0  0
  1 22  1  0  0  0  0
  1 23  1  0  0  0  0
  2 10  1  0  0  0  0
  2  3  2  0  0  0  0
  3  4  1  0  0  0  0
  4  5  1  0  0  0  0
  4  8  1  0  0  0  0
  5  6  1  0  0  0  0
  5  7  1  0  0  0  0
  5 24  1  0  0  0  0
  8  9  1  0  0  0  0
  8 10  2  0  0  0  0
  9 25  1  0  0  0  0
  9 26  1  0  0  0  0
  9 27  1  0  0  0  0
 10 11  1  0  0  0  0
 11 12  1  0  0  0  0
 11 28  1  0  0  0  0
 11 29  1  0  0  0  0
 12 13  2  0  0  0  0
 12 14  1  0  0  0  0
 14 15  1  0  0  0  0
 14 30  1  0  0  0  0
 15 20  1  0  0  0  0
 15 16  1  0  0  0  0
 15 31  1  0  0  0  0
 16 17  1  0  0  0  0
 16 32  1  0  0  0  0
 16 33  1  0  0  0  0
 17 18  1  0  0  0  0
 17 34  1  0  0  0  0
 17 35  1  0  0  0  0
 18 19  1  0  0  0  0
 19 20  1  0  0  0  0
 19 36  1  0  0  0  0
 19 37  1  0  0  0  0
 20 38  1  0  0  0  0
 20 39  1  0  0  0  0
M  END
> <s_m_source_file>
AV-unprocessed.smi

> <i_m_source_file_index>
2904

> <i_lp_mmshare_version>
43012

> <i_f3d_flags>
0

> <s_epik_input>
W0NIM11jMW5uKFtDSF0oRilGKWMoW0NIM10pYzFbQ0gyXUMoPU8pW05IXVtDSF0yW0NIMl1bQ0gyXU9bQ0gyXVtDSDJdMg==

> <s_epik_cmdline>
J2VwaWtfcHl0aG9uJywgJy1waCcsICc3LjAnLCAnLXRuJywgJzgnLCAnLW1hJywgJzIwMCcsICctbWV0YWxfYmluZGluZycsICctaW1hZScsICc8aW5maWxlLm1hZT4nLCAnLW9tYWUnLCAnPG91dGZpbGUubWFlPic=

> <r_lp_tautomer_probability>
1

> <r_epik_Ionization_Penalty>
3.9362e-07

> <r_epik_Ionization_Penalty_Charging>
0

> <r_epik_Ionization_Penalty_Neutral>
3.9362e-07

> <r_epik_State_Penalty>
-0

> <r_epik_Charging_Adjusted_Penalty>
0

> <i_epik_Tot_Q>
0

> <i_epik_Tot_abs_Q>
0

> <r_epik_Metal_State_Penalty>
-0

> <b_epik_Metal_Only>
0

> <s_lp_Force_Field>
OPLS_2005

> <r_lp_Energy>
7.93396

> <b_lp_Chiralities_Consistent>
1

> <s_lp_Variant>
AV-unprocessed.smi:2904-1

> <Gold.Version>
5.8.1

> <Gold.Id.Protein>
6NUR|6NUR_protein|mol2

> <Gold.PLP.Fitness>
39.0244

> <Gold.PLP.PLP>
-34.3968

> <Gold.PLP.part.hbond>
-2.8310

> <Gold.PLP.part.metal>
0.0000

> <Gold.PLP.part.buried>
0.0293

> <Gold.PLP.part.nonpolar>
-35.1881

> <Gold.PLP.part.repulsive>
3.2804

> <Gold.PLP.ligand.clash>
0.0000

> <Gold.PLP.ligand.torsion>
0.6613

> <Gold.PLP.Chemscore.Hbond>
1.9760

> <Gold.PLP.Chemscore.CHOScore>
0.0000

> <Gold.PLP.Chemscore.Metal>
0.0000

> <Gold.Chemscore.Hbonds>
donor molecule, donor type, donor heavy atom, donor atom, acceptor molecule, acceptor atom, score
      L1  H    14    30       P1 10175  1.00
      P1  H  8011  8017       L1    18  0.70

> <Gold.PLP.Chemscore.Internal.Correction>
0.0222

> <Gold.Rescore>
     Score         DG    S(hbond)    S(metal)    S(lipo)     H(rot)  DE(clash)    DE(int)     intcor
     13.01     -15.38       1.63        0.00      69.57       1.44       1.86       0.51       ----

> <Gold.Chemscore.Fitness>
13.0078

> <Gold.Chemscore.DG>
-15.3767

> <Gold.Chemscore.ZeroCoef>
-5.4800

> <Gold.Chemscore.Hbond>
1.6313

> <Gold.Chemscore.Metal>
0.0000

> <Gold.Chemscore.Lipo>
69.5674

> <Gold.Chemscore.Internal_Hbond>
0.0000

> <Gold.Chemscore.DEClash>
1.8614

> <Gold.Chemscore.DEInternal>
0.5074

> <Gold.Chemscore.Rot>
1.4419

> <Gold.Chemscore.Internal.Correction>
   9.000000E+99

> <Gold.Chemscore.Hbonds>
donor molecule, donor type, donor heavy atom, donor atom, acceptor molecule, acceptor atom, score
      L1  H    14    30       P1 10175  0.97
      P1  H  8011  8017       L1    18  0.15

> <Gold.Chemscore.Hbond.Weighted>
-5.4486

> <Gold.Chemscore.Metal.Weighted>
-0.0000

> <Gold.Chemscore.Lipo.Weighted>
-8.1394

> <Gold.Chemscore.Internal_Hbond.Weighted>
0.0000

> <Gold.Chemscore.DEClash.Weighted>
1.8614

> <Gold.Chemscore.DEInternal.Weighted>
0.5074

> <Gold.Chemscore.Rot.Weighted>
3.6913

> <Gold.Chemscore.Internal.Correction.Weighted>
   9.000000E+99

> <Gold.Protein.RotatedTorsions>
[ 6907 6896 6895 6894 ] final  116.12 input  -60.11 | X-H torsion
[ 7974 7965 7964 7962 ] final   22.57 input  175.53 | X-H torsion
[ 8008 7997 7996 7995 ] final   59.91 input   59.86 | X-H torsion
[ 10167 10162 10161 10158 ] final  -99.42 input  -65.29 | X-H torsion
[ 10718 10713 10712 10709 ] final -101.19 input   66.30 | X-H torsion
[ 10763 10752 10751 10750 ] final   91.41 input  -60.55 | X-H torsion
[ 11005 11000 10999 10996 ] final   52.54 input  -57.11 | X-H torsion

> <Gold.Protein.ActiveResidues>
 VAL166  LYS551  ARG553  GLY616  TRP617  ASP618  TYR619  PRO620  LYS621  CYS622 
 ASP623  PHE694  ASN695  SER759  ASP760  ASP761  ALA762  ILE779  LEU786  VAL792 
 PHE793  MET794  SER795  GLU796  ALA797  LYS798  CYS799  TRP800  GLU811  SER814 

> <Gold.Protein.RotatedAtoms>
  152.4698  133.8004  159.6949 H   0  0  0  0  0  0  0  0  0  0  0  0  # atno 6907 bound_to 6896
  150.8681  133.7535  159.2976 H   0  0  0  0  0  0  0  0  0  0  0  0  # atno 6908 bound_to 6896
  151.5079  135.1067  159.9898 H   0  0  0  0  0  0  0  0  0  0  0  0  # atno 6909 bound_to 6896
  146.2023  139.7867  142.8752 H   0  0  0  0  0  0  0  0  0  0  0  0  # atno 7974 bound_to 7965
  155.5738  140.3490  155.4522 H   0  0  0  0  0  0  0  0  0  0  0  0  # atno 8008 bound_to 7997
  156.0424  140.1299  157.0166 H   0  0  0  0  0  0  0  0  0  0  0  0  # atno 8009 bound_to 7997
  154.4398  140.1021  156.6242 H   0  0  0  0  0  0  0  0  0  0  0  0  # atno 8010 bound_to 7997
  140.2626  143.3397  152.0611 H   0  0  0  0  0  0  0  0  0  0  0  0  # atno 10167 bound_to 10162
  156.0186  130.5362  150.6926 H   0  0  0  0  0  0  0  0  0  0  0  0  # atno 10718 bound_to 10713
  153.2080  135.4398  155.0346 H   0  0  0  0  0  0  0  0  0  0  0  0  # atno 10763 bound_to 10752
  154.8184  135.3326  154.7112 H   0  0  0  0  0  0  0  0  0  0  0  0  # atno 10764 bound_to 10752
  153.7552  135.6995  153.4993 H   0  0  0  0  0  0  0  0  0  0  0  0  # atno 10765 bound_to 10752
  140.0841  134.5298  155.8917 H   0  0  0  0  0  0  0  0  0  0  0  0  # atno 11005 bound_to 11000
  145.3441  141.0294  143.3376 LP  0  0  0  0  0  0  0  0  0  0  0  0  # atno 17320 bound_to 7965
  144.8712  139.5036  143.6767 LP  0  0  0  0  0  0  0  0  0  0  0  0  # atno 17321 bound_to 7965
  139.5012  144.6708  151.6246 LP  0  0  0  0  0  0  0  0  0  0  0  0  # atno 17342 bound_to 10162
  140.5953  143.9706  150.6351 LP  0  0  0  0  0  0  0  0  0  0  0  0  # atno 17343 bound_to 10162
  157.4604  131.0882  151.0751 LP  0  0  0  0  0  0  0  0  0  0  0  0  # atno 17370 bound_to 10713
  157.1240  130.6074  149.5512 LP  0  0  0  0  0  0  0  0  0  0  0  0  # atno 17371 bound_to 10713
  141.2056  133.6649  156.6194 LP  0  0  0  0  0  0  0  0  0  0  0  0  # atno 17394 bound_to 11000
  140.3445  134.7820  157.4422 LP  0  0  0  0  0  0  0  0  0  0  0  0  # atno 17395 bound_to 11000

$$$$
