AV-unprocessed.smi:1601|AV-procd|sdf|6431|dock5
  -GOLD-   22720 7 73D 1   1.00000     0.00000
 Structure written by MMmdl.
 41 42  0  0  0  0  0  0  0  0  1 V2000
  152.3023  138.9201  155.1943 C   0  0  0  0  0  0  0  0  0  0  0  0
  151.3743  140.1359  155.4492 C   0  0  2  0  0  0  0  0  0  0  0  0
  150.9809  140.1610  156.9521 C   0  0  0  0  0  0  0  0  0  0  0  0
  151.7423  141.1478  157.7096 N   0  0  0  0  0  0  0  0  0  0  0  0
  152.3863  140.8977  158.8591 C   0  0  0  0  0  0  0  0  0  0  0  0
  152.3810  139.7947  159.4069 O   0  0  0  0  0  0  0  0  0  0  0  0
  153.1455  142.0765  159.4906 C   0  0  2  0  0  0  0  0  0  0  0  0
  153.7241  141.6633  160.8620 C   0  0  0  0  0  0  0  0  0  0  0  0
  152.3058  143.2779  159.5538 N   0  0  0  0  0  0  0  0  0  0  0  0
  152.4788  144.4916  158.9099 C   0  0  0  0  0  0  0  0  0  0  0  0
  151.4938  145.3362  159.3343 C   0  0  0  0  0  0  0  0  0  0  0  0
  150.7699  144.5592  160.2782 C   0  0  0  0  0  0  0  0  0  0  0  0
  151.2682  143.3432  160.4223 N   0  0  0  0  0  0  0  0  0  0  0  0
  150.2076  140.1634  154.5361 N   0  0  0  0  0  0  0  0  0  0  0  0
  149.3284  138.9997  154.6988 C   0  0  0  0  0  0  0  0  0  0  0  0
  148.0996  139.0439  153.7736 C   0  0  0  0  0  0  0  0  0  0  0  0
  147.3711  140.2422  154.0008 O   0  0  0  0  0  0  0  0  0  0  0  0
  148.1648  141.3989  153.7752 C   0  0  0  0  0  0  0  0  0  0  0  0
  149.3922  141.3724  154.7021 C   0  0  0  0  0  0  0  0  0  0  0  0
  153.1325  138.8709  155.8979 H   0  0  0  0  0  0  0  0  0  0  0  0
  152.7694  138.9549  154.2112 H   0  0  0  0  0  0  0  0  0  0  0  0
  151.7518  137.9821  155.2732 H   0  0  0  0  0  0  0  0  0  0  0  0
  151.9671  141.0329  155.2626 H   0  0  0  0  0  0  0  0  0  0  0  0
  149.9340  140.4287  157.0888 H   0  0  0  0  0  0  0  0  0  0  0  0
  151.1199  139.1704  157.3888 H   0  0  0  0  0  0  0  0  0  0  0  0
  151.7929  142.0805  157.3262 H   0  0  0  0  0  0  0  0  0  0  0  0
  153.9879  142.3211  158.8412 H   0  0  0  0  0  0  0  0  0  0  0  0
  154.2734  140.7234  160.7931 H   0  0  0  0  0  0  0  0  0  0  0  0
  152.9389  141.5334  161.6082 H   0  0  0  0  0  0  0  0  0  0  0  0
  154.4221  142.4116  161.2389 H   0  0  0  0  0  0  0  0  0  0  0  0
  153.2799  144.6572  158.2046 H   0  0  0  0  0  0  0  0  0  0  0  0
  151.3243  146.3571  159.0263 H   0  0  0  0  0  0  0  0  0  0  0  0
  149.9103  144.8434  160.8673 H   0  0  0  0  0  0  0  0  0  0  0  0
  149.8607  138.0787  154.4698 H   0  0  0  0  0  0  0  0  0  0  0  0
  148.9973  138.9281  155.7359 H   0  0  0  0  0  0  0  0  0  0  0  0
  148.4014  138.9843  152.7265 H   0  0  0  0  0  0  0  0  0  0  0  0
  147.4495  138.1908  153.9676 H   0  0  0  0  0  0  0  0  0  0  0  0
  148.4701  141.4433  152.7284 H   0  0  0  0  0  0  0  0  0  0  0  0
  147.5630  142.2863  153.9709 H   0  0  0  0  0  0  0  0  0  0  0  0
  149.0637  141.4570  155.7391 H   0  0  0  0  0  0  0  0  0  0  0  0
  149.9762  142.2640  154.4813 H   0  0  0  0  0  0  0  0  0  0  0  0
  1  2  1  0  0  0  0
  1 20  1  0  0  0  0
  1 21  1  0  0  0  0
  1 22  1  0  0  0  0
  2  3  1  0  0  0  0
  2 14  1  0  0  0  0
  2 23  1  0  0  0  0
  3  4  1  0  0  0  0
  3 24  1  0  0  0  0
  3 25  1  0  0  0  0
  4  5  1  0  0  0  0
  4 26  1  0  0  0  0
  5  6  2  0  0  0  0
  5  7  1  0  0  0  0
  7  8  1  0  0  0  0
  7  9  1  0  0  0  0
  7 27  1  0  0  0  0
  8 28  1  0  0  0  0
  8 29  1  0  0  0  0
  8 30  1  0  0  0  0
  9 13  1  0  0  0  0
  9 10  1  0  0  0  0
 10 11  2  0  0  0  0
 10 31  1  0  0  0  0
 11 12  1  0  0  0  0
 11 32  1  0  0  0  0
 12 13  2  0  0  0  0
 12 33  1  0  0  0  0
 14 19  1  0  0  0  0
 14 15  1  0  0  0  0
 15 16  1  0  0  0  0
 15 34  1  0  0  0  0
 15 35  1  0  0  0  0
 16 17  1  0  0  0  0
 16 36  1  0  0  0  0
 16 37  1  0  0  0  0
 17 18  1  0  0  0  0
 18 19  1  0  0  0  0
 18 38  1  0  0  0  0
 18 39  1  0  0  0  0
 19 40  1  0  0  0  0
 19 41  1  0  0  0  0
M  END
> <s_m_source_file>
AV-unprocessed.smi

> <i_m_source_file_index>
1601

> <i_lp_mmshare_version>
43012

> <i_f3d_flags>
0

> <s_epik_input>
W0NIMl0xW0NIMl1PW0NIMl1bQ0gyXU4xW0NASF0oW0NIM10pW0NIMl1bTkhdQyg9TylbQ0BIXShbQ0gzXSluMltjSF1bY0hdW2NIXW4y

> <s_epik_cmdline>
J2VwaWtfcHl0aG9uJywgJy1waCcsICc3LjAnLCAnLXRuJywgJzgnLCAnLW1hJywgJzIwMCcsICctbWV0YWxfYmluZGluZycsICctaW1hZScsICc8aW5maWxlLm1hZT4nLCAnLW9tYWUnLCAnPG91dGZpbGUubWFlPic=

> <r_lp_tautomer_probability>
1

> <r_epik_Ionization_Penalty>
0.203323

> <r_epik_Ionization_Penalty_Charging>
0

> <r_epik_Ionization_Penalty_Neutral>
0.203323

> <r_epik_State_Penalty>
0.193192

> <r_epik_Charging_Adjusted_Penalty>
0.193192

> <i_epik_Tot_Q>
0

> <i_epik_Tot_abs_Q>
0

> <r_epik_Metal_State_Penalty>
0.193187

> <b_epik_Metal_Only>
0

> <s_lp_Force_Field>
OPLS_2005

> <r_lp_Energy>
34.8704

> <b_lp_Chiralities_Consistent>
1

> <s_lp_Variant>
AV-unprocessed.smi:1601-1

> <Gold.Version>
5.8.1

> <Gold.Id.Protein>
6NUR|6NUR_protein|mol2

> <Gold.PLP.Fitness>
43.7874

> <Gold.PLP.PLP>
-45.4366

> <Gold.PLP.part.hbond>
-1.8552

> <Gold.PLP.part.metal>
0.0000

> <Gold.PLP.part.buried>
-3.5450

> <Gold.PLP.part.nonpolar>
-40.3079

> <Gold.PLP.part.repulsive>
0.3729

> <Gold.PLP.ligand.clash>
0.0000

> <Gold.PLP.ligand.torsion>
0.9168

> <Gold.PLP.Chemscore.Hbond>
0.0000

> <Gold.PLP.Chemscore.CHOScore>
0.0000

> <Gold.PLP.Chemscore.Metal>
0.0000

> <Gold.PLP.Chemscore.Internal.Correction>
0.1844

> <Gold.Rescore>
     Score         DG    S(hbond)    S(metal)    S(lipo)     H(rot)  DE(clash)    DE(int)     intcor
     12.34     -13.19       0.00        0.00     105.03       1.79       0.04       0.81       ----

> <Gold.Chemscore.Fitness>
12.3366

> <Gold.Chemscore.DG>
-13.1927

> <Gold.Chemscore.ZeroCoef>
-5.4800

> <Gold.Chemscore.Hbond>
0.0000

> <Gold.Chemscore.Metal>
0.0000

> <Gold.Chemscore.Lipo>
105.0250

> <Gold.Chemscore.Internal_Hbond>
0.0000

> <Gold.Chemscore.DEClash>
0.0437

> <Gold.Chemscore.DEInternal>
0.8124

> <Gold.Chemscore.Rot>
1.7872

> <Gold.Chemscore.Internal.Correction>
   9.000000E+99

> <Gold.Chemscore.Hbond.Weighted>
-0.0000

> <Gold.Chemscore.Metal.Weighted>
-0.0000

> <Gold.Chemscore.Lipo.Weighted>
-12.2879

> <Gold.Chemscore.Internal_Hbond.Weighted>
0.0000

> <Gold.Chemscore.DEClash.Weighted>
0.0437

> <Gold.Chemscore.DEInternal.Weighted>
0.8124

> <Gold.Chemscore.Rot.Weighted>
4.5752

> <Gold.Chemscore.Internal.Correction.Weighted>
   9.000000E+99

> <Gold.Protein.RotatedTorsions>
[ 6907 6896 6895 6894 ] final  -72.52 input  -60.11 | X-H torsion
[ 7974 7965 7964 7962 ] final  -48.57 input  175.53 | X-H torsion
[ 8008 7997 7996 7995 ] final   35.49 input   59.86 | X-H torsion
[ 10167 10162 10161 10158 ] final   26.24 input  -65.29 | X-H torsion
[ 10718 10713 10712 10709 ] final -149.39 input   66.30 | X-H torsion
[ 10763 10752 10751 10750 ] final  -83.43 input  -60.55 | X-H torsion
[ 11005 11000 10999 10996 ] final  -45.88 input  -57.11 | X-H torsion

> <Gold.Protein.ActiveResidues>
 VAL166  LYS551  ARG553  GLY616  TRP617  ASP618  TYR619  PRO620  LYS621  CYS622 
 ASP623  PHE694  ASN695  SER759  ASP760  ASP761  ALA762  ILE779  LEU786  VAL792 
 PHE793  MET794  SER795  GLU796  ALA797  LYS798  CYS799  TRP800  GLU811  SER814 

> <Gold.Protein.RotatedAtoms>
  150.7166  134.5151  159.5625 H   0  0  0  0  0  0  0  0  0  0  0  0  # atno 6907 bound_to 6896
  152.2719  134.7921  160.0422 H   0  0  0  0  0  0  0  0  0  0  0  0  # atno 6908 bound_to 6896
  151.8598  133.3420  159.3737 H   0  0  0  0  0  0  0  0  0  0  0  0  # atno 6909 bound_to 6896
  145.9497  140.7584  142.9511 H   0  0  0  0  0  0  0  0  0  0  0  0  # atno 7974 bound_to 7965
  155.1719  140.3292  155.4391 H   0  0  0  0  0  0  0  0  0  0  0  0  # atno 8008 bound_to 7997
  156.2507  140.1942  156.6772 H   0  0  0  0  0  0  0  0  0  0  0  0  # atno 8009 bound_to 7997
  154.6332  140.0580  156.9743 H   0  0  0  0  0  0  0  0  0  0  0  0  # atno 8010 bound_to 7997
  140.5039  144.0270  150.6344 H   0  0  0  0  0  0  0  0  0  0  0  0  # atno 10167 bound_to 10162
  156.4325  130.8082  151.2310 H   0  0  0  0  0  0  0  0  0  0  0  0  # atno 10718 bound_to 10713
  154.5877  135.5556  153.7247 H   0  0  0  0  0  0  0  0  0  0  0  0  # atno 10763 bound_to 10752
  153.0105  135.6335  154.1893 H   0  0  0  0  0  0  0  0  0  0  0  0  # atno 10764 bound_to 10752
  154.1834  135.2886  155.3025 H   0  0  0  0  0  0  0  0  0  0  0  0  # atno 10765 bound_to 10752
  141.0543  133.6731  156.3075 H   0  0  0  0  0  0  0  0  0  0  0  0  # atno 11005 bound_to 11000
  144.6793  140.2415  143.7343 LP  0  0  0  0  0  0  0  0  0  0  0  0  # atno 17320 bound_to 7965
  145.8188  139.2034  143.1950 LP  0  0  0  0  0  0  0  0  0  0  0  0  # atno 17321 bound_to 7965
  140.3574  143.2928  152.0421 LP  0  0  0  0  0  0  0  0  0  0  0  0  # atno 17342 bound_to 10162
  139.4879  144.6329  151.7034 LP  0  0  0  0  0  0  0  0  0  0  0  0  # atno 17343 bound_to 10162
  157.7508  131.0194  150.3665 LP  0  0  0  0  0  0  0  0  0  0  0  0  # atno 17370 bound_to 10713
  156.4005  130.3915  149.6963 LP  0  0  0  0  0  0  0  0  0  0  0  0  # atno 17371 bound_to 10713
  140.5994  134.5570  157.5514 LP  0  0  0  0  0  0  0  0  0  0  0  0  # atno 17394 bound_to 11000
  139.9377  134.7845  156.0760 LP  0  0  0  0  0  0  0  0  0  0  0  0  # atno 17395 bound_to 11000

$$$$
