AV-unprocessed.smi:234|AV-procd|sdf|1785|dock3
  -GOLD-   2262020333D 1   1.00000     0.00000
 Structure written by MMmdl.
 59 62  0  0  0  0  0  0  0  0  1 V2000
  152.3244  141.0745  159.0585 C   0  0  0  0  0  0  0  0  0  0  0  0
  152.7254  139.6147  158.8365 C   0  0  0  0  0  0  0  0  0  0  0  0
  152.6369  139.3198  157.4524 O   0  0  0  0  0  0  0  0  0  0  0  0
  151.5002  138.5346  157.1257 C   0  0  2  0  0  0  0  0  0  0  0  0
  151.5922  137.0683  157.5693 C   0  0  0  0  0  0  0  0  0  0  0  0
  151.0261  136.6858  156.1951 C   0  0  1  0  0  0  0  0  0  0  0  0
  149.5754  136.4075  156.1859 N   0  0  0  0  0  0  0  0  0  0  0  0
  148.5449  137.4276  156.4064 C   0  0  0  0  0  0  0  0  0  0  0  0
  149.1966  135.3178  155.4661 C   0  0  0  0  0  0  0  0  0  0  0  0
  150.1209  134.3643  155.1693 N   0  0  0  0  0  0  0  0  0  0  0  0
  149.7732  133.2714  154.4846 C   0  0  0  0  0  0  0  0  0  0  0  0
  148.5759  132.9347  154.0039 N   0  0  0  0  0  0  0  0  0  0  0  0
  147.6448  133.8906  154.2840 C   0  0  0  0  0  0  0  0  0  0  0  0
  147.8675  135.1035  154.9971 C   0  0  0  0  0  0  0  0  0  0  0  0
  146.6856  135.8338  155.0568 N   0  0  0  0  0  0  0  0  0  0  0  0
  145.8136  135.0885  154.4362 C   0  0  0  0  0  0  0  0  0  0  0  0
  146.3015  133.8973  153.9502 N   0  0  0  0  0  0  0  0  0  0  0  0
  145.5538  132.8763  153.2321 C   0  0  0  0  0  0  0  0  0  0  0  0
  145.9461  132.7677  151.7348 C   0  0  1  0  0  0  0  0  0  0  0  0
  147.3268  132.4534  151.6629 O   0  0  0  0  0  0  0  0  0  0  0  0
  145.1816  131.6794  150.9842 C   0  0  0  0  0  0  0  0  0  0  0  0
  145.1233  132.2147  149.5621 C   0  0  0  0  0  0  0  0  0  0  0  0
  144.8982  133.5972  149.7705 O   0  0  0  0  0  0  0  0  0  0  0  0
  145.7040  134.0321  150.8624 C   0  0  1  0  0  0  0  0  0  0  0  0
  144.9895  135.2146  151.5349 C   0  0  0  0  0  0  0  0  0  0  0  0
  151.4829  138.0704  155.6486 C   0  0  0  0  0  0  0  0  0  0  0  0
  150.5638  138.8376  154.6901 C   0  0  0  0  0  0  0  0  0  0  0  0
  152.8524  138.0203  154.9563 C   0  0  0  0  0  0  0  0  0  0  0  0
  152.3812  141.3377  160.1149 H   0  0  0  0  0  0  0  0  0  0  0  0
  151.3027  141.2547  158.7233 H   0  0  0  0  0  0  0  0  0  0  0  0
  152.9816  141.7490  158.5093 H   0  0  0  0  0  0  0  0  0  0  0  0
  153.7423  139.4514  159.1958 H   0  0  0  0  0  0  0  0  0  0  0  0
  152.0649  138.9573  159.4037 H   0  0  0  0  0  0  0  0  0  0  0  0
  150.5630  139.0109  157.4182 H   0  0  0  0  0  0  0  0  0  0  0  0
  152.6230  136.7345  157.6968 H   0  0  0  0  0  0  0  0  0  0  0  0
  150.9927  136.8000  158.4381 H   0  0  0  0  0  0  0  0  0  0  0  0
  151.6204  135.8812  155.7664 H   0  0  0  0  0  0  0  0  0  0  0  0
  147.6028  136.9551  156.6874 H   0  0  0  0  0  0  0  0  0  0  0  0
  148.3631  138.0223  155.5131 H   0  0  0  0  0  0  0  0  0  0  0  0
  148.8033  138.1075  157.2156 H   0  0  0  0  0  0  0  0  0  0  0  0
  150.5677  132.5642  154.2973 H   0  0  0  0  0  0  0  0  0  0  0  0
  144.7821  135.3879  154.3204 H   0  0  0  0  0  0  0  0  0  0  0  0
  145.7226  131.9270  153.7415 H   0  0  0  0  0  0  0  0  0  0  0  0
  144.4905  133.0972  153.3339 H   0  0  0  0  0  0  0  0  0  0  0  0
  147.4540  131.8181  150.9751 H   0  0  0  0  0  0  0  0  0  0  0  0
  145.6367  130.6902  151.0535 H   0  0  0  0  0  0  0  0  0  0  0  0
  144.1636  131.6035  151.3681 H   0  0  0  0  0  0  0  0  0  0  0  0
  146.0716  132.0658  149.0435 H   0  0  0  0  0  0  0  0  0  0  0  0
  144.3278  131.7604  148.9712 H   0  0  0  0  0  0  0  0  0  0  0  0
  146.6472  134.3930  150.4474 H   0  0  0  0  0  0  0  0  0  0  0  0
  145.5659  135.6031  152.3745 H   0  0  0  0  0  0  0  0  0  0  0  0
  144.0013  134.9324  151.8984 H   0  0  0  0  0  0  0  0  0  0  0  0
  144.8545  136.0326  150.8271 H   0  0  0  0  0  0  0  0  0  0  0  0
  150.3734  138.2691  153.7794 H   0  0  0  0  0  0  0  0  0  0  0  0
  151.0020  139.7909  154.3932 H   0  0  0  0  0  0  0  0  0  0  0  0
  149.5999  139.0718  155.1355 H   0  0  0  0  0  0  0  0  0  0  0  0
  152.7928  137.5144  153.9920 H   0  0  0  0  0  0  0  0  0  0  0  0
  153.5908  137.4834  155.5526 H   0  0  0  0  0  0  0  0  0  0  0  0
  153.2516  139.0198  154.7791 H   0  0  0  0  0  0  0  0  0  0  0  0
  1  2  1  0  0  0  0
  1 29  1  0  0  0  0
  1 30  1  0  0  0  0
  1 31  1  0  0  0  0
  2  3  1  0  0  0  0
  2 32  1  0  0  0  0
  2 33  1  0  0  0  0
  3  4  1  0  0  0  0
  4 26  1  0  0  0  0
  4  5  1  0  0  0  0
  4 34  1  0  0  0  0
  5  6  1  0  0  0  0
  5 35  1  0  0  0  0
  5 36  1  0  0  0  0
  6  7  1  0  0  0  0
  6 26  1  0  0  0  0
  6 37  1  0  0  0  0
  7  8  1  0  0  0  0
  7  9  1  0  0  0  0
  8 38  1  0  0  0  0
  8 39  1  0  0  0  0
  8 40  1  0  0  0  0
  9 14  1  0  0  0  0
  9 10  2  0  0  0  0
 10 11  1  0  0  0  0
 11 12  2  0  0  0  0
 11 41  1  0  0  0  0
 12 13  1  0  0  0  0
 13 17  1  0  0  0  0
 13 14  2  0  0  0  0
 14 15  1  0  0  0  0
 15 16  2  0  0  0  0
 16 17  1  0  0  0  0
 16 42  1  0  0  0  0
 17 18  1  0  0  0  0
 18 19  1  0  0  0  0
 18 43  1  0  0  0  0
 18 44  1  0  0  0  0
 19 24  1  0  0  0  0
 19 20  1  0  0  0  0
 19 21  1  0  0  0  0
 20 45  1  0  0  0  0
 21 22  1  0  0  0  0
 21 46  1  0  0  0  0
 21 47  1  0  0  0  0
 22 23  1  0  0  0  0
 22 48  1  0  0  0  0
 22 49  1  0  0  0  0
 23 24  1  0  0  0  0
 24 25  1  0  0  0  0
 24 50  1  0  0  0  0
 25 51  1  0  0  0  0
 25 52  1  0  0  0  0
 25 53  1  0  0  0  0
 26 27  1  0  0  0  0
 26 28  1  0  0  0  0
 27 54  1  0  0  0  0
 27 55  1  0  0  0  0
 27 56  1  0  0  0  0
 28 57  1  0  0  0  0
 28 58  1  0  0  0  0
 28 59  1  0  0  0  0
M  END
> <s_m_source_file>
AV-unprocessed.smi

> <i_m_source_file_index>
234

> <i_lp_mmshare_version>
43012

> <i_f3d_flags>
0

> <s_epik_input>
W0NIM11bQ0gyXU9bQ0BASF0oQzEoW0NIM10pW0NIM10pW0NIMl1bQ0BIXTFOKFtDSDNdKWMobltjSF1uMiljKGMyMyluW2NIXW4zW0NIMl1bQ0BAXTQoW09IXSlbQ0gyXVtDSDJdT1tDQEhdNFtDSDNd

> <s_epik_cmdline>
J2VwaWtfcHl0aG9uJywgJy1waCcsICc3LjAnLCAnLXRuJywgJzgnLCAnLW1hJywgJzIwMCcsICctbWV0YWxfYmluZGluZycsICctaW1hZScsICc8aW5maWxlLm1hZT4nLCAnLW9tYWUnLCAnPG91dGZpbGUubWFlPic=

> <r_lp_tautomer_probability>
1

> <r_epik_Ionization_Penalty>
0.00349132

> <r_epik_Ionization_Penalty_Charging>
0

> <r_epik_Ionization_Penalty_Neutral>
0.00349132

> <r_epik_State_Penalty>
0.00242418

> <r_epik_Charging_Adjusted_Penalty>
0.00242418

> <i_epik_Tot_Q>
0

> <i_epik_Tot_abs_Q>
0

> <r_epik_Metal_State_Penalty>
-0

> <b_epik_Metal_Only>
0

> <s_lp_Force_Field>
OPLS_2005

> <r_lp_Energy>
52.3915

> <b_lp_Chiralities_Consistent>
1

> <s_lp_Variant>
AV-unprocessed.smi:234-1

> <Gold.Version>
5.8.1

> <Gold.Id.Protein>
6NUR|6NUR_protein|mol2

> <Gold.PLP.Fitness>
41.6363

> <Gold.PLP.PLP>
-36.9733

> <Gold.PLP.part.hbond>
-2.0000

> <Gold.PLP.part.metal>
0.0000

> <Gold.PLP.part.buried>
-9.3796

> <Gold.PLP.part.nonpolar>
-28.6084

> <Gold.PLP.part.repulsive>
2.4960

> <Gold.PLP.ligand.clash>
0.0000

> <Gold.PLP.ligand.torsion>
0.8699

> <Gold.PLP.Chemscore.Hbond>
1.7520

> <Gold.PLP.Chemscore.CHOScore>
0.0000

> <Gold.PLP.Chemscore.Metal>
0.0000

> <Gold.Chemscore.Hbonds>
donor molecule, donor type, donor heavy atom, donor atom, acceptor molecule, acceptor atom, score
      L1  H    20    45       P1 10747  0.70
      P1  H  7997  8009       L1     3  0.63

> <Gold.PLP.Chemscore.Internal.Correction>
1.1469

> <Gold.Rescore>
     Score         DG    S(hbond)    S(metal)    S(lipo)     H(rot)  DE(clash)    DE(int)     intcor
     11.99     -16.69       1.85        0.00      94.92       2.37       0.05       4.65       ----

> <Gold.Chemscore.Fitness>
11.9943

> <Gold.Chemscore.DG>
-16.6917

> <Gold.Chemscore.ZeroCoef>
-5.4800

> <Gold.Chemscore.Hbond>
1.8465

> <Gold.Chemscore.Metal>
0.0000

> <Gold.Chemscore.Lipo>
94.9168

> <Gold.Chemscore.Internal_Hbond>
0.0000

> <Gold.Chemscore.DEClash>
0.0485

> <Gold.Chemscore.DEInternal>
4.6488

> <Gold.Chemscore.Rot>
2.3676

> <Gold.Chemscore.Internal.Correction>
   9.000000E+99

> <Gold.Chemscore.Hbonds>
donor molecule, donor type, donor heavy atom, donor atom, acceptor molecule, acceptor atom, score
      L1  H    20    45       P1 10747  0.70
      P1  H  7997  8009       L1     3  0.48

> <Gold.Chemscore.Hbond.Weighted>
-6.1674

> <Gold.Chemscore.Metal.Weighted>
-0.0000

> <Gold.Chemscore.Lipo.Weighted>
-11.1053

> <Gold.Chemscore.Internal_Hbond.Weighted>
0.0000

> <Gold.Chemscore.DEClash.Weighted>
0.0485

> <Gold.Chemscore.DEInternal.Weighted>
4.6488

> <Gold.Chemscore.Rot.Weighted>
6.0610

> <Gold.Chemscore.Internal.Correction.Weighted>
   9.000000E+99

> <Gold.Protein.RotatedTorsions>
[ 6907 6896 6895 6894 ] final  -29.31 input  -60.11 | X-H torsion
[ 7974 7965 7964 7962 ] final -150.60 input  175.53 | X-H torsion
[ 8008 7997 7996 7995 ] final -163.41 input   59.86 | X-H torsion
[ 10167 10162 10161 10158 ] final   50.26 input  -65.29 | X-H torsion
[ 10718 10713 10712 10709 ] final  -60.15 input   66.30 | X-H torsion
[ 10763 10752 10751 10750 ] final  164.31 input  -60.55 | X-H torsion
[ 11005 11000 10999 10996 ] final   53.85 input  -57.11 | X-H torsion

> <Gold.Protein.ActiveResidues>
 VAL166  LYS551  ARG553  GLY616  TRP617  ASP618  TYR619  PRO620  LYS621  CYS622 
 ASP623  PHE694  ASN695  SER759  ASP760  ASP761  ALA762  ILE779  LEU786  VAL792 
 PHE793  MET794  SER795  GLU796  ALA797  LYS798  CYS799  TRP800  GLU811  SER814 

> <Gold.Protein.RotatedAtoms>
  151.1209  135.0078  159.8537 H   0  0  0  0  0  0  0  0  0  0  0  0  # atno 6907 bound_to 6896
  152.5448  134.1724  159.8612 H   0  0  0  0  0  0  0  0  0  0  0  0  # atno 6908 bound_to 6896
  151.1782  133.4697  159.2627 H   0  0  0  0  0  0  0  0  0  0  0  0  # atno 6909 bound_to 6896
  144.7898  140.4910  143.5780 H   0  0  0  0  0  0  0  0  0  0  0  0  # atno 7974 bound_to 7965
  155.8209  140.0919  157.1849 H   0  0  0  0  0  0  0  0  0  0  0  0  # atno 8008 bound_to 7997
  154.3979  140.1437  156.3558 H   0  0  0  0  0  0  0  0  0  0  0  0  # atno 8009 bound_to 7997
  155.8267  140.3444  155.5550 H   0  0  0  0  0  0  0  0  0  0  0  0  # atno 8010 bound_to 7997
  140.2742  144.3230  150.6281 H   0  0  0  0  0  0  0  0  0  0  0  0  # atno 10167 bound_to 10162
  156.1011  130.4186  150.0814 H   0  0  0  0  0  0  0  0  0  0  0  0  # atno 10718 bound_to 10713
  154.3069  135.2758  155.2584 H   0  0  0  0  0  0  0  0  0  0  0  0  # atno 10763 bound_to 10752
  154.4996  135.5811  153.6524 H   0  0  0  0  0  0  0  0  0  0  0  0  # atno 10764 bound_to 10752
  152.9893  135.6154  154.3244 H   0  0  0  0  0  0  0  0  0  0  0  0  # atno 10765 bound_to 10752
  140.0734  134.5439  155.9023 H   0  0  0  0  0  0  0  0  0  0  0  0  # atno 11005 bound_to 11000
  145.5824  139.1490  143.3228 LP  0  0  0  0  0  0  0  0  0  0  0  0  # atno 17320 bound_to 7965
  146.2145  140.5954  142.9044 LP  0  0  0  0  0  0  0  0  0  0  0  0  # atno 17321 bound_to 7965
  140.5864  143.2170  151.7333 LP  0  0  0  0  0  0  0  0  0  0  0  0  # atno 17342 bound_to 10162
  139.4980  144.4004  152.0187 LP  0  0  0  0  0  0  0  0  0  0  0  0  # atno 17343 bound_to 10162
  156.8801  130.9553  151.3600 LP  0  0  0  0  0  0  0  0  0  0  0  0  # atno 17370 bound_to 10713
  157.6181  130.8634  149.9062 LP  0  0  0  0  0  0  0  0  0  0  0  0  # atno 17371 bound_to 10713
  141.2020  133.6622  156.5983 LP  0  0  0  0  0  0  0  0  0  0  0  0  # atno 17394 bound_to 11000
  140.3594  134.7700  157.4523 LP  0  0  0  0  0  0  0  0  0  0  0  0  # atno 17395 bound_to 11000

$$$$
