#       Name:                AV-unprocessed.smi:3234
#       Creating user name   scv26
#       Creation time:       Fri Mar 27 18:21:43 2020


#       File generated by GOLD software.
#

@<TRIPOS>MOLECULE
AV-unprocessed.smi:3234
    40    42     1
SMALL
NO_CHARGES


@<TRIPOS>ATOM
      1 ****        -0.7323   1.4706   0.4565 O.2            1 S1                 0.0000
      2 ****        -1.2435   0.3564   0.5668 C.2            1 S1                 0.0000
      3 ****        -2.5642   0.1083   0.6074 N.am           1 S1                 0.0000
      4 ****        -3.6373   1.0406   0.6018 C.ar           1 S1                 0.0000
      5 ****        -4.9049   0.5795   0.1819 C.ar           1 S1                 0.0000
      6 ****        -6.0017   1.4654   0.1802 C.ar           1 S1                 0.0000
      7 ****        -5.8361   2.7413   0.5897 N.pl3          1 S1                 1.0000
      8 ****        -4.6481   3.2238   1.0130 C.ar           1 S1                 0.0000
      9 ****        -3.5150   2.3854   1.0354 C.ar           1 S1                 0.0000
     10 ****        -0.5297  -0.7762   0.6375 N.am           1 S1                 0.0000
     11 ****         0.9281  -0.8395   0.6176 C.3            1 S1                 0.0000
     12 ****         1.4906  -2.2024   0.9994 C.3            1 S1                 0.0000
     13 ****         2.9107  -2.1490   0.4230 C.3            1 S1                 0.0000
     14 ****         2.8690  -1.2226  -0.7365 N.4            1 S1                 1.0000
     15 ****         3.9548  -0.2181  -0.7289 C.3            1 S1                 0.0000
     16 ****         4.3869   0.2160  -2.1092 C.3            1 S1                 0.0000
     17 ****         5.2531  -0.7296  -1.3060 C.3            1 S1                 0.0000
     18 ****         1.5149  -0.6286  -0.7804 C.3            1 S1                 0.0000
     19 ****        -2.8352  -0.8643   0.5990 H              1 S1                 0.0000
     20 ****        -5.0391  -0.4423  -0.1429 H              1 S1                 0.0000
     21 ****        -6.9997   1.1926  -0.1311 H              1 S1                 0.0000
     22 ****        -4.6399   4.2578   1.3256 H              1 S1                 0.0000
     23 ****        -2.5802   2.7861   1.3964 H              1 S1                 0.0000
     24 ****        -1.0258  -1.6516   0.7239 H              1 S1                 0.0000
     25 ****         1.3365  -0.0902   1.2993 H              1 S1                 0.0000
     26 ****         1.4785  -2.3826   2.0749 H              1 S1                 0.0000
     27 ****         0.9218  -2.9981   0.5154 H              1 S1                 0.0000
     28 ****         3.5957  -1.7689   1.1831 H              1 S1                 0.0000
     29 ****         3.2682  -3.1346   0.1236 H              1 S1                 0.0000
     30 ****         3.9576   0.4879   0.1002 H              1 S1                 0.0000
     31 ****         3.8574  -0.1930  -2.9676 H              1 S1                 0.0000
     32 ****         4.7429   1.2376  -2.2266 H              1 S1                 0.0000
     33 ****         6.1779  -0.3293  -0.8954 H              1 S1                 0.0000
     34 ****         5.2997  -1.7674  -1.6313 H              1 S1                 0.0000
     35 ****         0.9322  -1.1749  -1.5240 H              1 S1                 0.0000
     36 ****         1.5229   0.4214  -1.0776 H              1 S1                 0.0000
     37 ****         2.9784  -1.7719  -1.5770 H              1 S1                 0.0000
     38 ****        -6.6434   3.3656   0.5845 H              1 S1                 0.0000
     39 ****        -1.3124   2.2823   0.3888 LP             1 S1                 0.0000
     40 ****         0.2630   1.5641   0.4345 LP             1 S1                 0.0000
@<TRIPOS>BOND
    1    1    2 2     
    2    2    3 am    
    3    2   10 am    
    4    3    4 1     
    5    3   19 1     
    6    4    9 ar    
    7    4    5 ar    
    8    5    6 ar    
    9    5   20 1     
   10    6    7 ar    
   11    6   21 1     
   12    7    8 ar    
   13    7   38 1     
   14    8    9 ar    
   15    8   22 1     
   16    9   23 1     
   17   10   11 1     
   18   10   24 1     
   19   11   18 1     
   20   11   12 1     
   21   11   25 1     
   22   12   13 1     
   23   12   26 1     
   24   12   27 1     
   25   13   14 1     
   26   13   28 1     
   27   13   29 1     
   28   14   15 1     
   29   14   18 1     
   30   14   37 1     
   31   15   17 1     
   32   15   16 1     
   33   15   30 1     
   34   16   17 1     
   35   16   31 1     
   36   16   32 1     
   37   17   33 1     
   38   17   34 1     
   39   18   35 1     
   40   18   36 1     
   41    1   39 1     
   42    1   40 1     
@<TRIPOS>SUBSTRUCTURE
      1 S1             1
@<TRIPOS>SET
LONE_PAIRS      STATIC     ATOMS    <user>   **** ""
2 39 40
DONOR_HYDROGENS      STATIC     ATOMS    <user>   **** ""
4 19 38 24 37
ATOM$BLUE        STATIC     ATOMS    COLORGROUP SYSTEM
2 39 40
ATOM$RED        STATIC     ATOMS    COLORGROUP SYSTEM
4 19 38 24 37
