AV-unprocessed.smi:674|AV-procd|sdf|3302|dock3
  -GOLD-   22720 0263D 1   1.00000     0.00000
 Structure written by MMmdl.
 47 48  0  0  0  0  0  0  0  0  1 V2000
  153.0995  142.9628  162.3032 C   0  0  0  0  0  0  0  0  0  0  0  0
  153.4073  142.0974  161.0757 C   0  0  0  0  0  0  0  0  0  0  0  0
  152.7128  142.6012  159.8421 C   0  0  0  0  0  0  0  0  0  0  0  0
  151.7517  141.9202  159.0403 C   0  0  0  0  0  0  0  0  0  0  0  0
  151.4686  142.8358  158.0637 C   0  0  0  0  0  0  0  0  0  0  0  0
  150.6135  142.7228  157.0126 N   0  0  0  0  0  0  0  0  0  0  0  0
  150.2167  141.6121  156.3675 C   0  0  0  0  0  0  0  0  0  0  0  0
  150.5392  140.4607  156.6609 O   0  0  0  0  0  0  0  0  0  0  0  0
  149.4108  141.9115  155.3398 N   0  0  0  0  0  0  0  0  0  0  0  0
  148.8328  140.9253  154.4324 C   0  0  1  0  0  0  0  0  0  0  0  0
  148.3855  139.6540  155.1512 C   0  0  0  0  0  0  0  0  0  0  0  0
  147.1795  139.6245  154.1927 C   0  0  2  0  0  0  0  0  0  0  0  0
  145.8383  139.0677  154.6874 C   0  0  0  0  0  0  0  0  0  0  0  0
  147.5518  139.0127  152.9499 O   0  0  0  0  0  0  0  0  0  0  0  0
  146.5431  138.8911  151.9546 C   0  0  0  0  0  0  0  0  0  0  0  0
  147.3497  141.1725  154.0520 C   0  0  0  0  0  0  0  0  0  0  0  0
  146.5195  142.0331  155.0236 C   0  0  0  0  0  0  0  0  0  0  0  0
  147.1033  141.7640  152.6594 C   0  0  0  0  0  0  0  0  0  0  0  0
  152.2233  143.9681  158.2841 N   0  0  0  0  0  0  0  0  0  0  0  0
  152.2896  145.2085  157.5357 C   0  0  0  0  0  0  0  0  0  0  0  0
  152.9868  143.8194  159.3876 N   0  0  0  0  0  0  0  0  0  0  0  0
  153.6158  142.5838  163.1851 H   0  0  0  0  0  0  0  0  0  0  0  0
  152.0312  142.9717  162.5216 H   0  0  0  0  0  0  0  0  0  0  0  0
  153.4190  143.9935  162.1468 H   0  0  0  0  0  0  0  0  0  0  0  0
  154.4849  142.0778  160.9103 H   0  0  0  0  0  0  0  0  0  0  0  0
  153.1142  141.0658  161.2745 H   0  0  0  0  0  0  0  0  0  0  0  0
  151.3541  140.9260  159.1763 H   0  0  0  0  0  0  0  0  0  0  0  0
  150.2404  143.5945  156.6671 H   0  0  0  0  0  0  0  0  0  0  0  0
  149.1912  142.8811  155.1648 H   0  0  0  0  0  0  0  0  0  0  0  0
  149.4617  140.6995  153.5679 H   0  0  0  0  0  0  0  0  0  0  0  0
  149.0860  138.8236  155.0677 H   0  0  0  0  0  0  0  0  0  0  0  0
  148.0960  139.8179  156.1906 H   0  0  0  0  0  0  0  0  0  0  0  0
  145.4837  139.5914  155.5742 H   0  0  0  0  0  0  0  0  0  0  0  0
  145.9107  138.0171  154.9672 H   0  0  0  0  0  0  0  0  0  0  0  0
  145.0660  139.1594  153.9234 H   0  0  0  0  0  0  0  0  0  0  0  0
  146.9183  138.2689  151.1425 H   0  0  0  0  0  0  0  0  0  0  0  0
  146.2858  139.8590  151.5245 H   0  0  0  0  0  0  0  0  0  0  0  0
  145.6354  138.4246  152.3362 H   0  0  0  0  0  0  0  0  0  0  0  0
  145.4565  141.9936  154.7835 H   0  0  0  0  0  0  0  0  0  0  0  0
  146.8167  143.0817  154.9880 H   0  0  0  0  0  0  0  0  0  0  0  0
  146.6280  141.7075  156.0581 H   0  0  0  0  0  0  0  0  0  0  0  0
  146.0720  141.6130  152.3392 H   0  0  0  0  0  0  0  0  0  0  0  0
  147.7469  141.3119  151.9044 H   0  0  0  0  0  0  0  0  0  0  0  0
  147.3027  142.8358  152.6366 H   0  0  0  0  0  0  0  0  0  0  0  0
  151.8093  145.0972  156.5637 H   0  0  0  0  0  0  0  0  0  0  0  0
  153.3314  145.4905  157.3795 H   0  0  0  0  0  0  0  0  0  0  0  0
  151.7859  145.9989  158.0927 H   0  0  0  0  0  0  0  0  0  0  0  0
  1  2  1  0  0  0  0
  1 22  1  0  0  0  0
  1 23  1  0  0  0  0
  1 24  1  0  0  0  0
  2  3  1  0  0  0  0
  2 25  1  0  0  0  0
  2 26  1  0  0  0  0
  3 21  2  0  0  0  0
  3  4  1  0  0  0  0
  4  5  2  0  0  0  0
  4 27  1  0  0  0  0
  5  6  1  0  0  0  0
  5 19  1  0  0  0  0
  6  7  1  0  0  0  0
  6 28  1  0  0  0  0
  7  8  2  0  0  0  0
  7  9  1  0  0  0  0
  9 10  1  0  0  0  0
  9 29  1  0  0  0  0
 10 16  1  0  0  0  0
 10 11  1  0  0  0  0
 10 30  1  0  0  0  0
 11 12  1  0  0  0  0
 11 31  1  0  0  0  0
 11 32  1  0  0  0  0
 12 13  1  0  0  0  0
 12 14  1  0  0  0  0
 12 16  1  0  0  0  0
 13 33  1  0  0  0  0
 13 34  1  0  0  0  0
 13 35  1  0  0  0  0
 14 15  1  0  0  0  0
 15 36  1  0  0  0  0
 15 37  1  0  0  0  0
 15 38  1  0  0  0  0
 16 17  1  0  0  0  0
 16 18  1  0  0  0  0
 17 39  1  0  0  0  0
 17 40  1  0  0  0  0
 17 41  1  0  0  0  0
 18 42  1  0  0  0  0
 18 43  1  0  0  0  0
 18 44  1  0  0  0  0
 19 20  1  0  0  0  0
 19 21  1  0  0  0  0
 20 45  1  0  0  0  0
 20 46  1  0  0  0  0
 20 47  1  0  0  0  0
M  END
> <s_m_source_file>
AV-unprocessed.smi

> <i_m_source_file_index>
674

> <i_lp_mmshare_version>
43012

> <i_f3d_flags>
0

> <s_epik_input>
W0NIM11bQ0gyXWMxW2NIXWMobihuMSlbQ0gzXSlbTkhdQyg9TylbTkhdW0NAQEhdKEMyKFtDSDNdKVtDSDNdKVtDSDJdW0NAQF0yKFtDSDNdKU9bQ0gzXQ==

> <s_epik_cmdline>
J2VwaWtfcHl0aG9uJywgJy1waCcsICc3LjAnLCAnLXRuJywgJzgnLCAnLW1hJywgJzIwMCcsICctbWV0YWxfYmluZGluZycsICctaW1hZScsICc8aW5maWxlLm1hZT4nLCAnLW9tYWUnLCAnPG91dGZpbGUubWFlPic=

> <r_lp_tautomer_probability>
1

> <r_epik_Ionization_Penalty>
0.000101626

> <r_epik_Ionization_Penalty_Charging>
0

> <r_epik_Ionization_Penalty_Neutral>
0.000101626

> <r_epik_State_Penalty>
-0

> <r_epik_Charging_Adjusted_Penalty>
0

> <i_epik_Tot_Q>
0

> <i_epik_Tot_abs_Q>
0

> <r_epik_Metal_State_Penalty>
-0

> <b_epik_Metal_Only>
0

> <s_lp_Force_Field>
OPLS_2005

> <r_lp_Energy>
22.7899

> <b_lp_Chiralities_Consistent>
1

> <s_lp_Variant>
AV-unprocessed.smi:674-4

> <Gold.Version>
5.8.1

> <Gold.Id.Protein>
6NUR|6NUR_protein|mol2

> <Gold.PLP.Fitness>
45.8251

> <Gold.PLP.PLP>
-40.7378

> <Gold.PLP.part.hbond>
-2.0000

> <Gold.PLP.part.metal>
0.0000

> <Gold.PLP.part.buried>
-9.0747

> <Gold.PLP.part.nonpolar>
-32.0367

> <Gold.PLP.part.repulsive>
2.0581

> <Gold.PLP.ligand.clash>
0.0000

> <Gold.PLP.ligand.torsion>
0.6467

> <Gold.PLP.Chemscore.Hbond>
2.0000

> <Gold.PLP.Chemscore.CHOScore>
0.0000

> <Gold.PLP.Chemscore.Metal>
0.0000

> <Gold.Chemscore.Hbonds>
donor molecule, donor type, donor heavy atom, donor atom, acceptor molecule, acceptor atom, score
      L1  H     6    28       P1  8028  1.00
      L1  H     9    29       P1  8028  1.00

> <Gold.PLP.Chemscore.Internal.Correction>
0.3806

> <Gold.Rescore>
     Score         DG    S(hbond)    S(metal)    S(lipo)     H(rot)  DE(clash)    DE(int)     intcor
     13.68     -20.77       1.96        0.00     104.72       1.37       4.82       2.28       ----

> <Gold.Chemscore.Fitness>
13.6818

> <Gold.Chemscore.DG>
-20.7726

> <Gold.Chemscore.ZeroCoef>
-5.4800

> <Gold.Chemscore.Hbond>
1.9572

> <Gold.Chemscore.Metal>
0.0000

> <Gold.Chemscore.Lipo>
104.7157

> <Gold.Chemscore.Internal_Hbond>
0.0000

> <Gold.Chemscore.DEClash>
4.8156

> <Gold.Chemscore.DEInternal>
2.2752

> <Gold.Chemscore.Rot>
1.3658

> <Gold.Chemscore.Internal.Correction>
   9.000000E+99

> <Gold.Chemscore.Hbonds>
donor molecule, donor type, donor heavy atom, donor atom, acceptor molecule, acceptor atom, score
      L1  H     6    28       P1  8028  0.93
      L1  H     9    29       P1  8028  0.98

> <Gold.Chemscore.Hbond.Weighted>
-6.5372

> <Gold.Chemscore.Metal.Weighted>
-0.0000

> <Gold.Chemscore.Lipo.Weighted>
-12.2517

> <Gold.Chemscore.Internal_Hbond.Weighted>
0.0000

> <Gold.Chemscore.DEClash.Weighted>
4.8156

> <Gold.Chemscore.DEInternal.Weighted>
2.2752

> <Gold.Chemscore.Rot.Weighted>
3.4963

> <Gold.Chemscore.Internal.Correction.Weighted>
   9.000000E+99

> <Gold.Protein.RotatedTorsions>
[ 6907 6896 6895 6894 ] final -136.00 input  -60.11 | X-H torsion
[ 7974 7965 7964 7962 ] final  100.76 input  175.53 | X-H torsion
[ 8008 7997 7996 7995 ] final  179.45 input   59.86 | X-H torsion
[ 10167 10162 10161 10158 ] final -141.94 input  -65.29 | X-H torsion
[ 10718 10713 10712 10709 ] final  154.99 input   66.30 | X-H torsion
[ 10763 10752 10751 10750 ] final  152.26 input  -60.55 | X-H torsion
[ 11005 11000 10999 10996 ] final  106.23 input  -57.11 | X-H torsion

> <Gold.Protein.ActiveResidues>
 VAL166  LYS551  ARG553  GLY616  TRP617  ASP618  TYR619  PRO620  LYS621  CYS622 
 ASP623  PHE694  ASN695  SER759  ASP760  ASP761  ALA762  ILE779  LEU786  VAL792 
 PHE793  MET794  SER795  GLU796  ALA797  LYS798  CYS799  TRP800  GLU811  SER814 

> <Gold.Protein.RotatedAtoms>
  151.0047  133.6022  159.2690 H   0  0  0  0  0  0  0  0  0  0  0  0  # atno 6907 bound_to 6896
  151.3196  135.0814  159.9311 H   0  0  0  0  0  0  0  0  0  0  0  0  # atno 6908 bound_to 6896
  152.5283  133.9697  159.7810 H   0  0  0  0  0  0  0  0  0  0  0  0  # atno 6909 bound_to 6896
  145.3813  139.2379  143.3402 H   0  0  0  0  0  0  0  0  0  0  0  0  # atno 7974 bound_to 7965
  156.0432  140.1308  157.0133 H   0  0  0  0  0  0  0  0  0  0  0  0  # atno 8008 bound_to 7997
  154.4400  140.1026  156.6338 H   0  0  0  0  0  0  0  0  0  0  0  0  # atno 8009 bound_to 7997
  155.5635  140.3465  155.4499 H   0  0  0  0  0  0  0  0  0  0  0  0  # atno 8010 bound_to 7997
  139.8137  143.7668  152.2664 H   0  0  0  0  0  0  0  0  0  0  0  0  # atno 10167 bound_to 10162
  157.2243  131.0725  151.1893 H   0  0  0  0  0  0  0  0  0  0  0  0  # atno 10718 bound_to 10713
  154.1172  135.2835  155.3217 H   0  0  0  0  0  0  0  0  0  0  0  0  # atno 10763 bound_to 10752
  154.6448  135.5389  153.7835 H   0  0  0  0  0  0  0  0  0  0  0  0  # atno 10764 bound_to 10752
  153.0325  135.6495  154.1328 H   0  0  0  0  0  0  0  0  0  0  0  0  # atno 10765 bound_to 10752
  139.8811  134.9362  156.5635 H   0  0  0  0  0  0  0  0  0  0  0  0  # atno 11005 bound_to 11000
  146.2840  140.4481  142.8765 LP  0  0  0  0  0  0  0  0  0  0  0  0  # atno 17320 bound_to 7965
  144.8505  140.6994  143.6171 LP  0  0  0  0  0  0  0  0  0  0  0  0  # atno 17321 bound_to 7965
  139.7825  144.7439  151.0068 LP  0  0  0  0  0  0  0  0  0  0  0  0  # atno 17342 bound_to 10162
  140.7817  143.4527  151.0390 LP  0  0  0  0  0  0  0  0  0  0  0  0  # atno 17343 bound_to 10162
  157.3544  130.7099  149.6461 LP  0  0  0  0  0  0  0  0  0  0  0  0  # atno 17370 bound_to 10713
  155.9680  130.4243  150.4603 LP  0  0  0  0  0  0  0  0  0  0  0  0  # atno 17371 bound_to 10713
  140.8151  133.8398  155.8845 LP  0  0  0  0  0  0  0  0  0  0  0  0  # atno 17394 bound_to 11000
  140.9470  134.1827  157.4756 LP  0  0  0  0  0  0  0  0  0  0  0  0  # atno 17395 bound_to 11000

$$$$
