AV-unprocessed.smi:2706|AV-procd|sdf|10448|dock5
  -GOLD-   2272014493D 1   1.00000     0.00000
 Structure written by MMmdl.
 44 47  0  0  0  0  0  0  0  0  2 V2000
  142.2754  145.7364  156.9457 C   0  0  0  0  0  0  0  0  0  0  0  0
  141.7694  145.5676  158.3017 N   0  0  0  0  0  0  0  0  0  0  0  0
  140.3345  145.6254  158.5587 C   0  0  0  0  0  0  0  0  0  0  0  0
  142.6509  145.1771  159.3322 C   0  0  0  0  0  0  0  0  0  0  0  0
  142.2170  144.8319  160.6341 C   0  0  0  0  0  0  0  0  0  0  0  0
  143.1638  144.4534  161.6049 C   0  0  0  0  0  0  0  0  0  0  0  0
  144.5313  144.4224  161.2688 C   0  0  0  0  0  0  0  0  0  0  0  0
  144.9337  144.7739  159.9560 C   0  0  0  0  0  0  0  0  0  0  0  0
  146.2759  144.7863  159.4828 N   0  0  0  0  0  0  0  0  0  0  0  0
  147.3757  144.2103  160.0014 C   0  0  0  0  0  0  0  0  0  0  0  0
  147.4132  143.5347  161.0290 O   0  0  0  0  0  0  0  0  0  0  0  0
  148.4540  144.4672  159.2473 N   0  0  0  0  0  0  0  0  0  0  0  0
  149.7793  144.0065  159.5097 C   0  0  2  0  0  0  0  0  0  0  0  0
  150.9091  144.9839  159.2586 C   0  0  1  0  0  0  0  0  0  0  0  0
  152.3708  144.8249  159.6707 C   0  0  1  0  0  0  0  0  0  0  0  0
  152.5631  143.6068  160.5977 C   0  0  0  0  0  0  0  0  0  0  0  0
  152.3395  142.4181  159.6366 C   0  0  0  0  0  0  0  0  0  0  0  0
  152.0508  143.1242  158.2957 C   0  0  2  0  0  0  0  0  0  0  0  0
  153.0073  144.3094  158.3840 C   0  0  0  0  0  0  0  0  0  0  0  0
  150.6890  143.8147  158.3136 C   0  0  1  0  0  0  0  0  0  0  0  0
  143.9791  145.1283  159.0647 N   0  3  0  0  0  0  0  0  0  0  0  0
  142.7417  144.8156  156.5934 H   0  0  0  0  0  0  0  0  0  0  0  0
  143.0131  146.5388  156.9076 H   0  0  0  0  0  0  0  0  0  0  0  0
  141.4737  145.9898  156.2517 H   0  0  0  0  0  0  0  0  0  0  0  0
  139.9541  144.6394  158.8275 H   0  0  0  0  0  0  0  0  0  0  0  0
  139.7878  145.9663  157.6792 H   0  0  0  0  0  0  0  0  0  0  0  0
  140.1163  146.3174  159.3726 H   0  0  0  0  0  0  0  0  0  0  0  0
  141.1719  144.8499  160.9045 H   0  0  0  0  0  0  0  0  0  0  0  0
  142.8429  144.1878  162.6016 H   0  0  0  0  0  0  0  0  0  0  0  0
  145.2338  144.1286  162.0320 H   0  0  0  0  0  0  0  0  0  0  0  0
  146.4224  145.3111  158.6332 H   0  0  0  0  0  0  0  0  0  0  0  0
  148.3324  145.0326  158.4198 H   0  0  0  0  0  0  0  0  0  0  0  0
  149.8887  143.3126  160.3396 H   0  0  0  0  0  0  0  0  0  0  0  0
  150.6523  145.9647  158.8615 H   0  0  0  0  0  0  0  0  0  0  0  0
  152.7952  145.7523  160.0560 H   0  0  0  0  0  0  0  0  0  0  0  0
  153.5769  143.5851  160.9999 H   0  0  0  0  0  0  0  0  0  0  0  0
  151.8752  143.6107  161.4437 H   0  0  0  0  0  0  0  0  0  0  0  0
  153.2432  141.8113  159.5658 H   0  0  0  0  0  0  0  0  0  0  0  0
  151.5278  141.7608  159.9493 H   0  0  0  0  0  0  0  0  0  0  0  0
  152.1822  142.4914  157.4175 H   0  0  0  0  0  0  0  0  0  0  0  0
  152.9121  145.0041  157.5473 H   0  0  0  0  0  0  0  0  0  0  0  0
  154.0551  144.0226  158.4948 H   0  0  0  0  0  0  0  0  0  0  0  0
  150.2961  144.0711  157.3311 H   0  0  0  0  0  0  0  0  0  0  0  0
  144.2750  145.3792  158.1217 H   0  0  0  0  0  0  0  0  0  0  0  0
  1  2  1  0  0  0  0
  1 22  1  0  0  0  0
  1 23  1  0  0  0  0
  1 24  1  0  0  0  0
  2  3  1  0  0  0  0
  2  4  1  0  0  0  0
  3 25  1  0  0  0  0
  3 26  1  0  0  0  0
  3 27  1  0  0  0  0
  4 21  1  0  0  0  0
  4  5  2  0  0  0  0
  5  6  1  0  0  0  0
  5 28  1  0  0  0  0
  6  7  2  0  0  0  0
  6 29  1  0  0  0  0
  7  8  1  0  0  0  0
  7 30  1  0  0  0  0
  8  9  1  0  0  0  0
  8 21  2  0  0  0  0
  9 10  1  0  0  0  0
  9 31  1  0  0  0  0
 10 11  2  0  0  0  0
 10 12  1  0  0  0  0
 12 13  1  0  0  0  0
 12 32  1  0  0  0  0
 13 20  1  0  0  0  0
 13 14  1  0  0  0  0
 13 33  1  0  0  0  0
 14 20  1  0  0  0  0
 14 15  1  0  0  0  0
 14 34  1  0  0  0  0
 15 19  1  0  0  0  0
 15 16  1  0  0  0  0
 15 35  1  0  0  0  0
 16 17  1  0  0  0  0
 16 36  1  0  0  0  0
 16 37  1  0  0  0  0
 17 18  1  0  0  0  0
 17 38  1  0  0  0  0
 17 39  1  0  0  0  0
 18 19  1  0  0  0  0
 18 20  1  0  0  0  0
 18 40  1  0  0  0  0
 19 41  1  0  0  0  0
 19 42  1  0  0  0  0
 20 43  1  0  0  0  0
 21 44  1  0  0  0  0
M  CHG  1  21   1
M  END
> <s_m_source_file>
AV-unprocessed.smi

> <i_m_source_file_index>
2706

> <i_lp_mmshare_version>
43012

> <i_f3d_flags>
0

> <s_epik_input>
W0NIM11OKFtDSDNdKWMxW2NIXVtjSF1bY0hdYyhuMSlbTkhdQyg9TylbTkhdW0NASF0yW0NAQEhdM1tDQEBIXShbQ0gyXTQpW0NIMl1bQ0gyXVtDQEBIXTRbQ0BIXTIz

> <s_epik_cmdline>
J2VwaWtfcHl0aG9uJywgJy1waCcsICc3LjAnLCAnLXRuJywgJzgnLCAnLW1hJywgJzIwMCcsICctbWV0YWxfYmluZGluZycsICctaW1hZScsICc8aW5maWxlLm1hZT4nLCAnLW9tYWUnLCAnPG91dGZpbGUubWFlPic=

> <r_lp_tautomer_probability>
0.999994

> <r_epik_Ionization_Penalty>
1.8105

> <r_epik_Ionization_Penalty_Charging>
1.79227

> <r_epik_Ionization_Penalty_Neutral>
0.0182286

> <r_epik_State_Penalty>
1.90588

> <r_epik_Charging_Adjusted_Penalty>
3.69815

> <i_epik_Tot_Q>
1

> <i_epik_Tot_abs_Q>
1

> <r_epik_Metal_State_Penalty>
1.93501

> <b_epik_Metal_Only>
0

> <s_lp_Force_Field>
OPLS_2005

> <r_lp_Energy>
87.3902

> <b_lp_Chiralities_Consistent>
1

> <s_lp_Variant>
AV-unprocessed.smi:2706-5

> <Gold.Version>
5.8.1

> <Gold.Id.Protein>
6NUR|6NUR_protein|mol2

> <Gold.PLP.Fitness>
44.4342

> <Gold.PLP.PLP>
-36.7238

> <Gold.PLP.part.hbond>
-3.0982

> <Gold.PLP.part.metal>
0.0000

> <Gold.PLP.part.buried>
-5.9569

> <Gold.PLP.part.nonpolar>
-28.6326

> <Gold.PLP.part.repulsive>
0.1998

> <Gold.PLP.ligand.clash>
0.0000

> <Gold.PLP.ligand.torsion>
0.4037

> <Gold.PLP.Chemscore.Hbond>
2.8212

> <Gold.PLP.Chemscore.CHOScore>
0.0000

> <Gold.PLP.Chemscore.Metal>
0.0000

> <Gold.Chemscore.Hbonds>
donor molecule, donor type, donor heavy atom, donor atom, acceptor molecule, acceptor atom, score
      L1  H     9    31       P1  8029  0.82
      L1  H    12    32       P1  8029  0.99
      P1  H  6933  6944       L1    11  1.00

> <Gold.PLP.Chemscore.Internal.Correction>
0.0543

> <Gold.Rescore>
     Score         DG    S(hbond)    S(metal)    S(lipo)     H(rot)  DE(clash)    DE(int)     intcor
     25.72     -26.31       3.28        0.00     106.29       1.00       0.04       0.56       ----

> <Gold.Chemscore.Fitness>
25.7165

> <Gold.Chemscore.DG>
-26.3133

> <Gold.Chemscore.ZeroCoef>
-5.4800

> <Gold.Chemscore.Hbond>
3.2807

> <Gold.Chemscore.Metal>
0.0000

> <Gold.Chemscore.Lipo>
106.2874

> <Gold.Chemscore.Internal_Hbond>
0.0000

> <Gold.Chemscore.DEClash>
0.0406

> <Gold.Chemscore.DEInternal>
0.5561

> <Gold.Chemscore.Rot>
1.0000

> <Gold.Chemscore.Internal.Correction>
   9.000000E+99

> <Gold.Chemscore.Hbonds>
donor molecule, donor type, donor heavy atom, donor atom, acceptor molecule, acceptor atom, score
      L1  H     9    31       P1  8029  0.78
      L1  H    12    32       P1  8029  0.91
      P1  H  6933  6944       L1    11  1.00

> <Gold.Chemscore.Hbond.Weighted>
-10.9576

> <Gold.Chemscore.Metal.Weighted>
-0.0000

> <Gold.Chemscore.Lipo.Weighted>
-12.4356

> <Gold.Chemscore.Internal_Hbond.Weighted>
0.0000

> <Gold.Chemscore.DEClash.Weighted>
0.0406

> <Gold.Chemscore.DEInternal.Weighted>
0.5561

> <Gold.Chemscore.Rot.Weighted>
2.5600

> <Gold.Chemscore.Internal.Correction.Weighted>
   9.000000E+99

> <Gold.Protein.RotatedTorsions>
[ 6907 6896 6895 6894 ] final   21.17 input  -60.11 | X-H torsion
[ 7974 7965 7964 7962 ] final   31.14 input  175.53 | X-H torsion
[ 8008 7997 7996 7995 ] final   53.31 input   59.86 | X-H torsion
[ 10167 10162 10161 10158 ] final  103.22 input  -65.29 | X-H torsion
[ 10718 10713 10712 10709 ] final -174.10 input   66.30 | X-H torsion
[ 10763 10752 10751 10750 ] final   60.35 input  -60.55 | X-H torsion
[ 11005 11000 10999 10996 ] final  -66.05 input  -57.11 | X-H torsion

> <Gold.Protein.ActiveResidues>
 VAL166  LYS551  ARG553  GLY616  TRP617  ASP618  TYR619  PRO620  LYS621  CYS622 
 ASP623  PHE694  ASN695  SER759  ASP760  ASP761  ALA762  ILE779  LEU786  VAL792 
 PHE793  MET794  SER795  GLU796  ALA797  LYS798  CYS799  TRP800  GLU811  SER814 

> <Gold.Protein.RotatedAtoms>
  151.9077  135.0352  160.0511 H   0  0  0  0  0  0  0  0  0  0  0  0  # atno 6907 bound_to 6896
  152.2305  133.5050  159.5221 H   0  0  0  0  0  0  0  0  0  0  0  0  # atno 6908 bound_to 6896
  150.7024  134.1139  159.4052 H   0  0  0  0  0  0  0  0  0  0  0  0  # atno 6909 bound_to 6896
  146.1569  139.6696  142.9060 H   0  0  0  0  0  0  0  0  0  0  0  0  # atno 7974 bound_to 7965
  155.4662  140.3463  155.4319 H   0  0  0  0  0  0  0  0  0  0  0  0  # atno 8008 bound_to 7997
  156.1129  140.1466  156.9342 H   0  0  0  0  0  0  0  0  0  0  0  0  # atno 8009 bound_to 7997
  154.4769  140.0882  156.7262 H   0  0  0  0  0  0  0  0  0  0  0  0  # atno 8010 bound_to 7997
  139.7281  144.7042  151.0765 H   0  0  0  0  0  0  0  0  0  0  0  0  # atno 10167 bound_to 10162
  156.7801  130.9480  151.3120 H   0  0  0  0  0  0  0  0  0  0  0  0  # atno 10718 bound_to 10713
  152.9919  135.5539  154.5860 H   0  0  0  0  0  0  0  0  0  0  0  0  # atno 10763 bound_to 10752
  154.5231  135.2809  155.1247 H   0  0  0  0  0  0  0  0  0  0  0  0  # atno 10764 bound_to 10752
  154.2593  135.6384  153.5321 H   0  0  0  0  0  0  0  0  0  0  0  0  # atno 10765 bound_to 10752
  141.1471  133.6692  156.6080 H   0  0  0  0  0  0  0  0  0  0  0  0  # atno 11005 bound_to 11000
  145.4687  141.0435  143.2711 LP  0  0  0  0  0  0  0  0  0  0  0  0  # atno 17320 bound_to 7965
  144.7975  139.6206  143.7086 LP  0  0  0  0  0  0  0  0  0  0  0  0  # atno 17321 bound_to 7965
  140.7766  143.5078  150.9690 LP  0  0  0  0  0  0  0  0  0  0  0  0  # atno 17342 bound_to 10162
  139.8766  143.7125  152.3161 LP  0  0  0  0  0  0  0  0  0  0  0  0  # atno 17343 bound_to 10162
  157.6650  130.9000  149.9912 LP  0  0  0  0  0  0  0  0  0  0  0  0  # atno 17370 bound_to 10713
  156.1223  130.3645  149.9867 LP  0  0  0  0  0  0  0  0  0  0  0  0  # atno 17371 bound_to 10713
  140.3637  134.7665  157.4551 LP  0  0  0  0  0  0  0  0  0  0  0  0  # atno 17394 bound_to 11000
  140.0765  134.5790  155.8586 LP  0  0  0  0  0  0  0  0  0  0  0  0  # atno 17395 bound_to 11000

$$$$
