AV-unprocessed.smi:2329|AV-procd|sdf|9302|dock4
  -GOLD-   2272012523D 1   1.00000     0.00000
 Structure written by MMmdl.
 45 48  0  0  0  0  0  0  0  0  1 V2000
  152.1540  131.7590  156.9272 C   0  0  0  0  0  0  0  0  0  0  0  0
  151.2617  132.0717  155.7447 C   0  0  0  0  0  0  0  0  0  0  0  0
  150.7671  131.0446  154.9170 C   0  0  0  0  0  0  0  0  0  0  0  0
  149.9436  131.4037  153.8348 C   0  0  0  0  0  0  0  0  0  0  0  0
  149.6509  132.7652  153.6265 C   0  0  0  0  0  0  0  0  0  0  0  0
  150.1886  133.7334  154.5038 C   0  0  0  0  0  0  0  0  0  0  0  0
  149.8284  135.0740  154.2105 N   0  0  0  0  0  0  0  0  0  0  0  0
  149.7343  136.1201  155.0541 C   0  0  0  0  0  0  0  0  0  0  0  0
  150.0515  136.0957  156.2418 O   0  0  0  0  0  0  0  0  0  0  0  0
  149.2548  137.2391  154.4839 N   0  0  0  0  0  0  0  0  0  0  0  0
  149.0302  138.5405  155.1151 C   0  0  2  0  0  0  0  0  0  0  0  0
  148.4726  139.5648  154.1262 C   0  0  1  0  0  0  0  0  0  0  0  0
  147.1660  140.2581  153.9725 C   0  0  0  0  0  0  0  0  0  0  0  0
  147.7095  141.6959  153.7595 C   0  0  0  0  0  0  0  0  0  0  0  0
  149.1220  141.6368  154.0734 O   0  0  0  0  0  0  0  0  0  0  0  0
  149.2228  140.5614  154.9846 C   0  0  2  0  0  0  0  0  0  0  0  0
  150.3020  139.4753  155.1640 C   0  0  0  0  0  0  0  0  0  0  0  0
  151.0933  139.5154  156.4771 C   0  0  0  0  0  0  0  0  0  0  0  0
  152.5326  139.0573  156.2093 C   0  0  0  0  0  0  0  0  0  0  0  0
  152.5715  138.6175  154.7493 C   0  0  0  0  0  0  0  0  0  0  0  0
  151.4009  139.3453  154.0951 C   0  0  0  0  0  0  0  0  0  0  0  0
  150.9817  133.3774  155.5447 N   0  0  0  0  0  0  0  0  0  0  0  0
  152.2541  130.6833  157.0743 H   0  0  0  0  0  0  0  0  0  0  0  0
  151.7409  132.1895  157.8399 H   0  0  0  0  0  0  0  0  0  0  0  0
  153.1489  132.1761  156.7698 H   0  0  0  0  0  0  0  0  0  0  0  0
  151.0102  130.0089  155.1036 H   0  0  0  0  0  0  0  0  0  0  0  0
  149.5425  130.6482  153.1757 H   0  0  0  0  0  0  0  0  0  0  0  0
  149.0183  133.0581  152.8011 H   0  0  0  0  0  0  0  0  0  0  0  0
  149.5585  135.2508  153.2543 H   0  0  0  0  0  0  0  0  0  0  0  0
  149.0323  137.1834  153.5004 H   0  0  0  0  0  0  0  0  0  0  0  0
  148.4620  138.4953  156.0489 H   0  0  0  0  0  0  0  0  0  0  0  0
  148.9315  139.4326  153.1417 H   0  0  0  0  0  0  0  0  0  0  0  0
  146.5916  139.8959  153.1195 H   0  0  0  0  0  0  0  0  0  0  0  0
  146.5555  140.1807  154.8733 H   0  0  0  0  0  0  0  0  0  0  0  0
  147.5788  142.0332  152.7309 H   0  0  0  0  0  0  0  0  0  0  0  0
  147.2023  142.4043  154.4156 H   0  0  0  0  0  0  0  0  0  0  0  0
  148.7208  140.8038  155.9284 H   0  0  0  0  0  0  0  0  0  0  0  0
  151.1045  140.5245  156.8908 H   0  0  0  0  0  0  0  0  0  0  0  0
  150.6304  138.8846  157.2354 H   0  0  0  0  0  0  0  0  0  0  0  0
  153.2174  139.8915  156.3639 H   0  0  0  0  0  0  0  0  0  0  0  0
  152.8388  138.2534  156.8793 H   0  0  0  0  0  0  0  0  0  0  0  0
  153.5248  138.8389  154.2689 H   0  0  0  0  0  0  0  0  0  0  0  0
  152.4147  137.5402  154.6881 H   0  0  0  0  0  0  0  0  0  0  0  0
  151.0796  138.8195  153.1963 H   0  0  0  0  0  0  0  0  0  0  0  0
  151.7250  140.3373  153.7776 H   0  0  0  0  0  0  0  0  0  0  0  0
  1  2  1  0  0  0  0
  1 23  1  0  0  0  0
  1 24  1  0  0  0  0
  1 25  1  0  0  0  0
  2 22  1  0  0  0  0
  2  3  2  0  0  0  0
  3  4  1  0  0  0  0
  3 26  1  0  0  0  0
  4  5  2  0  0  0  0
  4 27  1  0  0  0  0
  5  6  1  0  0  0  0
  5 28  1  0  0  0  0
  6  7  1  0  0  0  0
  6 22  2  0  0  0  0
  7  8  1  0  0  0  0
  7 29  1  0  0  0  0
  8  9  2  0  0  0  0
  8 10  1  0  0  0  0
 10 11  1  0  0  0  0
 10 30  1  0  0  0  0
 11 17  1  0  0  0  0
 11 12  1  0  0  0  0
 11 31  1  0  0  0  0
 12 16  1  0  0  0  0
 12 13  1  0  0  0  0
 12 32  1  0  0  0  0
 13 14  1  0  0  0  0
 13 33  1  0  0  0  0
 13 34  1  0  0  0  0
 14 15  1  0  0  0  0
 14 35  1  0  0  0  0
 14 36  1  0  0  0  0
 15 16  1  0  0  0  0
 16 17  1  0  0  0  0
 16 37  1  0  0  0  0
 17 21  1  0  0  0  0
 17 18  1  0  0  0  0
 18 19  1  0  0  0  0
 18 38  1  0  0  0  0
 18 39  1  0  0  0  0
 19 20  1  0  0  0  0
 19 40  1  0  0  0  0
 19 41  1  0  0  0  0
 20 21  1  0  0  0  0
 20 42  1  0  0  0  0
 20 43  1  0  0  0  0
 21 44  1  0  0  0  0
 21 45  1  0  0  0  0
M  END
> <s_m_source_file>
AV-unprocessed.smi

> <i_m_source_file_index>
2329

> <i_lp_mmshare_version>
43012

> <i_f3d_flags>
0

> <s_epik_input>
W0NIM11jMVtjSF1bY0hdW2NIXWMobjEpW05IXUMoPU8pW05IXVtDQEBIXTJbQ0BASF0oW0NIMl1bQ0gyXU8zKVtDQEhdM0MyNFtDSDJdW0NIMl1bQ0gyXVtDSDJdNA==

> <s_epik_cmdline>
J2VwaWtfcHl0aG9uJywgJy1waCcsICc3LjAnLCAnLXRuJywgJzgnLCAnLW1hJywgJzIwMCcsICctbWV0YWxfYmluZGluZycsICctaW1hZScsICc8aW5maWxlLm1hZT4nLCAnLW9tYWUnLCAnPG91dGZpbGUubWFlPic=

> <r_lp_tautomer_probability>
1

> <r_epik_Ionization_Penalty>
8.97002e-05

> <r_epik_Ionization_Penalty_Charging>
0

> <r_epik_Ionization_Penalty_Neutral>
8.97002e-05

> <r_epik_State_Penalty>
-0

> <r_epik_Charging_Adjusted_Penalty>
0

> <i_epik_Tot_Q>
0

> <i_epik_Tot_abs_Q>
0

> <r_epik_Metal_State_Penalty>
-0

> <b_epik_Metal_Only>
0

> <s_lp_Force_Field>
OPLS_2005

> <r_lp_Energy>
86.3971

> <b_lp_Chiralities_Consistent>
1

> <s_lp_Variant>
AV-unprocessed.smi:2329-1

> <Gold.Version>
5.8.1

> <Gold.Id.Protein>
6NUR|6NUR_protein|mol2

> <Gold.PLP.Fitness>
42.2017

> <Gold.PLP.PLP>
-34.9641

> <Gold.PLP.part.hbond>
-3.5827

> <Gold.PLP.part.metal>
0.0000

> <Gold.PLP.part.buried>
-1.9524

> <Gold.PLP.part.nonpolar>
-28.9252

> <Gold.PLP.part.repulsive>
0.2472

> <Gold.PLP.ligand.clash>
0.0000

> <Gold.PLP.ligand.torsion>
0.3287

> <Gold.PLP.Chemscore.Hbond>
2.5384

> <Gold.PLP.Chemscore.CHOScore>
0.0000

> <Gold.PLP.Chemscore.Metal>
0.0000

> <Gold.Chemscore.Hbonds>
donor molecule, donor type, donor heavy atom, donor atom, acceptor molecule, acceptor atom, score
      L1  H     7    29       P1  7948  0.45
      L1  H    10    30       P1  7948  1.00
      P1  H  8011  8017       L1    15  0.52

> <Gold.PLP.Chemscore.Internal.Correction>
0.2797

> <Gold.Rescore>
     Score         DG    S(hbond)    S(metal)    S(lipo)     H(rot)  DE(clash)    DE(int)     intcor
     15.18     -17.09       1.40        0.00      81.27       1.00       0.38       1.53       ----

> <Gold.Chemscore.Fitness>
15.1828

> <Gold.Chemscore.DG>
-17.0939

> <Gold.Chemscore.ZeroCoef>
-5.4800

> <Gold.Chemscore.Hbond>
1.3969

> <Gold.Chemscore.Metal>
0.0000

> <Gold.Chemscore.Lipo>
81.2681

> <Gold.Chemscore.Internal_Hbond>
0.0000

> <Gold.Chemscore.DEClash>
0.3830

> <Gold.Chemscore.DEInternal>
1.5281

> <Gold.Chemscore.Rot>
1.0000

> <Gold.Chemscore.Internal.Correction>
   9.000000E+99

> <Gold.Chemscore.Hbonds>
donor molecule, donor type, donor heavy atom, donor atom, acceptor molecule, acceptor atom, score
      L1  H     7    29       P1  7948  0.02
      L1  H    10    30       P1  7948  0.95
      P1  H  8011  8017       L1    15  0.08

> <Gold.Chemscore.Hbond.Weighted>
-4.6655

> <Gold.Chemscore.Metal.Weighted>
-0.0000

> <Gold.Chemscore.Lipo.Weighted>
-9.5084

> <Gold.Chemscore.Internal_Hbond.Weighted>
0.0000

> <Gold.Chemscore.DEClash.Weighted>
0.3830

> <Gold.Chemscore.DEInternal.Weighted>
1.5281

> <Gold.Chemscore.Rot.Weighted>
2.5600

> <Gold.Chemscore.Internal.Correction.Weighted>
   9.000000E+99

> <Gold.Protein.RotatedTorsions>
[ 6907 6896 6895 6894 ] final -152.26 input  -60.11 | X-H torsion
[ 7974 7965 7964 7962 ] final   12.19 input  175.53 | X-H torsion
[ 8008 7997 7996 7995 ] final   91.13 input   59.86 | X-H torsion
[ 10167 10162 10161 10158 ] final   46.21 input  -65.29 | X-H torsion
[ 10718 10713 10712 10709 ] final   63.40 input   66.30 | X-H torsion
[ 10763 10752 10751 10750 ] final   62.08 input  -60.55 | X-H torsion
[ 11005 11000 10999 10996 ] final   66.08 input  -57.11 | X-H torsion

> <Gold.Protein.ActiveResidues>
 VAL166  LYS551  ARG553  GLY616  TRP617  ASP618  TYR619  PRO620  LYS621  CYS622 
 ASP623  PHE694  ASN695  SER759  ASP760  ASP761  ALA762  ILE779  LEU786  VAL792 
 PHE793  MET794  SER795  GLU796  ALA797  LYS798  CYS799  TRP800  GLU811  SER814 

> <Gold.Protein.RotatedAtoms>
  151.2252  133.4480  159.2601 H   0  0  0  0  0  0  0  0  0  0  0  0  # atno 6907 bound_to 6896
  151.0846  134.9879  159.8383 H   0  0  0  0  0  0  0  0  0  0  0  0  # atno 6908 bound_to 6896
  152.5428  134.2190  159.8833 H   0  0  0  0  0  0  0  0  0  0  0  0  # atno 6909 bound_to 6896
  146.2356  139.9373  142.8488 H   0  0  0  0  0  0  0  0  0  0  0  0  # atno 7974 bound_to 7965
  156.0201  140.3341  155.7030 H   0  0  0  0  0  0  0  0  0  0  0  0  # atno 8008 bound_to 7997
  155.6035  140.0658  157.2744 H   0  0  0  0  0  0  0  0  0  0  0  0  # atno 8009 bound_to 7997
  154.4313  140.1806  156.1185 H   0  0  0  0  0  0  0  0  0  0  0  0  # atno 8010 bound_to 7997
  140.3162  144.2761  150.6191 H   0  0  0  0  0  0  0  0  0  0  0  0  # atno 10167 bound_to 10162
  157.5968  130.9103  149.9711 H   0  0  0  0  0  0  0  0  0  0  0  0  # atno 10718 bound_to 10713
  152.9971  135.5477  154.6137 H   0  0  0  0  0  0  0  0  0  0  0  0  # atno 10763 bound_to 10752
  154.5452  135.2822  155.1062 H   0  0  0  0  0  0  0  0  0  0  0  0  # atno 10764 bound_to 10752
  154.2323  135.6431  153.5232 H   0  0  0  0  0  0  0  0  0  0  0  0  # atno 10765 bound_to 10752
  139.9854  134.6676  156.0186 H   0  0  0  0  0  0  0  0  0  0  0  0  # atno 11005 bound_to 11000
  145.1986  140.9844  143.4169 LP  0  0  0  0  0  0  0  0  0  0  0  0  # atno 17320 bound_to 7965
  144.9793  139.3799  143.6270 LP  0  0  0  0  0  0  0  0  0  0  0  0  # atno 17321 bound_to 7965
  140.5524  143.2204  151.7904 LP  0  0  0  0  0  0  0  0  0  0  0  0  # atno 17342 bound_to 10162
  139.4883  144.4458  151.9711 LP  0  0  0  0  0  0  0  0  0  0  0  0  # atno 17343 bound_to 10162
  156.1033  130.3654  150.0179 LP  0  0  0  0  0  0  0  0  0  0  0  0  # atno 17370 bound_to 10713
  156.8291  130.9386  151.3638 LP  0  0  0  0  0  0  0  0  0  0  0  0  # atno 17371 bound_to 10713
  141.1520  133.6547  156.4042 LP  0  0  0  0  0  0  0  0  0  0  0  0  # atno 17394 bound_to 11000
  140.5013  134.6483  157.5249 LP  0  0  0  0  0  0  0  0  0  0  0  0  # atno 17395 bound_to 11000

$$$$
