#       Name:                AV-unprocessed.smi:2706
#       Creating user name   scv26
#       Creation time:       Fri Mar 27 14:49:16 2020


#       File generated by GOLD software.
#

@<TRIPOS>MOLECULE
AV-unprocessed.smi:2706
    47    50     1
SMALL
NO_CHARGES


@<TRIPOS>ATOM
      1 ****        -4.3381  -1.1702  -3.6268 C.3            1 S1                 0.0000
      2 ****        -3.7247   0.0733  -3.1871 N.3            1 S1                 0.0000
      3 ****        -4.3085   1.2946  -3.7206 C.3            1 S1                 0.0000
      4 ****        -2.3289   0.0499  -3.2888 C.ar           1 S1                 0.0000
      5 ****        -1.6420   0.0227  -4.5224 C.ar           1 S1                 0.0000
      6 ****        -0.2337   0.0069  -4.5215 C.ar           1 S1                 0.0000
      7 ****         0.4585   0.0120  -3.2933 C.ar           1 S1                 0.0000
      8 ****        -0.2722   0.0233  -2.0781 C.ar           1 S1                 0.0000
      9 ****         0.3167   0.0429  -0.7849 N.am           1 S1                 0.0000
     10 ****         1.5530  -0.3420  -0.4217 C.2            1 S1                 0.0000
     11 ****         2.4084  -0.7953  -1.1817 O.2            1 S1                 0.0000
     12 ****         1.7397  -0.1854   0.8958 N.am           1 S1                 0.0000
     13 ****         2.9332  -0.4990   1.6131 C.3            1 S1                 0.0000
     14 ****         2.8840  -1.1286   2.9936 C.3            1 S1                 0.0000
     15 ****         1.8487  -1.0138   4.1182 C.3            1 S1                 0.0000
     16 ****         0.5555  -0.2950   3.6847 C.3            1 S1                 0.0000
     17 ****         1.0310   1.1640   3.5120 C.3            1 S1                 0.0000
     18 ****         2.5284   1.0682   3.8688 C.3            1 S1                 0.0000
     19 ****         2.4762   0.0549   5.0064 C.3            1 S1                 0.0000
     20 ****         3.3568   0.3133   2.8227 C.3            1 S1                 0.0000
     21 ****        -1.6236   0.0521  -2.1366 N.pl3          1 S1                 1.0000
     22 ****        -3.8352  -2.0310  -3.1841 H              1 S1                 0.0000
     23 ****        -4.2949  -1.2655  -4.7126 H              1 S1                 0.0000
     24 ****        -5.3847  -1.2007  -3.3232 H              1 S1                 0.0000
     25 ****        -3.7964   2.1740  -3.3278 H              1 S1                 0.0000
     26 ****        -5.3589   1.3638  -3.4371 H              1 S1                 0.0000
     27 ****        -4.2476   1.3162  -4.8093 H              1 S1                 0.0000
     28 ****        -2.1842   0.0186  -5.4569 H              1 S1                 0.0000
     29 ****         0.3114  -0.0044  -5.4539 H              1 S1                 0.0000
     30 ****         1.5376   0.0181  -3.3107 H              1 S1                 0.0000
     31 ****        -0.2957   0.3264  -0.0343 H              1 S1                 0.0000
     32 ****         0.9786   0.1898   1.4430 H              1 S1                 0.0000
     33 ****         3.7632  -0.8408   0.9963 H              1 S1                 0.0000
     34 ****         3.6631  -1.8597   3.2020 H              1 S1                 0.0000
     35 ****         1.6777  -1.9697   4.6139 H              1 S1                 0.0000
     36 ****         0.1049  -0.7261   2.7918 H              1 S1                 0.0000
     37 ****        -0.1930  -0.3529   4.4762 H              1 S1                 0.0000
     38 ****         0.8510   1.5779   2.5210 H              1 S1                 0.0000
     39 ****         0.5146   1.8108   4.2226 H              1 S1                 0.0000
     40 ****         2.9811   2.0238   4.1346 H              1 S1                 0.0000
     41 ****         1.8458   0.3615   5.8435 H              1 S1                 0.0000
     42 ****         3.4624  -0.2214   5.3844 H              1 S1                 0.0000
     43 ****         4.4285   0.4730   2.9280 H              1 S1                 0.0000
     44 ****        -2.1474   0.0710  -1.2614 H              1 S1                 0.0000
     45 ****        -3.9533   0.1155  -2.2144 LP             1 S1                 0.0000
     46 ****         2.2065  -0.9015  -2.1553 LP             1 S1                 0.0000
     47 ****         3.3053  -1.0574  -0.8255 LP             1 S1                 0.0000
@<TRIPOS>BOND
    1    1    2 1     
    2    1   22 1     
    3    1   23 1     
    4    1   24 1     
    5    2    3 1     
    6    2    4 1     
    7    3   25 1     
    8    3   26 1     
    9    3   27 1     
   10    4   21 ar    
   11    4    5 ar    
   12    5    6 ar    
   13    5   28 1     
   14    6    7 ar    
   15    6   29 1     
   16    7    8 ar    
   17    7   30 1     
   18    8    9 1     
   19    8   21 ar    
   20    9   10 am    
   21    9   31 1     
   22   10   11 2     
   23   10   12 am    
   24   12   13 1     
   25   12   32 1     
   26   13   20 1     
   27   13   14 1     
   28   13   33 1     
   29   14   20 1     
   30   14   15 1     
   31   14   34 1     
   32   15   19 1     
   33   15   16 1     
   34   15   35 1     
   35   16   17 1     
   36   16   36 1     
   37   16   37 1     
   38   17   18 1     
   39   17   38 1     
   40   17   39 1     
   41   18   19 1     
   42   18   20 1     
   43   18   40 1     
   44   19   41 1     
   45   19   42 1     
   46   20   43 1     
   47   21   44 1     
   48    2   45 1     
   49   11   46 1     
   50   11   47 1     
@<TRIPOS>SUBSTRUCTURE
      1 S1             1
@<TRIPOS>SET
LONE_PAIRS      STATIC     ATOMS    <user>   **** ""
3 45 46 47
DONOR_HYDROGENS      STATIC     ATOMS    <user>   **** ""
3 31 32 44
ATOM$BLUE        STATIC     ATOMS    COLORGROUP SYSTEM
3 45 46 47
ATOM$RED        STATIC     ATOMS    COLORGROUP SYSTEM
3 31 32 44
