AV-unprocessed.smi:1600|AV-procd|sdf|6429|dock6
  -GOLD-   22720 7 73D 1   1.00000     0.00000
 Structure written by MMmdl.
 46 47  0  0  0  0  0  0  0  0  2 V2000
  153.5086  141.0252  160.4556 C   0  0  0  0  0  0  0  0  0  0  0  0
  152.5631  141.7946  159.5810 C   0  0  0  0  0  0  0  0  0  0  0  0
  151.7579  141.3019  158.5131 C   0  0  0  0  0  0  0  0  0  0  0  0
  151.1085  142.4265  158.0821 C   0  0  0  0  0  0  0  0  0  0  0  0
  150.2071  142.5593  157.0726 N   0  0  0  0  0  0  0  0  0  0  0  0
  150.1026  141.8412  155.9407 C   0  0  0  0  0  0  0  0  0  0  0  0
  150.8401  140.9117  155.6123 O   0  0  0  0  0  0  0  0  0  0  0  0
  149.0748  142.2642  155.1906 N   0  0  0  0  0  0  0  0  0  0  0  0
  148.6754  141.6801  153.9142 C   0  0  0  0  0  0  0  0  0  0  0  0
  147.4074  140.8134  154.0395 C   0  0  2  0  0  0  0  0  0  0  0  0
  147.4830  139.7121  155.0959 C   0  0  0  0  0  0  0  0  0  0  0  0
  146.4885  138.6447  154.6184 C   0  0  0  0  0  0  0  0  0  0  0  0
  146.1276  138.9767  153.2164 N   0  3  2  0  0  0  0  0  0  0  0  0
  145.9914  137.8078  152.3018 C   0  0  0  0  0  0  0  0  0  0  0  0
  146.2716  138.1931  150.8364 C   0  0  0  0  0  0  0  0  0  0  0  0
  144.5883  137.1804  152.4088 C   0  0  0  0  0  0  0  0  0  0  0  0
  147.0691  140.0284  152.7746 C   0  0  0  0  0  0  0  0  0  0  0  0
  151.5142  143.4962  158.8491 N   0  0  0  0  0  0  0  0  0  0  0  0
  151.1151  144.8882  158.7757 C   0  0  0  0  0  0  0  0  0  0  0  0
  152.4147  143.1004  159.7746 N   0  0  0  0  0  0  0  0  0  0  0  0
  153.5041  139.9646  160.2035 H   0  0  0  0  0  0  0  0  0  0  0  0
  153.2346  141.1171  161.5069 H   0  0  0  0  0  0  0  0  0  0  0  0
  154.5307  141.3882  160.3432 H   0  0  0  0  0  0  0  0  0  0  0  0
  151.6861  140.2905  158.1429 H   0  0  0  0  0  0  0  0  0  0  0  0
  149.5185  143.2850  157.2056 H   0  0  0  0  0  0  0  0  0  0  0  0
  148.5187  143.0336  155.5345 H   0  0  0  0  0  0  0  0  0  0  0  0
  148.5199  142.4721  153.1797 H   0  0  0  0  0  0  0  0  0  0  0  0
  149.5064  141.0787  153.5445 H   0  0  0  0  0  0  0  0  0  0  0  0
  146.5541  141.4529  154.2728 H   0  0  0  0  0  0  0  0  0  0  0  0
  148.4874  139.2867  155.1226 H   0  0  0  0  0  0  0  0  0  0  0  0
  147.2533  140.0789  156.0970 H   0  0  0  0  0  0  0  0  0  0  0  0
  146.9441  137.6566  154.6992 H   0  0  0  0  0  0  0  0  0  0  0  0
  145.5843  138.6447  155.2278 H   0  0  0  0  0  0  0  0  0  0  0  0
  146.7263  137.0577  152.5989 H   0  0  0  0  0  0  0  0  0  0  0  0
  146.1210  137.3402  150.1737 H   0  0  0  0  0  0  0  0  0  0  0  0
  147.2992  138.5259  150.6893 H   0  0  0  0  0  0  0  0  0  0  0  0
  145.6083  138.9915  150.5016 H   0  0  0  0  0  0  0  0  0  0  0  0
  144.4853  136.3366  151.7258 H   0  0  0  0  0  0  0  0  0  0  0  0
  143.8113  137.9034  152.1575 H   0  0  0  0  0  0  0  0  0  0  0  0
  144.3803  136.8033  153.4099 H   0  0  0  0  0  0  0  0  0  0  0  0
  146.6332  140.6654  152.0043 H   0  0  0  0  0  0  0  0  0  0  0  0
  147.9702  139.5665  152.3666 H   0  0  0  0  0  0  0  0  0  0  0  0
  150.0278  144.9577  158.7328 H   0  0  0  0  0  0  0  0  0  0  0  0
  151.5390  145.3431  157.8800 H   0  0  0  0  0  0  0  0  0  0  0  0
  151.4665  145.4346  159.6524 H   0  0  0  0  0  0  0  0  0  0  0  0
  145.2225  139.4230  153.2617 H   0  0  0  0  0  0  0  0  0  0  0  0
  1  2  1  0  0  0  0
  1 21  1  0  0  0  0
  1 22  1  0  0  0  0
  1 23  1  0  0  0  0
  2 20  2  0  0  0  0
  2  3  1  0  0  0  0
  3  4  2  0  0  0  0
  3 24  1  0  0  0  0
  4  5  1  0  0  0  0
  4 18  1  0  0  0  0
  5  6  1  0  0  0  0
  5 25  1  0  0  0  0
  6  7  2  0  0  0  0
  6  8  1  0  0  0  0
  8  9  1  0  0  0  0
  8 26  1  0  0  0  0
  9 10  1  0  0  0  0
  9 27  1  0  0  0  0
  9 28  1  0  0  0  0
 10 17  1  0  0  0  0
 10 11  1  0  0  0  0
 10 29  1  0  0  0  0
 11 12  1  0  0  0  0
 11 30  1  0  0  0  0
 11 31  1  0  0  0  0
 12 13  1  0  0  0  0
 12 32  1  0  0  0  0
 12 33  1  0  0  0  0
 13 14  1  0  0  0  0
 13 17  1  0  0  0  0
 13 46  1  0  0  0  0
 14 15  1  0  0  0  0
 14 16  1  0  0  0  0
 14 34  1  0  0  0  0
 15 35  1  0  0  0  0
 15 36  1  0  0  0  0
 15 37  1  0  0  0  0
 16 38  1  0  0  0  0
 16 39  1  0  0  0  0
 16 40  1  0  0  0  0
 17 41  1  0  0  0  0
 17 42  1  0  0  0  0
 18 19  1  0  0  0  0
 18 20  1  0  0  0  0
 19 43  1  0  0  0  0
 19 44  1  0  0  0  0
 19 45  1  0  0  0  0
M  CHG  1  13   1
M  END
> <s_m_source_file>
AV-unprocessed.smi

> <i_m_source_file_index>
1600

> <i_lp_mmshare_version>
43012

> <i_f3d_flags>
0

> <s_epik_input>
W0NIM11jMVtjSF1jKG4objEpW0NIM10pW05IXUMoPU8pW05IXVtDSDJdW0NAQEhdMltDSDJdW0NIMl1OKFtDSDJdMilbQ0hdKFtDSDNdKVtDSDNd

> <s_epik_cmdline>
J2VwaWtfcHl0aG9uJywgJy1waCcsICc3LjAnLCAnLXRuJywgJzgnLCAnLW1hJywgJzIwMCcsICctbWV0YWxfYmluZGluZycsICctaW1hZScsICc8aW5maWxlLm1hZT4nLCAnLW9tYWUnLCAnPG91dGZpbGUubWFlPic=

> <r_lp_tautomer_probability>
1

> <r_epik_Ionization_Penalty>
0.000297652

> <r_epik_Ionization_Penalty_Charging>
0.000213653

> <r_epik_Ionization_Penalty_Neutral>
8.3999e-05

> <r_epik_State_Penalty>
-0

> <r_epik_Charging_Adjusted_Penalty>
0.000213653

> <i_epik_Tot_Q>
1

> <i_epik_Tot_abs_Q>
1

> <r_epik_Metal_State_Penalty>
-0

> <b_epik_Metal_Only>
0

> <s_lp_Force_Field>
OPLS_2005

> <r_lp_Energy>
32.0246

> <b_lp_Chiralities_Consistent>
1

> <s_lp_Variant>
AV-unprocessed.smi:1600-3

> <Gold.Version>
5.8.1

> <Gold.Id.Protein>
6NUR|6NUR_protein|mol2

> <Gold.PLP.Fitness>
47.1931

> <Gold.PLP.PLP>
-36.1800

> <Gold.PLP.part.hbond>
-4.0000

> <Gold.PLP.part.metal>
0.0000

> <Gold.PLP.part.buried>
2.7780

> <Gold.PLP.part.nonpolar>
-34.4944

> <Gold.PLP.part.repulsive>
0.3057

> <Gold.PLP.ligand.clash>
0.0000

> <Gold.PLP.ligand.torsion>
0.9708

> <Gold.PLP.Chemscore.Hbond>
4.3081

> <Gold.PLP.Chemscore.CHOScore>
0.0000

> <Gold.PLP.Chemscore.Metal>
0.0000

> <Gold.Chemscore.Hbonds>
donor molecule, donor type, donor heavy atom, donor atom, acceptor molecule, acceptor atom, score
      L1  H     5    25       P1  8028  0.31
      L1  H     8    26       P1  8028  0.62
      L1  H    13    46       P1 10175  2.00
      P1  H  7989  7998       L1     7  0.34

> <Gold.PLP.Chemscore.Internal.Correction>
0.0303

> <Gold.Rescore>
     Score         DG    S(hbond)    S(metal)    S(lipo)     H(rot)  DE(clash)    DE(int)     intcor
     16.43     -21.96       2.85        0.00      91.00       1.44       3.87       1.66       ----

> <Gold.Chemscore.Fitness>
16.4276

> <Gold.Chemscore.DG>
-21.9576

> <Gold.Chemscore.ZeroCoef>
-5.4800

> <Gold.Chemscore.Hbond>
2.8469

> <Gold.Chemscore.Metal>
0.0000

> <Gold.Chemscore.Lipo>
91.0027

> <Gold.Chemscore.Internal_Hbond>
0.0000

> <Gold.Chemscore.DEClash>
3.8726

> <Gold.Chemscore.DEInternal>
1.6574

> <Gold.Chemscore.Rot>
1.4369

> <Gold.Chemscore.Internal.Correction>
   9.000000E+99

> <Gold.Chemscore.Hbonds>
donor molecule, donor type, donor heavy atom, donor atom, acceptor molecule, acceptor atom, score
      L1  H     5    25       P1  8028  0.28
      L1  H     8    26       P1  8028  0.62
      L1  H    13    46       P1 10175  0.91
      P1  H  7989  7998       L1     7  0.32

> <Gold.Chemscore.Hbond.Weighted>
-9.5088

> <Gold.Chemscore.Metal.Weighted>
-0.0000

> <Gold.Chemscore.Lipo.Weighted>
-10.6473

> <Gold.Chemscore.Internal_Hbond.Weighted>
0.0000

> <Gold.Chemscore.DEClash.Weighted>
3.8726

> <Gold.Chemscore.DEInternal.Weighted>
1.6574

> <Gold.Chemscore.Rot.Weighted>
3.6785

> <Gold.Chemscore.Internal.Correction.Weighted>
   9.000000E+99

> <Gold.Protein.RotatedTorsions>
[ 6907 6896 6895 6894 ] final    2.24 input  -60.11 | X-H torsion
[ 7974 7965 7964 7962 ] final   58.01 input  175.53 | X-H torsion
[ 8008 7997 7996 7995 ] final   96.63 input   59.86 | X-H torsion
[ 10167 10162 10161 10158 ] final  -83.45 input  -65.29 | X-H torsion
[ 10718 10713 10712 10709 ] final -128.82 input   66.30 | X-H torsion
[ 10763 10752 10751 10750 ] final  -61.73 input  -60.55 | X-H torsion
[ 11005 11000 10999 10996 ] final -179.62 input  -57.11 | X-H torsion

> <Gold.Protein.ActiveResidues>
 VAL166  LYS551  ARG553  GLY616  TRP617  ASP618  TYR619  PRO620  LYS621  CYS622 
 ASP623  PHE694  ASN695  SER759  ASP760  ASP761  ALA762  ILE779  LEU786  VAL792 
 PHE793  MET794  SER795  GLU796  ALA797  LYS798  CYS799  TRP800  GLU811  SER814 

> <Gold.Protein.RotatedAtoms>
  151.6057  135.1044  160.0069 H   0  0  0  0  0  0  0  0  0  0  0  0  # atno 6907 bound_to 6896
  152.4235  133.7151  159.6512 H   0  0  0  0  0  0  0  0  0  0  0  0  # atno 6908 bound_to 6896
  150.8123  133.8327  159.3198 H   0  0  0  0  0  0  0  0  0  0  0  0  # atno 6909 bound_to 6896
  145.9228  139.3743  143.0468 H   0  0  0  0  0  0  0  0  0  0  0  0  # atno 7974 bound_to 7965
  156.0816  140.3270  155.7701 H   0  0  0  0  0  0  0  0  0  0  0  0  # atno 8008 bound_to 7997
  155.5143  140.0579  157.2935 H   0  0  0  0  0  0  0  0  0  0  0  0  # atno 8009 bound_to 7997
  154.4585  140.1955  156.0327 H   0  0  0  0  0  0  0  0  0  0  0  0  # atno 8010 bound_to 7997
  140.4226  143.2579  151.8870 H   0  0  0  0  0  0  0  0  0  0  0  0  # atno 10167 bound_to 10162
  156.1987  130.6843  151.0513 H   0  0  0  0  0  0  0  0  0  0  0  0  # atno 10718 bound_to 10713
  154.2891  135.6257  153.5378 H   0  0  0  0  0  0  0  0  0  0  0  0  # atno 10763 bound_to 10752
  152.9855  135.5651  154.5410 H   0  0  0  0  0  0  0  0  0  0  0  0  # atno 10764 bound_to 10752
  154.5017  135.2872  155.1391 H   0  0  0  0  0  0  0  0  0  0  0  0  # atno 10765 bound_to 10752
  140.4166  134.6644  157.4642 H   0  0  0  0  0  0  0  0  0  0  0  0  # atno 11005 bound_to 11000
  145.8527  140.9519  143.0741 LP  0  0  0  0  0  0  0  0  0  0  0  0  # atno 17320 bound_to 7965
  144.6755  140.0428  143.7480 LP  0  0  0  0  0  0  0  0  0  0  0  0  # atno 17321 bound_to 7965
  139.4783  144.5421  151.8512 LP  0  0  0  0  0  0  0  0  0  0  0  0  # atno 17342 bound_to 10162
  140.4517  144.1846  150.5898 LP  0  0  0  0  0  0  0  0  0  0  0  0  # atno 17343 bound_to 10162
  157.6973  131.0789  150.6930 LP  0  0  0  0  0  0  0  0  0  0  0  0  # atno 17370 bound_to 10713
  156.6987  130.4617  149.5579 LP  0  0  0  0  0  0  0  0  0  0  0  0  # atno 17371 bound_to 10713
  140.0230  134.6519  155.9213 LP  0  0  0  0  0  0  0  0  0  0  0  0  # atno 17394 bound_to 11000
  141.1801  133.6545  156.4983 LP  0  0  0  0  0  0  0  0  0  0  0  0  # atno 17395 bound_to 11000

$$$$
