AV-unprocessed.smi:2405|AV-procd|sdf|9513|dock7
  -GOLD-   2272013143D 1   1.00000     0.00000
 Structure written by MMmdl.
 36 37  0  0  0  0  0  0  0  0  2 V2000
  153.1371  142.5829  162.0834 C   0  0  0  0  0  0  0  0  0  0  0  0
  152.4114  143.8529  161.6267 C   0  0  0  0  0  0  0  0  0  0  0  0
  151.8141  143.7145  160.2664 C   0  0  0  0  0  0  0  0  0  0  0  0
  150.9650  142.7400  159.9305 N   0  0  0  0  0  0  0  0  0  0  0  0
  150.5639  142.8104  158.5920 C   0  0  0  0  0  0  0  0  0  0  0  0
  149.5971  141.8023  158.0436 C   0  0  0  0  0  0  0  0  0  0  0  0
  150.2021  141.1043  156.8253 C   0  0  0  0  0  0  0  0  0  0  0  0
  150.6997  141.7704  155.9172 O   0  0  0  0  0  0  0  0  0  0  0  0
  150.1533  139.7637  156.8198 N   0  0  0  0  0  0  0  0  0  0  0  0
  150.6733  138.9050  155.7597 C   0  0  1  0  0  0  0  0  0  0  0  0
  152.0626  139.3728  155.2763 C   0  0  0  0  0  0  0  0  0  0  0  0
  152.9952  138.1645  155.4246 C   0  0  0  0  0  0  0  0  0  0  0  0
  152.3727  137.3020  156.5356 C   0  0  1  0  0  0  0  0  0  0  0  0
  152.7484  137.7619  157.9611 C   0  0  0  0  0  0  0  0  0  0  0  0
  152.3082  137.0712  158.9064 O   0  0  0  0  0  0  0  0  0  0  0  0
  153.4667  138.7772  158.0981 O   0  5  0  0  0  0  0  0  0  0  0  0
  150.8653  137.4683  156.2810 C   0  0  0  0  0  0  0  0  0  0  0  0
  151.1461  143.8498  157.9088 C   0  0  0  0  0  0  0  0  0  0  0  0
  152.2115  144.7812  158.9245 S   0  0  0  0  0  0  0  0  0  0  0  0
  153.5665  142.7167  163.0763 H   0  0  0  0  0  0  0  0  0  0  0  0
  153.9480  142.3261  161.4011 H   0  0  0  0  0  0  0  0  0  0  0  0
  152.4537  141.7343  162.1269 H   0  0  0  0  0  0  0  0  0  0  0  0
  151.6214  144.1054  162.3348 H   0  0  0  0  0  0  0  0  0  0  0  0
  153.1047  144.6944  161.6190 H   0  0  0  0  0  0  0  0  0  0  0  0
  149.3540  141.0539  158.7988 H   0  0  0  0  0  0  0  0  0  0  0  0
  148.6535  142.2748  157.7656 H   0  0  0  0  0  0  0  0  0  0  0  0
  149.7333  139.2998  157.6128 H   0  0  0  0  0  0  0  0  0  0  0  0
  149.9644  138.8897  154.9297 H   0  0  0  0  0  0  0  0  0  0  0  0
  152.0351  139.7333  154.2477 H   0  0  0  0  0  0  0  0  0  0  0  0
  152.4341  140.1934  155.8920 H   0  0  0  0  0  0  0  0  0  0  0  0
  152.9965  137.5945  154.4948 H   0  0  0  0  0  0  0  0  0  0  0  0
  154.0295  138.4557  155.6114 H   0  0  0  0  0  0  0  0  0  0  0  0
  152.6750  136.2593  156.4332 H   0  0  0  0  0  0  0  0  0  0  0  0
  150.2440  137.2471  157.1508 H   0  0  0  0  0  0  0  0  0  0  0  0
  150.5628  136.7634  155.5056 H   0  0  0  0  0  0  0  0  0  0  0  0
  151.0107  144.1227  156.8727 H   0  0  0  0  0  0  0  0  0  0  0  0
  1  2  1  0  0  0  0
  1 20  1  0  0  0  0
  1 21  1  0  0  0  0
  1 22  1  0  0  0  0
  2  3  1  0  0  0  0
  2 23  1  0  0  0  0
  2 24  1  0  0  0  0
  3 19  1  0  0  0  0
  3  4  2  0  0  0  0
  4  5  1  0  0  0  0
  5  6  1  0  0  0  0
  5 18  2  0  0  0  0
  6  7  1  0  0  0  0
  6 25  1  0  0  0  0
  6 26  1  0  0  0  0
  7  8  2  0  0  0  0
  7  9  1  0  0  0  0
  9 10  1  0  0  0  0
  9 27  1  0  0  0  0
 10 17  1  0  0  0  0
 10 11  1  0  0  0  0
 10 28  1  0  0  0  0
 11 12  1  0  0  0  0
 11 29  1  0  0  0  0
 11 30  1  0  0  0  0
 12 13  1  0  0  0  0
 12 31  1  0  0  0  0
 12 32  1  0  0  0  0
 13 14  1  0  0  0  0
 13 17  1  0  0  0  0
 13 33  1  0  0  0  0
 14 15  2  0  0  0  0
 14 16  1  0  0  0  0
 17 34  1  0  0  0  0
 17 35  1  0  0  0  0
 18 19  1  0  0  0  0
 18 36  1  0  0  0  0
M  CHG  1  16  -1
M  END
> <s_m_source_file>
AV-unprocessed.smi

> <i_m_source_file_index>
2405

> <i_lp_mmshare_version>
43012

> <i_f3d_flags>
0

> <s_epik_input>
W0NIM11bQ0gyXWMxbmMoW2NIXXMxKVtDSDJdQyg9TylbTkhdW0NAQEhdMltDSDJdW0NIMl1bQ0BIXShbQ0gyXTIpQyg9TylbT0hd

> <s_epik_cmdline>
J2VwaWtfcHl0aG9uJywgJy1waCcsICc3LjAnLCAnLXRuJywgJzgnLCAnLW1hJywgJzIwMCcsICctbWV0YWxfYmluZGluZycsICctaW1hZScsICc8aW5maWxlLm1hZT4nLCAnLW9tYWUnLCAnPG91dGZpbGUubWFlPic=

> <r_epik_Ionization_Penalty>
0.000544611

> <r_epik_Ionization_Penalty_Charging>
0.000481685

> <r_epik_Ionization_Penalty_Neutral>
6.29266e-05

> <r_epik_State_Penalty>
0.00029893

> <r_epik_Charging_Adjusted_Penalty>
0.000780614

> <i_epik_Tot_Q>
-1

> <i_epik_Tot_abs_Q>
1

> <r_epik_Metal_State_Penalty>
-0

> <b_epik_Metal_Only>
0

> <s_lp_Force_Field>
OPLS_2005

> <r_lp_Energy>
7.49368

> <b_lp_Chiralities_Consistent>
1

> <s_lp_Variant>
AV-unprocessed.smi:2405-2

> <Gold.Version>
5.8.1

> <Gold.Id.Protein>
6NUR|6NUR_protein|mol2

> <Gold.PLP.Fitness>
45.4646

> <Gold.PLP.PLP>
-34.8877

> <Gold.PLP.part.hbond>
-2.6760

> <Gold.PLP.part.metal>
0.0000

> <Gold.PLP.part.buried>
-3.8764

> <Gold.PLP.part.nonpolar>
-29.1798

> <Gold.PLP.part.repulsive>
0.1123

> <Gold.PLP.ligand.clash>
0.0000

> <Gold.PLP.ligand.torsion>
0.4200

> <Gold.PLP.Chemscore.Hbond>
2.8415

> <Gold.PLP.Chemscore.CHOScore>
0.9485

> <Gold.PLP.Chemscore.Metal>
0.0000

> <Gold.Chemscore.Hbonds>
donor molecule, donor type, donor heavy atom, donor atom, acceptor molecule, acceptor atom, score
      P1  H  6896  6908       L1    15  0.67
      P1  H  7997  8009       L1    16  2.00
      L1  C    18    36       P1  8028  0.98

> <Gold.PLP.Chemscore.Internal.Correction>
0.0467

> <Gold.Rescore>
     Score         DG    S(hbond)    S(metal)    S(lipo)     H(rot)  DE(clash)    DE(int)     intcor
     13.59     -16.53       1.35        0.00     100.96       2.06       0.01       2.93       ----

> <Gold.Chemscore.Fitness>
13.5851

> <Gold.Chemscore.DG>
-16.5295

> <Gold.Chemscore.ZeroCoef>
-5.4800

> <Gold.Chemscore.Hbond>
1.3532

> <Gold.Chemscore.Metal>
0.0000

> <Gold.Chemscore.Lipo>
100.9593

> <Gold.Chemscore.Internal_Hbond>
0.0000

> <Gold.Chemscore.DEClash>
0.0149

> <Gold.Chemscore.DEInternal>
2.9296

> <Gold.Chemscore.Rot>
2.0635

> <Gold.Chemscore.Internal.Correction>
   9.000000E+99

> <Gold.Chemscore.Hbonds>
donor molecule, donor type, donor heavy atom, donor atom, acceptor molecule, acceptor atom, score
      P1  H  6896  6908       L1    15  0.34
      P1  H  7997  8009       L1    16  0.97

> <Gold.Chemscore.Hbond.Weighted>
-4.5198

> <Gold.Chemscore.Metal.Weighted>
-0.0000

> <Gold.Chemscore.Lipo.Weighted>
-11.8122

> <Gold.Chemscore.Internal_Hbond.Weighted>
0.0000

> <Gold.Chemscore.DEClash.Weighted>
0.0149

> <Gold.Chemscore.DEInternal.Weighted>
2.9296

> <Gold.Chemscore.Rot.Weighted>
5.2825

> <Gold.Chemscore.Internal.Correction.Weighted>
   9.000000E+99

> <Gold.Protein.RotatedTorsions>
[ 6907 6896 6895 6894 ] final -114.27 input  -60.11 | X-H torsion
[ 7974 7965 7964 7962 ] final  -98.20 input  175.53 | X-H torsion
[ 8008 7997 7996 7995 ] final  149.64 input   59.86 | X-H torsion
[ 10167 10162 10161 10158 ] final  164.17 input  -65.29 | X-H torsion
[ 10718 10713 10712 10709 ] final -172.06 input   66.30 | X-H torsion
[ 10763 10752 10751 10750 ] final  -82.27 input  -60.55 | X-H torsion
[ 11005 11000 10999 10996 ] final -142.31 input  -57.11 | X-H torsion

> <Gold.Protein.ActiveResidues>
 VAL166  LYS551  ARG553  GLY616  TRP617  ASP618  TYR619  PRO620  LYS621  CYS622 
 ASP623  PHE694  ASN695  SER759  ASP760  ASP761  ALA762  ILE779  LEU786  VAL792 
 PHE793  MET794  SER795  GLU796  ALA797  LYS798  CYS799  TRP800  GLU811  SER814 

> <Gold.Protein.RotatedAtoms>
  150.7890  133.8825  159.3289 H   0  0  0  0  0  0  0  0  0  0  0  0  # atno 6907 bound_to 6896
  151.6668  135.0980  160.0199 H   0  0  0  0  0  0  0  0  0  0  0  0  # atno 6908 bound_to 6896
  152.3960  133.6709  159.6312 H   0  0  0  0  0  0  0  0  0  0  0  0  # atno 6909 bound_to 6896
  145.3237  140.9427  143.2701 H   0  0  0  0  0  0  0  0  0  0  0  0  # atno 7974 bound_to 7965
  156.2747  140.2096  156.5891 H   0  0  0  0  0  0  0  0  0  0  0  0  # atno 8008 bound_to 7997
  154.6997  140.0522  157.0469 H   0  0  0  0  0  0  0  0  0  0  0  0  # atno 8009 bound_to 7997
  155.0752  140.3181  155.4621 H   0  0  0  0  0  0  0  0  0  0  0  0  # atno 8010 bound_to 7997
  139.4885  144.4262  151.9126 H   0  0  0  0  0  0  0  0  0  0  0  0  # atno 10167 bound_to 10162
  156.7500  130.9374  151.3114 H   0  0  0  0  0  0  0  0  0  0  0  0  # atno 10718 bound_to 10713
  154.5738  135.5597  153.7120 H   0  0  0  0  0  0  0  0  0  0  0  0  # atno 10763 bound_to 10752
  153.0057  135.6303  154.2078 H   0  0  0  0  0  0  0  0  0  0  0  0  # atno 10764 bound_to 10752
  154.2018  135.2877  155.2968 H   0  0  0  0  0  0  0  0  0  0  0  0  # atno 10765 bound_to 10752
  140.8238  134.2599  157.4888 H   0  0  0  0  0  0  0  0  0  0  0  0  # atno 11005 bound_to 11000
  144.8919  139.4763  143.6674 LP  0  0  0  0  0  0  0  0  0  0  0  0  # atno 17320 bound_to 7965
  146.3072  139.7622  142.9047 LP  0  0  0  0  0  0  0  0  0  0  0  0  # atno 17321 bound_to 7965
  140.3708  144.2857  150.5920 LP  0  0  0  0  0  0  0  0  0  0  0  0  # atno 17342 bound_to 10162
  140.5320  143.2241  151.8223 LP  0  0  0  0  0  0  0  0  0  0  0  0  # atno 17343 bound_to 10162
  157.6781  130.9114  150.0199 LP  0  0  0  0  0  0  0  0  0  0  0  0  # atno 17370 bound_to 10713
  156.1407  130.3642  149.9586 LP  0  0  0  0  0  0  0  0  0  0  0  0  # atno 17371 bound_to 10713
  139.8707  134.9549  156.4192 LP  0  0  0  0  0  0  0  0  0  0  0  0  # atno 17394 bound_to 11000
  140.9071  133.7738  155.9747 LP  0  0  0  0  0  0  0  0  0  0  0  0  # atno 17395 bound_to 11000

$$$$
