AV-unprocessed.smi:648|AV-procd|sdf|3176|dock2
  -GOLD-   22720 0103D 1   1.00000     0.00000
 Structure written by MMmdl.
 45 46  0  0  0  0  0  0  0  0  1 V2000
  141.8885  135.0169  153.2708 C   0  0  0  0  0  0  0  0  0  0  0  0
  143.1906  135.0397  152.4567 C   0  0  2  0  0  0  0  0  0  0  0  0
  143.5900  133.6193  152.0137 C   0  0  0  0  0  0  0  0  0  0  0  0
  144.8849  133.5721  151.1691 C   0  0  0  0  0  0  0  0  0  0  0  0
  145.3482  132.1016  151.0729 C   0  0  0  0  0  0  0  0  0  0  0  0
  144.6111  134.0352  149.7193 C   0  0  0  0  0  0  0  0  0  0  0  0
  146.0198  134.3827  151.8681 C   0  0  0  0  0  0  0  0  0  0  0  0
  145.6680  135.7822  152.4660 C   0  0  2  0  0  0  0  0  0  0  0  0
  145.5763  136.8557  151.3466 C   0  0  0  0  0  0  0  0  0  0  0  0
  146.8126  137.5109  151.1318 O   0  0  0  0  0  0  0  0  0  0  0  0
  146.7753  136.2392  153.3368 N   0  0  0  0  0  0  0  0  0  0  0  0
  146.5936  137.4086  154.2084 C   0  0  0  0  0  0  0  0  0  0  0  0
  147.9197  138.1611  154.3982 C   0  0  0  0  0  0  0  0  0  0  0  0
  147.7576  139.5988  154.2852 N   0  0  0  0  0  0  0  0  0  0  0  0
  146.6897  140.3292  153.9600 C   0  0  0  0  0  0  0  0  0  0  0  0
  146.9134  141.6359  153.9647 N   0  0  0  0  0  0  0  0  0  0  0  0
  148.2315  141.6401  154.3254 C   0  0  0  0  0  0  0  0  0  0  0  0
  148.7858  140.4448  154.5282 N   0  0  0  0  0  0  0  0  0  0  0  0
  144.3374  135.6758  153.2632 C   0  0  0  0  0  0  0  0  0  0  0  0
  141.9983  134.4269  154.1814 H   0  0  0  0  0  0  0  0  0  0  0  0
  141.0711  134.5862  152.6918 H   0  0  0  0  0  0  0  0  0  0  0  0
  141.5897  136.0244  153.5609 H   0  0  0  0  0  0  0  0  0  0  0  0
  142.9953  135.6484  151.5751 H   0  0  0  0  0  0  0  0  0  0  0  0
  143.7205  133.0072  152.9077 H   0  0  0  0  0  0  0  0  0  0  0  0
  142.7709  133.1599  151.4584 H   0  0  0  0  0  0  0  0  0  0  0  0
  146.2620  132.0119  150.4839 H   0  0  0  0  0  0  0  0  0  0  0  0
  144.5916  131.4728  150.6021 H   0  0  0  0  0  0  0  0  0  0  0  0
  145.5511  131.6749  152.0560 H   0  0  0  0  0  0  0  0  0  0  0  0
  145.5384  134.1874  149.1663 H   0  0  0  0  0  0  0  0  0  0  0  0
  144.0278  134.9490  149.6587 H   0  0  0  0  0  0  0  0  0  0  0  0
  144.0323  133.2886  149.1743 H   0  0  0  0  0  0  0  0  0  0  0  0
  146.3687  133.7496  152.6810 H   0  0  0  0  0  0  0  0  0  0  0  0
  146.8775  134.4719  151.1996 H   0  0  0  0  0  0  0  0  0  0  0  0
  145.2542  136.4053  150.4066 H   0  0  0  0  0  0  0  0  0  0  0  0
  144.8597  137.6355  151.5734 H   0  0  0  0  0  0  0  0  0  0  0  0
  147.4356  137.1921  151.7668 H   0  0  0  0  0  0  0  0  0  0  0  0
  147.6058  136.3706  152.7677 H   0  0  0  0  0  0  0  0  0  0  0  0
  145.8644  138.1016  153.7916 H   0  0  0  0  0  0  0  0  0  0  0  0
  146.2270  137.1135  155.1896 H   0  0  0  0  0  0  0  0  0  0  0  0
  148.3342  137.9401  155.3827 H   0  0  0  0  0  0  0  0  0  0  0  0
  148.6578  137.8298  153.6663 H   0  0  0  0  0  0  0  0  0  0  0  0
  145.7294  139.8968  153.7195 H   0  0  0  0  0  0  0  0  0  0  0  0
  148.7999  142.5511  154.4409 H   0  0  0  0  0  0  0  0  0  0  0  0
  144.0353  136.6554  153.6352 H   0  0  0  0  0  0  0  0  0  0  0  0
  144.4747  135.0565  154.1484 H   0  0  0  0  0  0  0  0  0  0  0  0
  1  2  1  0  0  0  0
  1 20  1  0  0  0  0
  1 21  1  0  0  0  0
  1 22  1  0  0  0  0
  2 19  1  0  0  0  0
  2  3  1  0  0  0  0
  2 23  1  0  0  0  0
  3  4  1  0  0  0  0
  3 24  1  0  0  0  0
  3 25  1  0  0  0  0
  4  5  1  0  0  0  0
  4  6  1  0  0  0  0
  4  7  1  0  0  0  0
  5 26  1  0  0  0  0
  5 27  1  0  0  0  0
  5 28  1  0  0  0  0
  6 29  1  0  0  0  0
  6 30  1  0  0  0  0
  6 31  1  0  0  0  0
  7  8  1  0  0  0  0
  7 32  1  0  0  0  0
  7 33  1  0  0  0  0
  8  9  1  0  0  0  0
  8 11  1  0  0  0  0
  8 19  1  0  0  0  0
  9 10  1  0  0  0  0
  9 34  1  0  0  0  0
  9 35  1  0  0  0  0
 10 36  1  0  0  0  0
 11 12  1  0  0  0  0
 11 37  1  0  0  0  0
 12 13  1  0  0  0  0
 12 38  1  0  0  0  0
 12 39  1  0  0  0  0
 13 14  1  0  0  0  0
 13 40  1  0  0  0  0
 13 41  1  0  0  0  0
 14 18  1  0  0  0  0
 14 15  1  0  0  0  0
 15 16  2  0  0  0  0
 15 42  1  0  0  0  0
 16 17  1  0  0  0  0
 17 18  2  0  0  0  0
 17 43  1  0  0  0  0
 19 44  1  0  0  0  0
 19 45  1  0  0  0  0
M  END
> <s_m_source_file>
AV-unprocessed.smi

> <i_m_source_file_index>
648

> <i_lp_mmshare_version>
43012

> <i_f3d_flags>
0

> <s_epik_input>
W0NIM11DMShbQ0gzXSlbQ0gyXVtDQEBIXShbQ0gzXSlbQ0gyXVtDQF0oW0NIMl0xKShbQ0gyXVtPSF0pW05IXVtDSDJdW0NIMl1uMltjSF1uW2NIXW4y

> <s_epik_cmdline>
J2VwaWtfcHl0aG9uJywgJy1waCcsICc3LjAnLCAnLXRuJywgJzgnLCAnLW1hJywgJzIwMCcsICctbWV0YWxfYmluZGluZycsICctaW1hZScsICc8aW5maWxlLm1hZT4nLCAnLW9tYWUnLCAnPG91dGZpbGUubWFlPic=

> <r_lp_tautomer_probability>
1

> <r_epik_Ionization_Penalty>
2.45849

> <r_epik_Ionization_Penalty_Charging>
0

> <r_epik_Ionization_Penalty_Neutral>
2.45849

> <r_epik_State_Penalty>
2.62037

> <r_epik_Charging_Adjusted_Penalty>
2.62037

> <i_epik_Tot_Q>
0

> <i_epik_Tot_abs_Q>
0

> <r_epik_Metal_State_Penalty>
2.62024

> <b_epik_Metal_Only>
0

> <s_lp_Force_Field>
OPLS_2005

> <r_lp_Energy>
36.1132

> <b_lp_Chiralities_Consistent>
1

> <s_lp_Variant>
AV-unprocessed.smi:648-7

> <Gold.Version>
5.8.1

> <Gold.Id.Protein>
6NUR|6NUR_protein|mol2

> <Gold.PLP.Fitness>
38.9350

> <Gold.PLP.PLP>
-27.9905

> <Gold.PLP.part.hbond>
-2.9035

> <Gold.PLP.part.metal>
0.0000

> <Gold.PLP.part.buried>
-1.6298

> <Gold.PLP.part.nonpolar>
-24.2439

> <Gold.PLP.part.repulsive>
0.2825

> <Gold.PLP.ligand.clash>
0.0000

> <Gold.PLP.ligand.torsion>
1.2928

> <Gold.PLP.Chemscore.Hbond>
2.4840

> <Gold.PLP.Chemscore.CHOScore>
1.9964

> <Gold.PLP.Chemscore.Metal>
0.0000

> <Gold.Chemscore.Hbonds>
donor molecule, donor type, donor heavy atom, donor atom, acceptor molecule, acceptor atom, score
      L1  H    10    36       P1  7948  0.78
      L1  H    11    37       P1  7948  1.00
      P1  H  7954  7966       L1    10  0.60
      L1  C    15    42       P1 10175  1.00
      L1  C    17    43       P1  8028  1.00

> <Gold.PLP.Chemscore.Internal.Correction>
0.0890

> <Gold.Rescore>
     Score         DG    S(hbond)    S(metal)    S(lipo)     H(rot)  DE(clash)    DE(int)     intcor
     10.16     -11.69       2.25        0.00      57.12       3.12       0.14       1.40       ----

> <Gold.Chemscore.Fitness>
10.1572

> <Gold.Chemscore.DG>
-11.6903

> <Gold.Chemscore.ZeroCoef>
-5.4800

> <Gold.Chemscore.Hbond>
2.2484

> <Gold.Chemscore.Metal>
0.0000

> <Gold.Chemscore.Lipo>
57.1244

> <Gold.Chemscore.Internal_Hbond>
0.0000

> <Gold.Chemscore.DEClash>
0.1362

> <Gold.Chemscore.DEInternal>
1.3969

> <Gold.Chemscore.Rot>
3.1183

> <Gold.Chemscore.Internal.Correction>
   9.000000E+99

> <Gold.Chemscore.Hbonds>
donor molecule, donor type, donor heavy atom, donor atom, acceptor molecule, acceptor atom, score
      L1  H    10    36       P1  7948  0.78
      L1  H    11    37       P1  7948  0.99
      P1  H  7954  7966       L1    10  0.04

> <Gold.Chemscore.Hbond.Weighted>
-7.5097

> <Gold.Chemscore.Metal.Weighted>
-0.0000

> <Gold.Chemscore.Lipo.Weighted>
-6.6836

> <Gold.Chemscore.Internal_Hbond.Weighted>
0.0000

> <Gold.Chemscore.DEClash.Weighted>
0.1362

> <Gold.Chemscore.DEInternal.Weighted>
1.3969

> <Gold.Chemscore.Rot.Weighted>
7.9829

> <Gold.Chemscore.Internal.Correction.Weighted>
   9.000000E+99

> <Gold.Protein.RotatedTorsions>
[ 6907 6896 6895 6894 ] final  125.45 input  -60.11 | X-H torsion
[ 7974 7965 7964 7962 ] final   -4.47 input  175.53 | X-H torsion
[ 8008 7997 7996 7995 ] final  131.09 input   59.86 | X-H torsion
[ 10167 10162 10161 10158 ] final    7.31 input  -65.29 | X-H torsion
[ 10718 10713 10712 10709 ] final   74.37 input   66.30 | X-H torsion
[ 10763 10752 10751 10750 ] final -124.70 input  -60.55 | X-H torsion
[ 11005 11000 10999 10996 ] final -165.21 input  -57.11 | X-H torsion

> <Gold.Protein.ActiveResidues>
 VAL166  LYS551  ARG553  GLY616  TRP617  ASP618  TYR619  PRO620  LYS621  CYS622 
 ASP623  PHE694  ASN695  SER759  ASP760  ASP761  ALA762  ILE779  LEU786  VAL792 
 PHE793  MET794  SER795  GLU796  ALA797  LYS798  CYS799  TRP800  GLU811  SER814 

> <Gold.Protein.RotatedAtoms>
  152.3990  133.6790  159.6300 H   0  0  0  0  0  0  0  0  0  0  0  0  # atno 6907 bound_to 6896
  150.7885  133.8823  159.3298 H   0  0  0  0  0  0  0  0  0  0  0  0  # atno 6908 bound_to 6896
  151.6593  135.0993  160.0227 H   0  0  0  0  0  0  0  0  0  0  0  0  # atno 6909 bound_to 6896
  146.2371  140.1876  142.8332 H   0  0  0  0  0  0  0  0  0  0  0  0  # atno 7974 bound_to 7965
  156.2965  140.2580  156.2868 H   0  0  0  0  0  0  0  0  0  0  0  0  # atno 8008 bound_to 7997
  154.9548  140.0393  157.2180 H   0  0  0  0  0  0  0  0  0  0  0  0  # atno 8009 bound_to 7997
  154.8002  140.2827  155.5931 H   0  0  0  0  0  0  0  0  0  0  0  0  # atno 8010 bound_to 7997
  140.6379  143.7843  150.7386 H   0  0  0  0  0  0  0  0  0  0  0  0  # atno 10167 bound_to 10162
  157.6589  130.9674  150.1202 H   0  0  0  0  0  0  0  0  0  0  0  0  # atno 10718 bound_to 10713
  154.8727  135.4054  154.3149 H   0  0  0  0  0  0  0  0  0  0  0  0  # atno 10763 bound_to 10752
  153.3986  135.7017  153.6448 H   0  0  0  0  0  0  0  0  0  0  0  0  # atno 10764 bound_to 10752
  153.5200  135.3689  155.2598 H   0  0  0  0  0  0  0  0  0  0  0  0  # atno 10765 bound_to 10752
  140.5782  134.5168  157.5174 H   0  0  0  0  0  0  0  0  0  0  0  0  # atno 11005 bound_to 11000
  144.9884  140.8524  143.5355 LP  0  0  0  0  0  0  0  0  0  0  0  0  # atno 17320 bound_to 7965
  145.1879  139.2317  143.5258 LP  0  0  0  0  0  0  0  0  0  0  0  0  # atno 17321 bound_to 7965
  140.1468  143.4392  152.2157 LP  0  0  0  0  0  0  0  0  0  0  0  0  # atno 17342 bound_to 10162
  139.5589  144.7392  151.4213 LP  0  0  0  0  0  0  0  0  0  0  0  0  # atno 17343 bound_to 10162
  156.2075  130.3664  149.8711 LP  0  0  0  0  0  0  0  0  0  0  0  0  # atno 17370 bound_to 10713
  156.6598  130.8777  151.3545 LP  0  0  0  0  0  0  0  0  0  0  0  0  # atno 17371 bound_to 10713
  139.9329  134.7929  156.0880 LP  0  0  0  0  0  0  0  0  0  0  0  0  # atno 17394 bound_to 11000
  141.1013  133.6676  156.2761 LP  0  0  0  0  0  0  0  0  0  0  0  0  # atno 17395 bound_to 11000

$$$$
