AV-unprocessed.smi:2157|AV-procd|sdf|8786|dock5
  -GOLD-   2272011563D 1   1.00000     0.00000
 Structure written by MMmdl.
 41 42  0  0  0  0  0  0  0  0  1 V2000
  153.4976  142.9426  163.3931 C   0  0  0  0  0  0  0  0  0  0  0  0
  152.9638  142.5261  162.0153 C   0  0  1  0  0  0  0  0  0  0  0  0
  152.2289  143.6889  161.3213 C   0  0  0  0  0  0  0  0  0  0  0  0
  151.6945  143.2762  159.9408 C   0  0  0  0  0  0  0  0  0  0  0  0
  152.8196  142.7322  159.0435 C   0  0  0  0  0  0  0  0  0  0  0  0
  153.5897  141.5768  159.7117 C   0  0  2  0  0  0  0  0  0  0  0  0
  152.7523  140.3799  159.7734 N   0  0  0  0  0  0  0  0  0  0  0  0
  152.9705  139.2392  159.1022 C   0  0  0  0  0  0  0  0  0  0  0  0
  153.9300  139.0715  158.3478 O   0  0  0  0  0  0  0  0  0  0  0  0
  151.9563  138.1139  159.3470 C   0  0  0  0  0  0  0  0  0  0  0  0
  150.6454  138.3733  158.7380 N   0  0  0  0  0  0  0  0  0  0  0  0
  150.4376  139.5457  158.0344 C   0  0  0  0  0  0  0  0  0  0  0  0
  149.2599  139.8693  157.4574 C   0  0  0  0  0  0  0  0  0  0  0  0
  148.1136  138.9732  157.5438 C   0  0  0  0  0  0  0  0  0  0  0  0
  147.0150  139.2361  157.0528 O   0  0  0  0  0  0  0  0  0  0  0  0
  148.3572  137.7739  158.2540 N   0  0  0  0  0  0  0  0  0  0  0  0
  147.2585  136.8416  158.4010 C   0  0  0  0  0  0  0  0  0  0  0  0
  149.5860  137.4503  158.8735 C   0  0  0  0  0  0  0  0  0  0  0  0
  149.7416  136.4099  159.5178 O   0  0  0  0  0  0  0  0  0  0  0  0
  154.0937  141.9876  161.1128 C   0  0  0  0  0  0  0  0  0  0  0  0
  154.2261  143.7497  163.3089 H   0  0  0  0  0  0  0  0  0  0  0  0
  153.9842  142.1057  163.8947 H   0  0  0  0  0  0  0  0  0  0  0  0
  152.6900  143.2887  164.0386 H   0  0  0  0  0  0  0  0  0  0  0  0
  152.2446  141.7217  162.1763 H   0  0  0  0  0  0  0  0  0  0  0  0
  151.4024  144.0330  161.9442 H   0  0  0  0  0  0  0  0  0  0  0  0
  152.9045  144.5381  161.2092 H   0  0  0  0  0  0  0  0  0  0  0  0
  150.9178  142.5201  160.0603 H   0  0  0  0  0  0  0  0  0  0  0  0
  151.2182  144.1300  159.4585 H   0  0  0  0  0  0  0  0  0  0  0  0
  152.4119  142.4108  158.0842 H   0  0  0  0  0  0  0  0  0  0  0  0
  153.5161  143.5413  158.8196 H   0  0  0  0  0  0  0  0  0  0  0  0
  154.4542  141.3495  159.0851 H   0  0  0  0  0  0  0  0  0  0  0  0
  151.9427  140.4252  160.3750 H   0  0  0  0  0  0  0  0  0  0  0  0
  152.3745  137.1886  158.9485 H   0  0  0  0  0  0  0  0  0  0  0  0
  151.8433  137.9466  160.4200 H   0  0  0  0  0  0  0  0  0  0  0  0
  151.2561  140.2451  157.9460 H   0  0  0  0  0  0  0  0  0  0  0  0
  149.1636  140.8054  156.9273 H   0  0  0  0  0  0  0  0  0  0  0  0
  147.6474  135.8249  158.4691 H   0  0  0  0  0  0  0  0  0  0  0  0
  146.6147  136.8950  157.5219 H   0  0  0  0  0  0  0  0  0  0  0  0
  146.7221  137.1256  159.3075 H   0  0  0  0  0  0  0  0  0  0  0  0
  154.8574  142.7584  160.9989 H   0  0  0  0  0  0  0  0  0  0  0  0
  154.5908  141.1454  161.5960 H   0  0  0  0  0  0  0  0  0  0  0  0
  1  2  1  0  0  0  0
  1 21  1  0  0  0  0
  1 22  1  0  0  0  0
  1 23  1  0  0  0  0
  2 20  1  0  0  0  0
  2  3  1  0  0  0  0
  2 24  1  0  0  0  0
  3  4  1  0  0  0  0
  3 25  1  0  0  0  0
  3 26  1  0  0  0  0
  4  5  1  0  0  0  0
  4 27  1  0  0  0  0
  4 28  1  0  0  0  0
  5  6  1  0  0  0  0
  5 29  1  0  0  0  0
  5 30  1  0  0  0  0
  6  7  1  0  0  0  0
  6 20  1  0  0  0  0
  6 31  1  0  0  0  0
  7  8  1  0  0  0  0
  7 32  1  0  0  0  0
  8  9  2  0  0  0  0
  8 10  1  0  0  0  0
 10 11  1  0  0  0  0
 10 33  1  0  0  0  0
 10 34  1  0  0  0  0
 11 18  1  0  0  0  0
 11 12  1  0  0  0  0
 12 13  2  0  0  0  0
 12 35  1  0  0  0  0
 13 14  1  0  0  0  0
 13 36  1  0  0  0  0
 14 15  2  0  0  0  0
 14 16  1  0  0  0  0
 16 17  1  0  0  0  0
 16 18  1  0  0  0  0
 17 37  1  0  0  0  0
 17 38  1  0  0  0  0
 17 39  1  0  0  0  0
 18 19  2  0  0  0  0
 20 40  1  0  0  0  0
 20 41  1  0  0  0  0
M  END
> <s_m_source_file>
AV-unprocessed.smi

> <i_m_source_file_index>
2157

> <i_lp_mmshare_version>
43012

> <i_f3d_flags>
0

> <s_epik_input>
W0NIM11bQ0BASF0xW0NIMl1bQ0gyXVtDSDJdW0NASF0oW0NIMl0xKVtOSF1DKD1PKVtDSDJdbjJbY0hdW2NIXWMoPU8pbihbQ0gzXSljMj1P

> <s_epik_cmdline>
J2VwaWtfcHl0aG9uJywgJy1waCcsICc3LjAnLCAnLXRuJywgJzgnLCAnLW1hJywgJzIwMCcsICctbWV0YWxfYmluZGluZycsICctaW1hZScsICc8aW5maWxlLm1hZT4nLCAnLW9tYWUnLCAnPG91dGZpbGUubWFlPic=

> <r_lp_tautomer_probability>
1

> <r_epik_Ionization_Penalty>
3.1838e-08

> <r_epik_Ionization_Penalty_Charging>
1.27911e-08

> <r_epik_Ionization_Penalty_Neutral>
1.90469e-08

> <r_epik_State_Penalty>
-0

> <r_epik_Charging_Adjusted_Penalty>
1.27911e-08

> <i_epik_Tot_Q>
0

> <i_epik_Tot_abs_Q>
0

> <r_epik_Metal_State_Penalty>
-0

> <b_epik_Metal_Only>
0

> <s_lp_Force_Field>
OPLS_2005

> <r_lp_Energy>
16.1054

> <b_lp_Chiralities_Consistent>
1

> <s_lp_Variant>
AV-unprocessed.smi:2157-4

> <Gold.Version>
5.8.1

> <Gold.Id.Protein>
6NUR|6NUR_protein|mol2

> <Gold.PLP.Fitness>
42.8030

> <Gold.PLP.PLP>
-37.0741

> <Gold.PLP.part.hbond>
-2.0000

> <Gold.PLP.part.metal>
0.0000

> <Gold.PLP.part.buried>
-4.7582

> <Gold.PLP.part.nonpolar>
-29.0159

> <Gold.PLP.part.repulsive>
0.1285

> <Gold.PLP.ligand.clash>
0.0000

> <Gold.PLP.ligand.torsion>
0.1401

> <Gold.PLP.Chemscore.Hbond>
2.0000

> <Gold.PLP.Chemscore.CHOScore>
0.0000

> <Gold.PLP.Chemscore.Metal>
0.0000

> <Gold.Chemscore.Hbonds>
donor molecule, donor type, donor heavy atom, donor atom, acceptor molecule, acceptor atom, score
      P1  H  6896  6908       L1    19  1.00
      P1  H  7997  8010       L1     9  1.00

> <Gold.PLP.Chemscore.Internal.Correction>
0.0091

> <Gold.Rescore>
     Score         DG    S(hbond)    S(metal)    S(lipo)     H(rot)  DE(clash)    DE(int)     intcor
     18.36     -19.20       2.00        0.00      93.61       1.52       0.60       0.25       ----

> <Gold.Chemscore.Fitness>
18.3555

> <Gold.Chemscore.DG>
-19.2002

> <Gold.Chemscore.ZeroCoef>
-5.4800

> <Gold.Chemscore.Hbond>
1.9969

> <Gold.Chemscore.Metal>
0.0000

> <Gold.Chemscore.Lipo>
93.6112

> <Gold.Chemscore.Internal_Hbond>
0.0000

> <Gold.Chemscore.DEClash>
0.5968

> <Gold.Chemscore.DEInternal>
0.2479

> <Gold.Chemscore.Rot>
1.5242

> <Gold.Chemscore.Internal.Correction>
   9.000000E+99

> <Gold.Chemscore.Hbonds>
donor molecule, donor type, donor heavy atom, donor atom, acceptor molecule, acceptor atom, score
      P1  H  6896  6908       L1    19  1.00
      P1  H  7997  8010       L1     9  1.00

> <Gold.Chemscore.Hbond.Weighted>
-6.6696

> <Gold.Chemscore.Metal.Weighted>
-0.0000

> <Gold.Chemscore.Lipo.Weighted>
-10.9525

> <Gold.Chemscore.Internal_Hbond.Weighted>
0.0000

> <Gold.Chemscore.DEClash.Weighted>
0.5968

> <Gold.Chemscore.DEInternal.Weighted>
0.2479

> <Gold.Chemscore.Rot.Weighted>
3.9019

> <Gold.Chemscore.Internal.Correction.Weighted>
   9.000000E+99

> <Gold.Protein.RotatedTorsions>
[ 6907 6896 6895 6894 ] final -156.95 input  -60.11 | X-H torsion
[ 7974 7965 7964 7962 ] final  121.89 input  175.53 | X-H torsion
[ 8008 7997 7996 7995 ] final   17.20 input   59.86 | X-H torsion
[ 10167 10162 10161 10158 ] final   82.26 input  -65.29 | X-H torsion
[ 10718 10713 10712 10709 ] final   -4.22 input   66.30 | X-H torsion
[ 10763 10752 10751 10750 ] final -119.27 input  -60.55 | X-H torsion
[ 11005 11000 10999 10996 ] final  142.11 input  -57.11 | X-H torsion

> <Gold.Protein.ActiveResidues>
 VAL166  LYS551  ARG553  GLY616  TRP617  ASP618  TYR619  PRO620  LYS621  CYS622 
 ASP623  PHE694  ASN695  SER759  ASP760  ASP761  ALA762  ILE779  LEU786  VAL792 
 PHE793  MET794  SER795  GLU796  ALA797  LYS798  CYS799  TRP800  GLU811  SER814 

> <Gold.Protein.RotatedAtoms>
  151.2954  133.4146  159.2635 H   0  0  0  0  0  0  0  0  0  0  0  0  # atno 6907 bound_to 6896
  151.0241  134.9491  159.8086 H   0  0  0  0  0  0  0  0  0  0  0  0  # atno 6908 bound_to 6896
  152.5331  134.2917  159.9098 H   0  0  0  0  0  0  0  0  0  0  0  0  # atno 6909 bound_to 6896
  145.1140  139.3433  143.4748 H   0  0  0  0  0  0  0  0  0  0  0  0  # atno 7974 bound_to 7965
  154.8879  140.2982  155.5387 H   0  0  0  0  0  0  0  0  0  0  0  0  # atno 8008 bound_to 7997
  156.3021  140.2430  156.3825 H   0  0  0  0  0  0  0  0  0  0  0  0  # atno 8009 bound_to 7997
  154.8648  140.0404  157.1677 H   0  0  0  0  0  0  0  0  0  0  0  0  # atno 8010 bound_to 7997
  139.9306  144.6154  150.8348 H   0  0  0  0  0  0  0  0  0  0  0  0  # atno 10167 bound_to 10162
  156.7645  130.5280  149.5779 H   0  0  0  0  0  0  0  0  0  0  0  0  # atno 10718 bound_to 10713
  154.8612  135.4244  154.2273 H   0  0  0  0  0  0  0  0  0  0  0  0  # atno 10763 bound_to 10752
  153.3265  135.6985  153.6990 H   0  0  0  0  0  0  0  0  0  0  0  0  # atno 10764 bound_to 10752
  153.6024  135.3534  155.2923 H   0  0  0  0  0  0  0  0  0  0  0  0  # atno 10765 bound_to 10752
  140.0452  134.9284  157.0917 H   0  0  0  0  0  0  0  0  0  0  0  0  # atno 11005 bound_to 11000
  146.3525  140.1071  142.8605 LP  0  0  0  0  0  0  0  0  0  0  0  0  # atno 17320 bound_to 7965
  145.0815  140.9224  143.4822 LP  0  0  0  0  0  0  0  0  0  0  0  0  # atno 17321 bound_to 7965
  140.7638  143.3233  151.2573 LP  0  0  0  0  0  0  0  0  0  0  0  0  # atno 17342 bound_to 10162
  139.6785  143.9895  152.2795 LP  0  0  0  0  0  0  0  0  0  0  0  0  # atno 17343 bound_to 10162
  156.1317  130.6183  151.0343 LP  0  0  0  0  0  0  0  0  0  0  0  0  # atno 17370 bound_to 10713
  157.6719  131.0859  150.7590 LP  0  0  0  0  0  0  0  0  0  0  0  0  # atno 17371 bound_to 10713
  140.4005  134.2088  155.7163 LP  0  0  0  0  0  0  0  0  0  0  0  0  # atno 17394 bound_to 11000
  141.1903  133.8219  157.0922 LP  0  0  0  0  0  0  0  0  0  0  0  0  # atno 17395 bound_to 11000

$$$$
