AV-unprocessed.smi:3338|AV-procd|sdf|12874|dock2
  -GOLD-   2272019273D 1   1.00000     0.00000
 Structure written by MMmdl.
 44 45  0  0  0  0  0  0  0  0  2 V2000
  145.6351  135.9567  150.9755 C   0  0  0  0  0  0  0  0  0  0  0  0
  145.0019  134.8442  151.8293 C   0  0  1  0  0  0  0  0  0  0  0  0
  145.1089  133.4540  151.1754 C   0  0  0  0  0  0  0  0  0  0  0  0
  146.5383  132.9017  151.2689 C   0  0  0  0  0  0  0  0  0  0  0  0
  147.0446  132.9222  152.7196 C   0  0  0  0  0  0  0  0  0  0  0  0
  146.9644  134.2897  153.2942 N   0  3  2  0  0  0  0  0  0  0  0  0
  147.5867  134.3724  154.6388 C   0  0  0  0  0  0  0  0  0  0  0  0
  147.3946  135.7575  155.2860 C   0  0  0  0  0  0  0  0  0  0  0  0
  148.2089  135.9019  156.4864 N   0  0  0  0  0  0  0  0  0  0  0  0
  147.7369  135.8566  157.7427 C   0  0  0  0  0  0  0  0  0  0  0  0
  146.5429  135.6986  158.0012 O   0  0  0  0  0  0  0  0  0  0  0  0
  148.7740  136.0121  158.8680 C   0  0  1  0  0  0  0  0  0  0  0  0
  149.6365  137.2816  158.7186 C   0  0  0  0  0  0  0  0  0  0  0  0
  148.1291  135.9469  160.1748 N   0  0  0  0  0  0  0  0  0  0  0  0
  147.4792  134.8726  160.7484 C   0  0  0  0  0  0  0  0  0  0  0  0
  147.0173  135.2754  161.9686 C   0  0  0  0  0  0  0  0  0  0  0  0
  147.4322  136.6333  162.0556 C   0  0  0  0  0  0  0  0  0  0  0  0
  148.0897  137.0346  160.9800 N   0  0  0  0  0  0  0  0  0  0  0  0
  145.5716  134.8142  153.2628 C   0  0  0  0  0  0  0  0  0  0  0  0
  146.7107  135.8220  150.8614 H   0  0  0  0  0  0  0  0  0  0  0  0
  145.4725  136.9355  151.4280 H   0  0  0  0  0  0  0  0  0  0  0  0
  145.1962  135.9823  149.9776 H   0  0  0  0  0  0  0  0  0  0  0  0
  143.9407  135.0848  151.9056 H   0  0  0  0  0  0  0  0  0  0  0  0
  144.4296  132.7668  151.6815 H   0  0  0  0  0  0  0  0  0  0  0  0
  144.7842  133.4922  150.1349 H   0  0  0  0  0  0  0  0  0  0  0  0
  146.5673  131.8830  150.8808 H   0  0  0  0  0  0  0  0  0  0  0  0
  147.2068  133.4876  150.6372 H   0  0  0  0  0  0  0  0  0  0  0  0
  146.4634  132.2326  153.3340 H   0  0  0  0  0  0  0  0  0  0  0  0
  148.0774  132.5718  152.7393 H   0  0  0  0  0  0  0  0  0  0  0  0
  147.1897  133.5784  155.2737 H   0  0  0  0  0  0  0  0  0  0  0  0
  148.6588  134.1889  154.5551 H   0  0  0  0  0  0  0  0  0  0  0  0
  147.6859  136.5384  154.5831 H   0  0  0  0  0  0  0  0  0  0  0  0
  146.3502  135.9429  155.5379 H   0  0  0  0  0  0  0  0  0  0  0  0
  149.2010  136.0387  156.3556 H   0  0  0  0  0  0  0  0  0  0  0  0
  149.4479  135.1567  158.7992 H   0  0  0  0  0  0  0  0  0  0  0  0
  150.1695  137.2854  157.7672 H   0  0  0  0  0  0  0  0  0  0  0  0
  150.3836  137.3383  159.5105 H   0  0  0  0  0  0  0  0  0  0  0  0
  149.0376  138.1920  158.7666 H   0  0  0  0  0  0  0  0  0  0  0  0
  147.4016  133.9191  160.2469 H   0  0  0  0  0  0  0  0  0  0  0  0
  146.4668  134.6893  162.6894 H   0  0  0  0  0  0  0  0  0  0  0  0
  147.2742  137.3352  162.8612 H   0  0  0  0  0  0  0  0  0  0  0  0
  145.5276  135.8164  153.6880 H   0  0  0  0  0  0  0  0  0  0  0  0
  144.9419  134.1856  153.8946 H   0  0  0  0  0  0  0  0  0  0  0  0
  147.5162  134.8799  152.6881 H   0  0  0  0  0  0  0  0  0  0  0  0
  1  2  1  0  0  0  0
  1 20  1  0  0  0  0
  1 21  1  0  0  0  0
  1 22  1  0  0  0  0
  2 19  1  0  0  0  0
  2  3  1  0  0  0  0
  2 23  1  0  0  0  0
  3  4  1  0  0  0  0
  3 24  1  0  0  0  0
  3 25  1  0  0  0  0
  4  5  1  0  0  0  0
  4 26  1  0  0  0  0
  4 27  1  0  0  0  0
  5  6  1  0  0  0  0
  5 28  1  0  0  0  0
  5 29  1  0  0  0  0
  6  7  1  0  0  0  0
  6 19  1  0  0  0  0
  6 44  1  0  0  0  0
  7  8  1  0  0  0  0
  7 30  1  0  0  0  0
  7 31  1  0  0  0  0
  8  9  1  0  0  0  0
  8 32  1  0  0  0  0
  8 33  1  0  0  0  0
  9 10  1  0  0  0  0
  9 34  1  0  0  0  0
 10 11  2  0  0  0  0
 10 12  1  0  0  0  0
 12 13  1  0  0  0  0
 12 14  1  0  0  0  0
 12 35  1  0  0  0  0
 13 36  1  0  0  0  0
 13 37  1  0  0  0  0
 13 38  1  0  0  0  0
 14 18  1  0  0  0  0
 14 15  1  0  0  0  0
 15 16  2  0  0  0  0
 15 39  1  0  0  0  0
 16 17  1  0  0  0  0
 16 40  1  0  0  0  0
 17 18  2  0  0  0  0
 17 41  1  0  0  0  0
 19 42  1  0  0  0  0
 19 43  1  0  0  0  0
M  CHG  1   6   1
M  END
> <s_m_source_file>
AV-unprocessed.smi

> <i_m_source_file_index>
3338

> <i_lp_mmshare_version>
43012

> <i_f3d_flags>
0

> <s_epik_input>
W0NIM11bQ0BASF0xW0NIMl1bQ0gyXVtDSDJdTihbQ0gyXTEpW0NIMl1bQ0gyXVtOSF1DKD1PKVtDQEhdKFtDSDNdKW4yW2NIXVtjSF1bY0hdbjI=

> <s_epik_cmdline>
J2VwaWtfcHl0aG9uJywgJy1waCcsICc3LjAnLCAnLXRuJywgJzgnLCAnLW1hJywgJzIwMCcsICctbWV0YWxfYmluZGluZycsICctaW1hZScsICc8aW5maWxlLm1hZT4nLCAnLW9tYWUnLCAnPG91dGZpbGUubWFlPic=

> <r_lp_tautomer_probability>
1

> <r_epik_Ionization_Penalty>
0.00225707

> <r_epik_Ionization_Penalty_Charging>
0.00223709

> <r_epik_Ionization_Penalty_Neutral>
1.99775e-05

> <r_epik_State_Penalty>
0.00153978

> <r_epik_Charging_Adjusted_Penalty>
0.00377687

> <i_epik_Tot_Q>
1

> <i_epik_Tot_abs_Q>
1

> <r_epik_Metal_State_Penalty>
-0

> <b_epik_Metal_Only>
0

> <s_lp_Force_Field>
OPLS_2005

> <r_lp_Energy>
22.3922

> <b_lp_Chiralities_Consistent>
1

> <s_lp_Variant>
AV-unprocessed.smi:3338-6

> <Gold.Version>
5.8.1

> <Gold.Id.Protein>
6NUR|6NUR_protein|mol2

> <Gold.PLP.Fitness>
41.0575

> <Gold.PLP.PLP>
-30.2270

> <Gold.PLP.part.hbond>
-3.0000

> <Gold.PLP.part.metal>
0.0000

> <Gold.PLP.part.buried>
-3.5343

> <Gold.PLP.part.nonpolar>
-23.3518

> <Gold.PLP.part.repulsive>
0.0000

> <Gold.PLP.ligand.clash>
0.0000

> <Gold.PLP.ligand.torsion>
0.3832

> <Gold.PLP.Chemscore.Hbond>
3.8247

> <Gold.PLP.Chemscore.CHOScore>
0.0000

> <Gold.PLP.Chemscore.Metal>
0.0000

> <Gold.Chemscore.Hbonds>
donor molecule, donor type, donor heavy atom, donor atom, acceptor molecule, acceptor atom, score
      L1  H     6    44       P1  7948  1.59
      P1  H  6931  6943       L1    18  0.65
      P1  H  6934  6947       L1    18  0.34

> <Gold.PLP.Chemscore.Internal.Correction>
0.1228

> <Gold.Rescore>
     Score         DG    S(hbond)    S(metal)    S(lipo)     H(rot)  DE(clash)    DE(int)     intcor
     15.41     -17.36       2.68        0.00      63.58       1.76       0.09       1.86       ----

> <Gold.Chemscore.Fitness>
15.4139

> <Gold.Chemscore.DG>
-17.3620

> <Gold.Chemscore.ZeroCoef>
-5.4800

> <Gold.Chemscore.Hbond>
2.6770

> <Gold.Chemscore.Metal>
0.0000

> <Gold.Chemscore.Lipo>
63.5794

> <Gold.Chemscore.Internal_Hbond>
0.0000

> <Gold.Chemscore.DEClash>
0.0854

> <Gold.Chemscore.DEInternal>
1.8627

> <Gold.Chemscore.Rot>
1.7570

> <Gold.Chemscore.Internal.Correction>
   9.000000E+99

> <Gold.Chemscore.Hbonds>
donor molecule, donor type, donor heavy atom, donor atom, acceptor molecule, acceptor atom, score
      L1  H     6    44       P1  7948  0.77
      P1  H  6931  6943       L1    18  0.05
      P1  H  6934  6947       L1    18  0.04

> <Gold.Chemscore.Hbond.Weighted>
-8.9411

> <Gold.Chemscore.Metal.Weighted>
-0.0000

> <Gold.Chemscore.Lipo.Weighted>
-7.4388

> <Gold.Chemscore.Internal_Hbond.Weighted>
0.0000

> <Gold.Chemscore.DEClash.Weighted>
0.0854

> <Gold.Chemscore.DEInternal.Weighted>
1.8627

> <Gold.Chemscore.Rot.Weighted>
4.4979

> <Gold.Chemscore.Internal.Correction.Weighted>
   9.000000E+99

> <Gold.Protein.RotatedTorsions>
[ 6907 6896 6895 6894 ] final   63.76 input  -60.11 | X-H torsion
[ 7974 7965 7964 7962 ] final  -25.98 input  175.53 | X-H torsion
[ 8008 7997 7996 7995 ] final  134.24 input   59.86 | X-H torsion
[ 10167 10162 10161 10158 ] final  -15.43 input  -65.29 | X-H torsion
[ 10718 10713 10712 10709 ] final -175.98 input   66.30 | X-H torsion
[ 10763 10752 10751 10750 ] final -179.32 input  -60.55 | X-H torsion
[ 11005 11000 10999 10996 ] final   86.16 input  -57.11 | X-H torsion

> <Gold.Protein.ActiveResidues>
 VAL166  LYS551  ARG553  GLY616  TRP617  ASP618  TYR619  PRO620  LYS621  CYS622 
 ASP623  PHE694  ASN695  SER759  ASP760  ASP761  ALA762  ILE779  LEU786  VAL792 
 PHE793  MET794  SER795  GLU796  ALA797  LYS798  CYS799  TRP800  GLU811  SER814 

> <Gold.Protein.RotatedAtoms>
  152.4278  134.5835  159.9954 H   0  0  0  0  0  0  0  0  0  0  0  0  # atno 6907 bound_to 6896
  151.5966  133.3355  159.3047 H   0  0  0  0  0  0  0  0  0  0  0  0  # atno 6908 bound_to 6896
  150.8169  134.7392  159.6803 H   0  0  0  0  0  0  0  0  0  0  0  0  # atno 6909 bound_to 6896
  146.1456  140.4959  142.8633 H   0  0  0  0  0  0  0  0  0  0  0  0  # atno 7974 bound_to 7965
  156.2998  140.2501  156.3385 H   0  0  0  0  0  0  0  0  0  0  0  0  # atno 8008 bound_to 7997
  154.9077  140.0404  157.1948 H   0  0  0  0  0  0  0  0  0  0  0  0  # atno 8009 bound_to 7997
  154.8437  140.2895  155.5647 H   0  0  0  0  0  0  0  0  0  0  0  0  # atno 8010 bound_to 7997
  140.7218  143.5219  150.9623 H   0  0  0  0  0  0  0  0  0  0  0  0  # atno 10167 bound_to 10162
  156.8079  130.9576  151.3117 H   0  0  0  0  0  0  0  0  0  0  0  0  # atno 10718 bound_to 10713
  154.5366  135.2803  155.1133 H   0  0  0  0  0  0  0  0  0  0  0  0  # atno 10763 bound_to 10752
  154.2632  135.6317  153.5286 H   0  0  0  0  0  0  0  0  0  0  0  0  # atno 10764 bound_to 10752
  152.9969  135.5610  154.5893 H   0  0  0  0  0  0  0  0  0  0  0  0  # atno 10765 bound_to 10752
  139.8952  134.8336  156.2682 H   0  0  0  0  0  0  0  0  0  0  0  0  # atno 11005 bound_to 11000
  144.7842  140.5902  143.6585 LP  0  0  0  0  0  0  0  0  0  0  0  0  # atno 17320 bound_to 7965
  145.4946  139.1486  143.3691 LP  0  0  0  0  0  0  0  0  0  0  0  0  # atno 17321 bound_to 7965
  139.8936  143.6922  152.3141 LP  0  0  0  0  0  0  0  0  0  0  0  0  # atno 17342 bound_to 10162
  139.7247  144.7595  151.0899 LP  0  0  0  0  0  0  0  0  0  0  0  0  # atno 17343 bound_to 10162
  157.6520  130.8893  149.9653 LP  0  0  0  0  0  0  0  0  0  0  0  0  # atno 17370 bound_to 10713
  156.1062  130.3652  150.0130 LP  0  0  0  0  0  0  0  0  0  0  0  0  # atno 17371 bound_to 10713
  141.0118  133.7091  156.1124 LP  0  0  0  0  0  0  0  0  0  0  0  0  # atno 17394 bound_to 11000
  140.7356  134.4206  157.5561 LP  0  0  0  0  0  0  0  0  0  0  0  0  # atno 17395 bound_to 11000

$$$$
