AV-unprocessed.smi:1163|AV-procd|sdf|4921|dock5
  -GOLD-   22720 3503D 1   1.00000     0.00000
 Structure written by MMmdl.
 39 40  0  0  0  0  0  0  0  0  1 V2000
  150.5876  143.3041  156.7237 C   0  0  0  0  0  0  0  0  0  0  0  0
  151.0822  141.9889  156.4956 O   0  0  0  0  0  0  0  0  0  0  0  0
  150.3620  141.1531  155.6666 C   0  0  0  0  0  0  0  0  0  0  0  0
  149.0372  141.5044  155.3406 C   0  0  0  0  0  0  0  0  0  0  0  0
  148.3003  140.6566  154.4922 C   0  0  0  0  0  0  0  0  0  0  0  0
  148.9084  139.4895  153.9880 C   0  0  0  0  0  0  0  0  0  0  0  0
  148.1335  138.6464  153.1465 N   0  0  0  0  0  0  0  0  0  0  0  0
  146.8536  138.7917  152.7626 C   0  0  0  0  0  0  0  0  0  0  0  0
  146.1057  139.7054  153.1096 O   0  0  0  0  0  0  0  0  0  0  0  0
  146.4776  137.7891  151.9566 N   0  0  0  0  0  0  0  0  0  0  0  0
  145.1518  137.6160  151.3698 C   0  0  1  0  0  0  0  0  0  0  0  0
  144.8582  136.1594  151.0199 C   0  0  0  0  0  0  0  0  0  0  0  0
  143.4046  135.9858  151.4446 C   0  0  0  0  0  0  0  0  0  0  0  0
  143.3352  136.7721  152.6664 N   0  0  0  0  0  0  0  0  0  0  0  0
  141.9534  136.9821  153.0938 C   0  0  0  0  0  0  0  0  0  0  0  0
  141.8144  137.1695  154.6173 C   0  0  0  0  0  0  0  0  0  0  0  0
  140.5947  137.6378  154.8785 F   0  0  0  0  0  0  0  0  0  0  0  0
  141.9639  136.0032  155.2464 F   0  0  0  0  0  0  0  0  0  0  0  0
  142.7044  138.0429  155.0884 F   0  0  0  0  0  0  0  0  0  0  0  0
  144.0532  138.0092  152.3693 C   0  0  0  0  0  0  0  0  0  0  0  0
  150.2403  139.2169  154.3849 C   0  0  0  0  0  0  0  0  0  0  0  0
  150.9517  140.0251  155.1993 N   0  0  0  0  0  0  0  0  0  0  0  0
  151.2582  143.8292  157.4037 H   0  0  0  0  0  0  0  0  0  0  0  0
  149.5987  143.2854  157.1845 H   0  0  0  0  0  0  0  0  0  0  0  0
  150.5406  143.8776  155.7968 H   0  0  0  0  0  0  0  0  0  0  0  0
  148.5947  142.4074  155.7346 H   0  0  0  0  0  0  0  0  0  0  0  0
  147.2820  140.9048  154.2302 H   0  0  0  0  0  0  0  0  0  0  0  0
  148.5935  137.8014  152.8411 H   0  0  0  0  0  0  0  0  0  0  0  0
  147.1623  137.0821  151.7323 H   0  0  0  0  0  0  0  0  0  0  0  0
  145.0322  138.2293  150.4748 H   0  0  0  0  0  0  0  0  0  0  0  0
  145.0136  135.9421  149.9628 H   0  0  0  0  0  0  0  0  0  0  0  0
  145.4903  135.4821  151.5968 H   0  0  0  0  0  0  0  0  0  0  0  0
  142.7366  136.4011  150.6879 H   0  0  0  0  0  0  0  0  0  0  0  0
  143.1361  134.9423  151.6118 H   0  0  0  0  0  0  0  0  0  0  0  0
  141.5161  137.8287  152.5622 H   0  0  0  0  0  0  0  0  0  0  0  0
  141.3768  136.1023  152.8044 H   0  0  0  0  0  0  0  0  0  0  0  0
  144.4481  138.4622  153.2794 H   0  0  0  0  0  0  0  0  0  0  0  0
  143.3816  138.7303  151.9002 H   0  0  0  0  0  0  0  0  0  0  0  0
  150.7618  138.3262  154.0714 H   0  0  0  0  0  0  0  0  0  0  0  0
  1  2  1  0  0  0  0
  1 23  1  0  0  0  0
  1 24  1  0  0  0  0
  1 25  1  0  0  0  0
  2  3  1  0  0  0  0
  3 22  1  0  0  0  0
  3  4  2  0  0  0  0
  4  5  1  0  0  0  0
  4 26  1  0  0  0  0
  5  6  2  0  0  0  0
  5 27  1  0  0  0  0
  6  7  1  0  0  0  0
  6 21  1  0  0  0  0
  7  8  1  0  0  0  0
  7 28  1  0  0  0  0
  8  9  2  0  0  0  0
  8 10  1  0  0  0  0
 10 11  1  0  0  0  0
 10 29  1  0  0  0  0
 11 20  1  0  0  0  0
 11 12  1  0  0  0  0
 11 30  1  0  0  0  0
 12 13  1  0  0  0  0
 12 31  1  0  0  0  0
 12 32  1  0  0  0  0
 13 14  1  0  0  0  0
 13 33  1  0  0  0  0
 13 34  1  0  0  0  0
 14 15  1  0  0  0  0
 14 20  1  0  0  0  0
 15 16  1  0  0  0  0
 15 35  1  0  0  0  0
 15 36  1  0  0  0  0
 16 17  1  0  0  0  0
 16 18  1  0  0  0  0
 16 19  1  0  0  0  0
 20 37  1  0  0  0  0
 20 38  1  0  0  0  0
 21 22  2  0  0  0  0
 21 39  1  0  0  0  0
M  END
> <s_m_source_file>
AV-unprocessed.smi

> <i_m_source_file_index>
1163

> <i_lp_mmshare_version>
43012

> <i_f3d_flags>
0

> <s_epik_input>
W0NIM11PYzFbY0hdW2NIXWMoW2NIXW4xKVtOSF1DKD1PKVtOSF1bQ0BASF0yW0NIMl1bQ0gyXU4oW0NIMl0yKVtDSDJdQyhGKShGKUY=

> <s_epik_cmdline>
J2VwaWtfcHl0aG9uJywgJy1waCcsICc3LjAnLCAnLXRuJywgJzgnLCAnLW1hJywgJzIwMCcsICctbWV0YWxfYmluZGluZycsICctaW1hZScsICc8aW5maWxlLm1hZT4nLCAnLW9tYWUnLCAnPG91dGZpbGUubWFlPic=

> <r_lp_tautomer_probability>
1

> <r_epik_Ionization_Penalty>
0.0970123

> <r_epik_Ionization_Penalty_Charging>
0

> <r_epik_Ionization_Penalty_Neutral>
0.0970123

> <r_epik_State_Penalty>
0.0870533

> <r_epik_Charging_Adjusted_Penalty>
0.0870533

> <i_epik_Tot_Q>
0

> <i_epik_Tot_abs_Q>
0

> <r_epik_Metal_State_Penalty>
0.0870519

> <b_epik_Metal_Only>
0

> <s_lp_Force_Field>
OPLS_2005

> <r_lp_Energy>
29.6524

> <b_lp_Chiralities_Consistent>
1

> <s_lp_Variant>
AV-unprocessed.smi:1163-2

> <Gold.Version>
5.8.1

> <Gold.Id.Protein>
6NUR|6NUR_protein|mol2

> <Gold.PLP.Fitness>
39.8370

> <Gold.PLP.PLP>
-29.4954

> <Gold.PLP.part.hbond>
-3.0000

> <Gold.PLP.part.metal>
0.0000

> <Gold.PLP.part.buried>
-2.9132

> <Gold.PLP.part.nonpolar>
-23.1031

> <Gold.PLP.part.repulsive>
0.1482

> <Gold.PLP.ligand.clash>
0.0440

> <Gold.PLP.ligand.torsion>
0.9835

> <Gold.PLP.Chemscore.Hbond>
2.9500

> <Gold.PLP.Chemscore.CHOScore>
1.0000

> <Gold.PLP.Chemscore.Metal>
0.0000

> <Gold.Chemscore.Hbonds>
donor molecule, donor type, donor heavy atom, donor atom, acceptor molecule, acceptor atom, score
      L1  H     7    28       P1  7948  1.00
      L1  H    10    29       P1  7948  1.00
      P1  H  7989  7998       L1    22  0.23

> <Gold.PLP.Chemscore.Internal.Correction>
0.5026

> <Gold.Rescore>
     Score         DG    S(hbond)    S(metal)    S(lipo)     H(rot)  DE(clash)    DE(int)     intcor
     10.72     -14.77       2.09        0.00      55.77       1.65       0.15       3.91       ----

> <Gold.Chemscore.Fitness>
10.7223

> <Gold.Chemscore.DG>
-14.7740

> <Gold.Chemscore.ZeroCoef>
-5.4800

> <Gold.Chemscore.Hbond>
2.0950

> <Gold.Chemscore.Metal>
0.0000

> <Gold.Chemscore.Lipo>
55.7658

> <Gold.Chemscore.Internal_Hbond>
0.0000

> <Gold.Chemscore.DEClash>
0.1460

> <Gold.Chemscore.DEInternal>
3.9057

> <Gold.Chemscore.Rot>
1.6515

> <Gold.Chemscore.Internal.Correction>
   9.000000E+99

> <Gold.Chemscore.Hbonds>
donor molecule, donor type, donor heavy atom, donor atom, acceptor molecule, acceptor atom, score
      L1  H     7    28       P1  7948  1.00
      L1  H    10    29       P1  7948  0.97

> <Gold.Chemscore.Hbond.Weighted>
-6.9973

> <Gold.Chemscore.Metal.Weighted>
-0.0000

> <Gold.Chemscore.Lipo.Weighted>
-6.5246

> <Gold.Chemscore.Internal_Hbond.Weighted>
0.0000

> <Gold.Chemscore.DEClash.Weighted>
0.1460

> <Gold.Chemscore.DEInternal.Weighted>
3.9057

> <Gold.Chemscore.Rot.Weighted>
4.2279

> <Gold.Chemscore.Internal.Correction.Weighted>
   9.000000E+99

> <Gold.Protein.RotatedTorsions>
[ 6907 6896 6895 6894 ] final -159.75 input  -60.11 | X-H torsion
[ 7974 7965 7964 7962 ] final -118.33 input  175.53 | X-H torsion
[ 8008 7997 7996 7995 ] final   73.44 input   59.86 | X-H torsion
[ 10167 10162 10161 10158 ] final   21.14 input  -65.29 | X-H torsion
[ 10718 10713 10712 10709 ] final   -8.72 input   66.30 | X-H torsion
[ 10763 10752 10751 10750 ] final    6.60 input  -60.55 | X-H torsion
[ 11005 11000 10999 10996 ] final  -16.64 input  -57.11 | X-H torsion

> <Gold.Protein.ActiveResidues>
 VAL166  LYS551  ARG553  GLY616  TRP617  ASP618  TYR619  PRO620  LYS621  CYS622 
 ASP623  PHE694  ASN695  SER759  ASP760  ASP761  ALA762  ILE779  LEU786  VAL792 
 PHE793  MET794  SER795  GLU796  ALA797  LYS798  CYS799  TRP800  GLU811  SER814 

> <Gold.Protein.RotatedAtoms>
  151.3385  133.3972  159.2668 H   0  0  0  0  0  0  0  0  0  0  0  0  # atno 6907 bound_to 6896
  150.9897  134.9236  159.7903 H   0  0  0  0  0  0  0  0  0  0  0  0  # atno 6908 bound_to 6896
  152.5243  134.3349  159.9249 H   0  0  0  0  0  0  0  0  0  0  0  0  # atno 6909 bound_to 6896
  145.0750  140.8386  143.4073 H   0  0  0  0  0  0  0  0  0  0  0  0  # atno 7974 bound_to 7965
  155.7837  140.3481  155.5311 H   0  0  0  0  0  0  0  0  0  0  0  0  # atno 8008 bound_to 7997
  155.8703  140.0985  157.1575 H   0  0  0  0  0  0  0  0  0  0  0  0  # atno 8009 bound_to 7997
  154.4017  140.1341  156.4058 H   0  0  0  0  0  0  0  0  0  0  0  0  # atno 8010 bound_to 7997
  140.5449  143.9612  150.6542 H   0  0  0  0  0  0  0  0  0  0  0  0  # atno 10167 bound_to 10162
  156.6985  130.5086  149.5924 H   0  0  0  0  0  0  0  0  0  0  0  0  # atno 10718 bound_to 10713
  153.2459  135.6908  153.7732 H   0  0  0  0  0  0  0  0  0  0  0  0  # atno 10763 bound_to 10752
  153.6845  135.3323  155.3187 H   0  0  0  0  0  0  0  0  0  0  0  0  # atno 10764 bound_to 10752
  154.8374  135.4530  154.1398 H   0  0  0  0  0  0  0  0  0  0  0  0  # atno 10765 bound_to 10752
  140.8088  133.8156  155.9543 H   0  0  0  0  0  0  0  0  0  0  0  0  # atno 11005 bound_to 11000
  145.1246  139.2671  143.5570 LP  0  0  0  0  0  0  0  0  0  0  0  0  # atno 17320 bound_to 7965
  146.3530  140.0880  142.8614 LP  0  0  0  0  0  0  0  0  0  0  0  0  # atno 17321 bound_to 7965
  140.3022  143.3253  152.0960 LP  0  0  0  0  0  0  0  0  0  0  0  0  # atno 17342 bound_to 10162
  139.5003  144.6689  151.6289 LP  0  0  0  0  0  0  0  0  0  0  0  0  # atno 17343 bound_to 10162
  156.1746  130.6459  151.0879 LP  0  0  0  0  0  0  0  0  0  0  0  0  # atno 17370 bound_to 10713
  157.6982  131.0786  150.6903 LP  0  0  0  0  0  0  0  0  0  0  0  0  # atno 17371 bound_to 10713
  140.9219  134.2131  157.4921 LP  0  0  0  0  0  0  0  0  0  0  0  0  # atno 17394 bound_to 11000
  139.8715  134.9796  156.5042 LP  0  0  0  0  0  0  0  0  0  0  0  0  # atno 17395 bound_to 11000

$$$$
