AV-unprocessed.smi:2603|AV-procd|sdf|10188|dock2
  -GOLD-   2272014203D 1   1.00000     0.00000
 Structure written by MMmdl.
 35 36  0  0  0  0  0  0  0  0  1 V2000
  152.7986  143.5817  161.4335 C   0  0  0  0  0  0  0  0  0  0  0  0
  152.1053  144.1564  160.1963 C   0  0  0  0  0  0  0  0  0  0  0  0
  151.1935  143.1966  159.6910 O   0  0  0  0  0  0  0  0  0  0  0  0
  150.6746  143.5746  158.4291 C   0  0  1  0  0  0  0  0  0  0  0  0
  151.7416  143.7672  157.3898 C   0  0  0  0  0  0  0  0  0  0  0  0
  150.8666  142.5261  157.3578 C   0  0  2  0  0  0  0  0  0  0  0  0
  149.8672  142.4404  156.3451 N   0  0  0  0  0  0  0  0  0  0  0  0
  149.6941  141.4095  155.5052 C   0  0  0  0  0  0  0  0  0  0  0  0
  150.4031  140.4034  155.5024 O   0  0  0  0  0  0  0  0  0  0  0  0
  148.5301  141.5263  154.5217 C   0  0  0  0  0  0  0  0  0  0  0  0
  147.2256  141.4970  155.2764 C   0  0  0  0  0  0  0  0  0  0  0  0
  146.8647  140.6840  156.3904 C   0  0  0  0  0  0  0  0  0  0  0  0
  147.6815  139.6424  157.1002 C   0  0  0  0  0  0  0  0  0  0  0  0
  145.6283  140.9216  156.7946 N   0  0  0  0  0  0  0  0  0  0  0  0
  145.1315  141.9160  155.9465 O   0  0  0  0  0  0  0  0  0  0  0  0
  146.0989  142.2388  155.0512 C   0  0  0  0  0  0  0  0  0  0  0  0
  145.7606  143.2852  154.0437 C   0  0  0  0  0  0  0  0  0  0  0  0
  153.5059  144.2980  161.8518 H   0  0  0  0  0  0  0  0  0  0  0  0
  153.3486  142.6733  161.1871 H   0  0  0  0  0  0  0  0  0  0  0  0
  152.0732  143.3352  162.2091 H   0  0  0  0  0  0  0  0  0  0  0  0
  151.5775  145.0748  160.4582 H   0  0  0  0  0  0  0  0  0  0  0  0
  152.8462  144.4072  159.4358 H   0  0  0  0  0  0  0  0  0  0  0  0
  149.8010  144.2248  158.4368 H   0  0  0  0  0  0  0  0  0  0  0  0
  151.5706  144.5285  156.6313 H   0  0  0  0  0  0  0  0  0  0  0  0
  152.7775  143.6434  157.6988 H   0  0  0  0  0  0  0  0  0  0  0  0
  151.3465  141.5979  157.6661 H   0  0  0  0  0  0  0  0  0  0  0  0
  149.2303  143.2200  156.2704 H   0  0  0  0  0  0  0  0  0  0  0  0
  148.6382  142.4422  153.9401 H   0  0  0  0  0  0  0  0  0  0  0  0
  148.5902  140.7073  153.8040 H   0  0  0  0  0  0  0  0  0  0  0  0
  147.4625  138.6470  156.7135 H   0  0  0  0  0  0  0  0  0  0  0  0
  147.4760  139.6372  158.1711 H   0  0  0  0  0  0  0  0  0  0  0  0
  148.7492  139.8194  156.9733 H   0  0  0  0  0  0  0  0  0  0  0  0
  146.0213  142.9511  153.0393 H   0  0  0  0  0  0  0  0  0  0  0  0
  146.3078  144.2057  154.2465 H   0  0  0  0  0  0  0  0  0  0  0  0
  144.6949  143.5148  154.0566 H   0  0  0  0  0  0  0  0  0  0  0  0
  1  2  1  0  0  0  0
  1 18  1  0  0  0  0
  1 19  1  0  0  0  0
  1 20  1  0  0  0  0
  2  3  1  0  0  0  0
  2 21  1  0  0  0  0
  2 22  1  0  0  0  0
  3  4  1  0  0  0  0
  4  6  1  0  0  0  0
  4  5  1  0  0  0  0
  4 23  1  0  0  0  0
  5  6  1  0  0  0  0
  5 24  1  0  0  0  0
  5 25  1  0  0  0  0
  6  7  1  0  0  0  0
  6 26  1  0  0  0  0
  7  8  1  0  0  0  0
  7 27  1  0  0  0  0
  8  9  2  0  0  0  0
  8 10  1  0  0  0  0
 10 11  1  0  0  0  0
 10 28  1  0  0  0  0
 10 29  1  0  0  0  0
 11 16  2  0  0  0  0
 11 12  1  0  0  0  0
 12 13  1  0  0  0  0
 12 14  2  0  0  0  0
 13 30  1  0  0  0  0
 13 31  1  0  0  0  0
 13 32  1  0  0  0  0
 14 15  1  0  0  0  0
 15 16  1  0  0  0  0
 16 17  1  0  0  0  0
 17 33  1  0  0  0  0
 17 34  1  0  0  0  0
 17 35  1  0  0  0  0
M  END
> <s_m_source_file>
AV-unprocessed.smi

> <i_m_source_file_index>
2603

> <i_lp_mmshare_version>
43012

> <i_f3d_flags>
0

> <s_epik_input>
W0NIM11bQ0gyXU9bQ0BASF0xW0NIMl1bQ0BIXTFbTkhdQyg9TylbQ0gyXWMyYyhbQ0gzXSlub2MyW0NIM10=

> <s_epik_cmdline>
J2VwaWtfcHl0aG9uJywgJy1waCcsICc3LjAnLCAnLXRuJywgJzgnLCAnLW1hJywgJzIwMCcsICctbWV0YWxfYmluZGluZycsICctaW1hZScsICc8aW5maWxlLm1hZT4nLCAnLW9tYWUnLCAnPG91dGZpbGUubWFlPic=

> <r_lp_tautomer_probability>
1

> <r_epik_Ionization_Penalty>
2.37325e-08

> <r_epik_Ionization_Penalty_Charging>
0

> <r_epik_Ionization_Penalty_Neutral>
2.37325e-08

> <r_epik_State_Penalty>
-0

> <r_epik_Charging_Adjusted_Penalty>
0

> <i_epik_Tot_Q>
0

> <i_epik_Tot_abs_Q>
0

> <r_epik_Metal_State_Penalty>
-0

> <b_epik_Metal_Only>
0

> <s_lp_Force_Field>
OPLS_2005

> <r_lp_Energy>
9.74593

> <b_lp_Chiralities_Consistent>
1

> <s_lp_Variant>
AV-unprocessed.smi:2603-4

> <Gold.Version>
5.8.1

> <Gold.Id.Protein>
6NUR|6NUR_protein|mol2

> <Gold.PLP.Fitness>
38.7612

> <Gold.PLP.PLP>
-33.9854

> <Gold.PLP.part.hbond>
-2.7256

> <Gold.PLP.part.metal>
0.0000

> <Gold.PLP.part.buried>
-3.9611

> <Gold.PLP.part.nonpolar>
-27.6988

> <Gold.PLP.part.repulsive>
0.3195

> <Gold.PLP.ligand.clash>
0.0000

> <Gold.PLP.ligand.torsion>
0.8524

> <Gold.PLP.Chemscore.Hbond>
1.9360

> <Gold.PLP.Chemscore.CHOScore>
0.0000

> <Gold.PLP.Chemscore.Metal>
0.0000

> <Gold.Chemscore.Hbonds>
donor molecule, donor type, donor heavy atom, donor atom, acceptor molecule, acceptor atom, score
      L1  H     7    27       P1  8028  0.99
      P1  H  7989  7998       L1     9  0.09

> <Gold.PLP.Chemscore.Internal.Correction>
0.6726

> <Gold.Rescore>
     Score         DG    S(hbond)    S(metal)    S(lipo)     H(rot)  DE(clash)    DE(int)     intcor
     13.91     -14.68       1.20        0.00      81.55       1.69       0.05       0.73       ----

> <Gold.Chemscore.Fitness>
13.9085

> <Gold.Chemscore.DG>
-14.6842

> <Gold.Chemscore.ZeroCoef>
-5.4800

> <Gold.Chemscore.Hbond>
1.1968

> <Gold.Chemscore.Metal>
0.0000

> <Gold.Chemscore.Lipo>
81.5524

> <Gold.Chemscore.Internal_Hbond>
0.0000

> <Gold.Chemscore.DEClash>
0.0456

> <Gold.Chemscore.DEInternal>
0.7300

> <Gold.Chemscore.Rot>
1.6933

> <Gold.Chemscore.Internal.Correction>
   9.000000E+99

> <Gold.Chemscore.Hbonds>
donor molecule, donor type, donor heavy atom, donor atom, acceptor molecule, acceptor atom, score
      L1  H     7    27       P1  8028  0.94
      P1  H  7989  7998       L1     9  0.02

> <Gold.Chemscore.Hbond.Weighted>
-3.9973

> <Gold.Chemscore.Metal.Weighted>
-0.0000

> <Gold.Chemscore.Lipo.Weighted>
-9.5416

> <Gold.Chemscore.Internal_Hbond.Weighted>
0.0000

> <Gold.Chemscore.DEClash.Weighted>
0.0456

> <Gold.Chemscore.DEInternal.Weighted>
0.7300

> <Gold.Chemscore.Rot.Weighted>
4.3348

> <Gold.Chemscore.Internal.Correction.Weighted>
   9.000000E+99

> <Gold.Protein.RotatedTorsions>
[ 6907 6896 6895 6894 ] final  -95.65 input  -60.11 | X-H torsion
[ 7974 7965 7964 7962 ] final  107.55 input  175.53 | X-H torsion
[ 8008 7997 7996 7995 ] final -174.34 input   59.86 | X-H torsion
[ 10167 10162 10161 10158 ] final  -75.13 input  -65.29 | X-H torsion
[ 10718 10713 10712 10709 ] final -141.87 input   66.30 | X-H torsion
[ 10763 10752 10751 10750 ] final  -42.31 input  -60.55 | X-H torsion
[ 11005 11000 10999 10996 ] final    4.71 input  -57.11 | X-H torsion

> <Gold.Protein.ActiveResidues>
 VAL166  LYS551  ARG553  GLY616  TRP617  ASP618  TYR619  PRO620  LYS621  CYS622 
 ASP623  PHE694  ASN695  SER759  ASP760  ASP761  ALA762  ILE779  LEU786  VAL792 
 PHE793  MET794  SER795  GLU796  ALA797  LYS798  CYS799  TRP800  GLU811  SER814 

> <Gold.Protein.RotatedAtoms>
  150.6969  134.1625  159.4181 H   0  0  0  0  0  0  0  0  0  0  0  0  # atno 6907 bound_to 6896
  151.9605  135.0123  160.0556 H   0  0  0  0  0  0  0  0  0  0  0  0  # atno 6908 bound_to 6896
  152.1931  133.4752  159.5055 H   0  0  0  0  0  0  0  0  0  0  0  0  # atno 6909 bound_to 6896
  145.2921  139.2597  143.3859 H   0  0  0  0  0  0  0  0  0  0  0  0  # atno 7974 bound_to 7965
  155.9688  140.1159  157.0830 H   0  0  0  0  0  0  0  0  0  0  0  0  # atno 8008 bound_to 7997
  154.4151  140.1167  156.5346 H   0  0  0  0  0  0  0  0  0  0  0  0  # atno 8009 bound_to 7997
  155.6624  140.3473  155.4789 H   0  0  0  0  0  0  0  0  0  0  0  0  # atno 8010 bound_to 7997
  140.4968  143.2369  151.7817 H   0  0  0  0  0  0  0  0  0  0  0  0  # atno 10167 bound_to 10162
  156.3391  130.7627  151.1760 H   0  0  0  0  0  0  0  0  0  0  0  0  # atno 10718 bound_to 10713
  153.9770  135.6721  153.4749 H   0  0  0  0  0  0  0  0  0  0  0  0  # atno 10763 bound_to 10752
  153.0766  135.4945  154.8413 H   0  0  0  0  0  0  0  0  0  0  0  0  # atno 10764 bound_to 10752
  154.7186  135.3112  154.9044 H   0  0  0  0  0  0  0  0  0  0  0  0  # atno 10765 bound_to 10752
  140.5788  134.0032  155.8039 H   0  0  0  0  0  0  0  0  0  0  0  0  # atno 11005 bound_to 11000
  146.3181  140.3415  142.8648 LP  0  0  0  0  0  0  0  0  0  0  0  0  # atno 17320 bound_to 7965
  144.9164  140.7817  143.5776 LP  0  0  0  0  0  0  0  0  0  0  0  0  # atno 17321 bound_to 7965
  139.4863  144.4575  151.9580 LP  0  0  0  0  0  0  0  0  0  0  0  0  # atno 17342 bound_to 10162
  140.3663  144.2911  150.5926 LP  0  0  0  0  0  0  0  0  0  0  0  0  # atno 17343 bound_to 10162
  157.7444  131.0459  150.4869 LP  0  0  0  0  0  0  0  0  0  0  0  0  # atno 17370 bound_to 10713
  156.5047  130.4125  149.6334 LP  0  0  0  0  0  0  0  0  0  0  0  0  # atno 17371 bound_to 10713
  141.1009  133.9769  157.3080 LP  0  0  0  0  0  0  0  0  0  0  0  0  # atno 17394 bound_to 11000
  139.9327  135.0199  156.8453 LP  0  0  0  0  0  0  0  0  0  0  0  0  # atno 17395 bound_to 11000

$$$$
