#       Name:                AV-unprocessed.smi:221
#       Creating user name   scv26
#       Creation time:       Thu Mar 26 20:12:29 2020


#       File generated by GOLD software.
#

@<TRIPOS>MOLECULE
AV-unprocessed.smi:221
    60    63     1
SMALL
NO_CHARGES


@<TRIPOS>ATOM
      1 ****         0.9242   5.0128  -0.7603 N.am           1 S1                 0.0000
      2 ****        -0.1810   4.9092  -0.0188 C.2            1 S1                 0.0000
      3 ****        -0.3038   5.4939   1.0561 O.2            1 S1                 0.0000
      4 ****        -1.3119   4.0362  -0.5816 C.3            1 S1                 0.0000
      5 ****        -2.3590   4.8701  -1.3314 C.3            1 S1                 0.0000
      6 ****        -3.6045   3.9928  -1.2734 C.3            1 S1                 0.0000
      7 ****        -3.5469   3.0724  -2.2372 F              1 S1                 0.0000
      8 ****        -3.4931   3.3112   0.0926 C.3            1 S1                 0.0000
      9 ****        -2.0840   3.3741   0.4723 N.3            1 S1                 0.0000
     10 ****        -1.5583   2.2286   0.9596 C.ar           1 S1                 0.0000
     11 ****        -1.1395   2.2382   2.2485 N.ar           1 S1                 0.0000
     12 ****        -0.6057   1.1363   2.7847 C.ar           1 S1                 0.0000
     13 ****        -0.4040  -0.0559   2.2182 N.ar           1 S1                 0.0000
     14 ****        -0.8262  -0.0654   0.9211 C.ar           1 S1                 0.0000
     15 ****        -1.4131   1.0230   0.2176 C.ar           1 S1                 0.0000
     16 ****        -1.7187   0.6395  -1.0827 N.2            1 S1                 0.0000
     17 ****        -1.3308  -0.6050  -1.1456 C.2            1 S1                 0.0000
     18 ****        -0.7761  -1.1055   0.0109 N.pl3          1 S1                 0.0000
     19 ****        -0.2586  -2.4454   0.2216 C.3            1 S1                 0.0000
     20 ****         1.2872  -2.5125   0.3035 C.3            1 S1                 0.0000
     21 ****         1.9835  -1.9371  -0.9575 C.3            1 S1                 0.0000
     22 ****         2.0223  -0.5249  -0.9368 O.3            1 S1                 0.0000
     23 ****         1.7245  -3.9591   0.6530 C.3            1 S1                 0.0000
     24 ****         3.1618  -4.1372   1.1075 C.3            1 S1                 0.0000
     25 ****         3.3269  -5.6492   0.9941 C.3            1 S1                 0.0000
     26 ****         2.5282  -6.0413  -0.1188 O.3            1 S1                 0.0000
     27 ****         1.6194  -4.9995  -0.4672 C.3            1 S1                 0.0000
     28 ****        -0.8925   3.2928  -1.2623 H              1 S1                 0.0000
     29 ****        -4.5336   4.5478  -1.4045 H              1 S1                 0.0000
     30 ****         1.6972   5.5725  -0.4306 H              1 S1                 0.0000
     31 ****         0.9859   4.5294  -1.6446 H              1 S1                 0.0000
     32 ****        -2.5531   5.8105  -0.8123 H              1 S1                 0.0000
     33 ****        -2.0592   5.1077  -2.3527 H              1 S1                 0.0000
     34 ****        -4.0572   3.8744   0.8365 H              1 S1                 0.0000
     35 ****        -3.9032   2.2998   0.0756 H              1 S1                 0.0000
     36 ****        -0.2951   1.2223   3.8156 H              1 S1                 0.0000
     37 ****        -1.4322  -1.1932  -2.0462 H              1 S1                 0.0000
     38 ****        -0.7028  -2.8285   1.1410 H              1 S1                 0.0000
     39 ****        -0.6209  -3.0845  -0.5845 H              1 S1                 0.0000
     40 ****         1.5940  -1.9001   1.1531 H              1 S1                 0.0000
     41 ****         3.0151  -2.2743  -1.0352 H              1 S1                 0.0000
     42 ****         1.4783  -2.2678  -1.8653 H              1 S1                 0.0000
     43 ****         2.4636  -0.2252  -1.7169 H              1 S1                 0.0000
     44 ****         1.1022  -4.3064   1.4801 H              1 S1                 0.0000
     45 ****         3.8654  -3.6420   0.4399 H              1 S1                 0.0000
     46 ****         3.3380  -3.7694   2.1188 H              1 S1                 0.0000
     47 ****         4.3672  -5.9485   0.8653 H              1 S1                 0.0000
     48 ****         2.9415  -6.1412   1.8883 H              1 S1                 0.0000
     49 ****         0.6053  -5.3837  -0.5791 H              1 S1                 0.0000
     50 ****         1.9326  -4.5945  -1.4289 H              1 S1                 0.0000
     51 ****         0.4384   6.0692   1.4000 LP             1 S1                 0.0000
     52 ****        -1.1458   5.3941   1.5862 LP             1 S1                 0.0000
     53 ****        -2.0202   3.9513   1.2864 LP             1 S1                 0.0000
     54 ****        -1.2297   3.0689   2.7978 LP             1 S1                 0.0000
     55 ****         0.0040  -0.8407   2.6847 LP             1 S1                 0.0000
     56 ****        -2.1389   1.1902  -1.8039 LP             1 S1                 0.0000
     57 ****         2.5196  -0.2130  -0.1272 LP             1 S1                 0.0000
     58 ****         1.0906  -0.1622  -0.9160 LP             1 S1                 0.0000
     59 ****         2.0116  -6.8637   0.1193 LP             1 S1                 0.0000
     60 ****         3.1225  -6.2353  -0.8993 LP             1 S1                 0.0000
@<TRIPOS>BOND
    1    1    2 am    
    2    1   30 1     
    3    1   31 1     
    4    2    3 2     
    5    2    4 1     
    6    4   28 1     
    7    4    9 1     
    8    4    5 1     
    9    5    6 1     
   10    5   32 1     
   11    5   33 1     
   12    6   29 1     
   13    6    7 1     
   14    6    8 1     
   15    8    9 1     
   16    8   34 1     
   17    8   35 1     
   18    9   10 1     
   19   10   15 ar    
   20   10   11 ar    
   21   11   12 ar    
   22   12   13 ar    
   23   12   36 1     
   24   13   14 ar    
   25   14   18 1     
   26   14   15 ar    
   27   15   16 1     
   28   16   17 2     
   29   17   18 1     
   30   17   37 1     
   31   18   19 1     
   32   19   20 1     
   33   19   38 1     
   34   19   39 1     
   35   20   21 1     
   36   20   23 1     
   37   20   40 1     
   38   21   22 1     
   39   21   41 1     
   40   21   42 1     
   41   22   43 1     
   42   23   27 1     
   43   23   24 1     
   44   23   44 1     
   45   24   25 1     
   46   24   45 1     
   47   24   46 1     
   48   25   26 1     
   49   25   47 1     
   50   25   48 1     
   51   26   27 1     
   52   27   49 1     
   53   27   50 1     
   54    3   51 1     
   55    3   52 1     
   56    9   53 1     
   57   11   54 1     
   58   13   55 1     
   59   16   56 1     
   60   22   57 1     
   61   22   58 1     
   62   26   59 1     
   63   26   60 1     
@<TRIPOS>SUBSTRUCTURE
      1 S1             1
@<TRIPOS>SET
LONE_PAIRS      STATIC     ATOMS    <user>   **** ""
10 51 52 53 54 55 56 57 58 59 60
DONOR_HYDROGENS      STATIC     ATOMS    <user>   **** ""
3 30 31 43
ATOM$BLUE        STATIC     ATOMS    COLORGROUP SYSTEM
10 51 52 53 54 55 56 57 58 59 60
ATOM$RED        STATIC     ATOMS    COLORGROUP SYSTEM
3 30 31 43
