AV-unprocessed.smi:2901|AV-procd|sdf|11149|dock8
  -GOLD-   2272016 23D 1   1.00000     0.00000
 Structure written by MMmdl.
 40 41  0  0  0  0  0  0  0  0  1 V2000
  154.8670  140.0408  160.6278 C   0  0  0  0  0  0  0  0  0  0  0  0
  153.8702  141.1151  160.3611 C   0  0  0  0  0  0  0  0  0  0  0  0
  153.0935  141.2493  159.2882 N   0  0  0  0  0  0  0  0  0  0  0  0
  152.3575  142.4020  159.5254 C   0  0  0  0  0  0  0  0  0  0  0  0
  151.3438  142.9134  158.5480 C   0  0  0  0  0  0  0  0  0  0  0  0
  151.2029  141.9915  157.3258 C   0  0  0  0  0  0  0  0  0  0  0  0
  150.0968  142.4003  156.4679 N   0  0  0  0  0  0  0  0  0  0  0  0
  149.4359  141.5890  155.6310 C   0  0  0  0  0  0  0  0  0  0  0  0
  149.6823  140.3908  155.4925 O   0  0  0  0  0  0  0  0  0  0  0  0
  148.4791  142.2415  154.9576 N   0  0  0  0  0  0  0  0  0  0  0  0
  147.6013  141.6390  153.9602 C   0  0  0  0  0  0  0  0  0  0  0  0
  146.1426  142.1039  154.1155 C   0  0  2  0  0  0  0  0  0  0  0  0
  145.8859  143.5581  153.7184 C   0  0  0  0  0  0  0  0  0  0  0  0
  144.6756  143.9496  154.5530 C   0  0  0  0  0  0  0  0  0  0  0  0
  144.5485  142.8243  155.5842 C   0  0  0  0  0  0  0  0  0  0  0  0
  145.7585  142.0876  155.4800 O   0  0  0  0  0  0  0  0  0  0  0  0
  152.7316  142.9040  160.7459 C   0  0  0  0  0  0  0  0  0  0  0  0
  152.3006  144.0952  161.5324 C   0  0  0  0  0  0  0  0  0  0  0  0
  153.6952  142.0960  161.2871 O   0  0  0  0  0  0  0  0  0  0  0  0
  154.7766  139.2468  159.8862 H   0  0  0  0  0  0  0  0  0  0  0  0
  154.7019  139.6160  161.6180 H   0  0  0  0  0  0  0  0  0  0  0  0
  155.8762  140.4505  160.5835 H   0  0  0  0  0  0  0  0  0  0  0  0
  150.3752  143.0185  159.0382 H   0  0  0  0  0  0  0  0  0  0  0  0
  151.6238  143.9163  158.2230 H   0  0  0  0  0  0  0  0  0  0  0  0
  152.1320  141.9686  156.7531 H   0  0  0  0  0  0  0  0  0  0  0  0
  151.0153  140.9684  157.6532 H   0  0  0  0  0  0  0  0  0  0  0  0
  149.8191  143.3699  156.5119 H   0  0  0  0  0  0  0  0  0  0  0  0
  148.3526  143.2261  155.1403 H   0  0  0  0  0  0  0  0  0  0  0  0
  147.9653  141.8666  152.9571 H   0  0  0  0  0  0  0  0  0  0  0  0
  147.6601  140.5559  154.0705 H   0  0  0  0  0  0  0  0  0  0  0  0
  145.4719  141.4446  153.5610 H   0  0  0  0  0  0  0  0  0  0  0  0
  146.7367  144.1817  153.9962 H   0  0  0  0  0  0  0  0  0  0  0  0
  145.7189  143.6753  152.6472 H   0  0  0  0  0  0  0  0  0  0  0  0
  144.8341  144.9164  155.0321 H   0  0  0  0  0  0  0  0  0  0  0  0
  143.7725  144.0201  153.9453 H   0  0  0  0  0  0  0  0  0  0  0  0
  144.4000  143.1981  156.5975 H   0  0  0  0  0  0  0  0  0  0  0  0
  143.7106  142.1711  155.3363 H   0  0  0  0  0  0  0  0  0  0  0  0
  151.2274  144.2585  161.4319 H   0  0  0  0  0  0  0  0  0  0  0  0
  152.8136  144.9922  161.1854 H   0  0  0  0  0  0  0  0  0  0  0  0
  152.5233  143.9658  162.5919 H   0  0  0  0  0  0  0  0  0  0  0  0
  1  2  1  0  0  0  0
  1 20  1  0  0  0  0
  1 21  1  0  0  0  0
  1 22  1  0  0  0  0
  2 19  1  0  0  0  0
  2  3  2  0  0  0  0
  3  4  1  0  0  0  0
  4  5  1  0  0  0  0
  4 17  2  0  0  0  0
  5  6  1  0  0  0  0
  5 23  1  0  0  0  0
  5 24  1  0  0  0  0
  6  7  1  0  0  0  0
  6 25  1  0  0  0  0
  6 26  1  0  0  0  0
  7  8  1  0  0  0  0
  7 27  1  0  0  0  0
  8  9  2  0  0  0  0
  8 10  1  0  0  0  0
 10 11  1  0  0  0  0
 10 28  1  0  0  0  0
 11 12  1  0  0  0  0
 11 29  1  0  0  0  0
 11 30  1  0  0  0  0
 12 16  1  0  0  0  0
 12 13  1  0  0  0  0
 12 31  1  0  0  0  0
 13 14  1  0  0  0  0
 13 32  1  0  0  0  0
 13 33  1  0  0  0  0
 14 15  1  0  0  0  0
 14 34  1  0  0  0  0
 14 35  1  0  0  0  0
 15 16  1  0  0  0  0
 15 36  1  0  0  0  0
 15 37  1  0  0  0  0
 17 18  1  0  0  0  0
 17 19  1  0  0  0  0
 18 38  1  0  0  0  0
 18 39  1  0  0  0  0
 18 40  1  0  0  0  0
M  END
> <s_m_source_file>
AV-unprocessed.smi

> <i_m_source_file_index>
2901

> <i_lp_mmshare_version>
43012

> <i_f3d_flags>
0

> <s_epik_input>
W0NIM11jMW5jKGMobzEpW0NIM10pW0NIMl1bQ0gyXVtOSF1DKD1PKVtOSF1bQ0gyXVtDQEBIXTJbQ0gyXVtDSDJdW0NIMl1PMg==

> <s_epik_cmdline>
J2VwaWtfcHl0aG9uJywgJy1waCcsICc3LjAnLCAnLXRuJywgJzgnLCAnLW1hJywgJzIwMCcsICctbWV0YWxfYmluZGluZycsICctaW1hZScsICc8aW5maWxlLm1hZT4nLCAnLW9tYWUnLCAnPG91dGZpbGUubWFlPic=

> <r_lp_tautomer_probability>
1

> <r_epik_Ionization_Penalty>
9.58254e-05

> <r_epik_Ionization_Penalty_Charging>
0

> <r_epik_Ionization_Penalty_Neutral>
9.58254e-05

> <r_epik_State_Penalty>
-0

> <r_epik_Charging_Adjusted_Penalty>
0

> <i_epik_Tot_Q>
0

> <i_epik_Tot_abs_Q>
0

> <r_epik_Metal_State_Penalty>
-0

> <b_epik_Metal_Only>
0

> <s_lp_Force_Field>
OPLS_2005

> <r_lp_Energy>
8.98545

> <b_lp_Chiralities_Consistent>
1

> <s_lp_Variant>
AV-unprocessed.smi:2901-1

> <Gold.Version>
5.8.1

> <Gold.Id.Protein>
6NUR|6NUR_protein|mol2

> <Gold.PLP.Fitness>
46.4789

> <Gold.PLP.PLP>
-41.5044

> <Gold.PLP.part.hbond>
-2.0000

> <Gold.PLP.part.metal>
0.0000

> <Gold.PLP.part.buried>
-6.8748

> <Gold.PLP.part.nonpolar>
-33.2212

> <Gold.PLP.part.repulsive>
0.4786

> <Gold.PLP.ligand.clash>
0.0000

> <Gold.PLP.ligand.torsion>
0.3979

> <Gold.PLP.Chemscore.Hbond>
1.9120

> <Gold.PLP.Chemscore.CHOScore>
0.0000

> <Gold.PLP.Chemscore.Metal>
0.0000

> <Gold.Chemscore.Hbonds>
donor molecule, donor type, donor heavy atom, donor atom, acceptor molecule, acceptor atom, score
      L1  H     7    27       P1  8028  0.91
      L1  H    10    28       P1  8028  1.00

> <Gold.PLP.Chemscore.Internal.Correction>
0.0342

> <Gold.Rescore>
     Score         DG    S(hbond)    S(metal)    S(lipo)     H(rot)  DE(clash)    DE(int)     intcor
     17.29     -17.70       1.93        0.00      91.23       1.92       0.04       0.37       ----

> <Gold.Chemscore.Fitness>
17.2949

> <Gold.Chemscore.DG>
-17.7040

> <Gold.Chemscore.ZeroCoef>
-5.4800

> <Gold.Chemscore.Hbond>
1.9332

> <Gold.Chemscore.Metal>
0.0000

> <Gold.Chemscore.Lipo>
91.2308

> <Gold.Chemscore.Internal_Hbond>
0.0000

> <Gold.Chemscore.DEClash>
0.0428

> <Gold.Chemscore.DEInternal>
0.3663

> <Gold.Chemscore.Rot>
1.9167

> <Gold.Chemscore.Internal.Correction>
   9.000000E+99

> <Gold.Chemscore.Hbonds>
donor molecule, donor type, donor heavy atom, donor atom, acceptor molecule, acceptor atom, score
      L1  H     7    27       P1  8028  0.90
      L1  H    10    28       P1  8028  0.96

> <Gold.Chemscore.Hbond.Weighted>
-6.4569

> <Gold.Chemscore.Metal.Weighted>
-0.0000

> <Gold.Chemscore.Lipo.Weighted>
-10.6740

> <Gold.Chemscore.Internal_Hbond.Weighted>
0.0000

> <Gold.Chemscore.DEClash.Weighted>
0.0428

> <Gold.Chemscore.DEInternal.Weighted>
0.3663

> <Gold.Chemscore.Rot.Weighted>
4.9069

> <Gold.Chemscore.Internal.Correction.Weighted>
   9.000000E+99

> <Gold.Protein.RotatedTorsions>
[ 6907 6896 6895 6894 ] final   -8.04 input  -60.11 | X-H torsion
[ 7974 7965 7964 7962 ] final  -58.53 input  175.53 | X-H torsion
[ 8008 7997 7996 7995 ] final   -5.64 input   59.86 | X-H torsion
[ 10167 10162 10161 10158 ] final   72.64 input  -65.29 | X-H torsion
[ 10718 10713 10712 10709 ] final  120.42 input   66.30 | X-H torsion
[ 10763 10752 10751 10750 ] final -170.08 input  -60.55 | X-H torsion
[ 11005 11000 10999 10996 ] final  145.05 input  -57.11 | X-H torsion

> <Gold.Protein.ActiveResidues>
 VAL166  LYS551  ARG553  GLY616  TRP617  ASP618  TYR619  PRO620  LYS621  CYS622 
 ASP623  PHE694  ASN695  SER759  ASP760  ASP761  ALA762  ILE779  LEU786  VAL792 
 PHE793  MET794  SER795  GLU796  ALA797  LYS798  CYS799  TRP800  GLU811  SER814 

> <Gold.Protein.RotatedAtoms>
  151.4399  135.1019  159.9666 H   0  0  0  0  0  0  0  0  0  0  0  0  # atno 6907 bound_to 6896
  152.4926  133.8538  159.7225 H   0  0  0  0  0  0  0  0  0  0  0  0  # atno 6908 bound_to 6896
  150.9095  133.6957  159.2886 H   0  0  0  0  0  0  0  0  0  0  0  0  # atno 6909 bound_to 6896
  145.8382  140.8434  143.0048 H   0  0  0  0  0  0  0  0  0  0  0  0  # atno 7974 bound_to 7965
  154.6019  140.2453  155.7782 H   0  0  0  0  0  0  0  0  0  0  0  0  # atno 8008 bound_to 7997
  156.2316  140.2964  156.0155 H   0  0  0  0  0  0  0  0  0  0  0  0  # atno 8009 bound_to 7997
  155.2197  140.0400  157.2937 H   0  0  0  0  0  0  0  0  0  0  0  0  # atno 8010 bound_to 7997
  140.0331  144.5449  150.7491 H   0  0  0  0  0  0  0  0  0  0  0  0  # atno 10167 bound_to 10162
  157.5892  131.1066  150.8032 H   0  0  0  0  0  0  0  0  0  0  0  0  # atno 10718 bound_to 10713
  154.6454  135.2904  155.0053 H   0  0  0  0  0  0  0  0  0  0  0  0  # atno 10763 bound_to 10752
  154.1164  135.6554  153.4898 H   0  0  0  0  0  0  0  0  0  0  0  0  # atno 10764 bound_to 10752
  153.0348  135.5277  154.7338 H   0  0  0  0  0  0  0  0  0  0  0  0  # atno 10765 bound_to 10752
  140.0681  134.9167  157.1298 H   0  0  0  0  0  0  0  0  0  0  0  0  # atno 11005 bound_to 11000
  144.6735  140.0773  143.7470 LP  0  0  0  0  0  0  0  0  0  0  0  0  # atno 17320 bound_to 7965
  145.9494  139.2723  143.1221 LP  0  0  0  0  0  0  0  0  0  0  0  0  # atno 17321 bound_to 7965
  140.7293  143.2671  151.4009 LP  0  0  0  0  0  0  0  0  0  0  0  0  # atno 17342 bound_to 10162
  139.6063  144.1191  152.2252 LP  0  0  0  0  0  0  0  0  0  0  0  0  # atno 17343 bound_to 10162
  156.8459  130.5064  149.5316 LP  0  0  0  0  0  0  0  0  0  0  0  0  # atno 17370 bound_to 10713
  156.0945  130.5921  150.9789 LP  0  0  0  0  0  0  0  0  0  0  0  0  # atno 17371 bound_to 10713
  140.3669  134.2433  155.7181 LP  0  0  0  0  0  0  0  0  0  0  0  0  # atno 17394 bound_to 11000
  141.2001  133.7996  157.0506 LP  0  0  0  0  0  0  0  0  0  0  0  0  # atno 17395 bound_to 11000

$$$$
