AV-unprocessed.smi:1762|AV-procd|sdf|7106|dock5
  -GOLD-   22720 8333D 1   1.00000     0.00000
 Structure written by MMmdl.
 53 54  0  0  0  0  0  0  0  0  2 V2000
  145.9525  142.4937  161.7742 C   0  0  0  0  0  0  0  0  0  0  0  0
  145.2958  141.5454  160.7645 C   0  0  1  0  0  0  0  0  0  0  0  0
  145.8256  141.7559  159.3326 C   0  0  0  0  0  0  0  0  0  0  0  0
  145.2667  140.7916  158.3690 N   0  0  0  0  0  0  0  0  0  0  0  0
  145.7514  140.9698  156.9714 C   0  0  2  0  0  0  0  0  0  0  0  0
  147.1952  140.4573  156.7526 C   0  0  0  0  0  0  0  0  0  0  0  0
  147.4092  139.4797  156.0348 O   0  0  0  0  0  0  0  0  0  0  0  0
  148.1752  141.1367  157.3696 N   0  0  0  0  0  0  0  0  0  0  0  0
  149.5937  140.8092  157.2963 C   0  0  0  0  0  0  0  0  0  0  0  0
  150.4095  141.9637  156.6902 C   0  0  0  0  0  0  0  0  0  0  0  0
  151.0571  142.8290  157.7538 C   0  0  0  0  0  0  0  0  0  0  0  0
  151.9925  142.3107  158.6758 C   0  0  0  0  0  0  0  0  0  0  0  0
  152.5638  143.1720  159.6357 C   0  0  0  0  0  0  0  0  0  0  0  0
  152.1898  144.5318  159.6525 C   0  0  0  0  0  0  0  0  0  0  0  0
  151.2521  144.9964  158.7077 C   0  0  0  0  0  0  0  0  0  0  0  0
  150.7265  144.1399  157.8042 N   0  3  0  0  0  0  0  0  0  0  0  0
  145.5870  142.4159  156.3932 C   0  0  0  0  0  0  0  0  0  0  0  0
  144.2263  143.0620  156.7250 C   0  0  0  0  0  0  0  0  0  0  0  0
  145.8734  142.5185  154.8821 C   0  0  0  0  0  0  0  0  0  0  0  0
  145.4937  139.4358  158.8845 C   0  0  0  0  0  0  0  0  0  0  0  0
  144.9625  139.2450  160.3181 C   0  0  1  0  0  0  0  0  0  0  0  0
  145.2750  137.8510  160.8740 C   0  0  0  0  0  0  0  0  0  0  0  0
  145.5642  140.2097  161.1716 O   0  0  0  0  0  0  0  0  0  0  0  0
  145.7629  143.5357  161.5154 H   0  0  0  0  0  0  0  0  0  0  0  0
  147.0324  142.3477  161.8086 H   0  0  0  0  0  0  0  0  0  0  0  0
  145.5616  142.3250  162.7778 H   0  0  0  0  0  0  0  0  0  0  0  0
  144.2172  141.7115  160.7818 H   0  0  0  0  0  0  0  0  0  0  0  0
  145.5806  142.7806  159.0560 H   0  0  0  0  0  0  0  0  0  0  0  0
  146.9148  141.6847  159.3326 H   0  0  0  0  0  0  0  0  0  0  0  0
  145.1217  140.3340  156.3451 H   0  0  0  0  0  0  0  0  0  0  0  0
  147.9163  141.9340  157.9329 H   0  0  0  0  0  0  0  0  0  0  0  0
  149.9695  140.5549  158.2891 H   0  0  0  0  0  0  0  0  0  0  0  0
  149.7013  139.9129  156.6849 H   0  0  0  0  0  0  0  0  0  0  0  0
  151.1859  141.5687  156.0331 H   0  0  0  0  0  0  0  0  0  0  0  0
  149.7715  142.5913  156.0661 H   0  0  0  0  0  0  0  0  0  0  0  0
  152.2711  141.2670  158.6485 H   0  0  0  0  0  0  0  0  0  0  0  0
  153.2811  142.7942  160.3499 H   0  0  0  0  0  0  0  0  0  0  0  0
  152.6164  145.2077  160.3793 H   0  0  0  0  0  0  0  0  0  0  0  0
  150.9091  146.0191  158.6479 H   0  0  0  0  0  0  0  0  0  0  0  0
  146.3088  143.0572  156.8963 H   0  0  0  0  0  0  0  0  0  0  0  0
  143.4038  142.5887  156.1875 H   0  0  0  0  0  0  0  0  0  0  0  0
  144.2224  144.1179  156.4533 H   0  0  0  0  0  0  0  0  0  0  0  0
  144.0105  142.9999  157.7919 H   0  0  0  0  0  0  0  0  0  0  0  0
  145.1367  141.9766  154.2897 H   0  0  0  0  0  0  0  0  0  0  0  0
  146.8580  142.1229  154.6324 H   0  0  0  0  0  0  0  0  0  0  0  0
  145.8517  143.5580  154.5539 H   0  0  0  0  0  0  0  0  0  0  0  0
  144.9909  138.6974  158.2635 H   0  0  0  0  0  0  0  0  0  0  0  0
  146.5592  139.2010  158.8545 H   0  0  0  0  0  0  0  0  0  0  0  0
  143.8805  139.3887  160.3278 H   0  0  0  0  0  0  0  0  0  0  0  0
  144.8211  137.0727  160.2601 H   0  0  0  0  0  0  0  0  0  0  0  0
  144.8896  137.7408  161.8877 H   0  0  0  0  0  0  0  0  0  0  0  0
  146.3497  137.6697  160.9044 H   0  0  0  0  0  0  0  0  0  0  0  0
  150.0494  144.4980  157.1302 H   0  0  0  0  0  0  0  0  0  0  0  0
  1  2  1  0  0  0  0
  1 24  1  0  0  0  0
  1 25  1  0  0  0  0
  1 26  1  0  0  0  0
  2 23  1  0  0  0  0
  2  3  1  0  0  0  0
  2 27  1  0  0  0  0
  3  4  1  0  0  0  0
  3 28  1  0  0  0  0
  3 29  1  0  0  0  0
  4  5  1  0  0  0  0
  4 20  1  0  0  0  0
  5  6  1  0  0  0  0
  5 17  1  0  0  0  0
  5 30  1  0  0  0  0
  6  7  2  0  0  0  0
  6  8  1  0  0  0  0
  8  9  1  0  0  0  0
  8 31  1  0  0  0  0
  9 10  1  0  0  0  0
  9 32  1  0  0  0  0
  9 33  1  0  0  0  0
 10 11  1  0  0  0  0
 10 34  1  0  0  0  0
 10 35  1  0  0  0  0
 11 16  1  0  0  0  0
 11 12  2  0  0  0  0
 12 13  1  0  0  0  0
 12 36  1  0  0  0  0
 13 14  2  0  0  0  0
 13 37  1  0  0  0  0
 14 15  1  0  0  0  0
 14 38  1  0  0  0  0
 15 16  2  0  0  0  0
 15 39  1  0  0  0  0
 16 53  1  0  0  0  0
 17 18  1  0  0  0  0
 17 19  1  0  0  0  0
 17 40  1  0  0  0  0
 18 41  1  0  0  0  0
 18 42  1  0  0  0  0
 18 43  1  0  0  0  0
 19 44  1  0  0  0  0
 19 45  1  0  0  0  0
 19 46  1  0  0  0  0
 20 21  1  0  0  0  0
 20 47  1  0  0  0  0
 20 48  1  0  0  0  0
 21 22  1  0  0  0  0
 21 23  1  0  0  0  0
 21 49  1  0  0  0  0
 22 50  1  0  0  0  0
 22 51  1  0  0  0  0
 22 52  1  0  0  0  0
M  CHG  1  16   1
M  END
> <s_m_source_file>
AV-unprocessed.smi

> <i_m_source_file_index>
1762

> <i_lp_mmshare_version>
43012

> <i_f3d_flags>
0

> <s_epik_input>
W0NIM11bQ0BASF0xW0NIMl1OKFtDSDJdW0NASF0oTzEpW0NIM10pW0NAQEhdKFtDSF0oW0NIM10pW0NIM10pQyg9TylbTkhdW0NIMl1bQ0gyXWMyW2NIXVtjSF1bY0hdW2NIXW4y

> <s_epik_cmdline>
J2VwaWtfcHl0aG9uJywgJy1waCcsICc3LjAnLCAnLXRuJywgJzgnLCAnLW1hJywgJzIwMCcsICctbWV0YWxfYmluZGluZycsICctaW1hZScsICc8aW5maWxlLm1hZT4nLCAnLW9tYWUnLCAnPG91dGZpbGUubWFlPic=

> <r_epik_Ionization_Penalty>
1.86475

> <r_epik_Ionization_Penalty_Charging>
1.85347

> <r_epik_Ionization_Penalty_Neutral>
0.0112771

> <r_epik_State_Penalty>
1.99714

> <r_epik_Charging_Adjusted_Penalty>
3.85061

> <i_epik_Tot_Q>
1

> <i_epik_Tot_abs_Q>
1

> <r_epik_Metal_State_Penalty>
2.02271

> <b_epik_Metal_Only>
0

> <s_lp_Force_Field>
OPLS_2005

> <r_lp_Energy>
32.9979

> <b_lp_Chiralities_Consistent>
1

> <s_lp_Variant>
AV-unprocessed.smi:1762-8

> <Gold.Version>
5.8.1

> <Gold.Id.Protein>
6NUR|6NUR_protein|mol2

> <Gold.PLP.Fitness>
45.6369

> <Gold.PLP.PLP>
-38.1862

> <Gold.PLP.part.hbond>
-2.0000

> <Gold.PLP.part.metal>
0.0000

> <Gold.PLP.part.buried>
-6.6945

> <Gold.PLP.part.nonpolar>
-29.4983

> <Gold.PLP.part.repulsive>
0.0927

> <Gold.PLP.ligand.clash>
0.0000

> <Gold.PLP.ligand.torsion>
0.5358

> <Gold.PLP.Chemscore.Hbond>
2.7360

> <Gold.PLP.Chemscore.CHOScore>
0.0000

> <Gold.PLP.Chemscore.Metal>
0.0000

> <Gold.Chemscore.Hbonds>
donor molecule, donor type, donor heavy atom, donor atom, acceptor molecule, acceptor atom, score
      L1  H    16    53       P1  8028  2.00

> <Gold.PLP.Chemscore.Internal.Correction>
0.3144

> <Gold.Rescore>
     Score         DG    S(hbond)    S(metal)    S(lipo)     H(rot)  DE(clash)    DE(int)     intcor
     15.76     -16.35       1.22        0.00      95.77       1.72       0.01       0.59       ----

> <Gold.Chemscore.Fitness>
15.7552

> <Gold.Chemscore.DG>
-16.3520

> <Gold.Chemscore.ZeroCoef>
-5.4800

> <Gold.Chemscore.Hbond>
1.2166

> <Gold.Chemscore.Metal>
0.0000

> <Gold.Chemscore.Lipo>
95.7716

> <Gold.Chemscore.Internal_Hbond>
0.0000

> <Gold.Chemscore.DEClash>
0.0050

> <Gold.Chemscore.DEInternal>
0.5918

> <Gold.Chemscore.Rot>
1.7174

> <Gold.Chemscore.Internal.Correction>
   9.000000E+99

> <Gold.Chemscore.Hbonds>
donor molecule, donor type, donor heavy atom, donor atom, acceptor molecule, acceptor atom, score
      L1  H    16    53       P1  8028  0.50

> <Gold.Chemscore.Hbond.Weighted>
-4.0633

> <Gold.Chemscore.Metal.Weighted>
-0.0000

> <Gold.Chemscore.Lipo.Weighted>
-11.2053

> <Gold.Chemscore.Internal_Hbond.Weighted>
0.0000

> <Gold.Chemscore.DEClash.Weighted>
0.0050

> <Gold.Chemscore.DEInternal.Weighted>
0.5918

> <Gold.Chemscore.Rot.Weighted>
4.3966

> <Gold.Chemscore.Internal.Correction.Weighted>
   9.000000E+99

> <Gold.Protein.RotatedTorsions>
[ 6907 6896 6895 6894 ] final  115.90 input  -60.11 | X-H torsion
[ 7974 7965 7964 7962 ] final   59.93 input  175.53 | X-H torsion
[ 8008 7997 7996 7995 ] final   15.04 input   59.86 | X-H torsion
[ 10167 10162 10161 10158 ] final   43.22 input  -65.29 | X-H torsion
[ 10718 10713 10712 10709 ] final -175.30 input   66.30 | X-H torsion
[ 10763 10752 10751 10750 ] final -177.77 input  -60.55 | X-H torsion
[ 11005 11000 10999 10996 ] final  156.96 input  -57.11 | X-H torsion

> <Gold.Protein.ActiveResidues>
 VAL166  LYS551  ARG553  GLY616  TRP617  ASP618  TYR619  PRO620  LYS621  CYS622 
 ASP623  PHE694  ASN695  SER759  ASP760  ASP761  ALA762  ILE779  LEU786  VAL792 
 PHE793  MET794  SER795  GLU796  ALA797  LYS798  CYS799  TRP800  GLU811  SER814 

> <Gold.Protein.RotatedAtoms>
  152.4712  133.8035  159.6965 H   0  0  0  0  0  0  0  0  0  0  0  0  # atno 6907 bound_to 6896
  150.8703  133.7506  159.2970 H   0  0  0  0  0  0  0  0  0  0  0  0  # atno 6908 bound_to 6896
  151.5043  135.1066  159.9889 H   0  0  0  0  0  0  0  0  0  0  0  0  # atno 6909 bound_to 6896
  145.9017  139.3586  143.0589 H   0  0  0  0  0  0  0  0  0  0  0  0  # atno 7974 bound_to 7965
  154.8570  140.2938  155.5562 H   0  0  0  0  0  0  0  0  0  0  0  0  # atno 8008 bound_to 7997
  156.3018  140.2485  156.3471 H   0  0  0  0  0  0  0  0  0  0  0  0  # atno 8009 bound_to 7997
  154.8959  140.0393  157.1854 H   0  0  0  0  0  0  0  0  0  0  0  0  # atno 8010 bound_to 7997
  140.3466  144.2404  150.6150 H   0  0  0  0  0  0  0  0  0  0  0  0  # atno 10167 bound_to 10162
  156.7978  130.9541  151.3119 H   0  0  0  0  0  0  0  0  0  0  0  0  # atno 10718 bound_to 10713
  154.5559  135.2816  155.0964 H   0  0  0  0  0  0  0  0  0  0  0  0  # atno 10763 bound_to 10752
  154.2392  135.6360  153.5205 H   0  0  0  0  0  0  0  0  0  0  0  0  # atno 10764 bound_to 10752
  153.0015  135.5556  154.6139 H   0  0  0  0  0  0  0  0  0  0  0  0  # atno 10765 bound_to 10752
  140.1724  134.8533  157.2706 H   0  0  0  0  0  0  0  0  0  0  0  0  # atno 11005 bound_to 11000
  145.8783  140.9378  143.0614 LP  0  0  0  0  0  0  0  0  0  0  0  0  # atno 17320 bound_to 7965
  144.6736  140.0746  143.7471 LP  0  0  0  0  0  0  0  0  0  0  0  0  # atno 17321 bound_to 7965
  140.5259  143.2254  151.8315 LP  0  0  0  0  0  0  0  0  0  0  0  0  # atno 17342 bound_to 10162
  139.4832  144.4780  151.9342 LP  0  0  0  0  0  0  0  0  0  0  0  0  # atno 17343 bound_to 10162
  157.6569  130.8932  149.9747 LP  0  0  0  0  0  0  0  0  0  0  0  0  # atno 17370 bound_to 10713
  156.1120  130.3649  150.0033 LP  0  0  0  0  0  0  0  0  0  0  0  0  # atno 17371 bound_to 10713
  140.2362  134.3850  155.7500 LP  0  0  0  0  0  0  0  0  0  0  0  0  # atno 17394 bound_to 11000
  141.2218  133.7241  156.8717 LP  0  0  0  0  0  0  0  0  0  0  0  0  # atno 17395 bound_to 11000

$$$$
