#       Name:                AV-unprocessed.smi:213
#       Creating user name   scv26
#       Creation time:       Thu Mar 26 19:59:01 2020


#       File generated by GOLD software.
#

@<TRIPOS>MOLECULE
AV-unprocessed.smi:213
    68    71     1
SMALL
NO_CHARGES


@<TRIPOS>ATOM
      1 ****        -4.8094   1.1884  -1.3213 C.3            1 S1                 0.0000
      2 ****        -3.5469   1.1368  -0.4454 C.3            1 S1                 0.0000
      3 ****        -3.9047   0.8908   1.0413 C.3            1 S1                 0.0000
      4 ****        -2.7099   0.7489   1.9123 N.4            1 S1                 1.0000
      5 ****        -2.9932   1.0226   3.3392 C.3            1 S1                 0.0000
      6 ****        -1.6917   0.9590   4.1563 C.3            1 S1                 0.0000
      7 ****        -1.0815  -0.3146   3.9855 O.3            1 S1                 0.0000
      8 ****        -0.7345  -0.5635   2.6284 C.3            1 S1                 0.0000
      9 ****        -2.0043  -0.5475   1.7614 C.3            1 S1                 0.0000
     10 ****        -2.7069   2.3295  -0.6398 N.pl3          1 S1                 0.0000
     11 ****        -3.2403   3.6471  -0.2938 C.3            1 S1                 0.0000
     12 ****        -1.3679   2.1532  -0.4820 C.ar           1 S1                 0.0000
     13 ****        -0.7098   2.8670   0.4715 N.ar           1 S1                 0.0000
     14 ****         0.5923   2.6652   0.6907 C.ar           1 S1                 0.0000
     15 ****         1.4140   1.8049   0.0884 N.ar           1 S1                 0.0000
     16 ****         0.7662   1.0961  -0.8793 C.ar           1 S1                 0.0000
     17 ****        -0.6083   1.2100  -1.2315 C.ar           1 S1                 0.0000
     18 ****        -0.9036   0.3291  -2.2656 N.2            1 S1                 0.0000
     19 ****         0.2271  -0.2775  -2.5037 C.2            1 S1                 0.0000
     20 ****         1.2788   0.1139  -1.7076 N.pl3          1 S1                 0.0000
     21 ****         2.6356  -0.4051  -1.7445 C.3            1 S1                 0.0000
     22 ****         2.7434  -1.8216  -1.1385 C.3            1 S1                 0.0000
     23 ****         2.2158  -1.7856   0.1745 O.3            1 S1                 0.0000
     24 ****         4.1954  -2.3331  -1.0502 C.3            1 S1                 0.0000
     25 ****         4.9995  -2.2174  -2.3459 C.3            1 S1                 0.0000
     26 ****         6.0962  -3.2518  -2.1663 C.3            1 S1                 0.0000
     27 ****         5.5121  -4.2246  -1.1391 C.3            1 S1                 0.0000
     28 ****         4.2049  -3.7402  -0.8570 O.3            1 S1                 0.0000
     29 ****        -5.3571   0.2473  -1.2655 H              1 S1                 0.0000
     30 ****        -4.5535   1.3555  -2.3680 H              1 S1                 0.0000
     31 ****        -5.4929   1.9788  -1.0111 H              1 S1                 0.0000
     32 ****        -3.0007   0.2625  -0.7926 H              1 S1                 0.0000
     33 ****        -4.5107   1.7256   1.3961 H              1 S1                 0.0000
     34 ****        -4.5296   0.0021   1.1422 H              1 S1                 0.0000
     35 ****        -3.4427   2.0106   3.4453 H              1 S1                 0.0000
     36 ****        -3.7144   0.2965   3.7174 H              1 S1                 0.0000
     37 ****        -1.0027   1.7488   3.8516 H              1 S1                 0.0000
     38 ****        -1.9034   1.1109   5.2148 H              1 S1                 0.0000
     39 ****        -0.0157   0.1799   2.2808 H              1 S1                 0.0000
     40 ****        -0.2441  -1.5345   2.5596 H              1 S1                 0.0000
     41 ****        -2.6675  -1.3632   2.0532 H              1 S1                 0.0000
     42 ****        -1.7288  -0.7172   0.7214 H              1 S1                 0.0000
     43 ****        -2.5926   4.4395  -0.6713 H              1 S1                 0.0000
     44 ****        -3.3274   3.7622   0.7869 H              1 S1                 0.0000
     45 ****        -4.2248   3.8024  -0.7330 H              1 S1                 0.0000
     46 ****         1.0369   3.2717   1.4660 H              1 S1                 0.0000
     47 ****         0.3241  -1.0382  -3.2651 H              1 S1                 0.0000
     48 ****         2.9635  -0.4054  -2.7844 H              1 S1                 0.0000
     49 ****         3.2913   0.2853  -1.2123 H              1 S1                 0.0000
     50 ****         2.1468  -2.5125  -1.7358 H              1 S1                 0.0000
     51 ****         1.3140  -1.5093   0.1249 H              1 S1                 0.0000
     52 ****         4.7368  -1.8433  -0.2380 H              1 S1                 0.0000
     53 ****         4.3776  -2.4887  -3.2003 H              1 S1                 0.0000
     54 ****         5.3913  -1.2141  -2.5158 H              1 S1                 0.0000
     55 ****         6.3466  -3.7418  -3.1075 H              1 S1                 0.0000
     56 ****         7.0031  -2.7902  -1.7741 H              1 S1                 0.0000
     57 ****         5.4673  -5.2468  -1.5153 H              1 S1                 0.0000
     58 ****         6.1069  -4.2234  -0.2249 H              1 S1                 0.0000
     59 ****        -2.0640   1.4683   1.6176 H              1 S1                 0.0000
     60 ****        -1.7199  -1.0215   4.2901 LP             1 S1                 0.0000
     61 ****        -0.2520  -0.3521   4.5426 LP             1 S1                 0.0000
     62 ****        -1.2046   3.5475   1.0120 LP             1 S1                 0.0000
     63 ****         2.3811   1.6939   0.3171 LP             1 S1                 0.0000
     64 ****        -1.7823   0.1916  -2.7229 LP             1 S1                 0.0000
     65 ****         2.7374  -1.1386   0.7307 LP             1 S1                 0.0000
     66 ****         2.2682  -2.6960   0.5849 LP             1 S1                 0.0000
     67 ****         3.5453  -4.1700  -1.4737 LP             1 S1                 0.0000
     68 ****         3.9633  -3.9525   0.0899 LP             1 S1                 0.0000
@<TRIPOS>BOND
    1    1    2 1     
    2    1   29 1     
    3    1   30 1     
    4    1   31 1     
    5    2    3 1     
    6    2   10 1     
    7    2   32 1     
    8    3    4 1     
    9    3   33 1     
   10    3   34 1     
   11    4    9 1     
   12    4    5 1     
   13    4   59 1     
   14    5    6 1     
   15    5   35 1     
   16    5   36 1     
   17    6    7 1     
   18    6   37 1     
   19    6   38 1     
   20    7    8 1     
   21    8    9 1     
   22    8   39 1     
   23    8   40 1     
   24    9   41 1     
   25    9   42 1     
   26   10   11 1     
   27   10   12 1     
   28   11   43 1     
   29   11   44 1     
   30   11   45 1     
   31   12   17 ar    
   32   12   13 ar    
   33   13   14 ar    
   34   14   15 ar    
   35   14   46 1     
   36   15   16 ar    
   37   16   20 1     
   38   16   17 ar    
   39   17   18 1     
   40   18   19 2     
   41   19   20 1     
   42   19   47 1     
   43   20   21 1     
   44   21   22 1     
   45   21   48 1     
   46   21   49 1     
   47   22   23 1     
   48   22   24 1     
   49   22   50 1     
   50   23   51 1     
   51   24   28 1     
   52   24   25 1     
   53   24   52 1     
   54   25   26 1     
   55   25   53 1     
   56   25   54 1     
   57   26   27 1     
   58   26   55 1     
   59   26   56 1     
   60   27   28 1     
   61   27   57 1     
   62   27   58 1     
   63    7   60 1     
   64    7   61 1     
   65   13   62 1     
   66   15   63 1     
   67   18   64 1     
   68   23   65 1     
   69   23   66 1     
   70   28   67 1     
   71   28   68 1     
@<TRIPOS>SUBSTRUCTURE
      1 S1             1
@<TRIPOS>SET
LONE_PAIRS      STATIC     ATOMS    <user>   **** ""
9 60 61 62 63 64 65 66 67 68
DONOR_HYDROGENS      STATIC     ATOMS    <user>   **** ""
2 59 51
ATOM$BLUE        STATIC     ATOMS    COLORGROUP SYSTEM
9 60 61 62 63 64 65 66 67 68
ATOM$RED        STATIC     ATOMS    COLORGROUP SYSTEM
2 59 51
