AV-unprocessed.smi:670|AV-procd|sdf|3270|dock5
  -GOLD-   22720 0223D 1   1.00000     0.00000
 Structure written by MMmdl.
 45 46  0  0  0  0  0  0  0  0  1 V2000
  151.4331  138.7263  154.6763 C   0  0  0  0  0  0  0  0  0  0  0  0
  151.7116  139.6765  155.8514 C   0  0  1  0  0  0  0  0  0  0  0  0
  150.7895  140.9125  155.8194 C   0  0  0  0  0  0  0  0  0  0  0  0
  151.0970  141.8767  156.9761 C   0  0  0  0  0  0  0  0  0  0  0  0
  151.0208  141.1626  158.3334 C   0  0  0  0  0  0  0  0  0  0  0  0
  151.9428  139.9334  158.3676 C   0  0  0  0  0  0  0  0  0  0  0  0
  151.6282  138.9541  157.2152 C   0  0  1  0  0  0  0  0  0  0  0  0
  150.3164  138.4223  157.3613 O   0  0  0  0  0  0  0  0  0  0  0  0
  150.0817  137.7426  158.5857 C   0  0  0  0  0  0  0  0  0  0  0  0
  148.6911  137.0953  158.5262 C   0  0  0  0  0  0  0  0  0  0  0  0
  148.3212  136.5067  159.8087 N   0  0  0  0  0  0  0  0  0  0  0  0
  148.3375  135.1960  160.0923 C   0  0  0  0  0  0  0  0  0  0  0  0
  148.6419  134.3326  159.2677 O   0  0  0  0  0  0  0  0  0  0  0  0
  147.9353  134.8165  161.5251 C   0  0  0  0  0  0  0  0  0  0  0  0
  146.5884  135.2732  161.8975 N   0  0  0  0  0  0  0  0  0  0  0  0
  145.6636  134.2497  162.0398 N   0  0  0  0  0  0  0  0  0  0  0  0
  144.4490  134.5208  162.3799 C   0  0  0  0  0  0  0  0  0  0  0  0
  143.5665  133.4771  162.5138 O   0  0  0  0  0  0  0  0  0  0  0  0
  144.0235  135.8835  162.6143 C   0  0  0  0  0  0  0  0  0  0  0  0
  144.9304  136.8739  162.4679 C   0  0  0  0  0  0  0  0  0  0  0  0
  146.3170  136.6015  162.0852 C   0  0  0  0  0  0  0  0  0  0  0  0
  147.1629  137.4844  161.9464 O   0  0  0  0  0  0  0  0  0  0  0  0
  142.7229  133.8775  162.6569 H   0  0  0  0  0  0  0  0  0  0  0  0
  150.4131  138.3420  154.7066 H   0  0  0  0  0  0  0  0  0  0  0  0
  152.1114  137.8729  154.6923 H   0  0  0  0  0  0  0  0  0  0  0  0
  151.5665  139.2352  153.7213 H   0  0  0  0  0  0  0  0  0  0  0  0
  152.7363  140.0317  155.7337 H   0  0  0  0  0  0  0  0  0  0  0  0
  150.9022  141.4376  154.8704 H   0  0  0  0  0  0  0  0  0  0  0  0
  149.7462  140.5993  155.8748 H   0  0  0  0  0  0  0  0  0  0  0  0
  152.0929  142.3008  156.8428 H   0  0  0  0  0  0  0  0  0  0  0  0
  150.3994  142.7143  156.9573 H   0  0  0  0  0  0  0  0  0  0  0  0
  151.2928  141.8529  159.1322 H   0  0  0  0  0  0  0  0  0  0  0  0
  149.9926  140.8550  158.5281 H   0  0  0  0  0  0  0  0  0  0  0  0
  152.9794  140.2619  158.2845 H   0  0  0  0  0  0  0  0  0  0  0  0
  151.8651  139.4412  159.3362 H   0  0  0  0  0  0  0  0  0  0  0  0
  152.3552  138.1398  157.2205 H   0  0  0  0  0  0  0  0  0  0  0  0
  150.8437  136.9755  158.7282 H   0  0  0  0  0  0  0  0  0  0  0  0
  150.1431  138.4188  159.4380 H   0  0  0  0  0  0  0  0  0  0  0  0
  147.9440  137.8440  158.2620 H   0  0  0  0  0  0  0  0  0  0  0  0
  148.6604  136.3349  157.7443 H   0  0  0  0  0  0  0  0  0  0  0  0
  148.0578  137.1478  160.5431 H   0  0  0  0  0  0  0  0  0  0  0  0
  148.0092  133.7339  161.6456 H   0  0  0  0  0  0  0  0  0  0  0  0
  148.6762  135.2372  162.2073 H   0  0  0  0  0  0  0  0  0  0  0  0
  143.0030  136.0953  162.8977 H   0  0  0  0  0  0  0  0  0  0  0  0
  144.6261  137.8961  162.6385 H   0  0  0  0  0  0  0  0  0  0  0  0
  1  2  1  0  0  0  0
  1 24  1  0  0  0  0
  1 25  1  0  0  0  0
  1 26  1  0  0  0  0
  2  7  1  0  0  0  0
  2  3  1  0  0  0  0
  2 27  1  0  0  0  0
  3  4  1  0  0  0  0
  3 28  1  0  0  0  0
  3 29  1  0  0  0  0
  4  5  1  0  0  0  0
  4 30  1  0  0  0  0
  4 31  1  0  0  0  0
  5  6  1  0  0  0  0
  5 32  1  0  0  0  0
  5 33  1  0  0  0  0
  6  7  1  0  0  0  0
  6 34  1  0  0  0  0
  6 35  1  0  0  0  0
  7  8  1  0  0  0  0
  7 36  1  0  0  0  0
  8  9  1  0  0  0  0
  9 10  1  0  0  0  0
  9 37  1  0  0  0  0
  9 38  1  0  0  0  0
 10 11  1  0  0  0  0
 10 39  1  0  0  0  0
 10 40  1  0  0  0  0
 11 12  1  0  0  0  0
 11 41  1  0  0  0  0
 12 13  2  0  0  0  0
 12 14  1  0  0  0  0
 14 42  1  0  0  0  0
 14 43  1  0  0  0  0
 14 15  1  0  0  0  0
 15 16  1  0  0  0  0
 15 21  1  0  0  0  0
 16 17  2  0  0  0  0
 17 18  1  0  0  0  0
 17 19  1  0  0  0  0
 18 23  1  0  0  0  0
 19 44  1  0  0  0  0
 19 20  2  0  0  0  0
 20 45  1  0  0  0  0
 20 21  1  0  0  0  0
 21 22  2  0  0  0  0
M  END
> <s_m_source_file>
AV-unprocessed.smi

> <i_m_source_file_index>
670

> <i_lp_mmshare_version>
43012

> <i_f3d_flags>
0

> <s_epik_input>
W0NIM11bQ0BASF0xW0NIMl1bQ0gyXVtDSDJdW0NIMl1bQ0BIXTFPW0NIMl1bQ0gyXVtOSF1DKD1PKVtDSDJdbjJbbkhdYyg9TylbY0hdW2NIXWMyPU8=

> <s_epik_cmdline>
J2VwaWtfcHl0aG9uJywgJy1waCcsICc3LjAnLCAnLXRuJywgJzgnLCAnLW1hJywgJzIwMCcsICctbWV0YWxfYmluZGluZycsICctaW1hZScsICc8aW5maWxlLm1hZT4nLCAnLW9tYWUnLCAnPG91dGZpbGUubWFlPic=

> <r_lp_tautomer_probability>
0.9996

> <r_epik_Ionization_Penalty>
2.12726

> <r_epik_Ionization_Penalty_Charging>
3.83395e-08

> <r_epik_Ionization_Penalty_Neutral>
2.12726

> <r_epik_State_Penalty>
1.70432

> <r_epik_Charging_Adjusted_Penalty>
1.70432

> <i_epik_Tot_Q>
0

> <i_epik_Tot_abs_Q>
0

> <r_epik_Metal_State_Penalty>
1.70432

> <b_epik_Metal_Only>
0

> <s_lp_Force_Field>
OPLS_2005

> <r_lp_Energy>
19.8416

> <b_lp_Chiralities_Consistent>
1

> <s_lp_Variant>
AV-unprocessed.smi:670-6

> <Gold.Version>
5.8.1

> <Gold.Id.Protein>
6NUR|6NUR_protein|mol2

> <Gold.PLP.Fitness>
45.9207

> <Gold.PLP.PLP>
-39.1791

> <Gold.PLP.part.hbond>
-3.7623

> <Gold.PLP.part.metal>
0.0000

> <Gold.PLP.part.buried>
-6.5625

> <Gold.PLP.part.nonpolar>
-28.1219

> <Gold.PLP.part.repulsive>
0.2074

> <Gold.PLP.ligand.clash>
0.0000

> <Gold.PLP.ligand.torsion>
0.2243

> <Gold.PLP.Chemscore.Hbond>
2.3760

> <Gold.PLP.Chemscore.CHOScore>
0.0000

> <Gold.PLP.Chemscore.Metal>
0.0000

> <Gold.Chemscore.Hbonds>
donor molecule, donor type, donor heavy atom, donor atom, acceptor molecule, acceptor atom, score
      P1  H  6896  6909       L1    13  1.00
      P1  H  6931  6943       L1    22  0.70
      P1  H  6934  6947       L1    22  0.72

> <Gold.PLP.Chemscore.Internal.Correction>
0.0621

> <Gold.Rescore>
     Score         DG    S(hbond)    S(metal)    S(lipo)     H(rot)  DE(clash)    DE(int)     intcor
      9.95     -13.11       2.23        0.00      69.06       3.09       0.30       2.86       ----

> <Gold.Chemscore.Fitness>
9.9475

> <Gold.Chemscore.DG>
-13.1087

> <Gold.Chemscore.ZeroCoef>
-5.4800

> <Gold.Chemscore.Hbond>
2.2333

> <Gold.Chemscore.Metal>
0.0000

> <Gold.Chemscore.Lipo>
69.0588

> <Gold.Chemscore.Internal_Hbond>
0.0000

> <Gold.Chemscore.DEClash>
0.2964

> <Gold.Chemscore.DEInternal>
2.8648

> <Gold.Chemscore.Rot>
3.0901

> <Gold.Chemscore.Internal.Correction>
   9.000000E+99

> <Gold.Chemscore.Hbonds>
donor molecule, donor type, donor heavy atom, donor atom, acceptor molecule, acceptor atom, score
      P1  H  6896  6909       L1    13  0.28
      P1  H  6931  6943       L1    22  0.67
      P1  H  6934  6947       L1    22  0.72

> <Gold.Chemscore.Hbond.Weighted>
-7.4594

> <Gold.Chemscore.Metal.Weighted>
-0.0000

> <Gold.Chemscore.Lipo.Weighted>
-8.0799

> <Gold.Chemscore.Internal_Hbond.Weighted>
0.0000

> <Gold.Chemscore.DEClash.Weighted>
0.2964

> <Gold.Chemscore.DEInternal.Weighted>
2.8648

> <Gold.Chemscore.Rot.Weighted>
7.9106

> <Gold.Chemscore.Internal.Correction.Weighted>
   9.000000E+99

> <Gold.Protein.RotatedTorsions>
[ 6907 6896 6895 6894 ] final   32.57 input  -60.11 | X-H torsion
[ 7974 7965 7964 7962 ] final   92.19 input  175.53 | X-H torsion
[ 8008 7997 7996 7995 ] final  -10.06 input   59.86 | X-H torsion
[ 10167 10162 10161 10158 ] final  -85.78 input  -65.29 | X-H torsion
[ 10718 10713 10712 10709 ] final  148.14 input   66.30 | X-H torsion
[ 10763 10752 10751 10750 ] final  128.65 input  -60.55 | X-H torsion
[ 11005 11000 10999 10996 ] final  145.43 input  -57.11 | X-H torsion

> <Gold.Protein.ActiveResidues>
 VAL166  LYS551  ARG553  GLY616  TRP617  ASP618  TYR619  PRO620  LYS621  CYS622 
 ASP623  PHE694  ASN695  SER759  ASP760  ASP761  ALA762  ILE779  LEU786  VAL792 
 PHE793  MET794  SER795  GLU796  ALA797  LYS798  CYS799  TRP800  GLU811  SER814 

> <Gold.Protein.RotatedAtoms>
  152.0763  134.9500  160.0573 H   0  0  0  0  0  0  0  0  0  0  0  0  # atno 6907 bound_to 6896
  152.0806  133.4146  159.4508 H   0  0  0  0  0  0  0  0  0  0  0  0  # atno 6908 bound_to 6896
  150.6836  134.2906  159.4708 H   0  0  0  0  0  0  0  0  0  0  0  0  # atno 6909 bound_to 6896
  145.4956  139.2276  143.2806 H   0  0  0  0  0  0  0  0  0  0  0  0  # atno 7974 bound_to 7965
  154.5589  140.2338  155.8367 H   0  0  0  0  0  0  0  0  0  0  0  0  # atno 8008 bound_to 7997
  156.2012  140.3052  155.9490 H   0  0  0  0  0  0  0  0  0  0  0  0  # atno 8009 bound_to 7997
  155.2927  140.0427  157.3015 H   0  0  0  0  0  0  0  0  0  0  0  0  # atno 8010 bound_to 7997
  140.4004  143.2665  151.9149 H   0  0  0  0  0  0  0  0  0  0  0  0  # atno 10167 bound_to 10162
  157.3122  131.0890  151.1307 H   0  0  0  0  0  0  0  0  0  0  0  0  # atno 10718 bound_to 10713
  153.7290  135.3241  155.3282 H   0  0  0  0  0  0  0  0  0  0  0  0  # atno 10763 bound_to 10752
  154.8332  135.4517  154.1141 H   0  0  0  0  0  0  0  0  0  0  0  0  # atno 10764 bound_to 10752
  153.2283  135.6957  153.8001 H   0  0  0  0  0  0  0  0  0  0  0  0  # atno 10765 bound_to 10752
  140.0711  134.9151  157.1347 H   0  0  0  0  0  0  0  0  0  0  0  0  # atno 11005 bound_to 11000
  146.2258  140.5753  142.8997 LP  0  0  0  0  0  0  0  0  0  0  0  0  # atno 17320 bound_to 7965
  144.7809  140.5838  143.6606 LP  0  0  0  0  0  0  0  0  0  0  0  0  # atno 17321 bound_to 7965
  139.4785  144.5639  151.8196 LP  0  0  0  0  0  0  0  0  0  0  0  0  # atno 17342 bound_to 10162
  140.4745  144.1538  150.5923 LP  0  0  0  0  0  0  0  0  0  0  0  0  # atno 17343 bound_to 10162
  157.2624  130.6665  149.5981 LP  0  0  0  0  0  0  0  0  0  0  0  0  # atno 17370 bound_to 10713
  155.9679  130.4504  150.5697 LP  0  0  0  0  0  0  0  0  0  0  0  0  # atno 17371 bound_to 10713
  140.3625  134.2478  155.7185 LP  0  0  0  0  0  0  0  0  0  0  0  0  # atno 17394 bound_to 11000
  141.2012  133.7968  157.0452 LP  0  0  0  0  0  0  0  0  0  0  0  0  # atno 17395 bound_to 11000

$$$$
