AV-unprocessed.smi:177|AV-procd|sdf|1442|dock5
  -GOLD-   2262019233D 1   1.00000     0.00000
 Structure written by MMmdl.
 61 65  0  0  0  0  0  0  0  0  1 V2000
  147.0728  144.8318  159.9793 C   0  0  0  0  0  0  0  0  0  0  0  0
  147.7418  143.6076  159.7173 O   0  0  0  0  0  0  0  0  0  0  0  0
  149.0337  143.7579  159.1426 C   0  0  1  0  0  0  0  0  0  0  0  0
  149.8210  144.7421  160.0226 C   0  0  0  0  0  0  0  0  0  0  0  0
  151.2526  144.9386  159.5000 C   0  0  0  0  0  0  0  0  0  0  0  0
  152.0094  143.6063  159.3595 C   0  0  1  0  0  0  0  0  0  0  0  0
  152.2909  143.0777  160.6529 O   0  0  0  0  0  0  0  0  0  0  0  0
  153.1028  141.9101  160.5856 C   0  0  0  0  0  0  0  0  0  0  0  0
  152.3673  140.8067  159.8082 C   0  0  0  0  0  0  0  0  0  0  0  0
  151.9417  141.3016  158.4980 N   0  0  0  0  0  0  0  0  0  0  0  0
  151.5287  140.3897  157.5762 C   0  0  0  0  0  0  0  0  0  0  0  0
  152.2271  140.2430  156.4177 N   0  0  0  0  0  0  0  0  0  0  0  0
  151.8495  139.3440  155.5050 C   0  0  0  0  0  0  0  0  0  0  0  0
  150.8193  138.4986  155.5447 N   0  0  0  0  0  0  0  0  0  0  0  0
  150.1092  138.6392  156.7002 C   0  0  0  0  0  0  0  0  0  0  0  0
  150.3872  139.5550  157.7556 C   0  0  0  0  0  0  0  0  0  0  0  0
  149.4271  139.4236  158.7524 N   0  0  0  0  0  0  0  0  0  0  0  0
  148.6404  138.4774  158.3202 C   0  0  0  0  0  0  0  0  0  0  0  0
  148.9850  137.9374  157.1019 N   0  0  0  0  0  0  0  0  0  0  0  0
  148.2796  136.8831  156.3862 C   0  0  0  0  0  0  0  0  0  0  0  0
  148.6821  135.4264  156.7803 C   0  0  0  0  0  0  0  0  0  0  0  0
  148.3692  135.2189  158.2885 C   0  0  0  0  0  0  0  0  0  0  0  0
  148.7751  133.9562  158.7794 O   0  0  0  0  0  0  0  0  0  0  0  0
  147.9285  134.3646  155.9378 C   0  0  0  0  0  0  0  0  0  0  0  0
  148.3744  134.3632  154.4650 C   0  0  0  0  0  0  0  0  0  0  0  0
  149.7767  134.1395  154.3871 O   0  0  0  0  0  0  0  0  0  0  0  0
  150.5396  135.1627  155.0157 C   0  0  0  0  0  0  0  0  0  0  0  0
  150.1988  135.2357  156.5169 C   0  0  0  0  0  0  0  0  0  0  0  0
  151.2081  142.5705  158.5355 C   0  0  1  0  0  0  0  0  0  0  0  0
  149.7680  142.4051  159.0747 C   0  0  0  0  0  0  0  0  0  0  0  0
  146.1061  144.6245  160.4379 H   0  0  0  0  0  0  0  0  0  0  0  0
  146.8903  145.4012  159.0685 H   0  0  0  0  0  0  0  0  0  0  0  0
  147.6431  145.4523  160.6717 H   0  0  0  0  0  0  0  0  0  0  0  0
  148.9466  144.1840  158.1411 H   0  0  0  0  0  0  0  0  0  0  0  0
  149.3071  145.7033  160.0541 H   0  0  0  0  0  0  0  0  0  0  0  0
  149.8532  144.3758  161.0498 H   0  0  0  0  0  0  0  0  0  0  0  0
  151.2112  145.4294  158.5271 H   0  0  0  0  0  0  0  0  0  0  0  0
  151.8022  145.6117  160.1587 H   0  0  0  0  0  0  0  0  0  0  0  0
  152.9576  143.8114  158.8588 H   0  0  0  0  0  0  0  0  0  0  0  0
  154.0582  142.1451  160.1141 H   0  0  0  0  0  0  0  0  0  0  0  0
  153.3237  141.5713  161.5979 H   0  0  0  0  0  0  0  0  0  0  0  0
  153.0317  139.9498  159.6883 H   0  0  0  0  0  0  0  0  0  0  0  0
  151.5005  140.4643  160.3743 H   0  0  0  0  0  0  0  0  0  0  0  0
  152.4623  139.2943  154.6169 H   0  0  0  0  0  0  0  0  0  0  0  0
  147.7822  138.1443  158.8853 H   0  0  0  0  0  0  0  0  0  0  0  0
  147.2150  137.0547  156.5361 H   0  0  0  0  0  0  0  0  0  0  0  0
  148.4457  137.0351  155.3189 H   0  0  0  0  0  0  0  0  0  0  0  0
  148.8618  135.9862  158.8866 H   0  0  0  0  0  0  0  0  0  0  0  0
  147.2996  135.3078  158.4777 H   0  0  0  0  0  0  0  0  0  0  0  0
  148.4992  133.2925  158.1657 H   0  0  0  0  0  0  0  0  0  0  0  0
  148.1246  133.3690  156.3370 H   0  0  0  0  0  0  0  0  0  0  0  0
  146.8494  134.4965  156.0086 H   0  0  0  0  0  0  0  0  0  0  0  0
  147.8651  133.5643  153.9257 H   0  0  0  0  0  0  0  0  0  0  0  0
  148.1118  135.2944  153.9626 H   0  0  0  0  0  0  0  0  0  0  0  0
  151.5973  134.9311  154.8897 H   0  0  0  0  0  0  0  0  0  0  0  0
  150.3736  136.1164  154.5144 H   0  0  0  0  0  0  0  0  0  0  0  0
  150.7710  136.0345  156.9903 H   0  0  0  0  0  0  0  0  0  0  0  0
  150.5475  134.3084  156.9719 H   0  0  0  0  0  0  0  0  0  0  0  0
  151.1324  142.9731  157.5276 H   0  0  0  0  0  0  0  0  0  0  0  0
  149.7832  141.9600  160.0698 H   0  0  0  0  0  0  0  0  0  0  0  0
  149.2209  141.7118  158.4367 H   0  0  0  0  0  0  0  0  0  0  0  0
  1  2  1  0  0  0  0
  1 31  1  0  0  0  0
  1 32  1  0  0  0  0
  1 33  1  0  0  0  0
  2  3  1  0  0  0  0
  3 30  1  0  0  0  0
  3  4  1  0  0  0  0
  3 34  1  0  0  0  0
  4  5  1  0  0  0  0
  4 35  1  0  0  0  0
  4 36  1  0  0  0  0
  5  6  1  0  0  0  0
  5 37  1  0  0  0  0
  5 38  1  0  0  0  0
  6 29  1  0  0  0  0
  6  7  1  0  0  0  0
  6 39  1  0  0  0  0
  7  8  1  0  0  0  0
  8  9  1  0  0  0  0
  8 40  1  0  0  0  0
  8 41  1  0  0  0  0
  9 10  1  0  0  0  0
  9 42  1  0  0  0  0
  9 43  1  0  0  0  0
 10 11  1  0  0  0  0
 10 29  1  0  0  0  0
 11 16  1  0  0  0  0
 11 12  2  0  0  0  0
 12 13  1  0  0  0  0
 13 14  2  0  0  0  0
 13 44  1  0  0  0  0
 14 15  1  0  0  0  0
 15 19  1  0  0  0  0
 15 16  2  0  0  0  0
 16 17  1  0  0  0  0
 17 18  2  0  0  0  0
 18 19  1  0  0  0  0
 18 45  1  0  0  0  0
 19 20  1  0  0  0  0
 20 21  1  0  0  0  0
 20 46  1  0  0  0  0
 20 47  1  0  0  0  0
 21 28  1  0  0  0  0
 21 22  1  0  0  0  0
 21 24  1  0  0  0  0
 22 23  1  0  0  0  0
 22 48  1  0  0  0  0
 22 49  1  0  0  0  0
 23 50  1  0  0  0  0
 24 25  1  0  0  0  0
 24 51  1  0  0  0  0
 24 52  1  0  0  0  0
 25 26  1  0  0  0  0
 25 53  1  0  0  0  0
 25 54  1  0  0  0  0
 26 27  1  0  0  0  0
 27 28  1  0  0  0  0
 27 55  1  0  0  0  0
 27 56  1  0  0  0  0
 28 57  1  0  0  0  0
 28 58  1  0  0  0  0
 29 30  1  0  0  0  0
 29 59  1  0  0  0  0
 30 60  1  0  0  0  0
 30 61  1  0  0  0  0
M  END
> <s_m_source_file>
AV-unprocessed.smi

> <i_m_source_file_index>
177

> <i_lp_mmshare_version>
43012

> <i_f3d_flags>
0

> <s_epik_input>
W0NIM11PW0NASF0oW0NIMl1bQ0gyXTEpW0NIMl1bQ0BIXShbQ0BASF0xMilOKFtDSDJdW0NIMl1PMiljKG5bY0hdbjMpYyhjMzQpbltjSF1uNFtDSDJdQzUoW0NIMl1bT0hdKVtDSDJdW0NIMl1PW0NIMl1bQ0gyXTU=

> <s_epik_cmdline>
J2VwaWtfcHl0aG9uJywgJy1waCcsICc3LjAnLCAnLXRuJywgJzgnLCAnLW1hJywgJzIwMCcsICctbWV0YWxfYmluZGluZycsICctaW1hZScsICc8aW5maWxlLm1hZT4nLCAnLW9tYWUnLCAnPG91dGZpbGUubWFlPic=

> <r_lp_tautomer_probability>
1

> <r_epik_Ionization_Penalty>
0.0065899

> <r_epik_Ionization_Penalty_Charging>
0

> <r_epik_Ionization_Penalty_Neutral>
0.0065899

> <r_epik_State_Penalty>
0.00470042

> <r_epik_Charging_Adjusted_Penalty>
0.00470042

> <i_epik_Tot_Q>
0

> <i_epik_Tot_abs_Q>
0

> <r_epik_Metal_State_Penalty>
-0

> <b_epik_Metal_Only>
0

> <s_lp_Force_Field>
OPLS_2005

> <r_lp_Energy>
44.6168

> <b_lp_Chiralities_Consistent>
1

> <s_lp_Variant>
AV-unprocessed.smi:177-6

> <Gold.Version>
5.8.1

> <Gold.Id.Protein>
6NUR|6NUR_protein|mol2

> <Gold.PLP.Fitness>
45.4995

> <Gold.PLP.PLP>
-38.3264

> <Gold.PLP.part.hbond>
-3.3155

> <Gold.PLP.part.metal>
0.0000

> <Gold.PLP.part.buried>
-2.6560

> <Gold.PLP.part.nonpolar>
-31.7540

> <Gold.PLP.part.repulsive>
0.5983

> <Gold.PLP.ligand.clash>
0.0020

> <Gold.PLP.ligand.torsion>
0.6633

> <Gold.PLP.Chemscore.Hbond>
2.6720

> <Gold.PLP.Chemscore.CHOScore>
0.0000

> <Gold.PLP.Chemscore.Metal>
0.0000

> <Gold.Chemscore.Hbonds>
donor molecule, donor type, donor heavy atom, donor atom, acceptor molecule, acceptor atom, score
      P1  H  6896  6909       L1    23  1.00
      P1  H  6933  6944       L1     2  0.28
      P1  H  7997  8008       L1    12  0.66

> <Gold.PLP.Chemscore.Internal.Correction>
0.4857

> <Gold.Rescore>
     Score         DG    S(hbond)    S(metal)    S(lipo)     H(rot)  DE(clash)    DE(int)     intcor
     15.15     -17.64       2.08        0.00     100.92       2.58       0.90       1.59       ----

> <Gold.Chemscore.Fitness>
15.1546

> <Gold.Chemscore.DG>
-17.6425

> <Gold.Chemscore.ZeroCoef>
-5.4800

> <Gold.Chemscore.Hbond>
2.0842

> <Gold.Chemscore.Metal>
0.0000

> <Gold.Chemscore.Lipo>
100.9193

> <Gold.Chemscore.Internal_Hbond>
0.0000

> <Gold.Chemscore.DEClash>
0.9026

> <Gold.Chemscore.DEInternal>
1.5852

> <Gold.Chemscore.Rot>
2.5806

> <Gold.Chemscore.Internal.Correction>
   9.000000E+99

> <Gold.Chemscore.Hbonds>
donor molecule, donor type, donor heavy atom, donor atom, acceptor molecule, acceptor atom, score
      P1  H  6896  6909       L1    23  0.75
      P1  H  6933  6944       L1     2  0.02
      P1  H  7997  8008       L1    12  0.16

> <Gold.Chemscore.Hbond.Weighted>
-6.9611

> <Gold.Chemscore.Metal.Weighted>
-0.0000

> <Gold.Chemscore.Lipo.Weighted>
-11.8076

> <Gold.Chemscore.Internal_Hbond.Weighted>
0.0000

> <Gold.Chemscore.DEClash.Weighted>
0.9026

> <Gold.Chemscore.DEInternal.Weighted>
1.5852

> <Gold.Chemscore.Rot.Weighted>
6.6062

> <Gold.Chemscore.Internal.Correction.Weighted>
   9.000000E+99

> <Gold.Protein.RotatedTorsions>
[ 6907 6896 6895 6894 ] final   10.78 input  -60.11 | X-H torsion
[ 7974 7965 7964 7962 ] final   61.68 input  175.53 | X-H torsion
[ 8008 7997 7996 7995 ] final  -29.17 input   59.86 | X-H torsion
[ 10167 10162 10161 10158 ] final   58.57 input  -65.29 | X-H torsion
[ 10718 10713 10712 10709 ] final   84.29 input   66.30 | X-H torsion
[ 10763 10752 10751 10750 ] final -131.07 input  -60.55 | X-H torsion
[ 11005 11000 10999 10996 ] final  148.77 input  -57.11 | X-H torsion

> <Gold.Protein.ActiveResidues>
 VAL166  LYS551  ARG553  GLY616  TRP617  ASP618  TYR619  PRO620  LYS621  CYS622 
 ASP623  PHE694  ASN695  SER759  ASP760  ASP761  ALA762  ILE779  LEU786  VAL792 
 PHE793  MET794  SER795  GLU796  ALA797  LYS798  CYS799  TRP800  GLU811  SER814 

> <Gold.Protein.RotatedAtoms>
  151.7437  135.0848  160.0319 H   0  0  0  0  0  0  0  0  0  0  0  0  # atno 6907 bound_to 6896
  152.3462  133.6121  159.5920 H   0  0  0  0  0  0  0  0  0  0  0  0  # atno 6908 bound_to 6896
  150.7510  133.9561  159.3542 H   0  0  0  0  0  0  0  0  0  0  0  0  # atno 6909 bound_to 6896
  145.8820  139.3450  143.0700 H   0  0  0  0  0  0  0  0  0  0  0  0  # atno 7974 bound_to 7965
  154.4301  140.1825  156.1205 H   0  0  0  0  0  0  0  0  0  0  0  0  # atno 8008 bound_to 7997
  156.0146  140.3347  155.6951 H   0  0  0  0  0  0  0  0  0  0  0  0  # atno 8009 bound_to 7997
  155.6062  140.0645  157.2710 H   0  0  0  0  0  0  0  0  0  0  0  0  # atno 8010 bound_to 7997
  140.1858  144.4136  150.6594 H   0  0  0  0  0  0  0  0  0  0  0  0  # atno 10167 bound_to 10162
  157.6895  131.0127  150.2650 H   0  0  0  0  0  0  0  0  0  0  0  0  # atno 10718 bound_to 10713
  154.8753  135.3842  154.4186 H   0  0  0  0  0  0  0  0  0  0  0  0  # atno 10763 bound_to 10752
  153.4892  135.7030  153.5899 H   0  0  0  0  0  0  0  0  0  0  0  0  # atno 10764 bound_to 10752
  153.4280  135.3885  155.2120 H   0  0  0  0  0  0  0  0  0  0  0  0  # atno 10765 bound_to 10752
  140.0988  134.8996  157.1764 H   0  0  0  0  0  0  0  0  0  0  0  0  # atno 11005 bound_to 11000
  145.9012  140.9241  143.0502 LP  0  0  0  0  0  0  0  0  0  0  0  0  # atno 17320 bound_to 7965
  144.6727  140.1035  143.7459 LP  0  0  0  0  0  0  0  0  0  0  0  0  # atno 17321 bound_to 7965
  140.6489  143.2220  151.6123 LP  0  0  0  0  0  0  0  0  0  0  0  0  # atno 17342 bound_to 10162
  139.5277  144.3011  152.1073 LP  0  0  0  0  0  0  0  0  0  0  0  0  # atno 17343 bound_to 10162
  156.3223  130.3787  149.7564 LP  0  0  0  0  0  0  0  0  0  0  0  0  # atno 17370 bound_to 10713
  156.5130  130.8181  151.3176 LP  0  0  0  0  0  0  0  0  0  0  0  0  # atno 17371 bound_to 10713
  140.3249  134.2875  155.7239 LP  0  0  0  0  0  0  0  0  0  0  0  0  # atno 17394 bound_to 11000
  141.2100  133.7733  156.9963 LP  0  0  0  0  0  0  0  0  0  0  0  0  # atno 17395 bound_to 11000

$$$$
