AV-unprocessed.smi:3044|AV-procd|sdf|11606|dock6
  -GOLD-   2272016583D 1   1.00000     0.00000
 Structure written by MMmdl.
 41 42  0  0  0  0  0  0  0  0  1 V2000
  156.3306  139.6966  162.2990 C   0  0  0  0  0  0  0  0  0  0  0  0
  155.5543  138.5432  162.9112 C   0  0  0  0  0  0  0  0  0  0  0  0
  155.9069  138.2145  164.1742 N   0  0  0  0  0  0  0  0  0  0  0  0
  155.2525  137.2001  164.7768 C   0  0  0  0  0  0  0  0  0  0  0  0
  154.2171  136.4753  164.1578 C   0  0  0  0  0  0  0  0  0  0  0  0
  153.8519  136.8175  162.8424 C   0  0  0  0  0  0  0  0  0  0  0  0
  154.5404  137.8676  162.1878 C   0  0  0  0  0  0  0  0  0  0  0  0
  154.2320  138.2947  160.8667 N   0  0  0  0  0  0  0  0  0  0  0  0
  153.2059  137.9162  160.0828 C   0  0  0  0  0  0  0  0  0  0  0  0
  152.3210  137.1279  160.4133 O   0  0  0  0  0  0  0  0  0  0  0  0
  153.1881  138.5243  158.6772 C   0  0  0  0  0  0  0  0  0  0  0  0
  153.6562  139.8707  158.6978 O   0  0  0  0  0  0  0  0  0  0  0  0
  152.9570  140.7592  159.5666 C   0  0  1  0  0  0  0  0  0  0  0  0
  153.9504  141.2722  160.6219 C   0  0  0  0  0  0  0  0  0  0  0  0
  153.3014  142.3297  161.5276 C   0  0  0  0  0  0  0  0  0  0  0  0
  152.7294  143.4930  160.7014 C   0  0  0  0  0  0  0  0  0  0  0  0
  151.7300  142.9945  159.6396 C   0  0  1  0  0  0  0  0  0  0  0  0
  151.1655  144.1552  158.8081 C   0  0  0  0  0  0  0  0  0  0  0  0
  152.3845  141.9271  158.7416 C   0  0  0  0  0  0  0  0  0  0  0  0
  156.9028  139.3537  161.4375 H   0  0  0  0  0  0  0  0  0  0  0  0
  157.0289  140.1341  163.0134 H   0  0  0  0  0  0  0  0  0  0  0  0
  155.6503  140.4829  161.9713 H   0  0  0  0  0  0  0  0  0  0  0  0
  155.5587  136.9635  165.7851 H   0  0  0  0  0  0  0  0  0  0  0  0
  153.7114  135.6779  164.6818 H   0  0  0  0  0  0  0  0  0  0  0  0
  153.0448  136.2806  162.3682 H   0  0  0  0  0  0  0  0  0  0  0  0
  154.9255  138.8823  160.4265 H   0  0  0  0  0  0  0  0  0  0  0  0
  153.7768  137.9225  157.9828 H   0  0  0  0  0  0  0  0  0  0  0  0
  152.1617  138.5193  158.3093 H   0  0  0  0  0  0  0  0  0  0  0  0
  152.1384  140.2528  160.0824 H   0  0  0  0  0  0  0  0  0  0  0  0
  154.3151  140.4401  161.2249 H   0  0  0  0  0  0  0  0  0  0  0  0
  154.8225  141.7028  160.1281 H   0  0  0  0  0  0  0  0  0  0  0  0
  152.5043  141.8700  162.1133 H   0  0  0  0  0  0  0  0  0  0  0  0
  154.0333  142.7061  162.2428 H   0  0  0  0  0  0  0  0  0  0  0  0
  152.2431  144.2083  161.3659 H   0  0  0  0  0  0  0  0  0  0  0  0
  153.5462  144.0292  160.2162 H   0  0  0  0  0  0  0  0  0  0  0  0
  150.8930  142.5270  160.1603 H   0  0  0  0  0  0  0  0  0  0  0  0
  151.9531  144.6639  158.2513 H   0  0  0  0  0  0  0  0  0  0  0  0
  150.6778  144.8939  159.4446 H   0  0  0  0  0  0  0  0  0  0  0  0
  150.4260  143.7999  158.0897 H   0  0  0  0  0  0  0  0  0  0  0  0
  153.1813  142.3816  158.1511 H   0  0  0  0  0  0  0  0  0  0  0  0
  151.6494  141.5509  158.0306 H   0  0  0  0  0  0  0  0  0  0  0  0
  1  2  1  0  0  0  0
  1 20  1  0  0  0  0
  1 21  1  0  0  0  0
  1 22  1  0  0  0  0
  2  7  1  0  0  0  0
  2  3  2  0  0  0  0
  3  4  1  0  0  0  0
  4  5  2  0  0  0  0
  4 23  1  0  0  0  0
  5  6  1  0  0  0  0
  5 24  1  0  0  0  0
  6  7  2  0  0  0  0
  6 25  1  0  0  0  0
  7  8  1  0  0  0  0
  8  9  1  0  0  0  0
  8 26  1  0  0  0  0
  9 10  2  0  0  0  0
  9 11  1  0  0  0  0
 11 12  1  0  0  0  0
 11 27  1  0  0  0  0
 11 28  1  0  0  0  0
 12 13  1  0  0  0  0
 13 19  1  0  0  0  0
 13 14  1  0  0  0  0
 13 29  1  0  0  0  0
 14 15  1  0  0  0  0
 14 30  1  0  0  0  0
 14 31  1  0  0  0  0
 15 16  1  0  0  0  0
 15 32  1  0  0  0  0
 15 33  1  0  0  0  0
 16 17  1  0  0  0  0
 16 34  1  0  0  0  0
 16 35  1  0  0  0  0
 17 18  1  0  0  0  0
 17 19  1  0  0  0  0
 17 36  1  0  0  0  0
 18 37  1  0  0  0  0
 18 38  1  0  0  0  0
 18 39  1  0  0  0  0
 19 40  1  0  0  0  0
 19 41  1  0  0  0  0
M  END
> <s_m_source_file>
AV-unprocessed.smi

> <i_m_source_file_index>
3044

> <i_lp_mmshare_version>
43012

> <i_f3d_flags>
0

> <s_epik_input>
W0NIM11jMW5bY0hdW2NIXVtjSF1jMVtOSF1DKD1PKVtDSDJdT1tDQEBIXTJbQ0gyXVtDSDJdW0NIMl1bQ0BASF0oW0NIM10pW0NIMl0y

> <s_epik_cmdline>
J2VwaWtfcHl0aG9uJywgJy1waCcsICc3LjAnLCAnLXRuJywgJzgnLCAnLW1hJywgJzIwMCcsICctbWV0YWxfYmluZGluZycsICctaW1hZScsICc8aW5maWxlLm1hZT4nLCAnLW9tYWUnLCAnPG91dGZpbGUubWFlPic=

> <r_epik_Ionization_Penalty>
0.0077122

> <r_epik_Ionization_Penalty_Charging>
0

> <r_epik_Ionization_Penalty_Neutral>
0.0077122

> <r_epik_State_Penalty>
0.00577497

> <r_epik_Charging_Adjusted_Penalty>
0.00577497

> <i_epik_Tot_Q>
0

> <i_epik_Tot_abs_Q>
0

> <r_epik_Metal_State_Penalty>
-0

> <b_epik_Metal_Only>
0

> <s_lp_Force_Field>
OPLS_2005

> <r_lp_Energy>
17.5643

> <b_lp_Chiralities_Consistent>
1

> <s_lp_Variant>
AV-unprocessed.smi:3044-2

> <Gold.Version>
5.8.1

> <Gold.Id.Protein>
6NUR|6NUR_protein|mol2

> <Gold.PLP.Fitness>
43.9823

> <Gold.PLP.PLP>
-40.8016

> <Gold.PLP.part.hbond>
-1.6884

> <Gold.PLP.part.metal>
0.0000

> <Gold.PLP.part.buried>
-2.9477

> <Gold.PLP.part.nonpolar>
-35.9527

> <Gold.PLP.part.repulsive>
0.0343

> <Gold.PLP.ligand.clash>
0.0000

> <Gold.PLP.ligand.torsion>
1.1089

> <Gold.PLP.Chemscore.Hbond>
1.7963

> <Gold.PLP.Chemscore.CHOScore>
0.0000

> <Gold.PLP.Chemscore.Metal>
0.0000

> <Gold.Chemscore.Hbonds>
donor molecule, donor type, donor heavy atom, donor atom, acceptor molecule, acceptor atom, score
      P1  H  6896  6908       L1    10  0.86
      P1  H  7997  8008       L1    12  0.98

> <Gold.PLP.Chemscore.Internal.Correction>
0.0097

> <Gold.Rescore>
     Score         DG    S(hbond)    S(metal)    S(lipo)     H(rot)  DE(clash)    DE(int)     intcor
     19.55     -21.93       1.90        0.00     114.81       1.31       0.11       2.27       ----

> <Gold.Chemscore.Fitness>
19.5478

> <Gold.Chemscore.DG>
-21.9301

> <Gold.Chemscore.ZeroCoef>
-5.4800

> <Gold.Chemscore.Hbond>
1.9048

> <Gold.Chemscore.Metal>
0.0000

> <Gold.Chemscore.Lipo>
114.8066

> <Gold.Chemscore.Internal_Hbond>
0.0000

> <Gold.Chemscore.DEClash>
0.1139

> <Gold.Chemscore.DEInternal>
2.2683

> <Gold.Chemscore.Rot>
1.3064

> <Gold.Chemscore.Internal.Correction>
   9.000000E+99

> <Gold.Chemscore.Hbonds>
donor molecule, donor type, donor heavy atom, donor atom, acceptor molecule, acceptor atom, score
      P1  H  6896  6908       L1    10  0.84
      P1  H  7997  8008       L1    12  0.56

> <Gold.Chemscore.Hbond.Weighted>
-6.3620

> <Gold.Chemscore.Metal.Weighted>
-0.0000

> <Gold.Chemscore.Lipo.Weighted>
-13.4324

> <Gold.Chemscore.Internal_Hbond.Weighted>
0.0000

> <Gold.Chemscore.DEClash.Weighted>
0.1139

> <Gold.Chemscore.DEInternal.Weighted>
2.2683

> <Gold.Chemscore.Rot.Weighted>
3.3443

> <Gold.Chemscore.Internal.Correction.Weighted>
   9.000000E+99

> <Gold.Protein.RotatedTorsions>
[ 6907 6896 6895 6894 ] final -105.37 input  -60.11 | X-H torsion
[ 7974 7965 7964 7962 ] final  -11.52 input  175.53 | X-H torsion
[ 8008 7997 7996 7995 ] final -112.60 input   59.86 | X-H torsion
[ 10167 10162 10161 10158 ] final    0.82 input  -65.29 | X-H torsion
[ 10718 10713 10712 10709 ] final    2.44 input   66.30 | X-H torsion
[ 10763 10752 10751 10750 ] final  -27.66 input  -60.55 | X-H torsion
[ 11005 11000 10999 10996 ] final  109.03 input  -57.11 | X-H torsion

> <Gold.Protein.ActiveResidues>
 VAL166  LYS551  ARG553  GLY616  TRP617  ASP618  TYR619  PRO620  LYS621  CYS622 
 ASP623  PHE694  ASN695  SER759  ASP760  ASP761  ALA762  ILE779  LEU786  VAL792 
 PHE793  MET794  SER795  GLU796  ALA797  LYS798  CYS799  TRP800  GLU811  SER814 

> <Gold.Protein.RotatedAtoms>
  150.7333  134.0137  159.3678 H   0  0  0  0  0  0  0  0  0  0  0  0  # atno 6907 bound_to 6896
  151.8098  135.0682  160.0421 H   0  0  0  0  0  0  0  0  0  0  0  0  # atno 6908 bound_to 6896
  152.3080  133.5687  159.5698 H   0  0  0  0  0  0  0  0  0  0  0  0  # atno 6909 bound_to 6896
  146.2184  140.2923  142.8369 H   0  0  0  0  0  0  0  0  0  0  0  0  # atno 7974 bound_to 7965
  155.0077  140.0394  157.2386 H   0  0  0  0  0  0  0  0  0  0  0  0  # atno 8008 bound_to 7997
  154.7488  140.2763  155.6287 H   0  0  0  0  0  0  0  0  0  0  0  0  # atno 8009 bound_to 7997
  156.2880  140.2651  156.2235 H   0  0  0  0  0  0  0  0  0  0  0  0  # atno 8010 bound_to 7997
  140.6711  143.7046  150.7925 H   0  0  0  0  0  0  0  0  0  0  0  0  # atno 10167 bound_to 10162
  156.8630  130.5593  149.5662 H   0  0  0  0  0  0  0  0  0  0  0  0  # atno 10718 bound_to 10713
  153.7357  135.6936  153.4979 H   0  0  0  0  0  0  0  0  0  0  0  0  # atno 10763 bound_to 10752
  153.2104  135.4405  155.0372 H   0  0  0  0  0  0  0  0  0  0  0  0  # atno 10764 bound_to 10752
  154.8238  135.3435  154.6885 H   0  0  0  0  0  0  0  0  0  0  0  0  # atno 10765 bound_to 10752
  139.8854  134.9447  156.6063 H   0  0  0  0  0  0  0  0  0  0  0  0  # atno 11005 bound_to 11000
  144.9118  140.7765  143.5803 LP  0  0  0  0  0  0  0  0  0  0  0  0  # atno 17320 bound_to 7965
  145.2854  139.1903  143.4768 LP  0  0  0  0  0  0  0  0  0  0  0  0  # atno 17321 bound_to 7965
  140.0731  143.5041  152.2569 LP  0  0  0  0  0  0  0  0  0  0  0  0  # atno 17342 bound_to 10162
  139.5980  144.7573  151.3240 LP  0  0  0  0  0  0  0  0  0  0  0  0  # atno 17343 bound_to 10162
  156.0766  130.5787  150.9486 LP  0  0  0  0  0  0  0  0  0  0  0  0  # atno 17370 bound_to 10713
  157.6239  131.0927  150.8570 LP  0  0  0  0  0  0  0  0  0  0  0  0  # atno 17371 bound_to 10713
  140.7845  133.8632  155.8595 LP  0  0  0  0  0  0  0  0  0  0  0  0  # atno 17394 bound_to 11000
  140.9731  134.1505  157.4559 LP  0  0  0  0  0  0  0  0  0  0  0  0  # atno 17395 bound_to 11000

$$$$
