#       Name:                AV-unprocessed.smi:3195
#       Creating user name   scv26
#       Creation time:       Fri Mar 27 18:05:20 2020


#       File generated by GOLD software.
#

@<TRIPOS>MOLECULE
AV-unprocessed.smi:3195
    34    35     1
SMALL
NO_CHARGES


@<TRIPOS>ATOM
      1 ****        -2.2224  -1.7850  -1.2475 C.3            1 S1                 0.0000
      2 ****        -1.6863  -0.9168  -0.0962 C.3            1 S1                 0.0000
      3 ****        -0.1433  -0.8763  -0.1273 C.2            1 S1                 0.0000
      4 ****         0.4881  -1.9108   0.0965 O.2            1 S1                 0.0000
      5 ****         0.4277   0.3106  -0.4110 N.am           1 S1                 0.0000
      6 ****         1.8086   0.6412  -0.4969 C.ar           1 S1                 0.0000
      7 ****         2.7852  -0.2801  -0.3020 N.pl3          1 S1                 1.0000
      8 ****         4.1039   0.0013  -0.3745 C.ar           1 S1                 0.0000
      9 ****         4.5247   1.3127  -0.6669 C.ar           1 S1                 0.0000
     10 ****         3.5520   2.3097  -0.8789 C.ar           1 S1                 0.0000
     11 ****         2.1840   1.9741  -0.7939 C.ar           1 S1                 0.0000
     12 ****         1.2415   2.9427  -0.9986 O.co2          1 S1                -1.0000
     13 ****        -2.2210  -1.3825   1.2790 C.3            1 S1                 0.0000
     14 ****        -3.1224  -0.2508   1.7394 C.3            1 S1                 0.0000
     15 ****        -2.5505   0.9484   1.0015 C.3            1 S1                 0.0000
     16 ****        -2.2164   0.4023  -0.2658 O.3            1 S1                 0.0000
     17 ****        -1.8981  -2.8221  -1.1513 H              1 S1                 0.0000
     18 ****        -1.8795  -1.4172  -2.2154 H              1 S1                 0.0000
     19 ****        -3.3127  -1.7813  -1.2640 H              1 S1                 0.0000
     20 ****        -0.2055   1.0800  -0.5791 H              1 S1                 0.0000
     21 ****         4.7760  -0.8253  -0.1969 H              1 S1                 0.0000
     22 ****         5.5760   1.5517  -0.7271 H              1 S1                 0.0000
     23 ****         3.8545   3.3222  -1.1036 H              1 S1                 0.0000
     24 ****         2.5056  -1.2381  -0.0886 H              1 S1                 0.0000
     25 ****        -2.7645  -2.3269   1.2257 H              1 S1                 0.0000
     26 ****        -1.4162  -1.5195   2.0036 H              1 S1                 0.0000
     27 ****        -4.1460  -0.4331   1.4096 H              1 S1                 0.0000
     28 ****        -3.1303  -0.1217   2.8220 H              1 S1                 0.0000
     29 ****        -3.2618   1.7696   0.9119 H              1 S1                 0.0000
     30 ****        -1.6515   1.3205   1.4953 H              1 S1                 0.0000
     31 ****         0.0006  -2.7611   0.2948 LP             1 S1                 0.0000
     32 ****         1.4879  -1.8999   0.0798 LP             1 S1                 0.0000
     33 ****        -3.0363   0.3605  -0.8367 LP             1 S1                 0.0000
     34 ****        -1.5316   0.9818  -0.7077 LP             1 S1                 0.0000
@<TRIPOS>BOND
    1    1    2 1     
    2    1   17 1     
    3    1   18 1     
    4    1   19 1     
    5    2   16 1     
    6    2    3 1     
    7    2   13 1     
    8    3    4 2     
    9    3    5 am    
   10    5   20 1     
   11    5    6 1     
   12    6   11 ar    
   13    6    7 ar    
   14    7   24 1     
   15    7    8 ar    
   16    8   21 1     
   17    8    9 ar    
   18    9   22 1     
   19    9   10 ar    
   20   10   11 ar    
   21   10   23 1     
   22   11   12 ar    
   23   13   14 1     
   24   13   25 1     
   25   13   26 1     
   26   14   15 1     
   27   14   27 1     
   28   14   28 1     
   29   15   16 1     
   30   15   29 1     
   31   15   30 1     
   32    4   31 1     
   33    4   32 1     
   34   16   33 1     
   35   16   34 1     
@<TRIPOS>SUBSTRUCTURE
      1 S1             1
@<TRIPOS>SET
LONE_PAIRS      STATIC     ATOMS    <user>   **** ""
5 31 32 12 33 34
DONOR_HYDROGENS      STATIC     ATOMS    <user>   **** ""
2 20 24
ATOM$BLUE        STATIC     ATOMS    COLORGROUP SYSTEM
5 31 32 12 33 34
ATOM$RED        STATIC     ATOMS    COLORGROUP SYSTEM
2 20 24
