AV-unprocessed.smi:3181|AV-procd|sdf|12148|dock10
  -GOLD-   2272017583D 1   1.00000     0.00000
 Structure written by MMmdl.
 42 43  0  0  0  0  0  0  0  0  2 V2000
  148.2674  140.6887  155.0545 C   0  0  0  0  0  0  0  0  0  0  0  0
  149.5665  140.7149  155.8763 C   0  0  1  0  0  0  0  0  0  0  0  0
  150.8205  140.5132  154.9976 C   0  0  0  0  0  0  0  0  0  0  0  0
  151.5385  139.2920  155.3112 N   0  0  0  0  0  0  0  0  0  0  0  0
  151.2014  138.0135  155.1319 C   0  0  0  0  0  0  0  0  0  0  0  0
  152.1256  137.1550  155.5390 N   0  0  0  0  0  0  0  0  0  0  0  0
  153.0751  138.0329  155.9810 C   0  0  0  0  0  0  0  0  0  0  0  0
  152.7739  139.3264  155.8632 N   0  0  0  0  0  0  0  0  0  0  0  0
  149.6591  141.9962  156.6130 N   0  3  0  0  0  0  0  0  0  0  0  0
  150.9849  142.3287  157.1846 C   0  0  2  0  0  0  0  0  0  0  0  0
  151.4349  141.2021  158.1317 C   0  0  0  0  0  0  0  0  0  0  0  0
  152.7959  141.5126  158.7768 C   0  0  0  0  0  0  0  0  0  0  0  0
  152.7941  142.8611  159.5250 C   0  0  2  0  0  0  0  0  0  0  0  0
  151.9892  142.7833  160.8380 C   0  0  0  0  0  0  0  0  0  0  0  0
  152.3418  143.9946  158.5697 C   0  0  2  0  0  0  0  0  0  0  0  0
  152.3619  145.3857  159.2245 C   0  0  0  0  0  0  0  0  0  0  0  0
  150.9771  143.6864  157.9202 C   0  0  0  0  0  0  0  0  0  0  0  0
  148.1285  139.7296  154.5548 H   0  0  0  0  0  0  0  0  0  0  0  0
  148.2652  141.4655  154.2891 H   0  0  0  0  0  0  0  0  0  0  0  0
  147.3973  140.8477  155.6924 H   0  0  0  0  0  0  0  0  0  0  0  0
  149.5063  139.8971  156.5962 H   0  0  0  0  0  0  0  0  0  0  0  0
  150.5403  140.4847  153.9436 H   0  0  0  0  0  0  0  0  0  0  0  0
  151.5139  141.3470  155.1092 H   0  0  0  0  0  0  0  0  0  0  0  0
  150.2609  137.7040  154.6996 H   0  0  0  0  0  0  0  0  0  0  0  0
  154.0160  137.7093  156.4015 H   0  0  0  0  0  0  0  0  0  0  0  0
  149.3544  142.7488  156.0122 H   0  0  0  0  0  0  0  0  0  0  0  0
  151.7013  142.3774  156.3626 H   0  0  0  0  0  0  0  0  0  0  0  0
  150.6860  141.0470  158.9093 H   0  0  0  0  0  0  0  0  0  0  0  0
  151.5018  140.2615  157.5835 H   0  0  0  0  0  0  0  0  0  0  0  0
  153.0805  140.7055  159.4529 H   0  0  0  0  0  0  0  0  0  0  0  0
  153.5603  141.5354  157.9988 H   0  0  0  0  0  0  0  0  0  0  0  0
  153.8268  143.0661  159.8110 H   0  0  0  0  0  0  0  0  0  0  0  0
  150.9230  142.6453  160.6615 H   0  0  0  0  0  0  0  0  0  0  0  0
  152.1113  143.6868  161.4349 H   0  0  0  0  0  0  0  0  0  0  0  0
  152.3297  141.9504  161.4534 H   0  0  0  0  0  0  0  0  0  0  0  0
  153.0741  144.0315  157.7614 H   0  0  0  0  0  0  0  0  0  0  0  0
  151.5939  145.4830  159.9921 H   0  0  0  0  0  0  0  0  0  0  0  0
  152.1835  146.1667  158.4850 H   0  0  0  0  0  0  0  0  0  0  0  0
  153.3277  145.5882  159.6880 H   0  0  0  0  0  0  0  0  0  0  0  0
  150.7376  144.4862  157.2191 H   0  0  0  0  0  0  0  0  0  0  0  0
  150.1908  143.6975  158.6759 H   0  0  0  0  0  0  0  0  0  0  0  0
  149.0163  141.9347  157.3895 H   0  0  0  0  0  0  0  0  0  0  0  0
  1  2  1  0  0  0  0
  1 18  1  0  0  0  0
  1 19  1  0  0  0  0
  1 20  1  0  0  0  0
  2  3  1  0  0  0  0
  2  9  1  0  0  0  0
  2 21  1  0  0  0  0
  3  4  1  0  0  0  0
  3 22  1  0  0  0  0
  3 23  1  0  0  0  0
  4  8  1  0  0  0  0
  4  5  1  0  0  0  0
  5  6  2  0  0  0  0
  5 24  1  0  0  0  0
  6  7  1  0  0  0  0
  7  8  2  0  0  0  0
  7 25  1  0  0  0  0
  9 10  1  0  0  0  0
  9 26  1  0  0  0  0
  9 42  1  0  0  0  0
 10 17  1  0  0  0  0
 10 11  1  0  0  0  0
 10 27  1  0  0  0  0
 11 12  1  0  0  0  0
 11 28  1  0  0  0  0
 11 29  1  0  0  0  0
 12 13  1  0  0  0  0
 12 30  1  0  0  0  0
 12 31  1  0  0  0  0
 13 14  1  0  0  0  0
 13 15  1  0  0  0  0
 13 32  1  0  0  0  0
 14 33  1  0  0  0  0
 14 34  1  0  0  0  0
 14 35  1  0  0  0  0
 15 16  1  0  0  0  0
 15 17  1  0  0  0  0
 15 36  1  0  0  0  0
 16 37  1  0  0  0  0
 16 38  1  0  0  0  0
 16 39  1  0  0  0  0
 17 40  1  0  0  0  0
 17 41  1  0  0  0  0
M  CHG  1   9   1
M  END
> <s_m_source_file>
AV-unprocessed.smi

> <i_m_source_file_index>
3181

> <i_lp_mmshare_version>
43012

> <i_f3d_flags>
0

> <s_epik_input>
bjFbY0hdbltjSF1uMVtDSDJdW0NAQEhdKFtDSDNdKVtOSF1bQ0BASF0yW0NIMl1bQ0gyXVtDQEBIXShbQ0gzXSlbQ0BASF0oW0NIM10pW0NIMl0y

> <s_epik_cmdline>
J2VwaWtfcHl0aG9uJywgJy1waCcsICc3LjAnLCAnLXRuJywgJzgnLCAnLW1hJywgJzIwMCcsICctbWV0YWxfYmluZGluZycsICctaW1hZScsICc8aW5maWxlLm1hZT4nLCAnLW9tYWUnLCAnPG91dGZpbGUubWFlPic=

> <r_lp_tautomer_probability>
1

> <r_epik_Ionization_Penalty>
0.000617007

> <r_epik_Ionization_Penalty_Charging>
0.000616215

> <r_epik_Ionization_Penalty_Neutral>
7.92544e-07

> <r_epik_State_Penalty>
0.000388807

> <r_epik_Charging_Adjusted_Penalty>
0.00100502

> <i_epik_Tot_Q>
1

> <i_epik_Tot_abs_Q>
1

> <r_epik_Metal_State_Penalty>
-0

> <b_epik_Metal_Only>
0

> <s_lp_Force_Field>
OPLS_2005

> <r_lp_Energy>
20.8152

> <b_lp_Chiralities_Consistent>
1

> <s_lp_Variant>
AV-unprocessed.smi:3181-14

> <Gold.Version>
5.8.1

> <Gold.Id.Protein>
6NUR|6NUR_protein|mol2

> <Gold.PLP.Fitness>
44.6305

> <Gold.PLP.PLP>
-34.8930

> <Gold.PLP.part.hbond>
-3.0000

> <Gold.PLP.part.metal>
0.0000

> <Gold.PLP.part.buried>
-0.0408

> <Gold.PLP.part.nonpolar>
-31.3173

> <Gold.PLP.part.repulsive>
0.0835

> <Gold.PLP.ligand.clash>
0.0000

> <Gold.PLP.ligand.torsion>
0.9390

> <Gold.PLP.Chemscore.Hbond>
3.8640

> <Gold.PLP.Chemscore.CHOScore>
0.0000

> <Gold.PLP.Chemscore.Metal>
0.0000

> <Gold.Chemscore.Hbonds>
donor molecule, donor type, donor heavy atom, donor atom, acceptor molecule, acceptor atom, score
      L1  H     9    26       P1  8028  1.89
      P1  H  7997  8010       L1     8  1.00
      P1  H 10752 10765       L1     6  0.90

> <Gold.PLP.Chemscore.Internal.Correction>
0.0234

> <Gold.Rescore>
     Score         DG    S(hbond)    S(metal)    S(lipo)     H(rot)  DE(clash)    DE(int)     intcor
     17.49     -20.13       2.31        0.00     105.58       2.11       1.64       1.00       ----

> <Gold.Chemscore.Fitness>
17.4898

> <Gold.Chemscore.DG>
-20.1338

> <Gold.Chemscore.ZeroCoef>
-5.4800

> <Gold.Chemscore.Hbond>
2.3057

> <Gold.Chemscore.Metal>
0.0000

> <Gold.Chemscore.Lipo>
105.5823

> <Gold.Chemscore.Internal_Hbond>
0.0000

> <Gold.Chemscore.DEClash>
1.6400

> <Gold.Chemscore.DEInternal>
1.0040

> <Gold.Chemscore.Rot>
2.1095

> <Gold.Chemscore.Internal.Correction>
   9.000000E+99

> <Gold.Chemscore.Hbonds>
donor molecule, donor type, donor heavy atom, donor atom, acceptor molecule, acceptor atom, score
      L1  H     9    26       P1  8028  0.87
      P1  H  7997  8010       L1     8  0.45
      P1  H 10752 10765       L1     6  0.64

> <Gold.Chemscore.Hbond.Weighted>
-7.7010

> <Gold.Chemscore.Metal.Weighted>
-0.0000

> <Gold.Chemscore.Lipo.Weighted>
-12.3531

> <Gold.Chemscore.Internal_Hbond.Weighted>
0.0000

> <Gold.Chemscore.DEClash.Weighted>
1.6400

> <Gold.Chemscore.DEInternal.Weighted>
1.0040

> <Gold.Chemscore.Rot.Weighted>
5.4003

> <Gold.Chemscore.Internal.Correction.Weighted>
   9.000000E+99

> <Gold.Protein.RotatedTorsions>
[ 6907 6896 6895 6894 ] final  -38.81 input  -60.11 | X-H torsion
[ 7974 7965 7964 7962 ] final  161.77 input  175.53 | X-H torsion
[ 8008 7997 7996 7995 ] final   95.48 input   59.86 | X-H torsion
[ 10167 10162 10161 10158 ] final   28.66 input  -65.29 | X-H torsion
[ 10718 10713 10712 10709 ] final -137.71 input   66.30 | X-H torsion
[ 10763 10752 10751 10750 ] final -173.98 input  -60.55 | X-H torsion
[ 11005 11000 10999 10996 ] final   99.17 input  -57.11 | X-H torsion

> <Gold.Protein.ActiveResidues>
 VAL166  LYS551  ARG553  GLY616  TRP617  ASP618  TYR619  PRO620  LYS621  CYS622 
 ASP623  PHE694  ASN695  SER759  ASP760  ASP761  ALA762  ILE779  LEU786  VAL792 
 PHE793  MET794  SER795  GLU796  ALA797  LYS798  CYS799  TRP800  GLU811  SER814 

> <Gold.Protein.RotatedAtoms>
  150.9979  134.9298  159.7936 H   0  0  0  0  0  0  0  0  0  0  0  0  # atno 6907 bound_to 6896
  152.5269  134.3193  159.9152 H   0  0  0  0  0  0  0  0  0  0  0  0  # atno 6908 bound_to 6896
  151.3199  133.4003  159.2688 H   0  0  0  0  0  0  0  0  0  0  0  0  # atno 6909 bound_to 6896
  144.7669  139.7944  143.6311 H   0  0  0  0  0  0  0  0  0  0  0  0  # atno 7974 bound_to 7965
  156.0693  140.3286  155.7557 H   0  0  0  0  0  0  0  0  0  0  0  0  # atno 8008 bound_to 7997
  155.5330  140.0595  157.2902 H   0  0  0  0  0  0  0  0  0  0  0  0  # atno 8009 bound_to 7997
  154.4522  140.1924  156.0503 H   0  0  0  0  0  0  0  0  0  0  0  0  # atno 8010 bound_to 7997
  140.4833  144.0582  150.6272 H   0  0  0  0  0  0  0  0  0  0  0  0  # atno 10167 bound_to 10162
  156.2912  130.7376  151.1402 H   0  0  0  0  0  0  0  0  0  0  0  0  # atno 10718 bound_to 10713
  154.6016  135.2855  155.0529 H   0  0  0  0  0  0  0  0  0  0  0  0  # atno 10763 bound_to 10752
  154.1792  135.6459  153.5033 H   0  0  0  0  0  0  0  0  0  0  0  0  # atno 10764 bound_to 10752
  153.0159  135.5419  154.6737 H   0  0  0  0  0  0  0  0  0  0  0  0  # atno 10765 bound_to 10752
  139.8771  134.9083  156.4566 H   0  0  0  0  0  0  0  0  0  0  0  0  # atno 11005 bound_to 11000
  146.1785  139.4966  142.9882 LP  0  0  0  0  0  0  0  0  0  0  0  0  # atno 17320 bound_to 7965
  145.6441  141.0278  143.1795 LP  0  0  0  0  0  0  0  0  0  0  0  0  # atno 17321 bound_to 7965
  140.3830  143.2792  152.0148 LP  0  0  0  0  0  0  0  0  0  0  0  0  # atno 17342 bound_to 10162
  139.4837  144.6139  151.7382 LP  0  0  0  0  0  0  0  0  0  0  0  0  # atno 17343 bound_to 10162
  157.7343  131.0583  150.5533 LP  0  0  0  0  0  0  0  0  0  0  0  0  # atno 17370 bound_to 10713
  156.5650  130.4265  149.6045 LP  0  0  0  0  0  0  0  0  0  0  0  0  # atno 17371 bound_to 10713
  140.8894  133.7859  155.9555 LP  0  0  0  0  0  0  0  0  0  0  0  0  # atno 17394 bound_to 11000
  140.8770  134.2658  157.5163 LP  0  0  0  0  0  0  0  0  0  0  0  0  # atno 17395 bound_to 11000

$$$$
