AV-unprocessed.smi:1583|AV-procd|sdf|6363|dock6
  -GOLD-   22720 6593D 1   1.00000     0.00000
 Structure written by MMmdl.
 36 37  0  0  0  0  0  0  0  0  1 V2000
  151.6643  138.4574  154.4383 C   0  0  0  0  0  0  0  0  0  0  0  0
  151.2841  138.3226  155.8361 N   0  0  0  0  0  0  0  0  0  0  0  0
  152.0979  138.5851  156.8689 C   0  0  0  0  0  0  0  0  0  0  0  0
  153.2597  138.9686  156.7341 O   0  0  0  0  0  0  0  0  0  0  0  0
  151.5155  138.3906  158.2664 C   0  0  0  0  0  0  0  0  0  0  0  0
  152.6101  139.0456  159.5607 S   0  0  0  0  0  0  0  0  0  0  0  0
  152.2274  140.7718  159.4641 C   0  0  0  0  0  0  0  0  0  0  0  0
  151.3478  141.2810  158.5981 N   0  0  0  0  0  0  0  0  0  0  0  0
  151.3905  142.6337  158.8688 C   0  0  0  0  0  0  0  0  0  0  0  0
  150.6899  143.7116  158.2818 C   0  0  0  0  0  0  0  0  0  0  0  0
  150.9069  145.0314  158.7291 C   0  0  0  0  0  0  0  0  0  0  0  0
  151.8247  145.2914  159.7675 C   0  0  0  0  0  0  0  0  0  0  0  0
  152.5317  144.2310  160.3666 C   0  0  0  0  0  0  0  0  0  0  0  0
  152.3109  142.9157  159.9158 C   0  0  0  0  0  0  0  0  0  0  0  0
  152.8302  141.6771  160.2764 N   0  0  0  0  0  0  0  0  0  0  0  0
  153.8262  141.4411  161.3118 C   0  0  0  0  0  0  0  0  0  0  0  0
  153.6051  142.3396  162.5365 C   0  0  0  0  0  0  0  0  0  0  0  0
  154.6343  142.1195  163.4870 O   0  0  0  0  0  0  0  0  0  0  0  0
  154.6222  143.0743  164.5328 C   0  0  0  0  0  0  0  0  0  0  0  0
  150.8383  138.1499  153.7972 H   0  0  0  0  0  0  0  0  0  0  0  0
  152.5273  137.8317  154.2063 H   0  0  0  0  0  0  0  0  0  0  0  0
  151.9113  139.4936  154.2030 H   0  0  0  0  0  0  0  0  0  0  0  0
  150.3430  138.0140  156.0324 H   0  0  0  0  0  0  0  0  0  0  0  0
  150.5414  138.8773  158.3346 H   0  0  0  0  0  0  0  0  0  0  0  0
  151.3581  137.3245  158.4338 H   0  0  0  0  0  0  0  0  0  0  0  0
  149.9859  143.5227  157.4849 H   0  0  0  0  0  0  0  0  0  0  0  0
  150.3676  145.8483  158.2726 H   0  0  0  0  0  0  0  0  0  0  0  0
  151.9862  146.3054  160.1031 H   0  0  0  0  0  0  0  0  0  0  0  0
  153.2363  144.4263  161.1613 H   0  0  0  0  0  0  0  0  0  0  0  0
  153.7745  140.3925  161.6065 H   0  0  0  0  0  0  0  0  0  0  0  0
  154.8254  141.5904  160.9041 H   0  0  0  0  0  0  0  0  0  0  0  0
  153.5978  143.3872  162.2310 H   0  0  0  0  0  0  0  0  0  0  0  0
  152.6329  142.1239  162.9817 H   0  0  0  0  0  0  0  0  0  0  0  0
  155.4254  142.8562  165.2364 H   0  0  0  0  0  0  0  0  0  0  0  0
  153.6788  143.0489  165.0798 H   0  0  0  0  0  0  0  0  0  0  0  0
  154.7774  144.0828  164.1473 H   0  0  0  0  0  0  0  0  0  0  0  0
  1  2  1  0  0  0  0
  1 20  1  0  0  0  0
  1 21  1  0  0  0  0
  1 22  1  0  0  0  0
  2  3  1  0  0  0  0
  2 23  1  0  0  0  0
  3  4  2  0  0  0  0
  3  5  1  0  0  0  0
  5  6  1  0  0  0  0
  5 24  1  0  0  0  0
  5 25  1  0  0  0  0
  6  7  1  0  0  0  0
  7 15  1  0  0  0  0
  7  8  2  0  0  0  0
  8  9  1  0  0  0  0
  9 14  2  0  0  0  0
  9 10  1  0  0  0  0
 10 11  2  0  0  0  0
 10 26  1  0  0  0  0
 11 12  1  0  0  0  0
 11 27  1  0  0  0  0
 12 13  2  0  0  0  0
 12 28  1  0  0  0  0
 13 14  1  0  0  0  0
 13 29  1  0  0  0  0
 14 15  1  0  0  0  0
 15 16  1  0  0  0  0
 16 17  1  0  0  0  0
 16 30  1  0  0  0  0
 16 31  1  0  0  0  0
 17 18  1  0  0  0  0
 17 32  1  0  0  0  0
 17 33  1  0  0  0  0
 18 19  1  0  0  0  0
 19 34  1  0  0  0  0
 19 35  1  0  0  0  0
 19 36  1  0  0  0  0
M  END
> <s_m_source_file>
AV-unprocessed.smi

> <i_m_source_file_index>
1583

> <i_lp_mmshare_version>
43012

> <i_f3d_flags>
0

> <s_epik_input>
W0NIM11bTkhdQyg9TylbQ0gyXVNjKG4xKW4oW0NIMl1bQ0gyXU9bQ0gzXSljKGMxMilbY0hdW2NIXVtjSF1bY0hdMg==

> <s_epik_cmdline>
J2VwaWtfcHl0aG9uJywgJy1waCcsICc3LjAnLCAnLXRuJywgJzgnLCAnLW1hJywgJzIwMCcsICctbWV0YWxfYmluZGluZycsICctaW1hZScsICc8aW5maWxlLm1hZT4nLCAnLW9tYWUnLCAnPG91dGZpbGUubWFlPic=

> <r_epik_Ionization_Penalty>
0.0356249

> <r_epik_Ionization_Penalty_Charging>
0

> <r_epik_Ionization_Penalty_Neutral>
0.0356249

> <r_epik_State_Penalty>
0.0297112

> <r_epik_Charging_Adjusted_Penalty>
0.0297112

> <i_epik_Tot_Q>
0

> <i_epik_Tot_abs_Q>
0

> <r_epik_Metal_State_Penalty>
0.0280118

> <b_epik_Metal_Only>
0

> <s_lp_Force_Field>
OPLS_2005

> <r_lp_Energy>
5.95406

> <b_lp_Chiralities_Consistent>
1

> <s_lp_Variant>
AV-unprocessed.smi:1583-1

> <Gold.Version>
5.8.1

> <Gold.Id.Protein>
6NUR|6NUR_protein|mol2

> <Gold.PLP.Fitness>
47.0884

> <Gold.PLP.PLP>
-45.0988

> <Gold.PLP.part.hbond>
-1.9127

> <Gold.PLP.part.metal>
0.0000

> <Gold.PLP.part.buried>
-6.6278

> <Gold.PLP.part.nonpolar>
-36.2071

> <Gold.PLP.part.repulsive>
0.0963

> <Gold.PLP.ligand.clash>
0.0000

> <Gold.PLP.ligand.torsion>
0.5184

> <Gold.PLP.Chemscore.Hbond>
1.0000

> <Gold.PLP.Chemscore.CHOScore>
0.0000

> <Gold.PLP.Chemscore.Metal>
0.0000

> <Gold.Chemscore.Hbonds>
donor molecule, donor type, donor heavy atom, donor atom, acceptor molecule, acceptor atom, score
      P1  H  7997  8009       L1     4  1.00

> <Gold.PLP.Chemscore.Internal.Correction>
0.0265

> <Gold.Rescore>
     Score         DG    S(hbond)    S(metal)    S(lipo)     H(rot)  DE(clash)    DE(int)     intcor
     16.74     -17.26       1.00        0.00     119.90       2.18       0.24       0.28       ----

> <Gold.Chemscore.Fitness>
16.7405

> <Gold.Chemscore.DG>
-17.2587

> <Gold.Chemscore.ZeroCoef>
-5.4800

> <Gold.Chemscore.Hbond>
0.9992

> <Gold.Chemscore.Metal>
0.0000

> <Gold.Chemscore.Lipo>
119.9034

> <Gold.Chemscore.Internal_Hbond>
0.0000

> <Gold.Chemscore.DEClash>
0.2430

> <Gold.Chemscore.DEInternal>
0.2751

> <Gold.Chemscore.Rot>
2.1826

> <Gold.Chemscore.Internal.Correction>
   9.000000E+99

> <Gold.Chemscore.Hbonds>
donor molecule, donor type, donor heavy atom, donor atom, acceptor molecule, acceptor atom, score
      P1  H  7997  8009       L1     4  0.96

> <Gold.Chemscore.Hbond.Weighted>
-3.3374

> <Gold.Chemscore.Metal.Weighted>
-0.0000

> <Gold.Chemscore.Lipo.Weighted>
-14.0287

> <Gold.Chemscore.Internal_Hbond.Weighted>
0.0000

> <Gold.Chemscore.DEClash.Weighted>
0.2430

> <Gold.Chemscore.DEInternal.Weighted>
0.2751

> <Gold.Chemscore.Rot.Weighted>
5.5874

> <Gold.Chemscore.Internal.Correction.Weighted>
   9.000000E+99

> <Gold.Protein.RotatedTorsions>
[ 6907 6896 6895 6894 ] final  145.70 input  -60.11 | X-H torsion
[ 7974 7965 7964 7962 ] final  149.92 input  175.53 | X-H torsion
[ 8008 7997 7996 7995 ] final -177.15 input   59.86 | X-H torsion
[ 10167 10162 10161 10158 ] final -161.78 input  -65.29 | X-H torsion
[ 10718 10713 10712 10709 ] final   60.45 input   66.30 | X-H torsion
[ 10763 10752 10751 10750 ] final   89.58 input  -60.55 | X-H torsion
[ 11005 11000 10999 10996 ] final -130.24 input  -57.11 | X-H torsion

> <Gold.Protein.ActiveResidues>
 VAL166  LYS551  ARG553  GLY616  TRP617  ASP618  TYR619  PRO620  LYS621  CYS622 
 ASP623  PHE694  ASN695  SER759  ASP760  ASP761  ALA762  ILE779  LEU786  VAL792 
 PHE793  MET794  SER795  GLU796  ALA797  LYS798  CYS799  TRP800  GLU811  SER814 

> <Gold.Protein.RotatedAtoms>
  152.1775  133.4685  159.4940 H   0  0  0  0  0  0  0  0  0  0  0  0  # atno 6907 bound_to 6896
  150.6929  134.1875  159.4281 H   0  0  0  0  0  0  0  0  0  0  0  0  # atno 6908 bound_to 6896
  151.9785  135.0040  160.0607 H   0  0  0  0  0  0  0  0  0  0  0  0  # atno 6909 bound_to 6896
  144.8402  139.6342  143.6020 H   0  0  0  0  0  0  0  0  0  0  0  0  # atno 7974 bound_to 7965
  156.0035  140.1225  157.0524 H   0  0  0  0  0  0  0  0  0  0  0  0  # atno 8008 bound_to 7997
  154.4250  140.1102  156.5799 H   0  0  0  0  0  0  0  0  0  0  0  0  # atno 8009 bound_to 7997
  155.6179  140.3472  155.4645 H   0  0  0  0  0  0  0  0  0  0  0  0  # atno 8010 bound_to 7997
  139.6440  144.0207  152.2113 H   0  0  0  0  0  0  0  0  0  0  0  0  # atno 10167 bound_to 10162
  157.5754  130.8939  149.9338 H   0  0  0  0  0  0  0  0  0  0  0  0  # atno 10718 bound_to 10713
  153.1886  135.4465  155.0120 H   0  0  0  0  0  0  0  0  0  0  0  0  # atno 10763 bound_to 10752
  154.8076  135.3281  154.7393 H   0  0  0  0  0  0  0  0  0  0  0  0  # atno 10764 bound_to 10752
  153.7850  135.6974  153.4937 H   0  0  0  0  0  0  0  0  0  0  0  0  # atno 10765 bound_to 10752
  140.9363  134.1253  157.4190 H   0  0  0  0  0  0  0  0  0  0  0  0  # atno 11005 bound_to 11000
  146.2695  139.6602  142.9306 LP  0  0  0  0  0  0  0  0  0  0  0  0  # atno 17320 bound_to 7965
  145.4710  141.0436  143.2698 LP  0  0  0  0  0  0  0  0  0  0  0  0  # atno 17321 bound_to 7965
  139.9904  144.6366  150.7820 LP  0  0  0  0  0  0  0  0  0  0  0  0  # atno 17342 bound_to 10162
  140.7505  143.2957  151.3212 LP  0  0  0  0  0  0  0  0  0  0  0  0  # atno 17343 bound_to 10162
  156.0798  130.3674  150.0603 LP  0  0  0  0  0  0  0  0  0  0  0  0  # atno 17370 bound_to 10713
  156.8750  130.9537  151.3605 LP  0  0  0  0  0  0  0  0  0  0  0  0  # atno 17371 bound_to 10713
  139.8809  135.0022  156.6112 LP  0  0  0  0  0  0  0  0  0  0  0  0  # atno 17394 bound_to 11000
  140.7795  133.8672  155.8556 LP  0  0  0  0  0  0  0  0  0  0  0  0  # atno 17395 bound_to 11000

$$$$
