#       Name:                AV-unprocessed.smi:1361
#       Creating user name   scv26
#       Creation time:       Fri Mar 27 05:15:00 2020


#       File generated by GOLD software.
#

@<TRIPOS>MOLECULE
AV-unprocessed.smi:1361
    51    52     1
SMALL
NO_CHARGES


@<TRIPOS>ATOM
      1 ****        -6.9759  -1.7630   0.7164 C.3            1 S1                 0.0000
      2 ****        -5.4643  -1.7542   0.7949 C.2            1 S1                 0.0000
      3 ****        -4.8598  -0.6677   1.0921 N.2            1 S1                 0.0000
      4 ****        -3.4570  -0.6558   1.1704 C.2            1 S1                 0.0000
      5 ****        -2.8267   0.6772   1.5356 C.3            1 S1                 0.0000
      6 ****        -2.7269  -1.7830   0.9309 C.2            1 S1                 0.0000
      7 ****        -1.2016  -1.8243   1.0109 C.3            1 S1                 0.0000
      8 ****        -0.4669  -1.3022  -0.2247 C.2            1 S1                 0.0000
      9 ****        -0.6385  -1.8404  -1.3181 O.2            1 S1                 0.0000
     10 ****         0.3475  -0.2521  -0.0360 N.am           1 S1                 0.0000
     11 ****         1.1420   0.4102  -1.0677 C.3            1 S1                 0.0000
     12 ****         2.4416  -0.3884  -1.3178 C.3            1 S1                 0.0000
     13 ****         3.4928   0.3376  -2.1778 C.3            1 S1                 0.0000
     14 ****         4.7862   0.7076  -1.4280 C.3            1 S1                 0.0000
     15 ****         4.6329   1.3138  -0.0173 C.3            1 S1                 0.0000
     16 ****         3.7102   2.5394   0.1016 C.3            1 S1                 0.0000
     17 ****         2.2452   2.2296   0.4787 C.3            1 S1                 0.0000
     18 ****         1.3147   1.9045  -0.7052 C.3            1 S1                 0.0000
     19 ****        -3.4619  -3.0128   0.5836 C.2            1 S1                 0.0000
     20 ****        -2.8528  -4.0543   0.3426 O.2            1 S1                 0.0000
     21 ****        -4.8231  -2.9450   0.5382 N.pl3          1 S1                -1.0000
     22 ****        -7.3767  -0.7489   0.7429 H              1 S1                 0.0000
     23 ****        -7.3922  -2.3196   1.5565 H              1 S1                 0.0000
     24 ****        -7.3061  -2.2352  -0.2095 H              1 S1                 0.0000
     25 ****        -2.2488   0.5916   2.4558 H              1 S1                 0.0000
     26 ****        -3.5872   1.4434   1.6905 H              1 S1                 0.0000
     27 ****        -2.1668   1.0201   0.7390 H              1 S1                 0.0000
     28 ****        -0.8872  -1.2538   1.8853 H              1 S1                 0.0000
     29 ****        -0.8512  -2.8373   1.2101 H              1 S1                 0.0000
     30 ****         0.4192   0.1224   0.8987 H              1 S1                 0.0000
     31 ****         0.5663   0.3954  -1.9954 H              1 S1                 0.0000
     32 ****         2.8738  -0.7144  -0.3726 H              1 S1                 0.0000
     33 ****         2.1725  -1.3174  -1.8224 H              1 S1                 0.0000
     34 ****         3.7657  -0.3068  -3.0144 H              1 S1                 0.0000
     35 ****         3.0715   1.2240  -2.6490 H              1 S1                 0.0000
     36 ****         5.4020  -0.1881  -1.3392 H              1 S1                 0.0000
     37 ****         5.3601   1.3945  -2.0510 H              1 S1                 0.0000
     38 ****         4.3373   0.5530   0.7048 H              1 S1                 0.0000
     39 ****         5.6311   1.6164   0.3020 H              1 S1                 0.0000
     40 ****         4.1135   3.1588   0.9036 H              1 S1                 0.0000
     41 ****         3.7678   3.1605  -0.7929 H              1 S1                 0.0000
     42 ****         2.1894   1.4604   1.2492 H              1 S1                 0.0000
     43 ****         1.8489   3.1303   0.9492 H              1 S1                 0.0000
     44 ****         1.6164   2.4815  -1.5789 H              1 S1                 0.0000
     45 ****         0.3235   2.2932  -0.4653 H              1 S1                 0.0000
     46 ****        -5.3813   0.1673   1.2675 LP             1 S1                 0.0000
     47 ****        -1.2591  -2.6203  -1.3996 LP             1 S1                 0.0000
     48 ****        -0.1574  -1.4978  -2.1250 LP             1 S1                 0.0000
     49 ****        -1.8537  -4.0697   0.3817 LP             1 S1                 0.0000
     50 ****        -3.3569  -4.8854   0.1076 LP             1 S1                 0.0000
     51 ****        -5.3565  -3.7618   0.3180 LP             1 S1                 0.0000
@<TRIPOS>BOND
    1    1    2 1     
    2    1   22 1     
    3    1   23 1     
    4    1   24 1     
    5    2   21 1     
    6    2    3 2     
    7    3    4 1     
    8    4    5 1     
    9    4    6 2     
   10    5   25 1     
   11    5   26 1     
   12    5   27 1     
   13    6    7 1     
   14    6   19 1     
   15    7    8 1     
   16    7   28 1     
   17    7   29 1     
   18    8    9 2     
   19    8   10 am    
   20   10   11 1     
   21   10   30 1     
   22   11   18 1     
   23   11   12 1     
   24   11   31 1     
   25   12   13 1     
   26   12   32 1     
   27   12   33 1     
   28   13   14 1     
   29   13   34 1     
   30   13   35 1     
   31   14   15 1     
   32   14   36 1     
   33   14   37 1     
   34   15   16 1     
   35   15   38 1     
   36   15   39 1     
   37   16   17 1     
   38   16   40 1     
   39   16   41 1     
   40   17   18 1     
   41   17   42 1     
   42   17   43 1     
   43   18   44 1     
   44   18   45 1     
   45   19   20 2     
   46   19   21 1     
   47    3   46 1     
   48    9   47 1     
   49    9   48 1     
   50   20   49 1     
   51   20   50 1     
   52   21   51 1     
@<TRIPOS>SUBSTRUCTURE
      1 S1             1
@<TRIPOS>SET
LONE_PAIRS      STATIC     ATOMS    <user>   **** ""
6 46 47 48 49 50 51
DONOR_HYDROGENS      STATIC     ATOMS    <user>   **** ""
1 30
ATOM$BLUE        STATIC     ATOMS    COLORGROUP SYSTEM
6 46 47 48 49 50 51
ATOM$RED        STATIC     ATOMS    COLORGROUP SYSTEM
1 30
