AV-unprocessed.smi:2396|AV-procd|sdf|9492|dock8
  -GOLD-   2272013123D 1   1.00000     0.00000
 Structure written by MMmdl.
 32 32  0  0  0  0  0  0  0  0  1 V2000
  147.3785  144.9808  160.6447 C   0  0  0  0  0  0  0  0  0  0  0  0
  148.8950  144.9297  160.8728 C   0  0  0  0  0  0  0  0  0  0  0  0
  149.6221  144.7954  159.6160 N   0  0  0  0  0  0  0  0  0  0  0  0
  150.9477  144.6172  159.5075 C   0  0  0  0  0  0  0  0  0  0  0  0
  151.7003  144.5502  160.4804 O   0  0  0  0  0  0  0  0  0  0  0  0
  151.4999  144.5027  158.0823 C   0  0  0  0  0  0  0  0  0  0  0  0
  151.3687  143.1563  157.5512 N   0  0  0  0  0  0  0  0  0  0  0  0
  150.8334  142.7569  156.3480 C   0  0  0  0  0  0  0  0  0  0  0  0
  150.9147  141.3940  156.2864 C   0  0  0  0  0  0  0  0  0  0  0  0
  150.4331  140.5114  155.1624 C   0  0  0  0  0  0  0  0  0  0  0  0
  149.0283  140.9027  154.6789 C   0  0  0  0  0  0  0  0  0  0  0  0
  148.6094  140.0661  153.6214 O   0  0  0  0  0  0  0  0  0  0  0  0
  151.5393  141.0370  157.5250 C   0  0  0  0  0  0  0  0  0  0  0  0
  151.8969  139.6775  158.0796 C   0  0  0  0  0  0  0  0  0  0  0  0
  152.6233  139.0107  157.1829 F   0  0  0  0  0  0  0  0  0  0  0  0
  152.5942  139.7638  159.2104 F   0  0  0  0  0  0  0  0  0  0  0  0
  150.7846  138.9858  158.3294 F   0  0  0  0  0  0  0  0  0  0  0  0
  151.8015  142.1028  158.2714 N   0  0  0  0  0  0  0  0  0  0  0  0
  146.8498  145.1116  161.5890 H   0  0  0  0  0  0  0  0  0  0  0  0
  147.0135  144.0607  160.1869 H   0  0  0  0  0  0  0  0  0  0  0  0
  147.1056  145.8115  159.9933 H   0  0  0  0  0  0  0  0  0  0  0  0
  149.2242  145.8481  161.3596 H   0  0  0  0  0  0  0  0  0  0  0  0
  149.1507  144.1119  161.5483 H   0  0  0  0  0  0  0  0  0  0  0  0
  149.0779  144.8434  158.7667 H   0  0  0  0  0  0  0  0  0  0  0  0
  150.9730  145.1865  157.4151 H   0  0  0  0  0  0  0  0  0  0  0  0
  152.5509  144.7950  158.0788 H   0  0  0  0  0  0  0  0  0  0  0  0
  150.4327  143.4697  155.6423 H   0  0  0  0  0  0  0  0  0  0  0  0
  151.1150  140.5967  154.3157 H   0  0  0  0  0  0  0  0  0  0  0  0
  150.4572  139.4557  155.4312 H   0  0  0  0  0  0  0  0  0  0  0  0
  148.3063  140.8612  155.4951 H   0  0  0  0  0  0  0  0  0  0  0  0
  149.0370  141.9285  154.3096 H   0  0  0  0  0  0  0  0  0  0  0  0
  149.0227  140.3593  152.8237 H   0  0  0  0  0  0  0  0  0  0  0  0
  1  2  1  0  0  0  0
  1 19  1  0  0  0  0
  1 20  1  0  0  0  0
  1 21  1  0  0  0  0
  2  3  1  0  0  0  0
  2 22  1  0  0  0  0
  2 23  1  0  0  0  0
  3  4  1  0  0  0  0
  3 24  1  0  0  0  0
  4  5  2  0  0  0  0
  4  6  1  0  0  0  0
  6  7  1  0  0  0  0
  6 25  1  0  0  0  0
  6 26  1  0  0  0  0
  7 18  1  0  0  0  0
  7  8  1  0  0  0  0
  8  9  2  0  0  0  0
  8 27  1  0  0  0  0
  9 10  1  0  0  0  0
  9 13  1  0  0  0  0
 10 11  1  0  0  0  0
 10 28  1  0  0  0  0
 10 29  1  0  0  0  0
 11 12  1  0  0  0  0
 11 30  1  0  0  0  0
 11 31  1  0  0  0  0
 12 32  1  0  0  0  0
 13 14  1  0  0  0  0
 13 18  2  0  0  0  0
 14 15  1  0  0  0  0
 14 16  1  0  0  0  0
 14 17  1  0  0  0  0
M  END
> <s_m_source_file>
AV-unprocessed.smi

> <i_m_source_file_index>
2396

> <i_lp_mmshare_version>
43012

> <i_f3d_flags>
0

> <s_epik_input>
W0NIM11bQ0gyXVtOSF1DKD1PKVtDSDJdbjFbY0hdYyhjKG4xKUMoRikoRilGKVtDSDJdW0NIMl1bT0hd

> <s_epik_cmdline>
J2VwaWtfcHl0aG9uJywgJy1waCcsICc3LjAnLCAnLXRuJywgJzgnLCAnLW1hJywgJzIwMCcsICctbWV0YWxfYmluZGluZycsICctaW1hZScsICc8aW5maWxlLm1hZT4nLCAnLW9tYWUnLCAnPG91dGZpbGUubWFlPic=

> <r_lp_tautomer_probability>
1

> <r_epik_Ionization_Penalty>
2.37964e-07

> <r_epik_Ionization_Penalty_Charging>
0

> <r_epik_Ionization_Penalty_Neutral>
2.37964e-07

> <r_epik_State_Penalty>
-0

> <r_epik_Charging_Adjusted_Penalty>
0

> <i_epik_Tot_Q>
0

> <i_epik_Tot_abs_Q>
0

> <r_epik_Metal_State_Penalty>
-0

> <b_epik_Metal_Only>
0

> <s_lp_Force_Field>
OPLS_2005

> <r_lp_Energy>
5.98536

> <b_lp_Chiralities_Consistent>
1

> <s_lp_Variant>
AV-unprocessed.smi:2396-1

> <Gold.Version>
5.8.1

> <Gold.Id.Protein>
6NUR|6NUR_protein|mol2

> <Gold.PLP.Fitness>
42.8013

> <Gold.PLP.PLP>
-35.2566

> <Gold.PLP.part.hbond>
-2.0000

> <Gold.PLP.part.metal>
0.0000

> <Gold.PLP.part.buried>
-3.4248

> <Gold.PLP.part.nonpolar>
-29.9248

> <Gold.PLP.part.repulsive>
0.3597

> <Gold.PLP.ligand.clash>
0.0000

> <Gold.PLP.ligand.torsion>
0.7523

> <Gold.PLP.Chemscore.Hbond>
2.0000

> <Gold.PLP.Chemscore.CHOScore>
0.9998

> <Gold.PLP.Chemscore.Metal>
0.0000

> <Gold.Chemscore.Hbonds>
donor molecule, donor type, donor heavy atom, donor atom, acceptor molecule, acceptor atom, score
      L1  H     3    24       P1  8029  0.59
      L1  H    12    32       P1  7957  1.00
      L1  C     8    27       P1  8028  0.87

> <Gold.PLP.Chemscore.Internal.Correction>
0.0498

> <Gold.Rescore>
     Score         DG    S(hbond)    S(metal)    S(lipo)     H(rot)  DE(clash)    DE(int)     intcor
     10.42     -12.18       1.96        0.00      63.86       2.86       1.05       0.70       ----

> <Gold.Chemscore.Fitness>
10.4237

> <Gold.Chemscore.DG>
-12.1791

> <Gold.Chemscore.ZeroCoef>
-5.4800

> <Gold.Chemscore.Hbond>
1.9626

> <Gold.Chemscore.Metal>
0.0000

> <Gold.Chemscore.Lipo>
63.8617

> <Gold.Chemscore.Internal_Hbond>
0.0000

> <Gold.Chemscore.DEClash>
1.0542

> <Gold.Chemscore.DEInternal>
0.7012

> <Gold.Chemscore.Rot>
2.8625

> <Gold.Chemscore.Internal.Correction>
   9.000000E+99

> <Gold.Chemscore.Hbonds>
donor molecule, donor type, donor heavy atom, donor atom, acceptor molecule, acceptor atom, score
      L1  H     3    24       P1  8029  0.52
      L1  H    12    32       P1  7957  0.95

> <Gold.Chemscore.Hbond.Weighted>
-6.5552

> <Gold.Chemscore.Metal.Weighted>
-0.0000

> <Gold.Chemscore.Lipo.Weighted>
-7.4718

> <Gold.Chemscore.Internal_Hbond.Weighted>
0.0000

> <Gold.Chemscore.DEClash.Weighted>
1.0542

> <Gold.Chemscore.DEInternal.Weighted>
0.7012

> <Gold.Chemscore.Rot.Weighted>
7.3279

> <Gold.Chemscore.Internal.Correction.Weighted>
   9.000000E+99

> <Gold.Protein.RotatedTorsions>
[ 6907 6896 6895 6894 ] final  171.66 input  -60.11 | X-H torsion
[ 7974 7965 7964 7962 ] final  -84.75 input  175.53 | X-H torsion
[ 8008 7997 7996 7995 ] final  -65.22 input   59.86 | X-H torsion
[ 10167 10162 10161 10158 ] final  -88.41 input  -65.29 | X-H torsion
[ 10718 10713 10712 10709 ] final  101.12 input   66.30 | X-H torsion
[ 10763 10752 10751 10750 ] final    6.19 input  -60.55 | X-H torsion
[ 11005 11000 10999 10996 ] final  108.23 input  -57.11 | X-H torsion

> <Gold.Protein.ActiveResidues>
 VAL166  LYS551  ARG553  GLY616  TRP617  ASP618  TYR619  PRO620  LYS621  CYS622 
 ASP623  PHE694  ASN695  SER759  ASP760  ASP761  ALA762  ILE779  LEU786  VAL792 
 PHE793  MET794  SER795  GLU796  ALA797  LYS798  CYS799  TRP800  GLU811  SER814 

> <Gold.Protein.RotatedAtoms>
  151.7967  133.3365  159.3514 H   0  0  0  0  0  0  0  0  0  0  0  0  # atno 6907 bound_to 6896
  150.7373  134.5792  159.5939 H   0  0  0  0  0  0  0  0  0  0  0  0  # atno 6908 bound_to 6896
  152.3172  134.7426  160.0374 H   0  0  0  0  0  0  0  0  0  0  0  0  # atno 6909 bound_to 6896
  145.5024  140.9546  143.1752 H   0  0  0  0  0  0  0  0  0  0  0  0  # atno 7974 bound_to 7965
  154.4659  140.0937  156.7017 H   0  0  0  0  0  0  0  0  0  0  0  0  # atno 8008 bound_to 7997
  155.4861  140.3469  155.4329 H   0  0  0  0  0  0  0  0  0  0  0  0  # atno 8009 bound_to 7997
  156.0954  140.1408  156.9526 H   0  0  0  0  0  0  0  0  0  0  0  0  # atno 8010 bound_to 7997
  140.3749  143.2776  151.9455 H   0  0  0  0  0  0  0  0  0  0  0  0  # atno 10167 bound_to 10162
  157.6837  131.0717  150.5204 H   0  0  0  0  0  0  0  0  0  0  0  0  # atno 10718 bound_to 10713
  153.2507  135.6913  153.7683 H   0  0  0  0  0  0  0  0  0  0  0  0  # atno 10763 bound_to 10752
  153.6778  135.3333  155.3171 H   0  0  0  0  0  0  0  0  0  0  0  0  # atno 10764 bound_to 10752
  154.8393  135.4515  154.1462 H   0  0  0  0  0  0  0  0  0  0  0  0  # atno 10765 bound_to 10752
  139.8841  134.9424  156.5941 H   0  0  0  0  0  0  0  0  0  0  0  0  # atno 11005 bound_to 11000
  144.7772  139.6603  143.7169 LP  0  0  0  0  0  0  0  0  0  0  0  0  # atno 17320 bound_to 7965
  146.2217  139.5649  142.9614 LP  0  0  0  0  0  0  0  0  0  0  0  0  # atno 17321 bound_to 7965
  139.4800  144.5873  151.7832 LP  0  0  0  0  0  0  0  0  0  0  0  0  # atno 17342 bound_to 10162
  140.4996  144.1189  150.5968 LP  0  0  0  0  0  0  0  0  0  0  0  0  # atno 17343 bound_to 10162
  156.5518  130.4233  149.6104 LP  0  0  0  0  0  0  0  0  0  0  0  0  # atno 17370 bound_to 10713
  156.2896  130.7117  151.1962 LP  0  0  0  0  0  0  0  0  0  0  0  0  # atno 17371 bound_to 10713
  140.7933  133.8564  155.8664 LP  0  0  0  0  0  0  0  0  0  0  0  0  # atno 17394 bound_to 11000
  140.9658  134.1596  157.4617 LP  0  0  0  0  0  0  0  0  0  0  0  0  # atno 17395 bound_to 11000

$$$$
