#       Name:                AV-unprocessed.smi:1513
#       Creating user name   scv26
#       Creation time:       Fri Mar 27 06:24:26 2020


#       File generated by GOLD software.
#

@<TRIPOS>MOLECULE
AV-unprocessed.smi:1513
    39    40     1
SMALL
NO_CHARGES


@<TRIPOS>ATOM
      1 ****        -3.5943   2.0004  -1.0723 N.3            1 S1                 0.0000
      2 ****        -1.9658   2.5460  -1.0488 S.o2           1 S1                 0.0000
      3 ****        -1.8936   3.6479  -2.0218 O.2            1 S1                 0.0000
      4 ****        -1.6563   2.8306   0.3617 O.2            1 S1                 0.0000
      5 ****        -1.3145   1.1655  -1.5862 N.pl3          1 S1                -1.0000
      6 ****         0.1262   1.0864  -1.7509 C.3            1 S1                 0.0000
      7 ****         0.6291  -0.3615  -1.6523 C.ar           1 S1                 0.0000
      8 ****         0.8432  -1.0770  -2.8555 C.ar           1 S1                 0.0000
      9 ****         1.3196  -2.3993  -2.8062 C.ar           1 S1                 0.0000
     10 ****         1.5686  -2.9700  -1.5479 C.ar           1 S1                 0.0000
     11 ****         1.3708  -2.3129  -0.3886 N.ar           1 S1                 0.0000
     12 ****         0.9101  -1.0364  -0.4187 C.ar           1 S1                 0.0000
     13 ****         0.7044  -0.4399   0.8446 N.3            1 S1                 0.0000
     14 ****        -0.5859  -0.7714   1.4352 C.3            1 S1                 0.0000
     15 ****        -0.8221   0.0861   2.6902 C.3            1 S1                 0.0000
     16 ****         0.2602  -0.0871   3.6016 O.3            1 S1                 0.0000
     17 ****         1.5052   0.3134   3.0347 C.3            1 S1                 0.0000
     18 ****         1.8057  -0.5451   1.7943 C.3            1 S1                 0.0000
     19 ****        -4.1620   2.5103  -1.7481 H              1 S1                 0.0000
     20 ****        -4.0011   1.9596  -0.1388 H              1 S1                 0.0000
     21 ****         0.4416   1.5055  -2.7071 H              1 S1                 0.0000
     22 ****         0.6560   1.6699  -0.9972 H              1 S1                 0.0000
     23 ****         0.6513  -0.6336  -3.8235 H              1 S1                 0.0000
     24 ****         1.4894  -2.9606  -3.7127 H              1 S1                 0.0000
     25 ****         1.9349  -3.9829  -1.4692 H              1 S1                 0.0000
     26 ****        -1.3858  -0.6045   0.7129 H              1 S1                 0.0000
     27 ****        -0.6039  -1.8305   1.6955 H              1 S1                 0.0000
     28 ****        -0.9220   1.1400   2.4270 H              1 S1                 0.0000
     29 ****        -1.7508  -0.2091   3.1785 H              1 S1                 0.0000
     30 ****         1.4749   1.3735   2.7769 H              1 S1                 0.0000
     31 ****         2.2918   0.1876   3.7788 H              1 S1                 0.0000
     32 ****         1.9427  -1.5852   2.0923 H              1 S1                 0.0000
     33 ****         2.7320  -0.2155   1.3223 H              1 S1                 0.0000
     34 ****        -3.5845   1.0545  -1.3966 LP             1 S1                 0.0000
     35 ****        -1.8945   0.3798  -1.8014 LP             1 S1                 0.0000
     36 ****         1.5614  -2.7608   0.4849 LP             1 S1                 0.0000
     37 ****         0.6834   0.5356   0.6257 LP             1 S1                 0.0000
     38 ****         0.3169  -1.0526   3.8557 LP             1 S1                 0.0000
     39 ****         0.0856   0.4628   4.4183 LP             1 S1                 0.0000
@<TRIPOS>BOND
    1    1    2 1     
    2    1   19 1     
    3    1   20 1     
    4    2    3 2     
    5    2    4 2     
    6    2    5 1     
    7    5    6 1     
    8    6    7 1     
    9    6   21 1     
   10    6   22 1     
   11    7   12 ar    
   12    7    8 ar    
   13    8    9 ar    
   14    8   23 1     
   15    9   10 ar    
   16    9   24 1     
   17   10   11 ar    
   18   10   25 1     
   19   11   12 ar    
   20   12   13 1     
   21   13   18 1     
   22   13   14 1     
   23   14   15 1     
   24   14   26 1     
   25   14   27 1     
   26   15   16 1     
   27   15   28 1     
   28   15   29 1     
   29   16   17 1     
   30   17   18 1     
   31   17   30 1     
   32   17   31 1     
   33   18   32 1     
   34   18   33 1     
   35    1   34 1     
   36    5   35 1     
   37   11   36 1     
   38   13   37 1     
   39   16   38 1     
   40   16   39 1     
@<TRIPOS>SUBSTRUCTURE
      1 S1             1
@<TRIPOS>SET
LONE_PAIRS      STATIC     ATOMS    <user>   **** ""
8 34 3 4 35 36 37 38 39
DONOR_HYDROGENS      STATIC     ATOMS    <user>   **** ""
2 19 20
ATOM$BLUE        STATIC     ATOMS    COLORGROUP SYSTEM
8 34 3 4 35 36 37 38 39
ATOM$RED        STATIC     ATOMS    COLORGROUP SYSTEM
2 19 20
