AV-unprocessed.smi:1701|AV-procd|sdf|6824|dock1
  -GOLD-   22720 8 03D 1   1.00000     0.00000
 Structure written by MMmdl.
 55 57  0  0  0  0  0  0  0  0  3 V2000
  152.9014  142.0423  160.3086 C   0  0  0  0  0  0  0  0  0  0  0  0
  153.0560  142.9404  159.0741 C   0  0  0  0  0  0  0  0  0  0  0  0
  151.7907  143.1262  158.3650 N   0  0  0  0  0  0  0  0  0  0  0  0
  151.2104  144.4650  158.2966 C   0  0  0  0  0  0  0  0  0  0  0  0
  151.9443  145.4604  159.2047 C   0  0  0  0  0  0  0  0  0  0  0  0
  151.1663  142.0370  157.7132 C   0  0  0  0  0  0  0  0  0  0  0  0
  151.5260  140.6840  157.9340 C   0  0  0  0  0  0  0  0  0  0  0  0
  150.8519  139.6544  157.2455 C   0  0  0  0  0  0  0  0  0  0  0  0
  149.8284  139.9748  156.3299 C   0  0  0  0  0  0  0  0  0  0  0  0
  149.1647  138.9053  155.6699 N   0  0  0  0  0  0  0  0  0  0  0  0
  147.9651  138.9166  155.0555 C   0  0  0  0  0  0  0  0  0  0  0  0
  147.2680  139.9170  154.9052 O   0  0  0  0  0  0  0  0  0  0  0  0
  147.5836  137.7277  154.5542 N   0  0  0  0  0  0  0  0  0  0  0  0
  146.3540  137.3837  153.8332 C   0  0  1  0  0  0  0  0  0  0  0  0
  146.2438  138.1143  152.4800 C   0  0  0  0  0  0  0  0  0  0  0  0
  145.7309  137.0545  151.5001 C   0  0  0  0  0  0  0  0  0  0  0  0
  146.3225  135.8154  152.0175 N   0  3  2  0  0  0  0  0  0  0  0  0
  145.8495  134.5279  151.4691 C   0  0  0  0  0  0  0  0  0  0  0  0
  146.7385  133.4000  152.0347 C   0  0  0  0  0  0  0  0  0  0  0  0
  146.8248  133.4418  153.5773 C   0  0  0  0  0  0  0  0  0  0  0  0
  147.2011  134.8480  154.0922 C   0  0  0  0  0  0  0  0  0  0  0  0
  146.2321  135.8800  153.4867 C   0  0  1  0  0  0  0  0  0  0  0  0
  149.4980  141.3386  156.1495 C   0  0  0  0  0  0  0  0  0  0  0  0
  150.1683  142.2913  156.8320 N   0  3  0  0  0  0  0  0  0  0  0  0
  153.8602  141.9056  160.8085 H   0  0  0  0  0  0  0  0  0  0  0  0
  152.5263  141.0553  160.0362 H   0  0  0  0  0  0  0  0  0  0  0  0
  152.2099  142.4758  161.0316 H   0  0  0  0  0  0  0  0  0  0  0  0
  153.4905  143.9003  159.3544 H   0  0  0  0  0  0  0  0  0  0  0  0
  153.7721  142.4849  158.3895 H   0  0  0  0  0  0  0  0  0  0  0  0
  151.2720  144.8168  157.2663 H   0  0  0  0  0  0  0  0  0  0  0  0
  150.1460  144.4399  158.5287 H   0  0  0  0  0  0  0  0  0  0  0  0
  151.5004  146.4529  159.1269 H   0  0  0  0  0  0  0  0  0  0  0  0
  152.9958  145.5465  158.9290 H   0  0  0  0  0  0  0  0  0  0  0  0
  151.8969  145.1572  160.2509 H   0  0  0  0  0  0  0  0  0  0  0  0
  152.3160  140.4129  158.6175 H   0  0  0  0  0  0  0  0  0  0  0  0
  151.1284  138.6244  157.4183 H   0  0  0  0  0  0  0  0  0  0  0  0
  149.6733  138.0341  155.6351 H   0  0  0  0  0  0  0  0  0  0  0  0
  148.2568  136.9798  154.6419 H   0  0  0  0  0  0  0  0  0  0  0  0
  145.4859  137.6733  154.4281 H   0  0  0  0  0  0  0  0  0  0  0  0
  145.5923  138.9878  152.5252 H   0  0  0  0  0  0  0  0  0  0  0  0
  147.2270  138.4568  152.1527 H   0  0  0  0  0  0  0  0  0  0  0  0
  144.6422  136.9891  151.5390 H   0  0  0  0  0  0  0  0  0  0  0  0
  146.0306  137.2521  150.4705 H   0  0  0  0  0  0  0  0  0  0  0  0
  144.8028  134.3689  151.7319 H   0  0  0  0  0  0  0  0  0  0  0  0
  145.9118  134.5460  150.3804 H   0  0  0  0  0  0  0  0  0  0  0  0
  146.3650  132.4295  151.7069 H   0  0  0  0  0  0  0  0  0  0  0  0
  147.7432  133.4961  151.6207 H   0  0  0  0  0  0  0  0  0  0  0  0
  145.8612  133.1508  153.9976 H   0  0  0  0  0  0  0  0  0  0  0  0
  147.5481  132.7066  153.9314 H   0  0  0  0  0  0  0  0  0  0  0  0
  147.1514  134.8661  155.1812 H   0  0  0  0  0  0  0  0  0  0  0  0
  148.2300  135.0827  153.8163 H   0  0  0  0  0  0  0  0  0  0  0  0
  145.2174  135.5852  153.7632 H   0  0  0  0  0  0  0  0  0  0  0  0
  148.7198  141.7112  155.5004 H   0  0  0  0  0  0  0  0  0  0  0  0
  147.3064  135.8756  151.7969 H   0  0  0  0  0  0  0  0  0  0  0  0
  149.9023  143.2640  156.6768 H   0  0  0  0  0  0  0  0  0  0  0  0
  1  2  1  0  0  0  0
  1 25  1  0  0  0  0
  1 26  1  0  0  0  0
  1 27  1  0  0  0  0
  2  3  1  0  0  0  0
  2 28  1  0  0  0  0
  2 29  1  0  0  0  0
  3  4  1  0  0  0  0
  3  6  1  0  0  0  0
  4  5  1  0  0  0  0
  4 30  1  0  0  0  0
  4 31  1  0  0  0  0
  5 32  1  0  0  0  0
  5 33  1  0  0  0  0
  5 34  1  0  0  0  0
  6 24  1  0  0  0  0
  6  7  2  0  0  0  0
  7  8  1  0  0  0  0
  7 35  1  0  0  0  0
  8  9  2  0  0  0  0
  8 36  1  0  0  0  0
  9 10  1  0  0  0  0
  9 23  1  0  0  0  0
 10 11  1  0  0  0  0
 10 37  1  0  0  0  0
 11 12  2  0  0  0  0
 11 13  1  0  0  0  0
 13 14  1  0  0  0  0
 13 38  1  0  0  0  0
 14 22  1  0  0  0  0
 14 15  1  0  0  0  0
 14 39  1  0  0  0  0
 15 16  1  0  0  0  0
 15 40  1  0  0  0  0
 15 41  1  0  0  0  0
 16 17  1  0  0  0  0
 16 42  1  0  0  0  0
 16 43  1  0  0  0  0
 17 22  1  0  0  0  0
 17 18  1  0  0  0  0
 17 54  1  0  0  0  0
 18 19  1  0  0  0  0
 18 44  1  0  0  0  0
 18 45  1  0  0  0  0
 19 20  1  0  0  0  0
 19 46  1  0  0  0  0
 19 47  1  0  0  0  0
 20 21  1  0  0  0  0
 20 48  1  0  0  0  0
 20 49  1  0  0  0  0
 21 22  1  0  0  0  0
 21 50  1  0  0  0  0
 21 51  1  0  0  0  0
 22 52  1  0  0  0  0
 23 24  2  0  0  0  0
 23 53  1  0  0  0  0
 24 55  1  0  0  0  0
M  CHG  1  17   1
M  CHG  1  24   1
M  END
> <s_m_source_file>
AV-unprocessed.smi

> <i_m_source_file_index>
1701

> <i_lp_mmshare_version>
43012

> <i_f3d_flags>
0

> <s_epik_input>
W0NIM11bQ0gyXU4oW0NIMl1bQ0gzXSljMVtjSF1bY0hdYyhbY0hdbjEpW05IXUMoPU8pW05IXVtDQEhdKFtDSDJdW0NIMl0yKVtDQEBIXShOMjMpW0NIMl1bQ0gyXVtDSDJdW0NIMl0z

> <s_epik_cmdline>
J2VwaWtfcHl0aG9uJywgJy1waCcsICc3LjAnLCAnLXRuJywgJzgnLCAnLW1hJywgJzIwMCcsICctbWV0YWxfYmluZGluZycsICctaW1hZScsICc8aW5maWxlLm1hZT4nLCAnLW9tYWUnLCAnPG91dGZpbGUubWFlPic=

> <r_lp_tautomer_probability>
0.999994

> <r_epik_Ionization_Penalty>
0.302862

> <r_epik_Ionization_Penalty_Charging>
0.302842

> <r_epik_Ionization_Penalty_Neutral>
1.95166e-05

> <r_epik_State_Penalty>
0.019791

> <r_epik_Charging_Adjusted_Penalty>
0.322633

> <i_epik_Tot_Q>
2

> <i_epik_Tot_abs_Q>
2

> <r_epik_Metal_State_Penalty>
0.0536763

> <b_epik_Metal_Only>
0

> <s_lp_Force_Field>
OPLS_2005

> <r_lp_Energy>
67.2082

> <b_lp_Chiralities_Consistent>
1

> <s_lp_Variant>
AV-unprocessed.smi:1701-4

> <Gold.Version>
5.8.1

> <Gold.Id.Protein>
6NUR|6NUR_protein|mol2

> <Gold.PLP.Fitness>
50.3401

> <Gold.PLP.PLP>
-38.7693

> <Gold.PLP.part.hbond>
-2.0000

> <Gold.PLP.part.metal>
0.0000

> <Gold.PLP.part.buried>
-2.3615

> <Gold.PLP.part.nonpolar>
-35.8137

> <Gold.PLP.part.repulsive>
0.1449

> <Gold.PLP.ligand.clash>
0.0000

> <Gold.PLP.ligand.torsion>
0.2679

> <Gold.PLP.Chemscore.Hbond>
4.0000

> <Gold.PLP.Chemscore.CHOScore>
0.0000

> <Gold.PLP.Chemscore.Metal>
0.0000

> <Gold.Chemscore.Hbonds>
donor molecule, donor type, donor heavy atom, donor atom, acceptor molecule, acceptor atom, score
      L1  H    17    54       P1  7948  2.00
      L1  H    24    55       P1  8028  1.95

> <Gold.PLP.Chemscore.Internal.Correction>
0.1065

> <Gold.Rescore>
     Score         DG    S(hbond)    S(metal)    S(lipo)     H(rot)  DE(clash)    DE(int)     intcor
     18.88     -20.60       1.98        0.00     101.33       1.30       0.25       1.47       ----

> <Gold.Chemscore.Fitness>
18.8843

> <Gold.Chemscore.DG>
-20.6019

> <Gold.Chemscore.ZeroCoef>
-5.4800

> <Gold.Chemscore.Hbond>
1.9760

> <Gold.Chemscore.Metal>
0.0000

> <Gold.Chemscore.Lipo>
101.3266

> <Gold.Chemscore.Internal_Hbond>
0.0000

> <Gold.Chemscore.DEClash>
0.2483

> <Gold.Chemscore.DEInternal>
1.4693

> <Gold.Chemscore.Rot>
1.3020

> <Gold.Chemscore.Internal.Correction>
   9.000000E+99

> <Gold.Chemscore.Hbonds>
donor molecule, donor type, donor heavy atom, donor atom, acceptor molecule, acceptor atom, score
      L1  H    17    54       P1  7948  1.00
      L1  H    24    55       P1  8028  0.88

> <Gold.Chemscore.Hbond.Weighted>
-6.5997

> <Gold.Chemscore.Metal.Weighted>
-0.0000

> <Gold.Chemscore.Lipo.Weighted>
-11.8552

> <Gold.Chemscore.Internal_Hbond.Weighted>
0.0000

> <Gold.Chemscore.DEClash.Weighted>
0.2483

> <Gold.Chemscore.DEInternal.Weighted>
1.4693

> <Gold.Chemscore.Rot.Weighted>
3.3330

> <Gold.Chemscore.Internal.Correction.Weighted>
   9.000000E+99

> <Gold.Protein.RotatedTorsions>
[ 6907 6896 6895 6894 ] final   66.84 input  -60.11 | X-H torsion
[ 7974 7965 7964 7962 ] final   95.76 input  175.53 | X-H torsion
[ 8008 7997 7996 7995 ] final   -5.85 input   59.86 | X-H torsion
[ 10167 10162 10161 10158 ] final -176.47 input  -65.29 | X-H torsion
[ 10718 10713 10712 10709 ] final   50.00 input   66.30 | X-H torsion
[ 10763 10752 10751 10750 ] final  -42.50 input  -60.55 | X-H torsion
[ 11005 11000 10999 10996 ] final   57.58 input  -57.11 | X-H torsion

> <Gold.Protein.ActiveResidues>
 VAL166  LYS551  ARG553  GLY616  TRP617  ASP618  TYR619  PRO620  LYS621  CYS622 
 ASP623  PHE694  ASN695  SER759  ASP760  ASP761  ALA762  ILE779  LEU786  VAL792 
 PHE793  MET794  SER795  GLU796  ALA797  LYS798  CYS799  TRP800  GLU811  SER814 

> <Gold.Protein.RotatedAtoms>
  152.4510  134.5394  159.9834 H   0  0  0  0  0  0  0  0  0  0  0  0  # atno 6907 bound_to 6896
  151.5467  133.3418  159.2953 H   0  0  0  0  0  0  0  0  0  0  0  0  # atno 6908 bound_to 6896
  150.8438  134.7772  159.7017 H   0  0  0  0  0  0  0  0  0  0  0  0  # atno 6909 bound_to 6896
  145.4479  139.2295  143.3056 H   0  0  0  0  0  0  0  0  0  0  0  0  # atno 7974 bound_to 7965
  154.5997  140.2448  155.7809 H   0  0  0  0  0  0  0  0  0  0  0  0  # atno 8008 bound_to 7997
  156.2303  140.2969  156.0123 H   0  0  0  0  0  0  0  0  0  0  0  0  # atno 8009 bound_to 7997
  155.2232  140.0401  157.2942 H   0  0  0  0  0  0  0  0  0  0  0  0  # atno 8010 bound_to 7997
  139.5528  144.2066  152.1107 H   0  0  0  0  0  0  0  0  0  0  0  0  # atno 10167 bound_to 10162
  157.4842  130.8335  149.8128 H   0  0  0  0  0  0  0  0  0  0  0  0  # atno 10718 bound_to 10713
  153.9800  135.6718  153.4750 H   0  0  0  0  0  0  0  0  0  0  0  0  # atno 10763 bound_to 10752
  153.0753  135.4952  154.8387 H   0  0  0  0  0  0  0  0  0  0  0  0  # atno 10764 bound_to 10752
  154.7170  135.3109  154.9070 H   0  0  0  0  0  0  0  0  0  0  0  0  # atno 10765 bound_to 10752
  140.0442  134.5829  155.9343 H   0  0  0  0  0  0  0  0  0  0  0  0  # atno 11005 bound_to 11000
  146.2520  140.5235  142.8889 LP  0  0  0  0  0  0  0  0  0  0  0  0  # atno 17320 bound_to 7965
  144.8080  140.6334  143.6434 LP  0  0  0  0  0  0  0  0  0  0  0  0  # atno 17321 bound_to 7965
  140.1564  144.5067  150.6657 LP  0  0  0  0  0  0  0  0  0  0  0  0  # atno 17342 bound_to 10162
  140.6794  143.2320  151.5422 LP  0  0  0  0  0  0  0  0  0  0  0  0  # atno 17343 bound_to 10162
  156.0138  130.3822  150.2177 LP  0  0  0  0  0  0  0  0  0  0  0  0  # atno 17370 bound_to 10713
  157.0364  131.0022  151.3297 LP  0  0  0  0  0  0  0  0  0  0  0  0  # atno 17371 bound_to 10713
  141.1898  133.6566  156.5386 LP  0  0  0  0  0  0  0  0  0  0  0  0  # atno 17394 bound_to 11000
  140.4020  134.7348  157.4785 LP  0  0  0  0  0  0  0  0  0  0  0  0  # atno 17395 bound_to 11000

$$$$
