AV-unprocessed.smi:3154|AV-procd|sdf|12022|dock2
  -GOLD-   2272017433D 1   1.00000     0.00000
 Structure written by MMmdl.
 35 36  0  0  0  0  0  0  0  0  2 V2000
  143.9827  135.9337  151.9737 C   0  0  0  0  0  0  0  0  0  0  0  0
  145.4982  135.6770  151.9132 C   0  0  1  0  0  0  0  0  0  0  0  0
  145.9046  134.8257  150.6879 C   0  0  0  0  0  0  0  0  0  0  0  0
  145.3115  133.5005  150.6963 N   0  0  0  0  0  0  0  0  0  0  0  0
  145.9313  132.2819  150.8791 C   0  0  0  0  0  0  0  0  0  0  0  0
  144.9632  131.3210  150.8159 C   0  0  0  0  0  0  0  0  0  0  0  0
  143.7669  132.0596  150.5963 C   0  0  0  0  0  0  0  0  0  0  0  0
  143.9785  133.3643  150.5288 N   0  0  0  0  0  0  0  0  0  0  0  0
  146.2134  136.9723  151.9256 N   0  3  0  0  0  0  0  0  0  0  0  0
  145.9750  137.8204  153.1147 C   0  0  0  0  0  0  0  0  0  0  0  0
  147.0190  138.9304  153.2531 C   0  0  0  0  0  0  0  0  0  0  0  0
  148.1957  138.6603  153.4976 O   0  0  0  0  0  0  0  0  0  0  0  0
  146.5659  140.1823  153.0928 N   0  0  0  0  0  0  0  0  0  0  0  0
  147.3571  141.3675  153.1748 C   0  0  0  0  0  0  0  0  0  0  0  0
  148.0498  141.6606  154.4882 C   0  0  0  0  0  0  0  0  0  0  0  0
  146.8616  142.4823  154.0706 C   0  0  0  0  0  0  0  0  0  0  0  0
  143.4207  135.0039  152.0661 H   0  0  0  0  0  0  0  0  0  0  0  0
  143.6312  136.4471  151.0781 H   0  0  0  0  0  0  0  0  0  0  0  0
  143.7239  136.5508  152.8347 H   0  0  0  0  0  0  0  0  0  0  0  0
  145.7708  135.1407  152.8235 H   0  0  0  0  0  0  0  0  0  0  0  0
  145.6070  135.3280  149.7661 H   0  0  0  0  0  0  0  0  0  0  0  0
  146.9863  134.7013  150.6385 H   0  0  0  0  0  0  0  0  0  0  0  0
  146.9969  132.1995  151.0349 H   0  0  0  0  0  0  0  0  0  0  0  0
  145.0895  130.2530  150.9147 H   0  0  0  0  0  0  0  0  0  0  0  0
  142.7584  131.6892  150.4866 H   0  0  0  0  0  0  0  0  0  0  0  0
  147.2051  136.8065  151.8309 H   0  0  0  0  0  0  0  0  0  0  0  0
  144.9862  138.2758  153.0455 H   0  0  0  0  0  0  0  0  0  0  0  0
  145.9945  137.2119  154.0187 H   0  0  0  0  0  0  0  0  0  0  0  0
  145.5836  140.3095  152.8958 H   0  0  0  0  0  0  0  0  0  0  0  0
  147.8868  141.6794  152.2757 H   0  0  0  0  0  0  0  0  0  0  0  0
  147.9103  140.9570  155.3070 H   0  0  0  0  0  0  0  0  0  0  0  0
  149.0282  142.1350  154.4446 H   0  0  0  0  0  0  0  0  0  0  0  0
  147.0467  143.5047  153.7466 H   0  0  0  0  0  0  0  0  0  0  0  0
  145.9298  142.3275  154.6116 H   0  0  0  0  0  0  0  0  0  0  0  0
  145.9044  137.5006  151.1220 H   0  0  0  0  0  0  0  0  0  0  0  0
  1  2  1  0  0  0  0
  1 17  1  0  0  0  0
  1 18  1  0  0  0  0
  1 19  1  0  0  0  0
  2  3  1  0  0  0  0
  2  9  1  0  0  0  0
  2 20  1  0  0  0  0
  3  4  1  0  0  0  0
  3 21  1  0  0  0  0
  3 22  1  0  0  0  0
  4  8  1  0  0  0  0
  4  5  1  0  0  0  0
  5  6  2  0  0  0  0
  5 23  1  0  0  0  0
  6  7  1  0  0  0  0
  6 24  1  0  0  0  0
  7  8  2  0  0  0  0
  7 25  1  0  0  0  0
  9 10  1  0  0  0  0
  9 26  1  0  0  0  0
  9 35  1  0  0  0  0
 10 11  1  0  0  0  0
 10 27  1  0  0  0  0
 10 28  1  0  0  0  0
 11 12  2  0  0  0  0
 11 13  1  0  0  0  0
 13 14  1  0  0  0  0
 13 29  1  0  0  0  0
 14 16  1  0  0  0  0
 14 15  1  0  0  0  0
 14 30  1  0  0  0  0
 15 16  1  0  0  0  0
 15 31  1  0  0  0  0
 15 32  1  0  0  0  0
 16 33  1  0  0  0  0
 16 34  1  0  0  0  0
M  CHG  1   9   1
M  END
> <s_m_source_file>
AV-unprocessed.smi

> <i_m_source_file_index>
3154

> <i_lp_mmshare_version>
43012

> <i_f3d_flags>
0

> <s_epik_input>
bjFbY0hdW2NIXVtjSF1uMVtDSDJdW0NAQEhdKFtDSDNdKVtOSF1bQ0gyXUMoPU8pW05IXVtDSF0yW0NIMl1bQ0gyXTI=

> <s_epik_cmdline>
J2VwaWtfcHl0aG9uJywgJy1waCcsICc3LjAnLCAnLXRuJywgJzgnLCAnLW1hJywgJzIwMCcsICctbWV0YWxfYmluZGluZycsICctaW1hZScsICc8aW5maWxlLm1hZT4nLCAnLW9tYWUnLCAnPG91dGZpbGUubWFlPic=

> <r_lp_tautomer_probability>
1

> <r_epik_Ionization_Penalty>
0.12065

> <r_epik_Ionization_Penalty_Charging>
0.120646

> <r_epik_Ionization_Penalty_Neutral>
4.1343e-06

> <r_epik_State_Penalty>
0.110186

> <r_epik_Charging_Adjusted_Penalty>
0.230832

> <i_epik_Tot_Q>
1

> <i_epik_Tot_abs_Q>
1

> <r_epik_Metal_State_Penalty>
0.110197

> <b_epik_Metal_Only>
0

> <s_lp_Force_Field>
OPLS_2005

> <r_lp_Energy>
15.3554

> <b_lp_Chiralities_Consistent>
1

> <s_lp_Variant>
AV-unprocessed.smi:3154-2

> <Gold.Version>
5.8.1

> <Gold.Id.Protein>
6NUR|6NUR_protein|mol2

> <Gold.PLP.Fitness>
45.8311

> <Gold.PLP.PLP>
-31.2424

> <Gold.PLP.part.hbond>
-2.0000

> <Gold.PLP.part.metal>
0.0000

> <Gold.PLP.part.buried>
-6.7124

> <Gold.PLP.part.nonpolar>
-23.2528

> <Gold.PLP.part.repulsive>
1.1206

> <Gold.PLP.ligand.clash>
0.0000

> <Gold.PLP.ligand.torsion>
0.2372

> <Gold.PLP.Chemscore.Hbond>
3.0000

> <Gold.PLP.Chemscore.CHOScore>
1.9963

> <Gold.PLP.Chemscore.Metal>
0.0000

> <Gold.Chemscore.Hbonds>
donor molecule, donor type, donor heavy atom, donor atom, acceptor molecule, acceptor atom, score
      L1  H     9    26       P1  7948  2.00
      L1  H    13    29       P1 10175  1.00
      L1  C     5    23       P1 10747  1.00
      L1  C     7    25       P1 10952  1.00

> <Gold.PLP.Chemscore.Internal.Correction>
0.0743

> <Gold.Rescore>
     Score         DG    S(hbond)    S(metal)    S(lipo)     H(rot)  DE(clash)    DE(int)     intcor
     12.10     -14.42       1.98        0.00      68.00       2.20       0.05       2.27       ----

> <Gold.Chemscore.Fitness>
12.0981

> <Gold.Chemscore.DG>
-14.4190

> <Gold.Chemscore.ZeroCoef>
-5.4800

> <Gold.Chemscore.Hbond>
1.9837

> <Gold.Chemscore.Metal>
0.0000

> <Gold.Chemscore.Lipo>
68.0024

> <Gold.Chemscore.Internal_Hbond>
0.0000

> <Gold.Chemscore.DEClash>
0.0472

> <Gold.Chemscore.DEInternal>
2.2737

> <Gold.Chemscore.Rot>
2.2042

> <Gold.Chemscore.Internal.Correction>
   9.000000E+99

> <Gold.Chemscore.Hbonds>
donor molecule, donor type, donor heavy atom, donor atom, acceptor molecule, acceptor atom, score
      L1  H     9    26       P1  7948  1.00
      L1  H    13    29       P1 10175  0.92

> <Gold.Chemscore.Hbond.Weighted>
-6.6254

> <Gold.Chemscore.Metal.Weighted>
-0.0000

> <Gold.Chemscore.Lipo.Weighted>
-7.9563

> <Gold.Chemscore.Internal_Hbond.Weighted>
0.0000

> <Gold.Chemscore.DEClash.Weighted>
0.0472

> <Gold.Chemscore.DEInternal.Weighted>
2.2737

> <Gold.Chemscore.Rot.Weighted>
5.6427

> <Gold.Chemscore.Internal.Correction.Weighted>
   9.000000E+99

> <Gold.Protein.RotatedTorsions>
[ 6907 6896 6895 6894 ] final -106.57 input  -60.11 | X-H torsion
[ 7974 7965 7964 7962 ] final -177.02 input  175.53 | X-H torsion
[ 8008 7997 7996 7995 ] final   28.48 input   59.86 | X-H torsion
[ 10167 10162 10161 10158 ] final  -79.54 input  -65.29 | X-H torsion
[ 10718 10713 10712 10709 ] final    2.64 input   66.30 | X-H torsion
[ 10763 10752 10751 10750 ] final   -2.00 input  -60.55 | X-H torsion
[ 11005 11000 10999 10996 ] final  115.68 input  -57.11 | X-H torsion

> <Gold.Protein.ActiveResidues>
 VAL166  LYS551  ARG553  GLY616  TRP617  ASP618  TYR619  PRO620  LYS621  CYS622 
 ASP623  PHE694  ASN695  SER759  ASP760  ASP761  ALA762  ILE779  LEU786  VAL792 
 PHE793  MET794  SER795  GLU796  ALA797  LYS798  CYS799  TRP800  GLU811  SER814 

> <Gold.Protein.RotatedAtoms>
  150.7396  133.9956  159.3620 H   0  0  0  0  0  0  0  0  0  0  0  0  # atno 6907 bound_to 6896
  151.7906  135.0734  160.0396 H   0  0  0  0  0  0  0  0  0  0  0  0  # atno 6908 bound_to 6896
  152.3210  133.5817  159.5781 H   0  0  0  0  0  0  0  0  0  0  0  0  # atno 6909 bound_to 6896
  144.7127  140.1083  143.6412 H   0  0  0  0  0  0  0  0  0  0  0  0  # atno 7974 bound_to 7965
  155.0593  140.3188  155.4666 H   0  0  0  0  0  0  0  0  0  0  0  0  # atno 8008 bound_to 7997
  156.2816  140.2132  156.5664 H   0  0  0  0  0  0  0  0  0  0  0  0  # atno 8009 bound_to 7997
  154.7145  140.0495  157.0569 H   0  0  0  0  0  0  0  0  0  0  0  0  # atno 8010 bound_to 7997
  140.4584  143.2461  151.8386 H   0  0  0  0  0  0  0  0  0  0  0  0  # atno 10167 bound_to 10162
  156.8659  130.5603  149.5660 H   0  0  0  0  0  0  0  0  0  0  0  0  # atno 10718 bound_to 10713
  153.3523  135.6986  153.6779 H   0  0  0  0  0  0  0  0  0  0  0  0  # atno 10763 bound_to 10752
  153.5501  135.3555  155.2756 H   0  0  0  0  0  0  0  0  0  0  0  0  # atno 10764 bound_to 10752
  154.8655  135.4224  154.2761 H   0  0  0  0  0  0  0  0  0  0  0  0  # atno 10765 bound_to 10752
  139.9017  134.9587  156.7082 H   0  0  0  0  0  0  0  0  0  0  0  0  # atno 11005 bound_to 11000
  145.9477  139.2712  143.1231 LP  0  0  0  0  0  0  0  0  0  0  0  0  # atno 17320 bound_to 7965
  145.9356  140.9017  143.0334 LP  0  0  0  0  0  0  0  0  0  0  0  0  # atno 17321 bound_to 7965
  139.4803  144.5038  151.9025 LP  0  0  0  0  0  0  0  0  0  0  0  0  # atno 17342 bound_to 10162
  140.4124  144.2352  150.5888 LP  0  0  0  0  0  0  0  0  0  0  0  0  # atno 17343 bound_to 10162
  156.0752  130.5775  150.9459 LP  0  0  0  0  0  0  0  0  0  0  0  0  # atno 17370 bound_to 10713
  157.6223  131.0928  150.8599 LP  0  0  0  0  0  0  0  0  0  0  0  0  # atno 17371 bound_to 10713
  140.7096  133.9235  155.8076 LP  0  0  0  0  0  0  0  0  0  0  0  0  # atno 17394 bound_to 11000
  141.0310  134.0756  157.4014 LP  0  0  0  0  0  0  0  0  0  0  0  0  # atno 17395 bound_to 11000

$$$$
