AV-unprocessed.smi:1215|AV-procd|sdf|5097|dock7
  -GOLD-   22720 4153D 1   1.00000     0.00000
 Structure written by MMmdl.
 46 47  0  0  0  0  0  0  0  0  2 V2000
  154.2471  142.1786  161.2350 C   0  0  0  0  0  0  0  0  0  0  0  0
  153.7166  143.2079  160.2300 C   0  0  0  0  0  0  0  0  0  0  0  0
  152.8693  142.5927  159.2273 N   0  0  0  0  0  0  0  0  0  0  0  0
  152.7287  141.2508  158.9339 C   0  0  0  0  0  0  0  0  0  0  0  0
  151.8209  141.1851  157.9200 C   0  0  0  0  0  0  0  0  0  0  0  0
  151.3788  139.9871  157.3043 N   0  0  0  0  0  0  0  0  0  0  0  0
  150.7684  139.8658  156.1147 C   0  0  0  0  0  0  0  0  0  0  0  0
  150.4866  140.8001  155.3645 O   0  0  0  0  0  0  0  0  0  0  0  0
  150.4863  138.5853  155.8338 N   0  0  0  0  0  0  0  0  0  0  0  0
  149.8228  138.1302  154.6167 C   0  0  0  0  0  0  0  0  0  0  0  0
  148.3690  138.6427  154.5412 C   0  0  0  0  0  0  0  0  0  0  0  0
  147.3787  137.5618  154.2648 N   0  3  1  0  0  0  0  0  0  0  0  0
  147.3153  136.5759  155.3833 C   0  0  0  0  0  0  0  0  0  0  0  0
  146.3953  135.3908  155.0598 C   0  0  0  0  0  0  0  0  0  0  0  0
  144.9866  135.8823  154.7299 C   0  0  0  0  0  0  0  0  0  0  0  0
  145.0619  136.8856  153.5775 C   0  0  0  0  0  0  0  0  0  0  0  0
  146.0138  138.0623  153.8899 C   0  0  2  0  0  0  0  0  0  0  0  0
  146.0233  139.0138  152.6743 C   0  0  0  0  0  0  0  0  0  0  0  0
  151.4508  142.5317  157.6425 C   0  0  0  0  0  0  0  0  0  0  0  0
  152.0900  143.3742  158.4397 N   0  0  0  0  0  0  0  0  0  0  0  0
  154.8710  142.6587  161.9888 H   0  0  0  0  0  0  0  0  0  0  0  0
  154.8510  141.4179  160.7397 H   0  0  0  0  0  0  0  0  0  0  0  0
  153.4295  141.6750  161.7510 H   0  0  0  0  0  0  0  0  0  0  0  0
  153.1425  143.9774  160.7472 H   0  0  0  0  0  0  0  0  0  0  0  0
  154.5447  143.7123  159.7297 H   0  0  0  0  0  0  0  0  0  0  0  0
  153.2741  140.4810  159.4599 H   0  0  0  0  0  0  0  0  0  0  0  0
  151.5419  139.1377  157.8249 H   0  0  0  0  0  0  0  0  0  0  0  0
  150.7531  137.8784  156.5038 H   0  0  0  0  0  0  0  0  0  0  0  0
  150.3892  138.4533  153.7414 H   0  0  0  0  0  0  0  0  0  0  0  0
  149.8601  137.0420  154.6288 H   0  0  0  0  0  0  0  0  0  0  0  0
  148.0967  139.1640  155.4602 H   0  0  0  0  0  0  0  0  0  0  0  0
  148.3452  139.3888  153.7520 H   0  0  0  0  0  0  0  0  0  0  0  0
  148.3032  136.1759  155.6031 H   0  0  0  0  0  0  0  0  0  0  0  0
  146.9716  137.0769  156.2898 H   0  0  0  0  0  0  0  0  0  0  0  0
  146.7991  134.8276  154.2173 H   0  0  0  0  0  0  0  0  0  0  0  0
  146.3606  134.7031  155.9054 H   0  0  0  0  0  0  0  0  0  0  0  0
  144.3454  135.0426  154.4597 H   0  0  0  0  0  0  0  0  0  0  0  0
  144.5388  136.3528  155.6061 H   0  0  0  0  0  0  0  0  0  0  0  0
  145.3939  136.3731  152.6731 H   0  0  0  0  0  0  0  0  0  0  0  0
  144.0597  137.2607  153.3655 H   0  0  0  0  0  0  0  0  0  0  0  0
  145.6108  138.6086  154.7443 H   0  0  0  0  0  0  0  0  0  0  0  0
  145.0089  139.2052  152.3225 H   0  0  0  0  0  0  0  0  0  0  0  0
  146.5839  138.5905  151.8401 H   0  0  0  0  0  0  0  0  0  0  0  0
  146.4433  139.9908  152.9098 H   0  0  0  0  0  0  0  0  0  0  0  0
  150.7610  142.9269  156.9118 H   0  0  0  0  0  0  0  0  0  0  0  0
  147.7223  137.0636  153.4561 H   0  0  0  0  0  0  0  0  0  0  0  0
  1  2  1  0  0  0  0
  1 21  1  0  0  0  0
  1 22  1  0  0  0  0
  1 23  1  0  0  0  0
  2  3  1  0  0  0  0
  2 24  1  0  0  0  0
  2 25  1  0  0  0  0
  3 20  1  0  0  0  0
  3  4  1  0  0  0  0
  4  5  2  0  0  0  0
  4 26  1  0  0  0  0
  5  6  1  0  0  0  0
  5 19  1  0  0  0  0
  6  7  1  0  0  0  0
  6 27  1  0  0  0  0
  7  8  2  0  0  0  0
  7  9  1  0  0  0  0
  9 10  1  0  0  0  0
  9 28  1  0  0  0  0
 10 11  1  0  0  0  0
 10 29  1  0  0  0  0
 10 30  1  0  0  0  0
 11 12  1  0  0  0  0
 11 31  1  0  0  0  0
 11 32  1  0  0  0  0
 12 17  1  0  0  0  0
 12 13  1  0  0  0  0
 12 46  1  0  0  0  0
 13 14  1  0  0  0  0
 13 33  1  0  0  0  0
 13 34  1  0  0  0  0
 14 15  1  0  0  0  0
 14 35  1  0  0  0  0
 14 36  1  0  0  0  0
 15 16  1  0  0  0  0
 15 37  1  0  0  0  0
 15 38  1  0  0  0  0
 16 17  1  0  0  0  0
 16 39  1  0  0  0  0
 16 40  1  0  0  0  0
 17 18  1  0  0  0  0
 17 41  1  0  0  0  0
 18 42  1  0  0  0  0
 18 43  1  0  0  0  0
 18 44  1  0  0  0  0
 19 20  2  0  0  0  0
 19 45  1  0  0  0  0
M  CHG  1  12   1
M  END
> <s_m_source_file>
AV-unprocessed.smi

> <i_m_source_file_index>
1215

> <i_lp_mmshare_version>
43012

> <i_f3d_flags>
0

> <s_epik_input>
W0NIM11bQ0gyXW4xW2NIXWMoW2NIXW4xKVtOSF1DKD1PKVtOSF1bQ0gyXVtDSDJdTjJbQ0gyXVtDSDJdW0NIMl1bQ0gyXVtDQEhdMltDSDNd

> <s_epik_cmdline>
J2VwaWtfcHl0aG9uJywgJy1waCcsICc3LjAnLCAnLXRuJywgJzgnLCAnLW1hJywgJzIwMCcsICctbWV0YWxfYmluZGluZycsICctaW1hZScsICc8aW5maWxlLm1hZT4nLCAnLW9tYWUnLCAnPG91dGZpbGUubWFlPic=

> <r_lp_tautomer_probability>
1

> <r_epik_Ionization_Penalty>
0.00247187

> <r_epik_Ionization_Penalty_Charging>
0.00232067

> <r_epik_Ionization_Penalty_Neutral>
0.000151201

> <r_epik_State_Penalty>
0.00160128

> <r_epik_Charging_Adjusted_Penalty>
0.00392194

> <i_epik_Tot_Q>
1

> <i_epik_Tot_abs_Q>
1

> <r_epik_Metal_State_Penalty>
-0

> <b_epik_Metal_Only>
0

> <s_lp_Force_Field>
OPLS_2005

> <r_lp_Energy>
23.8268

> <b_lp_Chiralities_Consistent>
1

> <s_lp_Variant>
AV-unprocessed.smi:1215-4

> <Gold.Version>
5.8.1

> <Gold.Id.Protein>
6NUR|6NUR_protein|mol2

> <Gold.PLP.Fitness>
44.3146

> <Gold.PLP.PLP>
-34.3674

> <Gold.PLP.part.hbond>
-2.0000

> <Gold.PLP.part.metal>
0.0000

> <Gold.PLP.part.buried>
-1.8562

> <Gold.PLP.part.nonpolar>
-31.1794

> <Gold.PLP.part.repulsive>
0.2511

> <Gold.PLP.ligand.clash>
0.0000

> <Gold.PLP.ligand.torsion>
0.6567

> <Gold.PLP.Chemscore.Hbond>
2.7200

> <Gold.PLP.Chemscore.CHOScore>
1.0000

> <Gold.PLP.Chemscore.Metal>
0.0000

> <Gold.Chemscore.Hbonds>
donor molecule, donor type, donor heavy atom, donor atom, acceptor molecule, acceptor atom, score
      L1  H    12    46       P1  7948  1.27
      P1  H  7989  7998       L1     8  0.51
      L1  C    19    45       P1  8028  0.14

> <Gold.PLP.Chemscore.Internal.Correction>
0.1007

> <Gold.Rescore>
     Score         DG    S(hbond)    S(metal)    S(lipo)     H(rot)  DE(clash)    DE(int)     intcor
     16.44     -17.42       1.85        0.00      83.96       1.59       0.27       0.71       ----

> <Gold.Chemscore.Fitness>
16.4432

> <Gold.Chemscore.DG>
-17.4209

> <Gold.Chemscore.ZeroCoef>
-5.4800

> <Gold.Chemscore.Hbond>
1.8536

> <Gold.Chemscore.Metal>
0.0000

> <Gold.Chemscore.Lipo>
83.9551

> <Gold.Chemscore.Internal_Hbond>
0.0000

> <Gold.Chemscore.DEClash>
0.2701

> <Gold.Chemscore.DEInternal>
0.7077

> <Gold.Chemscore.Rot>
1.5909

> <Gold.Chemscore.Internal.Correction>
   9.000000E+99

> <Gold.Chemscore.Hbonds>
donor molecule, donor type, donor heavy atom, donor atom, acceptor molecule, acceptor atom, score
      L1  H    12    46       P1  7948  0.63
      P1  H  7989  7998       L1     8  0.47

> <Gold.Chemscore.Hbond.Weighted>
-6.1910

> <Gold.Chemscore.Metal.Weighted>
-0.0000

> <Gold.Chemscore.Lipo.Weighted>
-9.8227

> <Gold.Chemscore.Internal_Hbond.Weighted>
0.0000

> <Gold.Chemscore.DEClash.Weighted>
0.2701

> <Gold.Chemscore.DEInternal.Weighted>
0.7077

> <Gold.Chemscore.Rot.Weighted>
4.0728

> <Gold.Chemscore.Internal.Correction.Weighted>
   9.000000E+99

> <Gold.Protein.RotatedTorsions>
[ 6907 6896 6895 6894 ] final -179.24 input  -60.11 | X-H torsion
[ 7974 7965 7964 7962 ] final   38.42 input  175.53 | X-H torsion
[ 8008 7997 7996 7995 ] final  -75.69 input   59.86 | X-H torsion
[ 10167 10162 10161 10158 ] final -142.43 input  -65.29 | X-H torsion
[ 10718 10713 10712 10709 ] final   95.39 input   66.30 | X-H torsion
[ 10763 10752 10751 10750 ] final -164.20 input  -60.55 | X-H torsion
[ 11005 11000 10999 10996 ] final   50.68 input  -57.11 | X-H torsion

> <Gold.Protein.ActiveResidues>
 VAL166  LYS551  ARG553  GLY616  TRP617  ASP618  TYR619  PRO620  LYS621  CYS622 
 ASP623  PHE694  ASN695  SER759  ASP760  ASP761  ALA762  ILE779  LEU786  VAL792 
 PHE793  MET794  SER795  GLU796  ALA797  LYS798  CYS799  TRP800  GLU811  SER814 

> <Gold.Protein.RotatedAtoms>
  151.6502  133.3321  159.3149 H   0  0  0  0  0  0  0  0  0  0  0  0  # atno 6907 bound_to 6896
  150.7964  134.7030  159.6570 H   0  0  0  0  0  0  0  0  0  0  0  0  # atno 6908 bound_to 6896
  152.4051  134.6224  160.0105 H   0  0  0  0  0  0  0  0  0  0  0  0  # atno 6909 bound_to 6896
  146.1063  139.5774  142.9381 H   0  0  0  0  0  0  0  0  0  0  0  0  # atno 7974 bound_to 7965
  154.5439  140.0740  156.8556 H   0  0  0  0  0  0  0  0  0  0  0  0  # atno 8008 bound_to 7997
  155.3126  140.3391  155.4225 H   0  0  0  0  0  0  0  0  0  0  0  0  # atno 8009 bound_to 7997
  156.1900  140.1682  156.8097 H   0  0  0  0  0  0  0  0  0  0  0  0  # atno 8010 bound_to 7997
  139.8089  143.7729  152.2662 H   0  0  0  0  0  0  0  0  0  0  0  0  # atno 10167 bound_to 10162
  157.6939  131.0544  150.4331 H   0  0  0  0  0  0  0  0  0  0  0  0  # atno 10718 bound_to 10713
  154.7051  135.2995  154.9282 H   0  0  0  0  0  0  0  0  0  0  0  0  # atno 10763 bound_to 10752
  154.0202  135.6683  153.4776 H   0  0  0  0  0  0  0  0  0  0  0  0  # atno 10764 bound_to 10752
  153.0711  135.5060  154.8217 H   0  0  0  0  0  0  0  0  0  0  0  0  # atno 10765 bound_to 10752
  140.0997  134.5098  155.8774 H   0  0  0  0  0  0  0  0  0  0  0  0  # atno 11005 bound_to 11000
  145.5754  141.0389  143.2151 LP  0  0  0  0  0  0  0  0  0  0  0  0  # atno 17320 bound_to 7965
  144.7474  139.7285  143.7287 LP  0  0  0  0  0  0  0  0  0  0  0  0  # atno 17321 bound_to 7965
  139.7872  144.7423  151.0005 LP  0  0  0  0  0  0  0  0  0  0  0  0  # atno 17342 bound_to 10162
  140.7818  143.4479  151.0455 LP  0  0  0  0  0  0  0  0  0  0  0  0  # atno 17343 bound_to 10162
  156.4696  130.4050  149.6526 LP  0  0  0  0  0  0  0  0  0  0  0  0  # atno 17370 bound_to 10713
  156.3611  130.7482  151.2454 LP  0  0  0  0  0  0  0  0  0  0  0  0  # atno 17371 bound_to 10713
  141.2102  133.6692  156.6493 LP  0  0  0  0  0  0  0  0  0  0  0  0  # atno 17394 bound_to 11000
  140.3237  134.7986  157.4272 LP  0  0  0  0  0  0  0  0  0  0  0  0  # atno 17395 bound_to 11000

$$$$
