AV-unprocessed.smi:2633|AV-procd|sdf|10252|dock2
  -GOLD-   2272014263D 1   1.00000     0.00000
 Structure written by MMmdl.
 35 37  0  0  0  0  0  0  0  0  1 V2000
  151.5004  139.5970  154.7076 O   0  0  0  0  0  0  0  0  0  0  0  0
  152.0116  139.5693  156.0238 C   0  0  0  0  0  0  0  0  0  0  0  0
  151.0460  140.2403  157.0156 C   0  0  0  0  0  0  0  0  0  0  0  0
  151.7431  140.9196  158.1000 N   0  0  0  0  0  0  0  0  0  0  0  0
  152.4844  140.3839  159.1052 C   0  0  0  0  0  0  0  0  0  0  0  0
  152.7029  138.9014  159.2432 C   0  0  0  0  0  0  0  0  0  0  0  0
  153.5696  138.5222  160.4323 C   0  0  0  0  0  0  0  0  0  0  0  0
  154.7309  139.2682  160.7245 C   0  0  0  0  0  0  0  0  0  0  0  0
  155.5342  138.9232  161.8287 C   0  0  0  0  0  0  0  0  0  0  0  0
  155.1794  137.8314  162.6444 C   0  0  0  0  0  0  0  0  0  0  0  0
  154.0209  137.0842  162.3555 C   0  0  0  0  0  0  0  0  0  0  0  0
  153.2172  137.4286  161.2511 C   0  0  0  0  0  0  0  0  0  0  0  0
  152.9914  141.2621  159.9745 N   0  0  0  0  0  0  0  0  0  0  0  0
  152.5559  142.4743  159.4795 C   0  0  0  0  0  0  0  0  0  0  0  0
  152.7689  143.7892  159.9516 C   0  0  0  0  0  0  0  0  0  0  0  0
  152.2139  144.8910  159.2686 C   0  0  0  0  0  0  0  0  0  0  0  0
  151.4390  144.6941  158.1071 C   0  0  0  0  0  0  0  0  0  0  0  0
  151.2138  143.3916  157.6213 C   0  0  0  0  0  0  0  0  0  0  0  0
  151.7713  142.2954  158.3063 C   0  0  0  0  0  0  0  0  0  0  0  0
  150.9477  138.8405  154.5837 H   0  0  0  0  0  0  0  0  0  0  0  0
  152.1924  138.5328  156.3099 H   0  0  0  0  0  0  0  0  0  0  0  0
  152.9758  140.0779  156.0365 H   0  0  0  0  0  0  0  0  0  0  0  0
  150.4406  140.9785  156.4887 H   0  0  0  0  0  0  0  0  0  0  0  0
  150.3395  139.5174  157.4225 H   0  0  0  0  0  0  0  0  0  0  0  0
  151.7312  138.4129  159.3215 H   0  0  0  0  0  0  0  0  0  0  0  0
  153.1811  138.5010  158.3505 H   0  0  0  0  0  0  0  0  0  0  0  0
  155.0055  140.1090  160.1039 H   0  0  0  0  0  0  0  0  0  0  0  0
  156.4216  139.4972  162.0509 H   0  0  0  0  0  0  0  0  0  0  0  0
  155.7946  137.5679  163.4922 H   0  0  0  0  0  0  0  0  0  0  0  0
  153.7473  136.2481  162.9819 H   0  0  0  0  0  0  0  0  0  0  0  0
  152.3274  136.8543  161.0380 H   0  0  0  0  0  0  0  0  0  0  0  0
  153.3610  143.9496  160.8405 H   0  0  0  0  0  0  0  0  0  0  0  0
  152.3838  145.8918  159.6377 H   0  0  0  0  0  0  0  0  0  0  0  0
  151.0176  145.5436  157.5898 H   0  0  0  0  0  0  0  0  0  0  0  0
  150.6210  143.2370  156.7321 H   0  0  0  0  0  0  0  0  0  0  0  0
  1  2  1  0  0  0  0
  1 20  1  0  0  0  0
  2  3  1  0  0  0  0
  2 21  1  0  0  0  0
  2 22  1  0  0  0  0
  3  4  1  0  0  0  0
  3 23  1  0  0  0  0
  3 24  1  0  0  0  0
  4 19  1  0  0  0  0
  4  5  1  0  0  0  0
  5  6  1  0  0  0  0
  5 13  2  0  0  0  0
  6  7  1  0  0  0  0
  6 25  1  0  0  0  0
  6 26  1  0  0  0  0
  7 12  1  0  0  0  0
  7  8  2  0  0  0  0
  8  9  1  0  0  0  0
  8 27  1  0  0  0  0
  9 10  2  0  0  0  0
  9 28  1  0  0  0  0
 10 11  1  0  0  0  0
 10 29  1  0  0  0  0
 11 12  2  0  0  0  0
 11 30  1  0  0  0  0
 12 31  1  0  0  0  0
 13 14  1  0  0  0  0
 14 19  2  0  0  0  0
 14 15  1  0  0  0  0
 15 16  2  0  0  0  0
 15 32  1  0  0  0  0
 16 17  1  0  0  0  0
 16 33  1  0  0  0  0
 17 18  2  0  0  0  0
 17 34  1  0  0  0  0
 18 19  1  0  0  0  0
 18 35  1  0  0  0  0
M  END
> <s_m_source_file>
AV-unprocessed.smi

> <i_m_source_file_index>
2633

> <i_lp_mmshare_version>
43012

> <i_f3d_flags>
0

> <s_epik_input>
W2NIXTFbY0hdW2NIXVtjSF1jKGMxMiluKFtDSDJdW0NIMl1bT0hdKWMobjIpW0NIMl1jM1tjSF1bY0hdW2NIXVtjSF1bY0hdMw==

> <s_epik_cmdline>
J2VwaWtfcHl0aG9uJywgJy1waCcsICc3LjAnLCAnLXRuJywgJzgnLCAnLW1hJywgJzIwMCcsICctbWV0YWxfYmluZGluZycsICctaW1hZScsICc8aW5maWxlLm1hZT4nLCAnLW9tYWUnLCAnPG91dGZpbGUubWFlPic=

> <r_epik_Ionization_Penalty>
0.0631471

> <r_epik_Ionization_Penalty_Charging>
0

> <r_epik_Ionization_Penalty_Neutral>
0.0631471

> <r_epik_State_Penalty>
0.0549237

> <r_epik_Charging_Adjusted_Penalty>
0.0549237

> <i_epik_Tot_Q>
0

> <i_epik_Tot_abs_Q>
0

> <r_epik_Metal_State_Penalty>
5.75471e-05

> <b_epik_Metal_Only>
0

> <s_lp_Force_Field>
OPLS_2005

> <r_lp_Energy>
13.1063

> <b_lp_Chiralities_Consistent>
1

> <s_lp_Variant>
AV-unprocessed.smi:2633-1

> <Gold.Version>
5.8.1

> <Gold.Id.Protein>
6NUR|6NUR_protein|mol2

> <Gold.PLP.Fitness>
44.2808

> <Gold.PLP.PLP>
-42.2582

> <Gold.PLP.part.hbond>
-1.0000

> <Gold.PLP.part.metal>
0.0000

> <Gold.PLP.part.buried>
-5.7380

> <Gold.PLP.part.nonpolar>
-36.2479

> <Gold.PLP.part.repulsive>
0.0000

> <Gold.PLP.ligand.clash>
0.0000

> <Gold.PLP.ligand.torsion>
0.5004

> <Gold.PLP.Chemscore.Hbond>
1.0000

> <Gold.PLP.Chemscore.CHOScore>
0.0000

> <Gold.PLP.Chemscore.Metal>
0.0000

> <Gold.Chemscore.Hbonds>
donor molecule, donor type, donor heavy atom, donor atom, acceptor molecule, acceptor atom, score
      P1  H  7989  7998       L1     1  1.00

> <Gold.PLP.Chemscore.Internal.Correction>
0.0234

> <Gold.Rescore>
     Score         DG    S(hbond)    S(metal)    S(lipo)     H(rot)  DE(clash)    DE(int)     intcor
     16.18     -18.40       0.99        0.00     125.06       1.96       0.09       2.13       ----

> <Gold.Chemscore.Fitness>
16.1765

> <Gold.Chemscore.DG>
-18.4027

> <Gold.Chemscore.ZeroCoef>
-5.4800

> <Gold.Chemscore.Hbond>
0.9900

> <Gold.Chemscore.Metal>
0.0000

> <Gold.Chemscore.Lipo>
125.0599

> <Gold.Chemscore.Internal_Hbond>
0.0000

> <Gold.Chemscore.DEClash>
0.0931

> <Gold.Chemscore.DEInternal>
2.1331

> <Gold.Chemscore.Rot>
1.9594

> <Gold.Chemscore.Internal.Correction>
   9.000000E+99

> <Gold.Chemscore.Hbonds>
donor molecule, donor type, donor heavy atom, donor atom, acceptor molecule, acceptor atom, score
      P1  H  7989  7998       L1     1  0.99

> <Gold.Chemscore.Hbond.Weighted>
-3.3067

> <Gold.Chemscore.Metal.Weighted>
-0.0000

> <Gold.Chemscore.Lipo.Weighted>
-14.6320

> <Gold.Chemscore.Internal_Hbond.Weighted>
0.0000

> <Gold.Chemscore.DEClash.Weighted>
0.0931

> <Gold.Chemscore.DEInternal.Weighted>
2.1331

> <Gold.Chemscore.Rot.Weighted>
5.0160

> <Gold.Chemscore.Internal.Correction.Weighted>
   9.000000E+99

> <Gold.Protein.RotatedTorsions>
[ 6907 6896 6895 6894 ] final -121.92 input  -60.11 | X-H torsion
[ 7974 7965 7964 7962 ] final  100.15 input  175.53 | X-H torsion
[ 8008 7997 7996 7995 ] final  -39.39 input   59.86 | X-H torsion
[ 10167 10162 10161 10158 ] final   41.08 input  -65.29 | X-H torsion
[ 10718 10713 10712 10709 ] final    9.99 input   66.30 | X-H torsion
[ 10763 10752 10751 10750 ] final -104.43 input  -60.55 | X-H torsion
[ 11005 11000 10999 10996 ] final   28.17 input  -57.11 | X-H torsion

> <Gold.Protein.ActiveResidues>
 VAL166  LYS551  ARG553  GLY616  TRP617  ASP618  TYR619  PRO620  LYS621  CYS622 
 ASP623  PHE694  ASN695  SER759  ASP760  ASP761  ALA762  ILE779  LEU786  VAL792 
 PHE793  MET794  SER795  GLU796  ALA797  LYS798  CYS799  TRP800  GLU811  SER814 

> <Gold.Protein.RotatedAtoms>
  150.8527  133.7762  159.3019 H   0  0  0  0  0  0  0  0  0  0  0  0  # atno 6907 bound_to 6896
  151.5429  135.1066  159.9940 H   0  0  0  0  0  0  0  0  0  0  0  0  # atno 6908 bound_to 6896
  152.4565  133.7691  159.6845 H   0  0  0  0  0  0  0  0  0  0  0  0  # atno 6909 bound_to 6896
  145.3894  139.2365  143.3360 H   0  0  0  0  0  0  0  0  0  0  0  0  # atno 7974 bound_to 7965
  154.4024  140.1553  156.2855 H   0  0  0  0  0  0  0  0  0  0  0  0  # atno 8008 bound_to 7997
  155.8832  140.3443  155.5880 H   0  0  0  0  0  0  0  0  0  0  0  0  # atno 8009 bound_to 7997
  155.7644  140.0822  157.2130 H   0  0  0  0  0  0  0  0  0  0  0  0  # atno 8010 bound_to 7997
  140.3679  144.2144  150.6134 H   0  0  0  0  0  0  0  0  0  0  0  0  # atno 10167 bound_to 10162
  156.9744  130.5981  149.5671 H   0  0  0  0  0  0  0  0  0  0  0  0  # atno 10718 bound_to 10713
  154.7877  135.4786  153.9983 H   0  0  0  0  0  0  0  0  0  0  0  0  # atno 10763 bound_to 10752
  153.1585  135.6804  153.8784 H   0  0  0  0  0  0  0  0  0  0  0  0  # atno 10764 bound_to 10752
  153.8406  135.3180  155.3404 H   0  0  0  0  0  0  0  0  0  0  0  0  # atno 10765 bound_to 10752
  140.3185  134.2570  155.7721 H   0  0  0  0  0  0  0  0  0  0  0  0  # atno 11005 bound_to 11000
  146.2805  140.4574  142.8778 LP  0  0  0  0  0  0  0  0  0  0  0  0  # atno 17320 bound_to 7965
  144.8451  140.6916  143.6204 LP  0  0  0  0  0  0  0  0  0  0  0  0  # atno 17321 bound_to 7965
  140.5063  143.2303  151.8603 LP  0  0  0  0  0  0  0  0  0  0  0  0  # atno 17342 bound_to 10162
  139.4807  144.5002  151.9071 LP  0  0  0  0  0  0  0  0  0  0  0  0  # atno 17343 bound_to 10162
  156.0269  130.5363  150.8432 LP  0  0  0  0  0  0  0  0  0  0  0  0  # atno 17370 bound_to 10713
  157.5570  131.0945  150.9614 LP  0  0  0  0  0  0  0  0  0  0  0  0  # atno 17371 bound_to 10713
  141.2092  133.7756  157.0011 LP  0  0  0  0  0  0  0  0  0  0  0  0  # atno 17394 bound_to 11000
  140.0962  134.9562  157.1854 LP  0  0  0  0  0  0  0  0  0  0  0  0  # atno 17395 bound_to 11000

$$$$
