AV-unprocessed.smi:2774|AV-procd|sdf|10683|dock1
  -GOLD-   2272015123D 1   1.00000     0.00000
 Structure written by MMmdl.
 35 36  0  0  0  0  0  0  0  0  2 V2000
  149.4471  141.1283  153.8632 O   0  0  0  0  0  0  0  0  0  0  0  0
  150.5186  141.0727  154.7843 C   0  0  1  0  0  0  0  0  0  0  0  0
  150.0442  141.6539  156.1281 C   0  0  0  0  0  0  0  0  0  0  0  0
  150.6811  142.9594  156.4070 N   0  3  0  0  0  0  0  0  0  0  0  0
  151.0213  143.2063  157.8258 C   0  0  1  0  0  0  0  0  0  0  0  0
  151.8697  142.0344  158.3577 C   0  0  0  0  0  0  0  0  0  0  0  0
  152.1965  142.1635  159.8549 C   0  0  0  0  0  0  0  0  0  0  0  0
  153.0084  143.4267  160.1706 C   0  0  0  0  0  0  0  0  0  0  0  0
  152.0813  144.9228  159.7377 S   0  0  0  0  0  0  0  0  0  0  0  0
  151.7607  144.5501  157.9920 C   0  0  0  0  0  0  0  0  0  0  0  0
  151.0381  139.6534  154.9492 C   0  0  0  0  0  0  0  0  0  0  0  0
  152.1039  139.3768  155.8311 C   0  0  0  0  0  0  0  0  0  0  0  0
  152.5479  138.0448  155.9546 C   0  0  0  0  0  0  0  0  0  0  0  0
  152.0031  137.0153  155.2719 N   0  0  0  0  0  0  0  0  0  0  0  0
  150.9833  137.2851  154.4294 C   0  0  0  0  0  0  0  0  0  0  0  0
  150.4650  138.5806  154.2324 C   0  0  0  0  0  0  0  0  0  0  0  0
  149.7203  140.7093  153.0606 H   0  0  0  0  0  0  0  0  0  0  0  0
  151.3234  141.6936  154.3877 H   0  0  0  0  0  0  0  0  0  0  0  0
  148.9589  141.7550  156.1294 H   0  0  0  0  0  0  0  0  0  0  0  0
  150.3008  140.9649  156.9340 H   0  0  0  0  0  0  0  0  0  0  0  0
  151.5379  142.9939  155.8736 H   0  0  0  0  0  0  0  0  0  0  0  0
  150.0912  143.2352  158.3957 H   0  0  0  0  0  0  0  0  0  0  0  0
  151.3358  141.0970  158.1964 H   0  0  0  0  0  0  0  0  0  0  0  0
  152.7972  141.9576  157.7886 H   0  0  0  0  0  0  0  0  0  0  0  0
  151.2738  142.1641  160.4365 H   0  0  0  0  0  0  0  0  0  0  0  0
  152.7588  141.2866  160.1770 H   0  0  0  0  0  0  0  0  0  0  0  0
  153.2544  143.4624  161.2321 H   0  0  0  0  0  0  0  0  0  0  0  0
  153.9517  143.4207  159.6236 H   0  0  0  0  0  0  0  0  0  0  0  0
  152.7096  144.5348  157.4543 H   0  0  0  0  0  0  0  0  0  0  0  0
  151.1787  145.3756  157.5840 H   0  0  0  0  0  0  0  0  0  0  0  0
  152.5758  140.1627  156.4024 H   0  0  0  0  0  0  0  0  0  0  0  0
  153.3618  137.7999  156.6208 H   0  0  0  0  0  0  0  0  0  0  0  0
  150.5663  136.4431  153.8967 H   0  0  0  0  0  0  0  0  0  0  0  0
  149.6458  138.7419  153.5471 H   0  0  0  0  0  0  0  0  0  0  0  0
  150.0735  143.6983  156.0822 H   0  0  0  0  0  0  0  0  0  0  0  0
  1  2  1  0  0  0  0
  1 17  1  0  0  0  0
  2  3  1  0  0  0  0
  2 11  1  0  0  0  0
  2 18  1  0  0  0  0
  3  4  1  0  0  0  0
  3 19  1  0  0  0  0
  3 20  1  0  0  0  0
  4  5  1  0  0  0  0
  4 21  1  0  0  0  0
  4 35  1  0  0  0  0
  5 10  1  0  0  0  0
  5  6  1  0  0  0  0
  5 22  1  0  0  0  0
  6  7  1  0  0  0  0
  6 23  1  0  0  0  0
  6 24  1  0  0  0  0
  7  8  1  0  0  0  0
  7 25  1  0  0  0  0
  7 26  1  0  0  0  0
  8  9  1  0  0  0  0
  8 27  1  0  0  0  0
  8 28  1  0  0  0  0
  9 10  1  0  0  0  0
 10 29  1  0  0  0  0
 10 30  1  0  0  0  0
 11 16  1  0  0  0  0
 11 12  2  0  0  0  0
 12 13  1  0  0  0  0
 12 31  1  0  0  0  0
 13 14  2  0  0  0  0
 13 32  1  0  0  0  0
 14 15  1  0  0  0  0
 15 16  2  0  0  0  0
 15 33  1  0  0  0  0
 16 34  1  0  0  0  0
M  CHG  1   4   1
M  END
> <s_m_source_file>
AV-unprocessed.smi

> <i_m_source_file_index>
2774

> <i_lp_mmshare_version>
43012

> <i_f3d_flags>
0

> <s_epik_input>
W2NIXTFbY0hdbltjSF1bY0hdYzFbQ0BIXShbT0hdKVtDSDJdW05IXVtDQEBIXTJbQ0gyXVtDSDJdW0NIMl1TW0NIMl0y

> <s_epik_cmdline>
J2VwaWtfcHl0aG9uJywgJy1waCcsICc3LjAnLCAnLXRuJywgJzgnLCAnLW1hJywgJzIwMCcsICctbWV0YWxfYmluZGluZycsICctaW1hZScsICc8aW5maWxlLm1hZT4nLCAnLW9tYWUnLCAnPG91dGZpbGUubWFlPic=

> <r_epik_Ionization_Penalty>
0.0205977

> <r_epik_Ionization_Penalty_Charging>
0.0185619

> <r_epik_Ionization_Penalty_Neutral>
0.00203589

> <r_epik_State_Penalty>
0.0147768

> <r_epik_Charging_Adjusted_Penalty>
0.0333386

> <i_epik_Tot_Q>
1

> <i_epik_Tot_abs_Q>
1

> <r_epik_Metal_State_Penalty>
0.0152254

> <b_epik_Metal_Only>
0

> <s_lp_Force_Field>
OPLS_2005

> <r_lp_Energy>
9.96731

> <b_lp_Chiralities_Consistent>
1

> <s_lp_Variant>
AV-unprocessed.smi:2774-4

> <Gold.Version>
5.8.1

> <Gold.Id.Protein>
6NUR|6NUR_protein|mol2

> <Gold.PLP.Fitness>
51.0248

> <Gold.PLP.PLP>
-38.3941

> <Gold.PLP.part.hbond>
-5.0000

> <Gold.PLP.part.metal>
0.0000

> <Gold.PLP.part.buried>
1.0330

> <Gold.PLP.part.nonpolar>
-33.9115

> <Gold.PLP.part.repulsive>
0.1606

> <Gold.PLP.ligand.clash>
0.0000

> <Gold.PLP.ligand.torsion>
0.9820

> <Gold.PLP.Chemscore.Hbond>
4.0000

> <Gold.PLP.Chemscore.CHOScore>
0.8529

> <Gold.PLP.Chemscore.Metal>
0.0000

> <Gold.Chemscore.Hbonds>
donor molecule, donor type, donor heavy atom, donor atom, acceptor molecule, acceptor atom, score
      L1  H     1    17       P1  7957  1.00
      L1  H     4    35       P1  8028  2.00
      P1  H 10752 10765       L1    14  0.99
      L1  C    15    33       P1  7948  0.42
      L1  C    15    33       P1  7949  0.44

> <Gold.PLP.Chemscore.Internal.Correction>
0.0361

> <Gold.Rescore>
     Score         DG    S(hbond)    S(metal)    S(lipo)     H(rot)  DE(clash)    DE(int)     intcor
     21.36     -24.07       2.84        0.00     120.96       1.97       1.71       1.00       ----

> <Gold.Chemscore.Fitness>
21.3595

> <Gold.Chemscore.DG>
-24.0696

> <Gold.Chemscore.ZeroCoef>
-5.4800

> <Gold.Chemscore.Hbond>
2.8374

> <Gold.Chemscore.Metal>
0.0000

> <Gold.Chemscore.Lipo>
120.9613

> <Gold.Chemscore.Internal_Hbond>
0.0000

> <Gold.Chemscore.DEClash>
1.7127

> <Gold.Chemscore.DEInternal>
0.9975

> <Gold.Chemscore.Rot>
1.9686

> <Gold.Chemscore.Internal.Correction>
   9.000000E+99

> <Gold.Chemscore.Hbonds>
donor molecule, donor type, donor heavy atom, donor atom, acceptor molecule, acceptor atom, score
      L1  H     1    17       P1  7957  0.95
      L1  H     4    35       P1  8028  0.99
      P1  H 10752 10765       L1    14  0.77

> <Gold.Chemscore.Hbond.Weighted>
-9.4768

> <Gold.Chemscore.Metal.Weighted>
-0.0000

> <Gold.Chemscore.Lipo.Weighted>
-14.1525

> <Gold.Chemscore.Internal_Hbond.Weighted>
0.0000

> <Gold.Chemscore.DEClash.Weighted>
1.7127

> <Gold.Chemscore.DEInternal.Weighted>
0.9975

> <Gold.Chemscore.Rot.Weighted>
5.0396

> <Gold.Chemscore.Internal.Correction.Weighted>
   9.000000E+99

> <Gold.Protein.RotatedTorsions>
[ 6907 6896 6895 6894 ] final -167.01 input  -60.11 | X-H torsion
[ 7974 7965 7964 7962 ] final   90.36 input  175.53 | X-H torsion
[ 8008 7997 7996 7995 ] final   31.38 input   59.86 | X-H torsion
[ 10167 10162 10161 10158 ] final  -37.73 input  -65.29 | X-H torsion
[ 10718 10713 10712 10709 ] final   88.68 input   66.30 | X-H torsion
[ 10763 10752 10751 10750 ] final -173.43 input  -60.55 | X-H torsion
[ 11005 11000 10999 10996 ] final   30.68 input  -57.11 | X-H torsion

> <Gold.Protein.ActiveResidues>
 VAL166  LYS551  ARG553  GLY616  TRP617  ASP618  TYR619  PRO620  LYS621  CYS622 
 ASP623  PHE694  ASN695  SER759  ASP760  ASP761  ALA762  ILE779  LEU786  VAL792 
 PHE793  MET794  SER795  GLU796  ALA797  LYS798  CYS799  TRP800  GLU811  SER814 

> <Gold.Protein.RotatedAtoms>
  151.4527  133.3613  159.2797 H   0  0  0  0  0  0  0  0  0  0  0  0  # atno 6907 bound_to 6896
  150.9080  134.8497  159.7416 H   0  0  0  0  0  0  0  0  0  0  0  0  # atno 6908 bound_to 6896
  152.4916  134.4454  159.9609 H   0  0  0  0  0  0  0  0  0  0  0  0  # atno 6909 bound_to 6896
  145.5201  139.2279  143.2676 H   0  0  0  0  0  0  0  0  0  0  0  0  # atno 7974 bound_to 7965
  155.1055  140.3234  155.4535 H   0  0  0  0  0  0  0  0  0  0  0  0  # atno 8008 bound_to 7997
  156.2705  140.2053  156.6127 H   0  0  0  0  0  0  0  0  0  0  0  0  # atno 8009 bound_to 7997
  154.6796  140.0527  157.0239 H   0  0  0  0  0  0  0  0  0  0  0  0  # atno 8010 bound_to 7997
  140.7111  143.3323  151.2541 H   0  0  0  0  0  0  0  0  0  0  0  0  # atno 10167 bound_to 10162
  157.6950  131.0304  150.3311 H   0  0  0  0  0  0  0  0  0  0  0  0  # atno 10718 bound_to 10713
  154.6079  135.2861  155.0464 H   0  0  0  0  0  0  0  0  0  0  0  0  # atno 10763 bound_to 10752
  154.1705  135.6473  153.5012 H   0  0  0  0  0  0  0  0  0  0  0  0  # atno 10764 bound_to 10752
  153.0183  135.5399  154.6822 H   0  0  0  0  0  0  0  0  0  0  0  0  # atno 10765 bound_to 10752
  140.2918  134.2855  155.7774 H   0  0  0  0  0  0  0  0  0  0  0  0  # atno 11005 bound_to 11000
  146.2112  140.6012  142.9059 LP  0  0  0  0  0  0  0  0  0  0  0  0  # atno 17320 bound_to 7965
  144.7681  140.5575  143.6689 LP  0  0  0  0  0  0  0  0  0  0  0  0  # atno 17321 bound_to 7965
  139.6808  143.9857  152.2807 LP  0  0  0  0  0  0  0  0  0  0  0  0  # atno 17342 bound_to 10162
  139.9487  144.6635  150.8194 LP  0  0  0  0  0  0  0  0  0  0  0  0  # atno 17343 bound_to 10162
  156.3785  130.3876  149.7120 LP  0  0  0  0  0  0  0  0  0  0  0  0  # atno 17370 bound_to 10713
  156.4510  130.7907  151.2928 LP  0  0  0  0  0  0  0  0  0  0  0  0  # atno 17371 bound_to 10713
  141.2145  133.7590  156.9636 LP  0  0  0  0  0  0  0  0  0  0  0  0  # atno 17394 bound_to 11000
  140.1188  134.9430  157.2173 LP  0  0  0  0  0  0  0  0  0  0  0  0  # atno 17395 bound_to 11000

$$$$
