AV-unprocessed.smi:3201|AV-procd|sdf|12237|dock6
  -GOLD-   2272018 73D 1   1.00000     0.00000
 Structure written by MMmdl.
 41 43  0  0  0  0  0  0  0  0  2 V2000
  149.3293  138.6959  154.0461 C   0  0  0  0  0  0  0  0  0  0  0  0
  148.5439  139.9676  154.0669 C   0  0  0  0  0  0  0  0  0  0  0  0
  148.7149  141.1131  154.7971 C   0  0  0  0  0  0  0  0  0  0  0  0
  149.7667  141.4378  155.8222 C   0  0  0  0  0  0  0  0  0  0  0  0
  149.1406  141.7358  157.1905 C   0  0  0  0  0  0  0  0  0  0  0  0
  149.7030  142.9699  157.7748 N   0  3  0  0  0  0  0  0  0  0  0  0
  151.1661  142.9351  157.9905 C   0  0  2  0  0  0  0  0  0  0  0  0
  151.5977  142.2098  159.2842 C   0  0  0  0  0  0  0  0  0  0  0  0
  152.5171  143.2452  159.9614 C   0  0  2  0  0  0  0  0  0  0  0  0
  151.6481  144.3585  160.5720 C   0  0  0  0  0  0  0  0  0  0  0  0
  151.1458  145.1125  159.3273 C   0  0  0  0  0  0  0  0  0  0  0  0
  151.7966  144.3340  158.1625 C   0  0  1  0  0  0  0  0  0  0  0  0
  153.1458  143.9613  158.7694 C   0  0  0  0  0  0  0  0  0  0  0  0
  147.6474  141.9502  154.3654 C   0  0  0  0  0  0  0  0  0  0  0  0
  146.8834  141.3782  153.4524 N   0  0  0  0  0  0  0  0  0  0  0  0
  147.4329  140.1604  153.2670 N   0  0  0  0  0  0  0  0  0  0  0  0
  146.8358  139.2493  152.3094 C   0  0  0  0  0  0  0  0  0  0  0  0
  150.0971  138.6921  154.8194 H   0  0  0  0  0  0  0  0  0  0  0  0
  149.8216  138.5619  153.0828 H   0  0  0  0  0  0  0  0  0  0  0  0
  148.6820  137.8359  154.2178 H   0  0  0  0  0  0  0  0  0  0  0  0
  150.4769  140.6158  155.9183 H   0  0  0  0  0  0  0  0  0  0  0  0
  150.3549  142.2985  155.5016 H   0  0  0  0  0  0  0  0  0  0  0  0
  148.0599  141.8407  157.0872 H   0  0  0  0  0  0  0  0  0  0  0  0
  149.3199  140.9028  157.8717 H   0  0  0  0  0  0  0  0  0  0  0  0
  149.4971  143.7320  157.1448 H   0  0  0  0  0  0  0  0  0  0  0  0
  151.6295  142.4514  157.1286 H   0  0  0  0  0  0  0  0  0  0  0  0
  150.7597  141.9345  159.9261 H   0  0  0  0  0  0  0  0  0  0  0  0
  152.1451  141.2975  159.0443 H   0  0  0  0  0  0  0  0  0  0  0  0
  153.2256  142.8087  160.6660 H   0  0  0  0  0  0  0  0  0  0  0  0
  150.8328  143.9648  161.1801 H   0  0  0  0  0  0  0  0  0  0  0  0
  152.2470  145.0167  161.2029 H   0  0  0  0  0  0  0  0  0  0  0  0
  150.0578  145.1435  159.2685 H   0  0  0  0  0  0  0  0  0  0  0  0
  151.5007  146.1440  159.3429 H   0  0  0  0  0  0  0  0  0  0  0  0
  151.8561  144.9036  157.2346 H   0  0  0  0  0  0  0  0  0  0  0  0
  153.7482  144.8263  159.0530 H   0  0  0  0  0  0  0  0  0  0  0  0
  153.7432  143.3035  158.1352 H   0  0  0  0  0  0  0  0  0  0  0  0
  147.4059  142.9517  154.6899 H   0  0  0  0  0  0  0  0  0  0  0  0
  147.5367  139.0639  151.4952 H   0  0  0  0  0  0  0  0  0  0  0  0
  145.9178  139.6700  151.8963 H   0  0  0  0  0  0  0  0  0  0  0  0
  146.5987  138.3047  152.7991 H   0  0  0  0  0  0  0  0  0  0  0  0
  149.2508  143.1525  158.6592 H   0  0  0  0  0  0  0  0  0  0  0  0
  1  2  1  0  0  0  0
  1 18  1  0  0  0  0
  1 19  1  0  0  0  0
  1 20  1  0  0  0  0
  2 16  1  0  0  0  0
  2  3  2  0  0  0  0
  3  4  1  0  0  0  0
  3 14  1  0  0  0  0
  4  5  1  0  0  0  0
  4 21  1  0  0  0  0
  4 22  1  0  0  0  0
  5  6  1  0  0  0  0
  5 23  1  0  0  0  0
  5 24  1  0  0  0  0
  6  7  1  0  0  0  0
  6 25  1  0  0  0  0
  6 41  1  0  0  0  0
  7 12  1  0  0  0  0
  7  8  1  0  0  0  0
  7 26  1  0  0  0  0
  8  9  1  0  0  0  0
  8 27  1  0  0  0  0
  8 28  1  0  0  0  0
  9 13  1  0  0  0  0
  9 10  1  0  0  0  0
  9 29  1  0  0  0  0
 10 11  1  0  0  0  0
 10 30  1  0  0  0  0
 10 31  1  0  0  0  0
 11 12  1  0  0  0  0
 11 32  1  0  0  0  0
 11 33  1  0  0  0  0
 12 13  1  0  0  0  0
 12 34  1  0  0  0  0
 13 35  1  0  0  0  0
 13 36  1  0  0  0  0
 14 15  2  0  0  0  0
 14 37  1  0  0  0  0
 15 16  1  0  0  0  0
 16 17  1  0  0  0  0
 17 38  1  0  0  0  0
 17 39  1  0  0  0  0
 17 40  1  0  0  0  0
M  CHG  1   6   1
M  END
> <s_m_source_file>
AV-unprocessed.smi

> <i_m_source_file_index>
3201

> <i_lp_mmshare_version>
43012

> <i_f3d_flags>
0

> <s_epik_input>
W0NIM11uMW5bY0hdYyhjMVtDSDNdKVtDSDJdW0NIMl1bTkhdW0NASF0oW0NIMl1bQ0BIXTIzKVtDQEhdKFtDSDJdMylbQ0gyXVtDSDJdMg==

> <s_epik_cmdline>
J2VwaWtfcHl0aG9uJywgJy1waCcsICc3LjAnLCAnLXRuJywgJzgnLCAnLW1hJywgJzIwMCcsICctbWV0YWxfYmluZGluZycsICctaW1hZScsICc8aW5maWxlLm1hZT4nLCAnLW9tYWUnLCAnPG91dGZpbGUubWFlPic=

> <r_lp_tautomer_probability>
1

> <r_epik_Ionization_Penalty>
0.000331174

> <r_epik_Ionization_Penalty_Charging>
0.000242709

> <r_epik_Ionization_Penalty_Neutral>
8.84659e-05

> <r_epik_State_Penalty>
-0

> <r_epik_Charging_Adjusted_Penalty>
0.000242709

> <i_epik_Tot_Q>
1

> <i_epik_Tot_abs_Q>
1

> <r_epik_Metal_State_Penalty>
-0

> <b_epik_Metal_Only>
0

> <s_lp_Force_Field>
OPLS_2005

> <r_lp_Energy>
50.9619

> <b_lp_Chiralities_Consistent>
1

> <s_lp_Variant>
AV-unprocessed.smi:3201-1

> <Gold.Version>
5.8.1

> <Gold.Id.Protein>
6NUR|6NUR_protein|mol2

> <Gold.PLP.Fitness>
51.3188

> <Gold.PLP.PLP>
-43.3529

> <Gold.PLP.part.hbond>
-1.0000

> <Gold.PLP.part.metal>
0.0000

> <Gold.PLP.part.buried>
-2.0281

> <Gold.PLP.part.nonpolar>
-40.3249

> <Gold.PLP.part.repulsive>
0.2277

> <Gold.PLP.ligand.clash>
0.0000

> <Gold.PLP.ligand.torsion>
0.5254

> <Gold.PLP.Chemscore.Hbond>
2.0000

> <Gold.PLP.Chemscore.CHOScore>
1.0000

> <Gold.PLP.Chemscore.Metal>
0.0000

> <Gold.Chemscore.Hbonds>
donor molecule, donor type, donor heavy atom, donor atom, acceptor molecule, acceptor atom, score
      L1  H     6    25       P1  8028  2.00
      L1  C    14    37       P1  8028  1.00

> <Gold.PLP.Chemscore.Internal.Correction>
0.0166

> <Gold.Rescore>
     Score         DG    S(hbond)    S(metal)    S(lipo)     H(rot)  DE(clash)    DE(int)     intcor
     20.02     -20.82       0.96        0.00     133.43       1.36       0.37       0.43       ----

> <Gold.Chemscore.Fitness>
20.0181

> <Gold.Chemscore.DG>
-20.8201

> <Gold.Chemscore.ZeroCoef>
-5.4800

> <Gold.Chemscore.Hbond>
0.9604

> <Gold.Chemscore.Metal>
0.0000

> <Gold.Chemscore.Lipo>
133.4270

> <Gold.Chemscore.Internal_Hbond>
0.0000

> <Gold.Chemscore.DEClash>
0.3715

> <Gold.Chemscore.DEInternal>
0.4305

> <Gold.Chemscore.Rot>
1.3588

> <Gold.Chemscore.Internal.Correction>
   9.000000E+99

> <Gold.Chemscore.Hbonds>
donor molecule, donor type, donor heavy atom, donor atom, acceptor molecule, acceptor atom, score
      L1  H     6    25       P1  8028  0.74

> <Gold.Chemscore.Hbond.Weighted>
-3.2077

> <Gold.Chemscore.Metal.Weighted>
-0.0000

> <Gold.Chemscore.Lipo.Weighted>
-15.6110

> <Gold.Chemscore.Internal_Hbond.Weighted>
0.0000

> <Gold.Chemscore.DEClash.Weighted>
0.3715

> <Gold.Chemscore.DEInternal.Weighted>
0.4305

> <Gold.Chemscore.Rot.Weighted>
3.4786

> <Gold.Chemscore.Internal.Correction.Weighted>
   9.000000E+99

> <Gold.Protein.RotatedTorsions>
[ 6907 6896 6895 6894 ] final  157.29 input  -60.11 | X-H torsion
[ 7974 7965 7964 7962 ] final   25.95 input  175.53 | X-H torsion
[ 8008 7997 7996 7995 ] final  -49.75 input   59.86 | X-H torsion
[ 10167 10162 10161 10158 ] final   49.91 input  -65.29 | X-H torsion
[ 10718 10713 10712 10709 ] final  -16.79 input   66.30 | X-H torsion
[ 10763 10752 10751 10750 ] final   86.47 input  -60.55 | X-H torsion
[ 11005 11000 10999 10996 ] final   35.97 input  -57.11 | X-H torsion

> <Gold.Protein.ActiveResidues>
 VAL166  LYS551  ARG553  GLY616  TRP617  ASP618  TYR619  PRO620  LYS621  CYS622 
 ASP623  PHE694  ASN695  SER759  ASP760  ASP761  ALA762  ILE779  LEU786  VAL792 
 PHE793  MET794  SER795  GLU796  ALA797  LYS798  CYS799  TRP800  GLU811  SER814 

> <Gold.Protein.RotatedAtoms>
  152.0173  133.3885  159.4243 H   0  0  0  0  0  0  0  0  0  0  0  0  # atno 6907 bound_to 6896
  150.6893  134.3664  159.4982 H   0  0  0  0  0  0  0  0  0  0  0  0  # atno 6908 bound_to 6896
  152.1433  134.9045  160.0603 H   0  0  0  0  0  0  0  0  0  0  0  0  # atno 6909 bound_to 6896
  146.1862  139.7394  142.8865 H   0  0  0  0  0  0  0  0  0  0  0  0  # atno 7974 bound_to 7965
  154.4049  140.1289  156.4553 H   0  0  0  0  0  0  0  0  0  0  0  0  # atno 8008 bound_to 7997
  155.7326  140.3491  155.5047 H   0  0  0  0  0  0  0  0  0  0  0  0  # atno 8009 bound_to 7997
  155.9113  140.1036  157.1267 H   0  0  0  0  0  0  0  0  0  0  0  0  # atno 8010 bound_to 7997
  140.2779  144.3190  150.6272 H   0  0  0  0  0  0  0  0  0  0  0  0  # atno 10167 bound_to 10162
  156.5826  130.4778  149.6313 H   0  0  0  0  0  0  0  0  0  0  0  0  # atno 10718 bound_to 10713
  153.1574  135.4579  154.9724 H   0  0  0  0  0  0  0  0  0  0  0  0  # atno 10763 bound_to 10752
  154.7872  135.3208  154.7862 H   0  0  0  0  0  0  0  0  0  0  0  0  # atno 10764 bound_to 10752
  153.8358  135.6934  153.4863 H   0  0  0  0  0  0  0  0  0  0  0  0  # atno 10765 bound_to 10752
  140.2372  134.3457  155.7940 H   0  0  0  0  0  0  0  0  0  0  0  0  # atno 11005 bound_to 11000
  145.3931  141.0375  143.3113 LP  0  0  0  0  0  0  0  0  0  0  0  0  # atno 17320 bound_to 7965
  144.8402  139.5484  143.6904 LP  0  0  0  0  0  0  0  0  0  0  0  0  # atno 17321 bound_to 7965
  140.5836  143.2171  151.7384 LP  0  0  0  0  0  0  0  0  0  0  0  0  # atno 17342 bound_to 10162
  139.4970  144.4044  152.0147 LP  0  0  0  0  0  0  0  0  0  0  0  0  # atno 17343 bound_to 10162
  156.2618  130.6967  151.1738 LP  0  0  0  0  0  0  0  0  0  0  0  0  # atno 17370 bound_to 10713
  157.7323  131.0601  150.5636 LP  0  0  0  0  0  0  0  0  0  0  0  0  # atno 17371 bound_to 10713
  141.2213  133.7278  156.8827 LP  0  0  0  0  0  0  0  0  0  0  0  0  # atno 17394 bound_to 11000
  140.1690  134.9113  157.2809 LP  0  0  0  0  0  0  0  0  0  0  0  0  # atno 17395 bound_to 11000

$$$$
