#       Name:                AV-unprocessed.smi:1218
#       Creating user name   scv26
#       Creation time:       Fri Mar 27 04:15:54 2020


#       File generated by GOLD software.
#

@<TRIPOS>MOLECULE
AV-unprocessed.smi:1218
    50    51     1
SMALL
NO_CHARGES


@<TRIPOS>ATOM
      1 ****        -5.5972   2.5884  -1.1061 C.3            1 S1                 0.0000
      2 ****        -4.0617   2.5536  -1.0802 C.3            1 S1                 0.0000
      3 ****        -3.4912   3.0091  -2.4339 C.3            1 S1                 0.0000
      4 ****        -3.5585   1.1473  -0.6891 C.3            1 S1                 0.0000
      5 ****        -2.0868   1.0864  -0.4953 N.4            1 S1                 1.0000
      6 ****        -1.6323   1.6776   0.7874 C.3            1 S1                 0.0000
      7 ****        -0.1021   1.5987   0.9027 C.3            1 S1                 0.0000
      8 ****         0.3129   0.2464   0.7693 O.3            1 S1                 0.0000
      9 ****        -0.0189  -0.3016  -0.5025 C.3            1 S1                 0.0000
     10 ****         0.5503  -1.7288  -0.5979 C.3            1 S1                 0.0000
     11 ****         2.0099  -1.7341  -0.5944 N.am           1 S1                 0.0000
     12 ****         2.7797  -1.8063   0.5026 C.2            1 S1                 0.0000
     13 ****         2.3196  -1.8721   1.6435 O.2            1 S1                 0.0000
     14 ****         4.2940  -1.7932   0.2619 C.3            1 S1                 0.0000
     15 ****         5.0385  -2.3859   1.3612 N.pl3          1 S1                 0.0000
     16 ****         5.1727  -3.7204   1.6856 C.2            1 S1                 0.0000
     17 ****         5.9633  -3.7914   2.7965 C.2            1 S1                 0.0000
     18 ****         6.2706  -2.4311   3.0800 C.2            1 S1                 0.0000
     19 ****         5.7181  -1.5927   2.2181 N.2            1 S1                 0.0000
     20 ****        -1.5536  -0.2887  -0.6492 C.3            1 S1                 0.0000
     21 ****        -5.9982   1.8971  -1.8480 H              1 S1                 0.0000
     22 ****        -5.9649   3.5860  -1.3487 H              1 S1                 0.0000
     23 ****        -6.0134   2.3137  -0.1362 H              1 S1                 0.0000
     24 ****        -3.7461   3.2718  -0.3239 H              1 S1                 0.0000
     25 ****        -3.7786   2.3272  -3.2350 H              1 S1                 0.0000
     26 ****        -2.4025   3.0583  -2.4127 H              1 S1                 0.0000
     27 ****        -3.8549   4.0024  -2.6987 H              1 S1                 0.0000
     28 ****        -4.0530   0.8000   0.2195 H              1 S1                 0.0000
     29 ****        -3.8497   0.4501  -1.4764 H              1 S1                 0.0000
     30 ****        -1.9436   2.7188   0.8622 H              1 S1                 0.0000
     31 ****        -2.0935   1.1452   1.6207 H              1 S1                 0.0000
     32 ****         0.3810   2.2191   0.1461 H              1 S1                 0.0000
     33 ****         0.2208   1.9721   1.8747 H              1 S1                 0.0000
     34 ****         0.4273   0.3094  -1.2897 H              1 S1                 0.0000
     35 ****         0.1575  -2.3562   0.2042 H              1 S1                 0.0000
     36 ****         0.2265  -2.1897  -1.5315 H              1 S1                 0.0000
     37 ****         2.4693  -1.6817  -1.4922 H              1 S1                 0.0000
     38 ****         4.5324  -2.3448  -0.6485 H              1 S1                 0.0000
     39 ****         4.6249  -0.7644   0.1108 H              1 S1                 0.0000
     40 ****         4.6963  -4.4982   1.1070 H              1 S1                 0.0000
     41 ****         6.2742  -4.6793   3.3264 H              1 S1                 0.0000
     42 ****         6.8749  -2.0305   3.8806 H              1 S1                 0.0000
     43 ****        -2.0096  -0.9407   0.0979 H              1 S1                 0.0000
     44 ****        -1.8306  -0.6798  -1.6291 H              1 S1                 0.0000
     45 ****        -1.6751   1.6335  -1.2380 H              1 S1                 0.0000
     46 ****        -0.1335  -0.2979   1.4796 LP             1 S1                 0.0000
     47 ****         1.3047   0.2017   0.8891 LP             1 S1                 0.0000
     48 ****         1.3296  -1.8733   1.7840 LP             1 S1                 0.0000
     49 ****         2.9362  -1.9243   2.4290 LP             1 S1                 0.0000
     50 ****         5.7880  -0.5953   2.2041 LP             1 S1                 0.0000
@<TRIPOS>BOND
    1    1    2 1     
    2    1   21 1     
    3    1   22 1     
    4    1   23 1     
    5    2    3 1     
    6    2    4 1     
    7    2   24 1     
    8    3   25 1     
    9    3   26 1     
   10    3   27 1     
   11    4    5 1     
   12    4   28 1     
   13    4   29 1     
   14    5   20 1     
   15    5    6 1     
   16    5   45 1     
   17    6    7 1     
   18    6   30 1     
   19    6   31 1     
   20    7    8 1     
   21    7   32 1     
   22    7   33 1     
   23    8    9 1     
   24    9   10 1     
   25    9   20 1     
   26    9   34 1     
   27   10   11 1     
   28   10   35 1     
   29   10   36 1     
   30   11   12 am    
   31   11   37 1     
   32   12   13 2     
   33   12   14 1     
   34   14   15 1     
   35   14   38 1     
   36   14   39 1     
   37   15   19 1     
   38   15   16 1     
   39   16   17 2     
   40   16   40 1     
   41   17   18 1     
   42   17   41 1     
   43   18   19 2     
   44   18   42 1     
   45   20   43 1     
   46   20   44 1     
   47    8   46 1     
   48    8   47 1     
   49   13   48 1     
   50   13   49 1     
   51   19   50 1     
@<TRIPOS>SUBSTRUCTURE
      1 S1             1
@<TRIPOS>SET
LONE_PAIRS      STATIC     ATOMS    <user>   **** ""
5 46 47 48 49 50
DONOR_HYDROGENS      STATIC     ATOMS    <user>   **** ""
2 45 37
ATOM$BLUE        STATIC     ATOMS    COLORGROUP SYSTEM
5 46 47 48 49 50
ATOM$RED        STATIC     ATOMS    COLORGROUP SYSTEM
2 45 37
