#       Name:                AV-unprocessed.smi:1217
#       Creating user name   scv26
#       Creation time:       Fri Mar 27 04:15:51 2020


#       File generated by GOLD software.
#

@<TRIPOS>MOLECULE
AV-unprocessed.smi:1217
    39    40     1
SMALL
NO_CHARGES


@<TRIPOS>ATOM
      1 ****        -2.2841  -1.5334  -2.0422 C.3            1 S1                 0.0000
      2 ****        -1.7842  -0.7281  -0.8337 C.3            1 S1                 0.0000
      3 ****        -0.3293  -0.6067  -0.9194 N.am           1 S1                 0.0000
      4 ****         0.3784   0.5183  -0.7360 C.2            1 S1                 0.0000
      5 ****        -0.1294   1.6060  -0.4619 O.2            1 S1                 0.0000
      6 ****         1.6953   0.2915  -0.8858 N.am           1 S1                 0.0000
      7 ****         2.7660   1.2169  -0.7614 C.ar           1 S1                 0.0000
      8 ****         4.0544   0.6736  -0.9685 C.ar           1 S1                 0.0000
      9 ****         5.1834   1.5096  -0.8677 C.ar           1 S1                 0.0000
     10 ****         4.9951   2.8690  -0.5613 C.ar           1 S1                 0.0000
     11 ****         3.6793   3.3292  -0.3692 C.ar           1 S1                 0.0000
     12 ****         2.5960   2.5300  -0.4659 N.ar           1 S1                 0.0000
     13 ****        -2.1945  -1.3827   0.5019 C.3            1 S1                 0.0000
     14 ****        -1.7328  -0.6390   1.7577 C.3            1 S1                 0.0000
     15 ****        -2.7347  -1.1170   2.7825 C.3            1 S1                 0.0000
     16 ****        -4.0179  -1.1651   1.9592 C.3            1 S1                 0.0000
     17 ****        -3.6152  -1.4342   0.6186 O.3            1 S1                 0.0000
     18 ****        -3.3714  -1.6142  -2.0399 H              1 S1                 0.0000
     19 ****        -1.8763  -2.5448  -2.0437 H              1 S1                 0.0000
     20 ****        -1.9948  -1.0553  -2.9786 H              1 S1                 0.0000
     21 ****        -2.2430   0.2608  -0.8873 H              1 S1                 0.0000
     22 ****         0.1779  -1.4517  -1.1373 H              1 S1                 0.0000
     23 ****         1.9637  -0.6548  -1.1110 H              1 S1                 0.0000
     24 ****         4.1815  -0.3734  -1.2024 H              1 S1                 0.0000
     25 ****         6.1762   1.1136  -1.0226 H              1 S1                 0.0000
     26 ****         5.8360   3.5411  -0.4754 H              1 S1                 0.0000
     27 ****         3.4911   4.3657  -0.1320 H              1 S1                 0.0000
     28 ****        -1.8241  -2.4086   0.5452 H              1 S1                 0.0000
     29 ****        -0.7015  -0.8629   2.0317 H              1 S1                 0.0000
     30 ****        -1.8254   0.4399   1.6233 H              1 S1                 0.0000
     31 ****        -2.4692  -2.1173   3.1272 H              1 S1                 0.0000
     32 ****        -2.8090  -0.4624   3.6511 H              1 S1                 0.0000
     33 ****        -4.7173  -1.9177   2.3241 H              1 S1                 0.0000
     34 ****        -4.5204  -0.1975   1.9801 H              1 S1                 0.0000
     35 ****        -1.1216   1.6843  -0.3646 LP             1 S1                 0.0000
     36 ****         0.4504   2.4111  -0.3366 LP             1 S1                 0.0000
     37 ****         1.6788   2.9014  -0.3214 LP             1 S1                 0.0000
     38 ****        -3.9338  -2.3450   0.3562 LP             1 S1                 0.0000
     39 ****        -4.0200  -0.7514   0.0104 LP             1 S1                 0.0000
@<TRIPOS>BOND
    1    1    2 1     
    2    1   18 1     
    3    1   19 1     
    4    1   20 1     
    5    2    3 1     
    6    2   13 1     
    7    2   21 1     
    8    3    4 am    
    9    3   22 1     
   10    4    5 2     
   11    4    6 am    
   12    6    7 1     
   13    6   23 1     
   14    7   12 ar    
   15    7    8 ar    
   16    8    9 ar    
   17    8   24 1     
   18    9   10 ar    
   19    9   25 1     
   20   10   11 ar    
   21   10   26 1     
   22   11   12 ar    
   23   11   27 1     
   24   13   17 1     
   25   13   14 1     
   26   13   28 1     
   27   14   15 1     
   28   14   29 1     
   29   14   30 1     
   30   15   16 1     
   31   15   31 1     
   32   15   32 1     
   33   16   17 1     
   34   16   33 1     
   35   16   34 1     
   36    5   35 1     
   37    5   36 1     
   38   12   37 1     
   39   17   38 1     
   40   17   39 1     
@<TRIPOS>SUBSTRUCTURE
      1 S1             1
@<TRIPOS>SET
LONE_PAIRS      STATIC     ATOMS    <user>   **** ""
5 35 36 37 38 39
DONOR_HYDROGENS      STATIC     ATOMS    <user>   **** ""
2 22 23
ATOM$BLUE        STATIC     ATOMS    COLORGROUP SYSTEM
5 35 36 37 38 39
ATOM$RED        STATIC     ATOMS    COLORGROUP SYSTEM
2 22 23
