#       Name:                AV-unprocessed.smi:261
#       Creating user name   scv26
#       Creation time:       Thu Mar 26 21:18:36 2020


#       File generated by GOLD software.
#

@<TRIPOS>MOLECULE
AV-unprocessed.smi:261
    63    66     1
SMALL
NO_CHARGES


@<TRIPOS>ATOM
      1 ****        -4.9126   2.6052  -2.6130 C.3            1 S1                 0.0000
      2 ****        -5.0278   1.2439  -2.2322 O.3            1 S1                 0.0000
      3 ****        -3.8441   0.7192  -1.6495 C.3            1 S1                 0.0000
      4 ****        -4.0875  -0.6775  -1.0907 C.3            1 S1                 0.0000
      5 ****        -2.6731  -1.2673  -1.0212 C.3            1 S1                 0.0000
      6 ****        -2.6852  -2.8023  -1.0434 C.2            1 S1                 0.0000
      7 ****        -2.6276  -3.4207   0.1385 N.am           1 S1                 0.0000
      8 ****        -2.7586  -3.4225  -2.1029 O.2            1 S1                 0.0000
      9 ****        -1.9950  -0.7016  -2.1906 N.3            1 S1                 0.0000
     10 ****        -0.6575  -0.5527  -2.0710 C.ar           1 S1                 0.0000
     11 ****         0.1269  -1.3341  -2.8522 N.ar           1 S1                 0.0000
     12 ****         1.4575  -1.2384  -2.7685 C.ar           1 S1                 0.0000
     13 ****         2.1906  -0.4451  -1.9835 N.ar           1 S1                 0.0000
     14 ****         1.4006   0.3415  -1.1975 C.ar           1 S1                 0.0000
     15 ****        -0.0215   0.3555  -1.1791 C.ar           1 S1                 0.0000
     16 ****        -0.4770   1.2850  -0.2516 N.2            1 S1                 0.0000
     17 ****         0.6156   1.7869   0.2561 C.2            1 S1                 0.0000
     18 ****         1.7877   1.2707  -0.2492 N.pl3          1 S1                 0.0000
     19 ****         3.1378   1.6329   0.1426 C.3            1 S1                 0.0000
     20 ****         3.8586   0.5060   0.9116 C.3            1 S1                 0.0000
     21 ****         5.1074   0.9848   1.3689 O.3            1 S1                 0.0000
     22 ****         3.0442  -0.0985   2.0782 C.3            1 S1                 0.0000
     23 ****         3.7686  -1.1279   2.9618 C.3            1 S1                 0.0000
     24 ****         3.4351  -0.6905   4.3804 C.3            1 S1                 0.0000
     25 ****         2.2738   0.2803   4.1940 C.3            1 S1                 0.0000
     26 ****         2.5796   0.9131   2.9632 O.3            1 S1                 0.0000
     27 ****        -2.7201   0.4749  -2.6617 C.3            1 S1                 0.0000
     28 ****        -3.4899   1.3628  -0.8418 H              1 S1                 0.0000
     29 ****        -2.1917  -0.9242  -0.1031 H              1 S1                 0.0000
     30 ****        -5.8591   2.9471  -3.0315 H              1 S1                 0.0000
     31 ****        -4.1426   2.7460  -3.3721 H              1 S1                 0.0000
     32 ****        -4.6779   3.2359  -1.7547 H              1 S1                 0.0000
     33 ****        -4.5853  -0.6572  -0.1207 H              1 S1                 0.0000
     34 ****        -4.7145  -1.2480  -1.7790 H              1 S1                 0.0000
     35 ****        -2.6326  -4.4294   0.1815 H              1 S1                 0.0000
     36 ****        -2.5792  -2.8748   0.9866 H              1 S1                 0.0000
     37 ****         2.0143  -1.8931  -3.4227 H              1 S1                 0.0000
     38 ****         0.5962   2.5447   1.0261 H              1 S1                 0.0000
     39 ****         3.6974   1.9001  -0.7546 H              1 S1                 0.0000
     40 ****         3.0846   2.5327   0.7571 H              1 S1                 0.0000
     41 ****         4.0788  -0.3002   0.2112 H              1 S1                 0.0000
     42 ****         4.9504   1.6631   2.0081 H              1 S1                 0.0000
     43 ****         2.1555  -0.5853   1.6719 H              1 S1                 0.0000
     44 ****         3.3909  -2.1307   2.7591 H              1 S1                 0.0000
     45 ****         4.8475  -1.1500   2.8085 H              1 S1                 0.0000
     46 ****         3.1872  -1.5247   5.0374 H              1 S1                 0.0000
     47 ****         4.2873  -0.1635   4.8112 H              1 S1                 0.0000
     48 ****         1.3268  -0.2548   4.1056 H              1 S1                 0.0000
     49 ****         2.1895   1.0000   5.0085 H              1 S1                 0.0000
     50 ****        -3.1367   0.2306  -3.6398 H              1 S1                 0.0000
     51 ****        -2.0930   1.3595  -2.7877 H              1 S1                 0.0000
     52 ****        -5.2467   0.7047  -3.0454 LP             1 S1                 0.0000
     53 ****        -5.7711   1.1623  -1.5682 LP             1 S1                 0.0000
     54 ****        -2.8117  -2.9269  -2.9698 LP             1 S1                 0.0000
     55 ****        -2.7652  -4.4225  -2.0975 LP             1 S1                 0.0000
     56 ****        -2.0345  -1.3859  -2.9187 LP             1 S1                 0.0000
     57 ****        -0.2892  -1.9817  -3.4906 LP             1 S1                 0.0000
     58 ****         3.1904  -0.4297  -1.9732 LP             1 S1                 0.0000
     59 ****        -1.4233   1.5159  -0.0255 LP             1 S1                 0.0000
     60 ****         5.6279   1.3581   0.6010 LP             1 S1                 0.0000
     61 ****         5.6225   0.2375   1.7888 LP             1 S1                 0.0000
     62 ****         1.7609   1.3477   2.5880 LP             1 S1                 0.0000
     63 ****         3.2906   1.6030   3.0993 LP             1 S1                 0.0000
@<TRIPOS>BOND
    1    1    2 1     
    2    1   30 1     
    3    1   31 1     
    4    1   32 1     
    5    2    3 1     
    6    3   28 1     
    7    3   27 1     
    8    3    4 1     
    9    4    5 1     
   10    4   33 1     
   11    4   34 1     
   12    5   29 1     
   13    5    6 1     
   14    5    9 1     
   15    6    7 am    
   16    6    8 2     
   17    7   35 1     
   18    7   36 1     
   19    9   10 1     
   20    9   27 1     
   21   10   15 ar    
   22   10   11 ar    
   23   11   12 ar    
   24   12   13 ar    
   25   12   37 1     
   26   13   14 ar    
   27   14   18 1     
   28   14   15 ar    
   29   15   16 1     
   30   16   17 2     
   31   17   18 1     
   32   17   38 1     
   33   18   19 1     
   34   19   20 1     
   35   19   39 1     
   36   19   40 1     
   37   20   21 1     
   38   20   22 1     
   39   20   41 1     
   40   21   42 1     
   41   22   26 1     
   42   22   23 1     
   43   22   43 1     
   44   23   24 1     
   45   23   44 1     
   46   23   45 1     
   47   24   25 1     
   48   24   46 1     
   49   24   47 1     
   50   25   26 1     
   51   25   48 1     
   52   25   49 1     
   53   27   50 1     
   54   27   51 1     
   55    2   52 1     
   56    2   53 1     
   57    8   54 1     
   58    8   55 1     
   59    9   56 1     
   60   11   57 1     
   61   13   58 1     
   62   16   59 1     
   63   21   60 1     
   64   21   61 1     
   65   26   62 1     
   66   26   63 1     
@<TRIPOS>SUBSTRUCTURE
      1 S1             1
@<TRIPOS>SET
LONE_PAIRS      STATIC     ATOMS    <user>   **** ""
12 52 53 54 55 56 57 58 59 60 61 62 63
DONOR_HYDROGENS      STATIC     ATOMS    <user>   **** ""
3 35 36 42
ATOM$BLUE        STATIC     ATOMS    COLORGROUP SYSTEM
12 52 53 54 55 56 57 58 59 60 61 62 63
ATOM$RED        STATIC     ATOMS    COLORGROUP SYSTEM
3 35 36 42
