AV-unprocessed.smi:66|AV-procd|sdf|618|dock3
  -GOLD-   2262016513D 1   1.00000     0.00000
 Structure written by MMmdl.
 28 30  0  0  0  0  0  0  0  0  2 V2000
  153.6372  141.2075  159.7670 O   0  0  0  0  0  0  0  0  0  0  0  0
  153.1961  140.4531  158.8730 C   0  0  0  0  0  0  0  0  0  0  0  0
  153.7955  139.4621  158.3991 O   0  5  0  0  0  0  0  0  0  0  0  0
  151.8044  140.7830  158.3134 C   0  0  1  0  0  0  0  0  0  0  0  0
  151.2299  142.0715  158.9260 C   0  0  0  0  0  0  0  0  0  0  0  0
  150.3000  142.5901  157.8338 C   0  0  1  0  0  0  0  0  0  0  0  0
  150.0386  143.9727  157.9500 O   0  0  0  0  0  0  0  0  0  0  0  0
  151.0493  142.2429  156.5481 C   0  0  0  0  0  0  0  0  0  0  0  0
  151.8235  141.0513  156.8717 N   0  0  0  0  0  0  0  0  0  0  0  0
  151.9744  140.0684  155.9447 C   0  0  0  0  0  0  0  0  0  0  0  0
  153.1815  139.4566  155.8107 N   0  0  0  0  0  0  0  0  0  0  0  0
  153.3573  138.4875  154.9079 C   0  0  0  0  0  0  0  0  0  0  0  0
  152.4743  137.9782  154.0466 N   0  0  0  0  0  0  0  0  0  0  0  0
  151.2644  138.5902  154.1718 C   0  0  0  0  0  0  0  0  0  0  0  0
  150.1122  138.3451  153.4560 N   0  0  0  0  0  0  0  0  0  0  0  0
  149.1712  139.2186  153.9419 C   0  0  0  0  0  0  0  0  0  0  0  0
  149.5957  140.0016  154.8964 N   0  0  0  0  0  0  0  0  0  0  0  0
  150.9262  139.6322  155.0821 C   0  0  0  0  0  0  0  0  0  0  0  0
  150.0391  137.6496  152.7279 H   0  0  0  0  0  0  0  0  0  0  0  0
  151.1198  139.9574  158.5136 H   0  0  0  0  0  0  0  0  0  0  0  0
  150.7091  141.8901  159.8665 H   0  0  0  0  0  0  0  0  0  0  0  0
  152.0202  142.8004  159.1173 H   0  0  0  0  0  0  0  0  0  0  0  0
  149.3588  142.0395  157.8687 H   0  0  0  0  0  0  0  0  0  0  0  0
  149.5807  144.2547  157.1728 H   0  0  0  0  0  0  0  0  0  0  0  0
  150.3517  142.0916  155.7233 H   0  0  0  0  0  0  0  0  0  0  0  0
  151.7449  143.0350  156.2679 H   0  0  0  0  0  0  0  0  0  0  0  0
  154.3483  138.0599  154.8716 H   0  0  0  0  0  0  0  0  0  0  0  0
  148.1601  139.2575  153.5638 H   0  0  0  0  0  0  0  0  0  0  0  0
  1  2  2  0  0  0  0
  2  3  1  0  0  0  0
  2  4  1  0  0  0  0
  4  5  1  0  0  0  0
  4 20  1  0  0  0  0
  4  9  1  0  0  0  0
  5  6  1  0  0  0  0
  5 21  1  0  0  0  0
  5 22  1  0  0  0  0
  6  7  1  0  0  0  0
  6  8  1  0  0  0  0
  6 23  1  0  0  0  0
  7 24  1  0  0  0  0
  8 25  1  0  0  0  0
  8 26  1  0  0  0  0
  8  9  1  0  0  0  0
  9 10  1  0  0  0  0
 10 11  1  0  0  0  0
 10 18  2  0  0  0  0
 11 12  2  0  0  0  0
 12 27  1  0  0  0  0
 12 13  1  0  0  0  0
 13 14  2  0  0  0  0
 14 15  1  0  0  0  0
 14 18  1  0  0  0  0
 15 16  1  0  0  0  0
 15 19  1  0  0  0  0
 16 17  2  0  0  0  0
 16 28  1  0  0  0  0
 17 18  1  0  0  0  0
M  CHG  1   3  -1
M  END
> <s_m_source_file>
AV-unprocessed.smi

> <i_m_source_file_index>
66

> <i_lp_mmshare_version>
43012

> <i_f3d_flags>
0

> <s_epik_input>
Tz1DKFtPSF0pW0NAQEhdMVtDSDJdW0NAQEhdKFtPSF0pW0NIMl1OMWMobltjSF1uMiljKGMyMylbbkhdW2NIXW4z

> <s_epik_cmdline>
J2VwaWtfcHl0aG9uJywgJy1waCcsICc3LjAnLCAnLXRuJywgJzgnLCAnLW1hJywgJzIwMCcsICctbWV0YWxfYmluZGluZycsICctaW1hZScsICc8aW5maWxlLm1hZT4nLCAnLW9tYWUnLCAnPG91dGZpbGUubWFlPic=

> <r_lp_tautomer_probability>
0.955585

> <r_epik_Ionization_Penalty>
0.00455415

> <r_epik_Ionization_Penalty_Charging>
0.000248217

> <r_epik_Ionization_Penalty_Neutral>
0.00430593

> <r_epik_State_Penalty>
0.0207074

> <r_epik_Charging_Adjusted_Penalty>
0.0209557

> <i_epik_Tot_Q>
-1

> <i_epik_Tot_abs_Q>
1

> <r_epik_Metal_State_Penalty>
0.337372

> <b_epik_Metal_Only>
0

> <s_lp_Force_Field>
OPLS_2005

> <r_lp_Energy>
25.5493

> <b_lp_Chiralities_Consistent>
1

> <s_lp_Variant>
AV-unprocessed.smi:66-2

> <Gold.Version>
5.8.1

> <Gold.Id.Protein>
6NUR|6NUR_protein|mol2

> <Gold.PLP.Fitness>
44.7010

> <Gold.PLP.PLP>
-32.0398

> <Gold.PLP.part.hbond>
-6.8534

> <Gold.PLP.part.metal>
0.0000

> <Gold.PLP.part.buried>
-3.2438

> <Gold.PLP.part.nonpolar>
-21.3763

> <Gold.PLP.part.repulsive>
0.2808

> <Gold.PLP.ligand.clash>
0.0000

> <Gold.PLP.ligand.torsion>
0.9997

> <Gold.PLP.Chemscore.Hbond>
4.8149

> <Gold.PLP.Chemscore.CHOScore>
0.0000

> <Gold.PLP.Chemscore.Metal>
0.0000

> <Gold.Chemscore.Hbonds>
donor molecule, donor type, donor heavy atom, donor atom, acceptor molecule, acceptor atom, score
      L1  H     7    24       P1  8028  1.00
      L1  H    15    19       P1  7948  0.74
      P1  H  7997  8008       L1    11  0.49
      P1  H  7997  8010       L1     3  2.00
      P1  H 10752 10764       L1    13  0.17

> <Gold.PLP.Chemscore.Internal.Correction>
0.2158

> <Gold.Rescore>
     Score         DG    S(hbond)    S(metal)    S(lipo)     H(rot)  DE(clash)    DE(int)     intcor
     10.26     -14.28       2.65        0.00      38.66       1.78       0.48       3.55       ----

> <Gold.Chemscore.Fitness>
10.2578

> <Gold.Chemscore.DG>
-14.2799

> <Gold.Chemscore.ZeroCoef>
-5.4800

> <Gold.Chemscore.Hbond>
2.6480

> <Gold.Chemscore.Metal>
0.0000

> <Gold.Chemscore.Lipo>
38.6587

> <Gold.Chemscore.Internal_Hbond>
0.0000

> <Gold.Chemscore.DEClash>
0.4763

> <Gold.Chemscore.DEInternal>
3.5458

> <Gold.Chemscore.Rot>
1.7842

> <Gold.Chemscore.Internal.Correction>
   9.000000E+99

> <Gold.Chemscore.Hbonds>
donor molecule, donor type, donor heavy atom, donor atom, acceptor molecule, acceptor atom, score
      L1  H     7    24       P1  8028  0.35
      L1  H    15    19       P1  7948  0.09
      P1  H  7997  8008       L1    11  0.11
      P1  H  7997  8010       L1     3  0.67
      P1  H 10752 10764       L1    13  0.06

> <Gold.Chemscore.Hbond.Weighted>
-8.8445

> <Gold.Chemscore.Metal.Weighted>
-0.0000

> <Gold.Chemscore.Lipo.Weighted>
-4.5231

> <Gold.Chemscore.Internal_Hbond.Weighted>
0.0000

> <Gold.Chemscore.DEClash.Weighted>
0.4763

> <Gold.Chemscore.DEInternal.Weighted>
3.5458

> <Gold.Chemscore.Rot.Weighted>
4.5676

> <Gold.Chemscore.Internal.Correction.Weighted>
   9.000000E+99

> <Gold.Protein.RotatedTorsions>
[ 6907 6896 6895 6894 ] final  136.69 input  -60.11 | X-H torsion
[ 7974 7965 7964 7962 ] final  -82.72 input  175.53 | X-H torsion
[ 8008 7997 7996 7995 ] final    4.77 input   59.86 | X-H torsion
[ 10167 10162 10161 10158 ] final  158.09 input  -65.29 | X-H torsion
[ 10718 10713 10712 10709 ] final   33.82 input   66.30 | X-H torsion
[ 10763 10752 10751 10750 ] final  -91.72 input  -60.55 | X-H torsion
[ 11005 11000 10999 10996 ] final   67.87 input  -57.11 | X-H torsion

> <Gold.Protein.ActiveResidues>
 VAL166  LYS551  ARG553  GLY616  TRP617  ASP618  TYR619  PRO620  LYS621  CYS622 
 ASP623  PHE694  ASN695  SER759  ASP760  ASP761  ALA762  ILE779  LEU786  VAL792 
 PHE793  MET794  SER795  GLU796  ALA797  LYS798  CYS799  TRP800  GLU811  SER814 

> <Gold.Protein.RotatedAtoms>
  152.2865  133.5520  159.5529 H   0  0  0  0  0  0  0  0  0  0  0  0  # atno 6907 bound_to 6896
  150.7217  134.0490  159.3801 H   0  0  0  0  0  0  0  0  0  0  0  0  # atno 6908 bound_to 6896
  151.8398  135.0594  160.0497 H   0  0  0  0  0  0  0  0  0  0  0  0  # atno 6909 bound_to 6896
  145.5296  140.9523  143.1610 H   0  0  0  0  0  0  0  0  0  0  0  0  # atno 7974 bound_to 7965
  154.7201  140.2710  155.6549 H   0  0  0  0  0  0  0  0  0  0  0  0  # atno 8008 bound_to 7997
  156.2821  140.2736  156.1794 H   0  0  0  0  0  0  0  0  0  0  0  0  # atno 8009 bound_to 7997
  155.0519  140.0371  157.2536 H   0  0  0  0  0  0  0  0  0  0  0  0  # atno 8010 bound_to 7997
  139.4825  144.4856  151.8381 H   0  0  0  0  0  0  0  0  0  0  0  0  # atno 10167 bound_to 10162
  157.3027  130.7359  149.6676 H   0  0  0  0  0  0  0  0  0  0  0  0  # atno 10718 bound_to 10713
  154.6789  135.5257  153.8236 H   0  0  0  0  0  0  0  0  0  0  0  0  # atno 10763 bound_to 10752
  153.0551  135.6547  154.0607 H   0  0  0  0  0  0  0  0  0  0  0  0  # atno 10764 bound_to 10752
  154.0497  135.2970  155.3322 H   0  0  0  0  0  0  0  0  0  0  0  0  # atno 10765 bound_to 10752
  139.9745  134.6845  156.0381 H   0  0  0  0  0  0  0  0  0  0  0  0  # atno 11005 bound_to 11000
  144.7633  139.6905  143.7225 LP  0  0  0  0  0  0  0  0  0  0  0  0  # atno 17320 bound_to 7965
  146.2053  139.5373  142.9717 LP  0  0  0  0  0  0  0  0  0  0  0  0  # atno 17321 bound_to 7965
  140.4336  144.2082  150.5888 LP  0  0  0  0  0  0  0  0  0  0  0  0  # atno 17342 bound_to 10162
  140.4754  143.2398  151.9030 LP  0  0  0  0  0  0  0  0  0  0  0  0  # atno 17343 bound_to 10162
  155.9672  130.4275  150.4747 LP  0  0  0  0  0  0  0  0  0  0  0  0  # atno 17370 bound_to 10713
  157.2731  131.0591  151.2247 LP  0  0  0  0  0  0  0  0  0  0  0  0  # atno 17371 bound_to 10713
  141.1423  133.6562  156.3765 LP  0  0  0  0  0  0  0  0  0  0  0  0  # atno 17394 bound_to 11000
  140.5223  134.6292  157.5322 LP  0  0  0  0  0  0  0  0  0  0  0  0  # atno 17395 bound_to 11000

$$$$
