AV-unprocessed.smi:3329|AV-procd|sdf|12796|dock8
  -GOLD-   2272019153D 1   1.00000     0.00000
 Structure written by MMmdl.
 42 43  0  0  0  0  0  0  0  0  2 V2000
  154.3014  140.4832  161.3177 C   0  0  0  0  0  0  0  0  0  0  0  0
  153.6570  141.7800  160.9200 C   0  0  0  0  0  0  0  0  0  0  0  0
  152.8982  142.6637  161.7389 C   0  0  0  0  0  0  0  0  0  0  0  0
  152.4657  143.7276  161.0820 N   0  0  0  0  0  0  0  0  0  0  0  0
  152.9345  143.5651  159.8264 N   0  0  0  0  0  0  0  0  0  0  0  0
  152.6370  144.5560  158.8059 C   0  0  0  0  0  0  0  0  0  0  0  0
  151.7362  144.0061  157.6866 C   0  0  0  0  0  0  0  0  0  0  0  0
  150.3093  144.2451  157.9793 N   0  3  0  0  0  0  0  0  0  0  0  0
  149.6101  143.0900  158.5768 C   0  0  0  0  0  0  0  0  0  0  0  0
  149.5148  141.9136  157.6043 C   0  0  0  0  0  0  0  0  0  0  0  0
  149.9971  140.8210  157.9022 O   0  0  0  0  0  0  0  0  0  0  0  0
  148.8828  142.1617  156.4441 N   0  0  0  0  0  0  0  0  0  0  0  0
  148.6302  141.2414  155.3264 C   0  0  2  0  0  0  0  0  0  0  0  0
  147.7109  140.1408  155.8814 C   0  0  0  0  0  0  0  0  0  0  0  0
  149.8722  140.5937  154.8604 C   0  0  0  0  0  0  0  0  0  0  0  0
  150.8462  140.0850  154.4968 N   0  0  0  0  0  0  0  0  0  0  0  0
  147.9515  141.8692  154.1065 C   0  0  0  0  0  0  0  0  0  0  0  0
  146.4958  142.2794  154.0603 C   0  0  0  0  0  0  0  0  0  0  0  0
  146.9772  141.1033  153.2399 C   0  0  0  0  0  0  0  0  0  0  0  0
  153.6469  142.3912  159.6981 C   0  0  0  0  0  0  0  0  0  0  0  0
  153.5766  139.6699  161.3547 H   0  0  0  0  0  0  0  0  0  0  0  0
  154.7625  140.5483  162.3035 H   0  0  0  0  0  0  0  0  0  0  0  0
  155.0827  140.1865  160.6177 H   0  0  0  0  0  0  0  0  0  0  0  0
  152.6499  142.5633  162.7853 H   0  0  0  0  0  0  0  0  0  0  0  0
  152.1638  145.4165  159.2811 H   0  0  0  0  0  0  0  0  0  0  0  0
  153.5810  144.9079  158.3880 H   0  0  0  0  0  0  0  0  0  0  0  0
  151.9901  144.4868  156.7413 H   0  0  0  0  0  0  0  0  0  0  0  0
  151.9076  142.9372  157.5528 H   0  0  0  0  0  0  0  0  0  0  0  0
  150.2422  145.0212  158.6226 H   0  0  0  0  0  0  0  0  0  0  0  0
  150.1405  142.7659  159.4730 H   0  0  0  0  0  0  0  0  0  0  0  0
  148.6064  143.3937  158.8786 H   0  0  0  0  0  0  0  0  0  0  0  0
  148.5293  143.0987  156.3151 H   0  0  0  0  0  0  0  0  0  0  0  0
  147.4948  139.3854  155.1248 H   0  0  0  0  0  0  0  0  0  0  0  0
  146.7574  140.5501  156.2184 H   0  0  0  0  0  0  0  0  0  0  0  0
  148.1701  139.6290  156.7285 H   0  0  0  0  0  0  0  0  0  0  0  0
  148.6177  142.5400  153.5661 H   0  0  0  0  0  0  0  0  0  0  0  0
  145.8532  142.0607  154.9081 H   0  0  0  0  0  0  0  0  0  0  0  0
  146.2534  143.1955  153.5256 H   0  0  0  0  0  0  0  0  0  0  0  0
  147.0527  141.2389  152.1629 H   0  0  0  0  0  0  0  0  0  0  0  0
  146.6696  140.1105  153.5611 H   0  0  0  0  0  0  0  0  0  0  0  0
  154.0868  142.0911  158.7584 H   0  0  0  0  0  0  0  0  0  0  0  0
  149.8368  144.4977  157.1228 H   0  0  0  0  0  0  0  0  0  0  0  0
  1  2  1  0  0  0  0
  1 21  1  0  0  0  0
  1 22  1  0  0  0  0
  1 23  1  0  0  0  0
  2 20  2  0  0  0  0
  2  3  1  0  0  0  0
  3  4  2  0  0  0  0
  3 24  1  0  0  0  0
  4  5  1  0  0  0  0
  5  6  1  0  0  0  0
  5 20  1  0  0  0  0
  6  7  1  0  0  0  0
  6 25  1  0  0  0  0
  6 26  1  0  0  0  0
  7  8  1  0  0  0  0
  7 27  1  0  0  0  0
  7 28  1  0  0  0  0
  8  9  1  0  0  0  0
  8 29  1  0  0  0  0
  8 42  1  0  0  0  0
  9 10  1  0  0  0  0
  9 30  1  0  0  0  0
  9 31  1  0  0  0  0
 10 11  2  0  0  0  0
 10 12  1  0  0  0  0
 12 13  1  0  0  0  0
 12 32  1  0  0  0  0
 13 14  1  0  0  0  0
 13 15  1  0  0  0  0
 13 17  1  0  0  0  0
 14 33  1  0  0  0  0
 14 34  1  0  0  0  0
 14 35  1  0  0  0  0
 15 16  3  0  0  0  0
 17 19  1  0  0  0  0
 17 18  1  0  0  0  0
 17 36  1  0  0  0  0
 18 19  1  0  0  0  0
 18 37  1  0  0  0  0
 18 38  1  0  0  0  0
 19 39  1  0  0  0  0
 19 40  1  0  0  0  0
 20 41  1  0  0  0  0
M  CHG  1   8   1
M  END
> <s_m_source_file>
AV-unprocessed.smi

> <i_m_source_file_index>
3329

> <i_lp_mmshare_version>
43012

> <i_f3d_flags>
0

> <s_epik_input>
W0NIM11jMVtjSF1ubihbY0hdMSlbQ0gyXVtDSDJdW05IXVtDSDJdQyg9TylbTkhdW0NAQF0oW0NIM10pKEMjTilbQ0hdMltDSDJdW0NIMl0y

> <s_epik_cmdline>
J2VwaWtfcHl0aG9uJywgJy1waCcsICc3LjAnLCAnLXRuJywgJzgnLCAnLW1hJywgJzIwMCcsICctbWV0YWxfYmluZGluZycsICctaW1hZScsICc8aW5maWxlLm1hZT4nLCAnLW9tYWUnLCAnPG91dGZpbGUubWFlPic=

> <r_lp_tautomer_probability>
1

> <r_epik_Ionization_Penalty>
0.350291

> <r_epik_Ionization_Penalty_Charging>
0.350239

> <r_epik_Ionization_Penalty_Neutral>
5.12768e-05

> <r_epik_State_Penalty>
0.347656

> <r_epik_Charging_Adjusted_Penalty>
0.697895

> <i_epik_Tot_Q>
1

> <i_epik_Tot_abs_Q>
1

> <r_epik_Metal_State_Penalty>
0.371739

> <b_epik_Metal_Only>
0

> <s_lp_Force_Field>
OPLS_2005

> <r_lp_Energy>
13.221

> <b_lp_Chiralities_Consistent>
1

> <s_lp_Variant>
AV-unprocessed.smi:3329-2

> <Gold.Version>
5.8.1

> <Gold.Id.Protein>
6NUR|6NUR_protein|mol2

> <Gold.PLP.Fitness>
59.7898

> <Gold.PLP.PLP>
-48.8751

> <Gold.PLP.part.hbond>
-3.8219

> <Gold.PLP.part.metal>
0.0000

> <Gold.PLP.part.buried>
-6.3849

> <Gold.PLP.part.nonpolar>
-39.6229

> <Gold.PLP.part.repulsive>
0.2789

> <Gold.PLP.ligand.clash>
0.0000

> <Gold.PLP.ligand.torsion>
1.3159

> <Gold.PLP.Chemscore.Hbond>
4.0000

> <Gold.PLP.Chemscore.CHOScore>
0.0000

> <Gold.PLP.Chemscore.Metal>
0.0000

> <Gold.Chemscore.Hbonds>
donor molecule, donor type, donor heavy atom, donor atom, acceptor molecule, acceptor atom, score
      L1  H     8    42       P1  8028  2.00
      L1  H    12    32       P1  8028  0.93
      P1  H  7989  7998       L1    16  0.91

> <Gold.PLP.Chemscore.Internal.Correction>
1.5466

> <Gold.Rescore>
     Score         DG    S(hbond)    S(metal)    S(lipo)     H(rot)  DE(clash)    DE(int)     intcor
     17.47     -19.45       2.45        0.00     101.75       2.40       0.04       1.93       ----

> <Gold.Chemscore.Fitness>
17.4746

> <Gold.Chemscore.DG>
-19.4470

> <Gold.Chemscore.ZeroCoef>
-5.4800

> <Gold.Chemscore.Hbond>
2.4547

> <Gold.Chemscore.Metal>
0.0000

> <Gold.Chemscore.Lipo>
101.7539

> <Gold.Chemscore.Internal_Hbond>
0.0000

> <Gold.Chemscore.DEClash>
0.0414

> <Gold.Chemscore.DEInternal>
1.9309

> <Gold.Chemscore.Rot>
2.3972

> <Gold.Chemscore.Internal.Correction>
   9.000000E+99

> <Gold.Chemscore.Hbonds>
donor molecule, donor type, donor heavy atom, donor atom, acceptor molecule, acceptor atom, score
      L1  H     8    42       P1  8028  0.35
      L1  H    12    32       P1  8028  0.79
      P1  H  7989  7998       L1    16  0.79

> <Gold.Chemscore.Hbond.Weighted>
-8.1986

> <Gold.Chemscore.Metal.Weighted>
-0.0000

> <Gold.Chemscore.Lipo.Weighted>
-11.9052

> <Gold.Chemscore.Internal_Hbond.Weighted>
0.0000

> <Gold.Chemscore.DEClash.Weighted>
0.0414

> <Gold.Chemscore.DEInternal.Weighted>
1.9309

> <Gold.Chemscore.Rot.Weighted>
6.1369

> <Gold.Chemscore.Internal.Correction.Weighted>
   9.000000E+99

> <Gold.Protein.RotatedTorsions>
[ 6907 6896 6895 6894 ] final -116.66 input  -60.11 | X-H torsion
[ 7974 7965 7964 7962 ] final   22.31 input  175.53 | X-H torsion
[ 8008 7997 7996 7995 ] final    5.65 input   59.86 | X-H torsion
[ 10167 10162 10161 10158 ] final  -45.60 input  -65.29 | X-H torsion
[ 10718 10713 10712 10709 ] final  -60.26 input   66.30 | X-H torsion
[ 10763 10752 10751 10750 ] final  130.20 input  -60.55 | X-H torsion
[ 11005 11000 10999 10996 ] final  -76.04 input  -57.11 | X-H torsion

> <Gold.Protein.ActiveResidues>
 VAL166  LYS551  ARG553  GLY616  TRP617  ASP618  TYR619  PRO620  LYS621  CYS622 
 ASP623  PHE694  ASN695  SER759  ASP760  ASP761  ALA762  ILE779  LEU786  VAL792 
 PHE793  MET794  SER795  GLU796  ALA797  LYS798  CYS799  TRP800  GLU811  SER814 

> <Gold.Protein.RotatedAtoms>
  150.8074  133.8485  159.3198 H   0  0  0  0  0  0  0  0  0  0  0  0  # atno 6907 bound_to 6896
  151.6280  135.1024  160.0125 H   0  0  0  0  0  0  0  0  0  0  0  0  # atno 6908 bound_to 6896
  152.4165  133.7007  159.6479 H   0  0  0  0  0  0  0  0  0  0  0  0  # atno 6909 bound_to 6896
  146.2034  139.7903  142.8744 H   0  0  0  0  0  0  0  0  0  0  0  0  # atno 7974 bound_to 7965
  154.7311  140.2730  155.6455 H   0  0  0  0  0  0  0  0  0  0  0  0  # atno 8008 bound_to 7997
  156.2850  140.2715  156.1936 H   0  0  0  0  0  0  0  0  0  0  0  0  # atno 8009 bound_to 7997
  155.0381  140.0371  157.2489 H   0  0  0  0  0  0  0  0  0  0  0  0  # atno 8010 bound_to 7997
  140.6851  143.2871  151.3663 H   0  0  0  0  0  0  0  0  0  0  0  0  # atno 10167 bound_to 10162
  156.1003  130.4187  150.0829 H   0  0  0  0  0  0  0  0  0  0  0  0  # atno 10718 bound_to 10713
  153.7541  135.3205  155.3326 H   0  0  0  0  0  0  0  0  0  0  0  0  # atno 10763 bound_to 10752
  154.8253  135.4574  154.0902 H   0  0  0  0  0  0  0  0  0  0  0  0  # atno 10764 bound_to 10752
  153.2114  135.6936  153.8192 H   0  0  0  0  0  0  0  0  0  0  0  0  # atno 10765 bound_to 10752
  141.1650  133.6969  156.7609 H   0  0  0  0  0  0  0  0  0  0  0  0  # atno 11005 bound_to 11000
  145.3404  141.0286  143.3395 LP  0  0  0  0  0  0  0  0  0  0  0  0  # atno 17320 bound_to 7965
  144.8736  139.5003  143.6756 LP  0  0  0  0  0  0  0  0  0  0  0  0  # atno 17321 bound_to 7965
  139.6203  144.0919  152.2385 LP  0  0  0  0  0  0  0  0  0  0  0  0  # atno 17342 bound_to 10162
  140.0362  144.6043  150.7448 LP  0  0  0  0  0  0  0  0  0  0  0  0  # atno 17343 bound_to 10162
  156.8818  130.9559  151.3598 LP  0  0  0  0  0  0  0  0  0  0  0  0  # atno 17370 bound_to 10713
  157.6172  130.8627  149.9048 LP  0  0  0  0  0  0  0  0  0  0  0  0  # atno 17371 bound_to 10713
  140.2535  134.8522  157.3690 LP  0  0  0  0  0  0  0  0  0  0  0  0  # atno 17394 bound_to 11000
  140.1680  134.4645  155.7850 LP  0  0  0  0  0  0  0  0  0  0  0  0  # atno 17395 bound_to 11000

$$$$
