AV-unprocessed.smi:2105|AV-procd|sdf|8591|dock3
  -GOLD-   2272011323D 1   1.00000     0.00000
 Structure written by MMmdl.
 42 43  0  0  0  0  0  0  0  0  1 V2000
  150.9065  142.0306  156.2609 C   0  0  0  0  0  0  0  0  0  0  0  0
  149.9005  141.4275  155.2870 C   0  0  0  0  0  0  0  0  0  0  0  0
  150.1036  140.3151  154.8011 O   0  0  0  0  0  0  0  0  0  0  0  0
  148.8193  142.1731  155.0122 N   0  0  0  0  0  0  0  0  0  0  0  0
  147.7360  141.7755  154.1199 C   0  0  0  0  0  0  0  0  0  0  0  0
  146.3496  142.0851  154.7204 C   0  0  0  0  0  0  0  0  0  0  0  0
  145.4363  140.9550  154.5902 N   0  0  0  0  0  0  0  0  0  0  0  0
  145.5679  139.7741  155.2092 C   0  0  0  0  0  0  0  0  0  0  0  0
  146.4583  139.5265  156.0225 O   0  0  0  0  0  0  0  0  0  0  0  0
  144.6259  138.9097  154.7988 N   0  0  0  0  0  0  0  0  0  0  0  0
  144.4780  137.5366  155.1428 C   0  0  0  0  0  0  0  0  0  0  0  0
  145.5669  136.7227  155.5379 C   0  0  0  0  0  0  0  0  0  0  0  0
  145.3278  135.3804  155.8845 C   0  0  0  0  0  0  0  0  0  0  0  0
  144.0064  134.9014  155.8335 C   0  0  0  0  0  0  0  0  0  0  0  0
  142.9563  135.6677  155.4741 N   0  0  0  0  0  0  0  0  0  0  0  0
  143.1822  136.9597  155.1330 C   0  0  0  0  0  0  0  0  0  0  0  0
  142.0689  137.7435  154.7806 N   0  0  0  0  0  0  0  0  0  0  0  0
  141.4578  137.4804  153.4827 C   0  0  0  0  0  0  0  0  0  0  0  0
  139.9979  137.9004  153.6302 C   0  0  0  0  0  0  0  0  0  0  0  0
  139.6981  137.5401  155.0809 C   0  0  0  0  0  0  0  0  0  0  0  0
  141.0250  137.8077  155.7977 C   0  0  0  0  0  0  0  0  0  0  0  0
  151.2247  143.0165  155.9217 H   0  0  0  0  0  0  0  0  0  0  0  0
  151.7905  141.3977  156.3455 H   0  0  0  0  0  0  0  0  0  0  0  0
  150.4622  142.1308  157.2513 H   0  0  0  0  0  0  0  0  0  0  0  0
  148.7357  143.0743  155.4599 H   0  0  0  0  0  0  0  0  0  0  0  0
  147.8629  142.2066  153.1253 H   0  0  0  0  0  0  0  0  0  0  0  0
  147.8262  140.6968  153.9903 H   0  0  0  0  0  0  0  0  0  0  0  0
  146.4568  142.3246  155.7796 H   0  0  0  0  0  0  0  0  0  0  0  0
  145.9073  142.9672  154.2559 H   0  0  0  0  0  0  0  0  0  0  0  0
  144.6759  141.0622  153.9348 H   0  0  0  0  0  0  0  0  0  0  0  0
  144.0192  139.2349  154.0602 H   0  0  0  0  0  0  0  0  0  0  0  0
  146.5736  137.1068  155.5961 H   0  0  0  0  0  0  0  0  0  0  0  0
  146.1385  134.7350  156.1886 H   0  0  0  0  0  0  0  0  0  0  0  0
  143.7848  133.8776  156.0965 H   0  0  0  0  0  0  0  0  0  0  0  0
  141.9577  138.0472  152.6970 H   0  0  0  0  0  0  0  0  0  0  0  0
  141.5159  136.4235  153.2204 H   0  0  0  0  0  0  0  0  0  0  0  0
  139.9032  138.9780  153.4873 H   0  0  0  0  0  0  0  0  0  0  0  0
  139.3386  137.4027  152.9190 H   0  0  0  0  0  0  0  0  0  0  0  0
  138.8675  138.1091  155.4999 H   0  0  0  0  0  0  0  0  0  0  0  0
  139.4504  136.4799  155.1506 H   0  0  0  0  0  0  0  0  0  0  0  0
  141.1851  137.1018  156.6140 H   0  0  0  0  0  0  0  0  0  0  0  0
  141.0298  138.8115  156.2239 H   0  0  0  0  0  0  0  0  0  0  0  0
  1  2  1  0  0  0  0
  1 22  1  0  0  0  0
  1 23  1  0  0  0  0
  1 24  1  0  0  0  0
  2  3  2  0  0  0  0
  2  4  1  0  0  0  0
  4  5  1  0  0  0  0
  4 25  1  0  0  0  0
  5  6  1  0  0  0  0
  5 26  1  0  0  0  0
  5 27  1  0  0  0  0
  6  7  1  0  0  0  0
  6 28  1  0  0  0  0
  6 29  1  0  0  0  0
  7  8  1  0  0  0  0
  7 30  1  0  0  0  0
  8  9  2  0  0  0  0
  8 10  1  0  0  0  0
 10 11  1  0  0  0  0
 10 31  1  0  0  0  0
 11 16  1  0  0  0  0
 11 12  2  0  0  0  0
 12 13  1  0  0  0  0
 12 32  1  0  0  0  0
 13 14  2  0  0  0  0
 13 33  1  0  0  0  0
 14 15  1  0  0  0  0
 14 34  1  0  0  0  0
 15 16  2  0  0  0  0
 16 17  1  0  0  0  0
 17 21  1  0  0  0  0
 17 18  1  0  0  0  0
 18 19  1  0  0  0  0
 18 35  1  0  0  0  0
 18 36  1  0  0  0  0
 19 20  1  0  0  0  0
 19 37  1  0  0  0  0
 19 38  1  0  0  0  0
 20 21  1  0  0  0  0
 20 39  1  0  0  0  0
 20 40  1  0  0  0  0
 21 41  1  0  0  0  0
 21 42  1  0  0  0  0
M  END
> <s_m_source_file>
AV-unprocessed.smi

> <i_m_source_file_index>
2105

> <i_lp_mmshare_version>
43012

> <i_f3d_flags>
0

> <s_epik_input>
W0NIM11DKD1PKVtOSF1bQ0gyXVtDSDJdW05IXUMoPU8pW05IXWMxW2NIXVtjSF1bY0hdbmMxTjJbQ0gyXVtDSDJdW0NIMl1bQ0gyXTI=

> <s_epik_cmdline>
J2VwaWtfcHl0aG9uJywgJy1waCcsICc3LjAnLCAnLXRuJywgJzgnLCAnLW1hJywgJzIwMCcsICctbWV0YWxfYmluZGluZycsICctaW1hZScsICc8aW5maWxlLm1hZT4nLCAnLW9tYWUnLCAnPG91dGZpbGUubWFlPic=

> <r_lp_tautomer_probability>
1

> <r_epik_Ionization_Penalty>
0.0963551

> <r_epik_Ionization_Penalty_Charging>
0

> <r_epik_Ionization_Penalty_Neutral>
0.0963551

> <r_epik_State_Penalty>
0.0859578

> <r_epik_Charging_Adjusted_Penalty>
0.0859578

> <i_epik_Tot_Q>
0

> <i_epik_Tot_abs_Q>
0

> <r_epik_Metal_State_Penalty>
0.0739032

> <b_epik_Metal_Only>
0

> <s_lp_Force_Field>
OPLS_2005

> <r_lp_Energy>
32.5144

> <b_lp_Chiralities_Consistent>
1

> <s_lp_Variant>
AV-unprocessed.smi:2105-1

> <Gold.Version>
5.8.1

> <Gold.Id.Protein>
6NUR|6NUR_protein|mol2

> <Gold.PLP.Fitness>
39.1537

> <Gold.PLP.PLP>
-25.5613

> <Gold.PLP.part.hbond>
-4.0000

> <Gold.PLP.part.metal>
0.0000

> <Gold.PLP.part.buried>
-5.8461

> <Gold.PLP.part.nonpolar>
-16.1991

> <Gold.PLP.part.repulsive>
0.4346

> <Gold.PLP.ligand.clash>
0.0000

> <Gold.PLP.ligand.torsion>
0.7628

> <Gold.PLP.Chemscore.Hbond>
4.0000

> <Gold.PLP.Chemscore.CHOScore>
1.0000

> <Gold.PLP.Chemscore.Metal>
0.0000

> <Gold.Chemscore.Hbonds>
donor molecule, donor type, donor heavy atom, donor atom, acceptor molecule, acceptor atom, score
      L1  H     4    25       P1  8028  1.00
      L1  H     7    30       P1 10175  1.00
      L1  H    10    31       P1 10175  1.00
      P1  H  7989  7998       L1     3  0.75
      L1  C    14    34       P1 10957  0.55

> <Gold.PLP.Chemscore.Internal.Correction>
0.1181

> <Gold.Rescore>
     Score         DG    S(hbond)    S(metal)    S(lipo)     H(rot)  DE(clash)    DE(int)     intcor
     15.36     -17.19       3.46        0.00      43.94       1.94       0.01       1.82       ----

> <Gold.Chemscore.Fitness>
15.3646

> <Gold.Chemscore.DG>
-17.1948

> <Gold.Chemscore.ZeroCoef>
-5.4800

> <Gold.Chemscore.Hbond>
3.4581

> <Gold.Chemscore.Metal>
0.0000

> <Gold.Chemscore.Lipo>
43.9362

> <Gold.Chemscore.Internal_Hbond>
0.0000

> <Gold.Chemscore.DEClash>
0.0075

> <Gold.Chemscore.DEInternal>
1.8228

> <Gold.Chemscore.Rot>
1.9437

> <Gold.Chemscore.Internal.Correction>
   9.000000E+99

> <Gold.Chemscore.Hbonds>
donor molecule, donor type, donor heavy atom, donor atom, acceptor molecule, acceptor atom, score
      L1  H     4    25       P1  8028  0.99
      L1  H     7    30       P1 10175  0.76
      L1  H    10    31       P1 10175  0.90
      P1  H  7989  7998       L1     3  0.12

> <Gold.Chemscore.Hbond.Weighted>
-11.5502

> <Gold.Chemscore.Metal.Weighted>
-0.0000

> <Gold.Chemscore.Lipo.Weighted>
-5.1405

> <Gold.Chemscore.Internal_Hbond.Weighted>
0.0000

> <Gold.Chemscore.DEClash.Weighted>
0.0075

> <Gold.Chemscore.DEInternal.Weighted>
1.8228

> <Gold.Chemscore.Rot.Weighted>
4.9759

> <Gold.Chemscore.Internal.Correction.Weighted>
   9.000000E+99

> <Gold.Protein.RotatedTorsions>
[ 6907 6896 6895 6894 ] final -140.75 input  -60.11 | X-H torsion
[ 7974 7965 7964 7962 ] final   89.78 input  175.53 | X-H torsion
[ 8008 7997 7996 7995 ] final   46.82 input   59.86 | X-H torsion
[ 10167 10162 10161 10158 ] final  -41.31 input  -65.29 | X-H torsion
[ 10718 10713 10712 10709 ] final   98.87 input   66.30 | X-H torsion
[ 10763 10752 10751 10750 ] final  123.95 input  -60.55 | X-H torsion
[ 11005 11000 10999 10996 ] final    3.70 input  -57.11 | X-H torsion

> <Gold.Protein.ActiveResidues>
 VAL166  LYS551  ARG553  GLY616  TRP617  ASP618  TYR619  PRO620  LYS621  CYS622 
 ASP623  PHE694  ASN695  SER759  ASP760  ASP761  ALA762  ILE779  LEU786  VAL792 
 PHE793  MET794  SER795  GLU796  ALA797  LYS798  CYS799  TRP800  GLU811  SER814 

> <Gold.Protein.RotatedAtoms>
  151.0647  133.5515  159.2631 H   0  0  0  0  0  0  0  0  0  0  0  0  # atno 6907 bound_to 6896
  151.2477  135.0610  159.9059 H   0  0  0  0  0  0  0  0  0  0  0  0  # atno 6908 bound_to 6896
  152.5403  134.0413  159.8122 H   0  0  0  0  0  0  0  0  0  0  0  0  # atno 6909 bound_to 6896
  145.5277  139.2282  143.2636 H   0  0  0  0  0  0  0  0  0  0  0  0  # atno 7974 bound_to 7965
  155.3588  140.3417  155.4240 H   0  0  0  0  0  0  0  0  0  0  0  0  # atno 8008 bound_to 7997
  156.1725  140.1636  156.8457 H   0  0  0  0  0  0  0  0  0  0  0  0  # atno 8009 bound_to 7997
  154.5247  140.0759  156.8220 H   0  0  0  0  0  0  0  0  0  0  0  0  # atno 8010 bound_to 7997
  140.7007  143.3102  151.3048 H   0  0  0  0  0  0  0  0  0  0  0  0  # atno 10167 bound_to 10162
  157.6887  131.0653  150.4863 H   0  0  0  0  0  0  0  0  0  0  0  0  # atno 10718 bound_to 10713
  153.6537  135.3358  155.3107 H   0  0  0  0  0  0  0  0  0  0  0  0  # atno 10763 bound_to 10752
  154.8531  135.4347  154.1877 H   0  0  0  0  0  0  0  0  0  0  0  0  # atno 10764 bound_to 10752
  153.2826  135.7010  153.7445 H   0  0  0  0  0  0  0  0  0  0  0  0  # atno 10765 bound_to 10752
  140.5902  133.9931  155.8085 H   0  0  0  0  0  0  0  0  0  0  0  0  # atno 11005 bound_to 11000
  146.2064  140.6092  142.9079 LP  0  0  0  0  0  0  0  0  0  0  0  0  # atno 17320 bound_to 7965
  144.7642  140.5492  143.6714 LP  0  0  0  0  0  0  0  0  0  0  0  0  # atno 17321 bound_to 7965
  139.6522  144.0341  152.2634 LP  0  0  0  0  0  0  0  0  0  0  0  0  # atno 17342 bound_to 10162
  139.9881  144.6381  150.7839 LP  0  0  0  0  0  0  0  0  0  0  0  0  # atno 17343 bound_to 10162
  156.5192  130.4158  149.6260 LP  0  0  0  0  0  0  0  0  0  0  0  0  # atno 17370 bound_to 10713
  156.3170  130.7260  151.2164 LP  0  0  0  0  0  0  0  0  0  0  0  0  # atno 17371 bound_to 10713
  141.0940  133.9873  157.3191 LP  0  0  0  0  0  0  0  0  0  0  0  0  # atno 17394 bound_to 11000
  139.9277  135.0201  156.8293 LP  0  0  0  0  0  0  0  0  0  0  0  0  # atno 17395 bound_to 11000

$$$$
