AV-unprocessed.smi:17|AV-procd|sdf|103|dock9
  -GOLD-   2262015253D 1   1.00000     0.00000
 Structure written by MMmdl.
 57 59  0  0  0  0  0  0  0  0  1 V2000
  147.0919  142.5446  154.0864 C   0  0  0  0  0  0  0  0  0  0  0  0
  147.7113  141.2141  153.6299 C   0  0  0  0  0  0  0  0  0  0  0  0
  148.0161  140.3071  154.7405 N   0  0  0  0  0  0  0  0  0  0  0  0
  147.3487  139.1216  154.7972 C   0  0  0  0  0  0  0  0  0  0  0  0
  147.2343  138.4841  155.9931 N   0  0  0  0  0  0  0  0  0  0  0  0
  146.5932  137.3162  156.0837 C   0  0  0  0  0  0  0  0  0  0  0  0
  145.9977  136.6159  155.1183 N   0  0  0  0  0  0  0  0  0  0  0  0
  146.1033  137.2468  153.9148 C   0  0  0  0  0  0  0  0  0  0  0  0
  146.7580  138.4874  153.6645 C   0  0  0  0  0  0  0  0  0  0  0  0
  146.6453  138.8089  152.3161 N   0  0  0  0  0  0  0  0  0  0  0  0
  145.9666  137.8207  151.8018 C   0  0  0  0  0  0  0  0  0  0  0  0
  145.5945  136.8419  152.6930 N   0  0  0  0  0  0  0  0  0  0  0  0
  144.8303  135.6439  152.3908 C   0  0  0  0  0  0  0  0  0  0  0  0
  145.4753  134.7700  151.2818 C   0  0  2  0  0  0  0  0  0  0  0  0
  144.7573  134.9600  149.9206 C   0  0  0  0  0  0  0  0  0  0  0  0
  145.0507  136.2203  149.3535 O   0  0  0  0  0  0  0  0  0  0  0  0
  145.5834  133.2779  151.7225 C   0  0  2  0  0  0  0  0  0  0  0  0
  146.4941  132.4376  150.8315 C   0  0  0  0  0  0  0  0  0  0  0  0
  145.5723  131.9667  149.7038 C   0  0  0  0  0  0  0  0  0  0  0  0
  144.2439  132.1225  150.1909 O   0  0  0  0  0  0  0  0  0  0  0  0
  144.2959  132.4577  151.5693 C   0  0  0  0  0  0  0  0  0  0  0  0
  149.2412  140.4771  155.5353 C   0  0  1  0  0  0  0  0  0  0  0  0
  148.9252  140.8229  157.0006 C   0  0  0  0  0  0  0  0  0  0  0  0
  150.1909  139.2642  155.4310 C   0  0  0  0  0  0  0  0  0  0  0  0
  151.8834  139.6027  156.1025 S   0  0  0  0  0  0  0  0  0  0  0  0
  152.4437  137.9386  156.6534 C   0  0  0  0  0  0  0  0  0  0  0  0
  152.7627  140.0430  155.0084 O   0  0  0  0  0  0  0  0  0  0  0  0
  151.7348  140.4391  157.3029 O   0  0  0  0  0  0  0  0  0  0  0  0
  146.8437  143.1664  153.2264 H   0  0  0  0  0  0  0  0  0  0  0  0
  147.7788  143.1134  154.7132 H   0  0  0  0  0  0  0  0  0  0  0  0
  146.1751  142.3857  154.6539 H   0  0  0  0  0  0  0  0  0  0  0  0
  147.0116  140.7280  152.9515 H   0  0  0  0  0  0  0  0  0  0  0  0
  148.6038  141.3999  153.0353 H   0  0  0  0  0  0  0  0  0  0  0  0
  146.5498  136.8811  157.0713 H   0  0  0  0  0  0  0  0  0  0  0  0
  145.7102  137.7808  150.7530 H   0  0  0  0  0  0  0  0  0  0  0  0
  144.7258  135.0917  153.3228 H   0  0  0  0  0  0  0  0  0  0  0  0
  143.8209  135.9372  152.0998 H   0  0  0  0  0  0  0  0  0  0  0  0
  146.4914  135.1403  151.1378 H   0  0  0  0  0  0  0  0  0  0  0  0
  145.0444  134.1852  149.2104 H   0  0  0  0  0  0  0  0  0  0  0  0
  143.6782  134.8591  150.0221 H   0  0  0  0  0  0  0  0  0  0  0  0
  145.6312  136.0915  148.6189 H   0  0  0  0  0  0  0  0  0  0  0  0
  145.9239  133.2424  152.7583 H   0  0  0  0  0  0  0  0  0  0  0  0
  147.3797  132.9478  150.4574 H   0  0  0  0  0  0  0  0  0  0  0  0
  146.8428  131.5700  151.3939 H   0  0  0  0  0  0  0  0  0  0  0  0
  145.6943  132.5813  148.8116 H   0  0  0  0  0  0  0  0  0  0  0  0
  145.7689  130.9295  149.4313 H   0  0  0  0  0  0  0  0  0  0  0  0
  144.3765  131.5330  152.1433 H   0  0  0  0  0  0  0  0  0  0  0  0
  143.3865  132.9525  151.9039 H   0  0  0  0  0  0  0  0  0  0  0  0
  149.8058  141.3218  155.1406 H   0  0  0  0  0  0  0  0  0  0  0  0
  149.8378  141.0436  157.5548 H   0  0  0  0  0  0  0  0  0  0  0  0
  148.4231  139.9996  157.5090 H   0  0  0  0  0  0  0  0  0  0  0  0
  148.2823  141.7008  157.0689 H   0  0  0  0  0  0  0  0  0  0  0  0
  149.7854  138.4494  156.0314 H   0  0  0  0  0  0  0  0  0  0  0  0
  150.2828  138.8817  154.4154 H   0  0  0  0  0  0  0  0  0  0  0  0
  153.3921  138.0360  157.1808 H   0  0  0  0  0  0  0  0  0  0  0  0
  152.5858  137.2895  155.7929 H   0  0  0  0  0  0  0  0  0  0  0  0
  151.7024  137.5033  157.3230 H   0  0  0  0  0  0  0  0  0  0  0  0
  1  2  1  0  0  0  0
  1 29  1  0  0  0  0
  1 30  1  0  0  0  0
  1 31  1  0  0  0  0
  2  3  1  0  0  0  0
  2 32  1  0  0  0  0
  2 33  1  0  0  0  0
  3  4  1  0  0  0  0
  3 22  1  0  0  0  0
  4  9  1  0  0  0  0
  4  5  2  0  0  0  0
  5  6  1  0  0  0  0
  6  7  2  0  0  0  0
  6 34  1  0  0  0  0
  7  8  1  0  0  0  0
  8 12  1  0  0  0  0
  8  9  2  0  0  0  0
  9 10  1  0  0  0  0
 10 11  2  0  0  0  0
 11 12  1  0  0  0  0
 11 35  1  0  0  0  0
 12 13  1  0  0  0  0
 13 14  1  0  0  0  0
 13 36  1  0  0  0  0
 13 37  1  0  0  0  0
 14 15  1  0  0  0  0
 14 17  1  0  0  0  0
 14 38  1  0  0  0  0
 15 16  1  0  0  0  0
 15 39  1  0  0  0  0
 15 40  1  0  0  0  0
 16 41  1  0  0  0  0
 17 21  1  0  0  0  0
 17 18  1  0  0  0  0
 17 42  1  0  0  0  0
 18 19  1  0  0  0  0
 18 43  1  0  0  0  0
 18 44  1  0  0  0  0
 19 20  1  0  0  0  0
 19 45  1  0  0  0  0
 19 46  1  0  0  0  0
 20 21  1  0  0  0  0
 21 47  1  0  0  0  0
 21 48  1  0  0  0  0
 22 23  1  0  0  0  0
 22 24  1  0  0  0  0
 22 49  1  0  0  0  0
 23 50  1  0  0  0  0
 23 51  1  0  0  0  0
 23 52  1  0  0  0  0
 24 25  1  0  0  0  0
 24 53  1  0  0  0  0
 24 54  1  0  0  0  0
 25 26  1  0  0  0  0
 25 27  2  0  0  0  0
 25 28  2  0  0  0  0
 26 55  1  0  0  0  0
 26 56  1  0  0  0  0
 26 57  1  0  0  0  0
M  END
> <s_m_source_file>
AV-unprocessed.smi

> <i_m_source_file_index>
17

> <i_lp_mmshare_version>
43012

> <i_f3d_flags>
0

> <s_epik_input>
W0NIM11TKD1PKSg9TylbQ0gyXVtDQEBIXShbQ0gzXSlOKFtDSDJdW0NIM10pYyhuW2NIXW4xKWMoYzEyKW5bY0hdbjJbQ0gyXVtDQEhdKFtDSDJdW09IXSlbQ0BASF0zW0NIMl1bQ0gyXU9bQ0gyXTM=

> <s_epik_cmdline>
J2VwaWtfcHl0aG9uJywgJy1waCcsICc3LjAnLCAnLXRuJywgJzgnLCAnLW1hJywgJzIwMCcsICctbWV0YWxfYmluZGluZycsICctaW1hZScsICc8aW5maWxlLm1hZT4nLCAnLW9tYWUnLCAnPG91dGZpbGUubWFlPic=

> <r_lp_tautomer_probability>
1

> <r_epik_Ionization_Penalty>
0.00119955

> <r_epik_Ionization_Penalty_Charging>
0

> <r_epik_Ionization_Penalty_Neutral>
0.00119955

> <r_epik_State_Penalty>
0.000665399

> <r_epik_Charging_Adjusted_Penalty>
0.000665399

> <i_epik_Tot_Q>
0

> <i_epik_Tot_abs_Q>
0

> <r_epik_Metal_State_Penalty>
-0

> <b_epik_Metal_Only>
0

> <s_lp_Force_Field>
OPLS_2005

> <r_lp_Energy>
34.7732

> <b_lp_Chiralities_Consistent>
1

> <s_lp_Variant>
AV-unprocessed.smi:17-5

> <Gold.Version>
5.8.1

> <Gold.Id.Protein>
6NUR|6NUR_protein|mol2

> <Gold.PLP.Fitness>
44.5875

> <Gold.PLP.PLP>
-38.2607

> <Gold.PLP.part.hbond>
-3.8191

> <Gold.PLP.part.metal>
0.0000

> <Gold.PLP.part.buried>
-2.3300

> <Gold.PLP.part.nonpolar>
-33.8899

> <Gold.PLP.part.repulsive>
0.5574

> <Gold.PLP.ligand.clash>
0.0000

> <Gold.PLP.ligand.torsion>
2.4005

> <Gold.PLP.Chemscore.Hbond>
2.2277

> <Gold.PLP.Chemscore.CHOScore>
0.9436

> <Gold.PLP.Chemscore.Metal>
0.0000

> <Gold.Chemscore.Hbonds>
donor molecule, donor type, donor heavy atom, donor atom, acceptor molecule, acceptor atom, score
      L1  H    16    41       P1  7921  0.78
      P1  H  7989  7998       L1    27  0.43
      P1  H  7997  8009       L1    27  0.95
      L1  C    11    35       P1 10171  0.94

> <Gold.PLP.Chemscore.Internal.Correction>
1.6140

> <Gold.Rescore>
     Score         DG    S(hbond)    S(metal)    S(lipo)     H(rot)  DE(clash)    DE(int)     intcor
      4.74     -12.24       1.98        0.00      77.94       3.51       0.48       7.02       ----

> <Gold.Chemscore.Fitness>
4.7417

> <Gold.Chemscore.DG>
-12.2380

> <Gold.Chemscore.ZeroCoef>
-5.4800

> <Gold.Chemscore.Hbond>
1.9803

> <Gold.Chemscore.Metal>
0.0000

> <Gold.Chemscore.Lipo>
77.9372

> <Gold.Chemscore.Internal_Hbond>
0.0000

> <Gold.Chemscore.DEClash>
0.4790

> <Gold.Chemscore.DEInternal>
7.0173

> <Gold.Chemscore.Rot>
3.5059

> <Gold.Chemscore.Internal.Correction>
   9.000000E+99

> <Gold.Chemscore.Hbonds>
donor molecule, donor type, donor heavy atom, donor atom, acceptor molecule, acceptor atom, score
      L1  H    16    41       P1  7921  0.79
      P1  H  7989  7998       L1    27  0.32
      P1  H  7997  8009       L1    27  0.21

> <Gold.Chemscore.Hbond.Weighted>
-6.6143

> <Gold.Chemscore.Metal.Weighted>
-0.0000

> <Gold.Chemscore.Lipo.Weighted>
-9.1186

> <Gold.Chemscore.Internal_Hbond.Weighted>
0.0000

> <Gold.Chemscore.DEClash.Weighted>
0.4790

> <Gold.Chemscore.DEInternal.Weighted>
7.0173

> <Gold.Chemscore.Rot.Weighted>
8.9750

> <Gold.Chemscore.Internal.Correction.Weighted>
   9.000000E+99

> <Gold.Protein.RotatedTorsions>
[ 6907 6896 6895 6894 ] final  -17.73 input  -60.11 | X-H torsion
[ 7974 7965 7964 7962 ] final -122.69 input  175.53 | X-H torsion
[ 8008 7997 7996 7995 ] final -143.21 input   59.86 | X-H torsion
[ 10167 10162 10161 10158 ] final  -23.29 input  -65.29 | X-H torsion
[ 10718 10713 10712 10709 ] final  -34.75 input   66.30 | X-H torsion
[ 10763 10752 10751 10750 ] final  -80.14 input  -60.55 | X-H torsion
[ 11005 11000 10999 10996 ] final -172.79 input  -57.11 | X-H torsion

> <Gold.Protein.ActiveResidues>
 VAL166  LYS551  ARG553  GLY616  TRP617  ASP618  TYR619  PRO620  LYS621  CYS622 
 ASP623  PHE694  ASN695  SER759  ASP760  ASP761  ALA762  ILE779  LEU786  VAL792 
 PHE793  MET794  SER795  GLU796  ALA797  LYS798  CYS799  TRP800  GLU811  SER814 

> <Gold.Protein.RotatedAtoms>
  151.2889  135.0736  159.9196 H   0  0  0  0  0  0  0  0  0  0  0  0  # atno 6907 bound_to 6896
  152.5320  133.9953  159.7880 H   0  0  0  0  0  0  0  0  0  0  0  0  # atno 6908 bound_to 6896
  151.0219  133.5818  159.2701 H   0  0  0  0  0  0  0  0  0  0  0  0  # atno 6909 bound_to 6896
  145.0267  140.8034  143.4348 H   0  0  0  0  0  0  0  0  0  0  0  0  # atno 7974 bound_to 7965
  155.5068  140.0580  157.2930 H   0  0  0  0  0  0  0  0  0  0  0  0  # atno 8008 bound_to 7997
  154.4566  140.1976  156.0310 H   0  0  0  0  0  0  0  0  0  0  0  0  # atno 8009 bound_to 7997
  156.0811  140.3247  155.7699 H   0  0  0  0  0  0  0  0  0  0  0  0  # atno 8010 bound_to 7997
  140.7288  143.4457  151.0591 H   0  0  0  0  0  0  0  0  0  0  0  0  # atno 10167 bound_to 10162
  156.3468  130.4302  149.7738 H   0  0  0  0  0  0  0  0  0  0  0  0  # atno 10718 bound_to 10713
  154.5475  135.5671  153.6893 H   0  0  0  0  0  0  0  0  0  0  0  0  # atno 10763 bound_to 10752
  152.9980  135.6243  154.2419 H   0  0  0  0  0  0  0  0  0  0  0  0  # atno 10764 bound_to 10752
  154.2352  135.2864  155.2854 H   0  0  0  0  0  0  0  0  0  0  0  0  # atno 10765 bound_to 10752
  140.4930  134.5966  157.4961 H   0  0  0  0  0  0  0  0  0  0  0  0  # atno 11005 bound_to 11000
  145.1824  139.2344  143.5285 LP  0  0  0  0  0  0  0  0  0  0  0  0  # atno 17320 bound_to 7965
  146.3493  140.1601  142.8591 LP  0  0  0  0  0  0  0  0  0  0  0  0  # atno 17321 bound_to 7965
  139.8128  143.7927  152.3172 LP  0  0  0  0  0  0  0  0  0  0  0  0  # atno 17342 bound_to 10162
  139.7982  144.7384  150.9860 LP  0  0  0  0  0  0  0  0  0  0  0  0  # atno 17343 bound_to 10162
  156.4954  130.8104  151.3111 LP  0  0  0  0  0  0  0  0  0  0  0  0  # atno 17370 bound_to 10713
  157.7455  130.9962  150.2771 LP  0  0  0  0  0  0  0  0  0  0  0  0  # atno 17371 bound_to 10713
  139.9758  134.7218  155.9953 LP  0  0  0  0  0  0  0  0  0  0  0  0  # atno 17394 bound_to 11000
  141.1474  133.6553  156.3910 LP  0  0  0  0  0  0  0  0  0  0  0  0  # atno 17395 bound_to 11000

$$$$
