AV-unprocessed.smi:1378|AV-procd|sdf|5597|dock6
  -GOLD-   22720 5203D 1   1.00000     0.00000
 Structure written by MMmdl.
 47 49  0  0  0  0  0  0  0  0  2 V2000
  152.9989  131.1751  157.3246 C   0  0  0  0  0  0  0  0  0  0  0  0
  152.1036  132.2126  157.6860 O   0  0  0  0  0  0  0  0  0  0  0  0
  151.5239  132.8426  156.5580 C   0  0  0  0  0  0  0  0  0  0  0  0
  150.7348  134.0743  157.0263 C   0  0  0  0  0  0  0  0  0  0  0  0
  150.6042  135.0957  155.9772 N   0  0  0  0  0  0  0  0  0  0  0  0
  149.9236  135.0855  154.7953 C   0  0  0  0  0  0  0  0  0  0  0  0
  148.9778  133.7606  154.1153 S   0  0  0  0  0  0  0  0  0  0  0  0
  147.2507  134.3210  154.1456 C   0  0  0  0  0  0  0  0  0  0  0  0
  146.4055  133.6943  153.0371 C   0  0  0  0  0  0  0  0  0  0  0  0
  145.4608  132.9585  153.3182 O   0  0  0  0  0  0  0  0  0  0  0  0
  146.7482  134.0176  151.7819 N   0  0  0  0  0  0  0  0  0  0  0  0
  146.0645  133.5899  150.5671 C   0  0  0  0  0  0  0  0  0  0  0  0
  144.5984  134.0694  150.5549 C   0  0  0  0  0  0  0  0  0  0  0  0
  143.7323  132.8111  150.4357 C   0  0  0  0  0  0  0  0  0  0  0  0
  144.6046  131.6817  150.9766 C   0  0  0  0  0  0  0  0  0  0  0  0
  146.0115  132.0543  150.5146 C   0  0  0  0  0  0  0  0  0  0  0  0
  150.1165  136.2912  154.1949 N   0  3  0  0  0  0  0  0  0  0  0  0
  150.9301  137.0884  155.0004 C   0  0  0  0  0  0  0  0  0  0  0  0
  151.4066  138.3824  154.8158 C   0  0  0  0  0  0  0  0  0  0  0  0
  152.2193  138.9096  155.8408 C   0  0  0  0  0  0  0  0  0  0  0  0
  152.5276  138.1582  156.9933 C   0  0  0  0  0  0  0  0  0  0  0  0
  152.0389  136.8470  157.1696 C   0  0  0  0  0  0  0  0  0  0  0  0
  151.2397  136.3311  156.1500 C   0  0  0  0  0  0  0  0  0  0  0  0
  153.4205  130.7252  158.2235 H   0  0  0  0  0  0  0  0  0  0  0  0
  153.8231  131.5573  156.7211 H   0  0  0  0  0  0  0  0  0  0  0  0
  152.4886  130.3911  156.7633 H   0  0  0  0  0  0  0  0  0  0  0  0
  152.3057  133.1281  155.8531 H   0  0  0  0  0  0  0  0  0  0  0  0
  150.8648  132.1416  156.0482 H   0  0  0  0  0  0  0  0  0  0  0  0
  149.7329  133.7822  157.3420 H   0  0  0  0  0  0  0  0  0  0  0  0
  151.2116  134.5347  157.8926 H   0  0  0  0  0  0  0  0  0  0  0  0
  146.8196  134.0898  155.1198 H   0  0  0  0  0  0  0  0  0  0  0  0
  147.2325  135.4065  154.0456 H   0  0  0  0  0  0  0  0  0  0  0  0
  147.5457  134.6239  151.6571 H   0  0  0  0  0  0  0  0  0  0  0  0
  146.5998  133.9602  149.6907 H   0  0  0  0  0  0  0  0  0  0  0  0
  144.3511  134.5961  151.4782 H   0  0  0  0  0  0  0  0  0  0  0  0
  144.4067  134.7610  149.7342 H   0  0  0  0  0  0  0  0  0  0  0  0
  142.7859  132.9022  150.9694 H   0  0  0  0  0  0  0  0  0  0  0  0
  143.5035  132.6230  149.3860 H   0  0  0  0  0  0  0  0  0  0  0  0
  144.5648  131.6728  152.0668 H   0  0  0  0  0  0  0  0  0  0  0  0
  144.2905  130.7000  150.6211 H   0  0  0  0  0  0  0  0  0  0  0  0
  146.1480  131.7244  149.4839 H   0  0  0  0  0  0  0  0  0  0  0  0
  146.7860  131.5710  151.1111 H   0  0  0  0  0  0  0  0  0  0  0  0
  151.1702  138.9612  153.9349 H   0  0  0  0  0  0  0  0  0  0  0  0
  152.6125  139.9110  155.7418 H   0  0  0  0  0  0  0  0  0  0  0  0
  153.1522  138.5961  157.7585 H   0  0  0  0  0  0  0  0  0  0  0  0
  152.2821  136.2792  158.0556 H   0  0  0  0  0  0  0  0  0  0  0  0
  149.7232  136.5442  153.2974 H   0  0  0  0  0  0  0  0  0  0  0  0
  1  2  1  0  0  0  0
  1 24  1  0  0  0  0
  1 25  1  0  0  0  0
  1 26  1  0  0  0  0
  2  3  1  0  0  0  0
  3  4  1  0  0  0  0
  3 27  1  0  0  0  0
  3 28  1  0  0  0  0
  4  5  1  0  0  0  0
  4 29  1  0  0  0  0
  4 30  1  0  0  0  0
  5 23  1  0  0  0  0
  5  6  1  0  0  0  0
  6  7  1  0  0  0  0
  6 17  2  0  0  0  0
  7  8  1  0  0  0  0
  8  9  1  0  0  0  0
  8 31  1  0  0  0  0
  8 32  1  0  0  0  0
  9 10  2  0  0  0  0
  9 11  1  0  0  0  0
 11 12  1  0  0  0  0
 11 33  1  0  0  0  0
 12 16  1  0  0  0  0
 12 13  1  0  0  0  0
 12 34  1  0  0  0  0
 13 14  1  0  0  0  0
 13 35  1  0  0  0  0
 13 36  1  0  0  0  0
 14 15  1  0  0  0  0
 14 37  1  0  0  0  0
 14 38  1  0  0  0  0
 15 16  1  0  0  0  0
 15 39  1  0  0  0  0
 15 40  1  0  0  0  0
 16 41  1  0  0  0  0
 16 42  1  0  0  0  0
 17 18  1  0  0  0  0
 17 47  1  0  0  0  0
 18 23  2  0  0  0  0
 18 19  1  0  0  0  0
 19 20  2  0  0  0  0
 19 43  1  0  0  0  0
 20 21  1  0  0  0  0
 20 44  1  0  0  0  0
 21 22  2  0  0  0  0
 21 45  1  0  0  0  0
 22 23  1  0  0  0  0
 22 46  1  0  0  0  0
M  CHG  1  17   1
M  END
> <s_m_source_file>
AV-unprocessed.smi

> <i_m_source_file_index>
1378

> <i_lp_mmshare_version>
43012

> <i_f3d_flags>
0

> <s_epik_input>
W2NIXTFbY0hdW2NIXVtjSF1jKGMxMiluKFtDSDJdW0NIMl1PW0NIM10pYyhuMilTW0NIMl1DKD1PKVtOSF1bQ0hdM1tDSDJdW0NIMl1bQ0gyXVtDSDJdMw==

> <s_epik_cmdline>
J2VwaWtfcHl0aG9uJywgJy1waCcsICc3LjAnLCAnLXRuJywgJzgnLCAnLW1hJywgJzIwMCcsICctbWV0YWxfYmluZGluZycsICctaW1hZScsICc8aW5maWxlLm1hZT4nLCAnLW9tYWUnLCAnPG91dGZpbGUubWFlPic=

> <r_epik_Ionization_Penalty>
1.66257

> <r_epik_Ionization_Penalty_Charging>
1.66257

> <r_epik_Ionization_Penalty_Neutral>
9.72138e-08

> <r_epik_State_Penalty>
1.76557

> <r_epik_Charging_Adjusted_Penalty>
3.42813

> <i_epik_Tot_Q>
1

> <i_epik_Tot_abs_Q>
1

> <r_epik_Metal_State_Penalty>
1.80074

> <b_epik_Metal_Only>
0

> <s_lp_Force_Field>
OPLS_2005

> <r_lp_Energy>
23.1428

> <b_lp_Chiralities_Consistent>
1

> <s_lp_Variant>
AV-unprocessed.smi:1378-2

> <Gold.Version>
5.8.1

> <Gold.Id.Protein>
6NUR|6NUR_protein|mol2

> <Gold.PLP.Fitness>
46.7271

> <Gold.PLP.PLP>
-35.5418

> <Gold.PLP.part.hbond>
-4.0000

> <Gold.PLP.part.metal>
0.0000

> <Gold.PLP.part.buried>
0.4857

> <Gold.PLP.part.nonpolar>
-31.9711

> <Gold.PLP.part.repulsive>
0.2239

> <Gold.PLP.ligand.clash>
0.0000

> <Gold.PLP.ligand.torsion>
0.4676

> <Gold.PLP.Chemscore.Hbond>
4.0000

> <Gold.PLP.Chemscore.CHOScore>
0.0000

> <Gold.PLP.Chemscore.Metal>
0.0000

> <Gold.Chemscore.Hbonds>
donor molecule, donor type, donor heavy atom, donor atom, acceptor molecule, acceptor atom, score
      L1  H    11    33       P1  7948  0.84
      L1  H    17    47       P1  7948  2.00
      P1  H  6896  6909       L1     2  1.00

> <Gold.PLP.Chemscore.Internal.Correction>
0.1205

> <Gold.Rescore>
     Score         DG    S(hbond)    S(metal)    S(lipo)     H(rot)  DE(clash)    DE(int)     intcor
     15.73     -19.80       2.55        0.00      94.67       2.06       0.88       3.19       ----

> <Gold.Chemscore.Fitness>
15.7298

> <Gold.Chemscore.DG>
-19.7987

> <Gold.Chemscore.ZeroCoef>
-5.4800

> <Gold.Chemscore.Hbond>
2.5471

> <Gold.Chemscore.Metal>
0.0000

> <Gold.Chemscore.Lipo>
94.6709

> <Gold.Chemscore.Internal_Hbond>
0.0000

> <Gold.Chemscore.DEClash>
0.8803

> <Gold.Chemscore.DEInternal>
3.1887

> <Gold.Chemscore.Rot>
2.0567

> <Gold.Chemscore.Internal.Correction>
   9.000000E+99

> <Gold.Chemscore.Hbonds>
donor molecule, donor type, donor heavy atom, donor atom, acceptor molecule, acceptor atom, score
      L1  H    11    33       P1  7948  0.29
      L1  H    17    47       P1  7948  0.29
      P1  H  6896  6909       L1     2  0.78

> <Gold.Chemscore.Hbond.Weighted>
-8.5075

> <Gold.Chemscore.Metal.Weighted>
-0.0000

> <Gold.Chemscore.Lipo.Weighted>
-11.0765

> <Gold.Chemscore.Internal_Hbond.Weighted>
0.0000

> <Gold.Chemscore.DEClash.Weighted>
0.8803

> <Gold.Chemscore.DEInternal.Weighted>
3.1887

> <Gold.Chemscore.Rot.Weighted>
5.2652

> <Gold.Chemscore.Internal.Correction.Weighted>
   9.000000E+99

> <Gold.Protein.RotatedTorsions>
[ 6907 6896 6895 6894 ] final  -76.27 input  -60.11 | X-H torsion
[ 7974 7965 7964 7962 ] final   24.85 input  175.53 | X-H torsion
[ 8008 7997 7996 7995 ] final  -99.84 input   59.86 | X-H torsion
[ 10167 10162 10161 10158 ] final -178.48 input  -65.29 | X-H torsion
[ 10718 10713 10712 10709 ] final  -98.66 input   66.30 | X-H torsion
[ 10763 10752 10751 10750 ] final -156.84 input  -60.55 | X-H torsion
[ 11005 11000 10999 10996 ] final  103.36 input  -57.11 | X-H torsion

> <Gold.Protein.ActiveResidues>
 VAL166  LYS551  ARG553  GLY616  TRP617  ASP618  TYR619  PRO620  LYS621  CYS622 
 ASP623  PHE694  ASN695  SER759  ASP760  ASP761  ALA762  ILE779  LEU786  VAL792 
 PHE793  MET794  SER795  GLU796  ALA797  LYS798  CYS799  TRP800  GLU811  SER814 

> <Gold.Protein.RotatedAtoms>
  150.7032  134.4597  159.5374 H   0  0  0  0  0  0  0  0  0  0  0  0  # atno 6907 bound_to 6896
  152.2274  134.8352  160.0487 H   0  0  0  0  0  0  0  0  0  0  0  0  # atno 6908 bound_to 6896
  151.9180  133.3543  159.3924 H   0  0  0  0  0  0  0  0  0  0  0  0  # atno 6909 bound_to 6896
  146.1917  139.7547  142.8827 H   0  0  0  0  0  0  0  0  0  0  0  0  # atno 7974 bound_to 7965
  154.8204  140.0445  157.1406 H   0  0  0  0  0  0  0  0  0  0  0  0  # atno 8008 bound_to 7997
  154.9266  140.3034  155.5169 H   0  0  0  0  0  0  0  0  0  0  0  0  # atno 8009 bound_to 7997
  156.2979  140.2331  156.4322 H   0  0  0  0  0  0  0  0  0  0  0  0  # atno 8010 bound_to 7997
  139.5430  144.2310  152.0934 H   0  0  0  0  0  0  0  0  0  0  0  0  # atno 10167 bound_to 10162
  156.0113  130.5248  150.6555 H   0  0  0  0  0  0  0  0  0  0  0  0  # atno 10718 bound_to 10713
  154.7682  135.3137  154.8243 H   0  0  0  0  0  0  0  0  0  0  0  0  # atno 10763 bound_to 10752
  153.8986  135.6818  153.4761 H   0  0  0  0  0  0  0  0  0  0  0  0  # atno 10764 bound_to 10752
  153.1291  135.4788  154.9254 H   0  0  0  0  0  0  0  0  0  0  0  0  # atno 10765 bound_to 10752
  139.8783  134.9260  156.5197 H   0  0  0  0  0  0  0  0  0  0  0  0  # atno 11005 bound_to 11000
  145.3771  141.0352  143.3198 LP  0  0  0  0  0  0  0  0  0  0  0  0  # atno 17320 bound_to 7965
  144.8500  139.5337  143.6861 LP  0  0  0  0  0  0  0  0  0  0  0  0  # atno 17321 bound_to 7965
  140.1792  144.4861  150.6537 LP  0  0  0  0  0  0  0  0  0  0  0  0  # atno 17342 bound_to 10162
  140.6668  143.2271  151.5723 LP  0  0  0  0  0  0  0  0  0  0  0  0  # atno 17343 bound_to 10162
  157.4308  131.0849  151.1041 LP  0  0  0  0  0  0  0  0  0  0  0  0  # atno 17370 bound_to 10713
  157.1614  130.6227  149.5612 LP  0  0  0  0  0  0  0  0  0  0  0  0  # atno 17371 bound_to 10713
  140.8459  133.8169  155.9121 LP  0  0  0  0  0  0  0  0  0  0  0  0  # atno 17394 bound_to 11000
  140.9192  134.2164  157.4937 LP  0  0  0  0  0  0  0  0  0  0  0  0  # atno 17395 bound_to 11000

$$$$
