AV-unprocessed.smi:1005|AV-procd|sdf|4389|dock8
  -GOLD-   22720 2313D 1   1.00000     0.00000
 Structure written by MMmdl.
 55 57  0  0  0  0  0  0  0  0  1 V2000
  153.7049  142.8196  163.5270 C   0  0  0  0  0  0  0  0  0  0  0  0
  153.1509  143.0499  162.1322 C   0  0  0  0  0  0  0  0  0  0  0  0
  152.3843  144.2106  161.8794 C   0  0  0  0  0  0  0  0  0  0  0  0
  151.8457  144.4580  160.5975 C   0  0  0  0  0  0  0  0  0  0  0  0
  151.0759  145.5103  160.1306 N   0  0  0  0  0  0  0  0  0  0  0  0
  150.8840  145.1607  158.8613 C   0  0  0  0  0  0  0  0  0  0  0  0
  151.4401  144.0050  158.4514 N   0  0  0  0  0  0  0  0  0  0  0  0
  151.3649  143.4036  157.1338 C   0  0  0  0  0  0  0  0  0  0  0  0
  150.4386  142.1709  157.1191 C   0  0  1  0  0  0  0  0  0  0  0  0
  149.1070  142.5897  157.3394 O   0  0  0  0  0  0  0  0  0  0  0  0
  150.4863  141.3921  155.7893 C   0  0  0  0  0  0  0  0  0  0  0  0
  150.9512  140.0081  155.8905 N   0  0  0  0  0  0  0  0  0  0  0  0
  150.5667  139.2352  154.7158 C   0  0  0  0  0  0  0  0  0  0  0  0
  151.0586  137.7808  154.8021 C   0  0  0  0  0  0  0  0  0  0  0  0
  150.5751  137.1861  156.0022 O   0  0  0  0  0  0  0  0  0  0  0  0
  150.9900  137.8804  157.1770 C   0  0  2  0  0  0  0  0  0  0  0  0
  150.4554  137.1568  158.4278 C   0  0  0  0  0  0  0  0  0  0  0  0
  149.0001  137.1582  158.5865 N   0  0  0  0  0  0  0  0  0  0  0  0
  148.5735  136.6112  159.8689 C   0  0  0  0  0  0  0  0  0  0  0  0
  148.3635  136.4357  157.4943 C   0  0  0  0  0  0  0  0  0  0  0  0
  150.4638  139.3258  157.0870 C   0  0  0  0  0  0  0  0  0  0  0  0
  152.0962  143.5038  159.5692 C   0  0  0  0  0  0  0  0  0  0  0  0
  152.8623  142.3491  159.8059 C   0  0  0  0  0  0  0  0  0  0  0  0
  153.3937  142.1176  161.0913 C   0  0  0  0  0  0  0  0  0  0  0  0
  154.2187  140.8663  161.3352 C   0  0  0  0  0  0  0  0  0  0  0  0
  153.4176  143.6214  164.2077 H   0  0  0  0  0  0  0  0  0  0  0  0
  154.7939  142.7748  163.5025 H   0  0  0  0  0  0  0  0  0  0  0  0
  153.3284  141.8825  163.9375 H   0  0  0  0  0  0  0  0  0  0  0  0
  152.2006  144.9218  162.6713 H   0  0  0  0  0  0  0  0  0  0  0  0
  150.3003  145.7760  158.1925 H   0  0  0  0  0  0  0  0  0  0  0  0
  151.0318  144.1530  156.4143 H   0  0  0  0  0  0  0  0  0  0  0  0
  152.3783  143.1241  156.8440 H   0  0  0  0  0  0  0  0  0  0  0  0
  150.6941  141.5077  157.9453 H   0  0  0  0  0  0  0  0  0  0  0  0
  148.8813  143.2293  156.6815 H   0  0  0  0  0  0  0  0  0  0  0  0
  149.4964  141.4058  155.3306 H   0  0  0  0  0  0  0  0  0  0  0  0
  151.1407  141.9337  155.1046 H   0  0  0  0  0  0  0  0  0  0  0  0
  149.4808  139.2418  154.6085 H   0  0  0  0  0  0  0  0  0  0  0  0
  150.9719  139.6998  153.8162 H   0  0  0  0  0  0  0  0  0  0  0  0
  150.6980  137.2065  153.9486 H   0  0  0  0  0  0  0  0  0  0  0  0
  152.1486  137.7386  154.7805 H   0  0  0  0  0  0  0  0  0  0  0  0
  152.0807  137.9037  157.2203 H   0  0  0  0  0  0  0  0  0  0  0  0
  150.7809  136.1175  158.3614 H   0  0  0  0  0  0  0  0  0  0  0  0
  150.9344  137.5589  159.3219 H   0  0  0  0  0  0  0  0  0  0  0  0
  147.4853  136.5750  159.9311 H   0  0  0  0  0  0  0  0  0  0  0  0
  148.9179  137.2306  160.6961 H   0  0  0  0  0  0  0  0  0  0  0  0
  148.9541  135.5992  160.0131 H   0  0  0  0  0  0  0  0  0  0  0  0
  147.2774  136.4786  157.5824 H   0  0  0  0  0  0  0  0  0  0  0  0
  148.6630  135.3866  157.4882 H   0  0  0  0  0  0  0  0  0  0  0  0
  148.6316  136.8721  156.5316 H   0  0  0  0  0  0  0  0  0  0  0  0
  150.7817  139.8594  157.9811 H   0  0  0  0  0  0  0  0  0  0  0  0
  149.3726  139.3223  157.0953 H   0  0  0  0  0  0  0  0  0  0  0  0
  153.0381  141.6476  159.0041 H   0  0  0  0  0  0  0  0  0  0  0  0
  154.3062  140.2646  160.4299 H   0  0  0  0  0  0  0  0  0  0  0  0
  153.7566  140.2473  162.1044 H   0  0  0  0  0  0  0  0  0  0  0  0
  155.2256  141.1299  161.6596 H   0  0  0  0  0  0  0  0  0  0  0  0
  1  2  1  0  0  0  0
  1 26  1  0  0  0  0
  1 27  1  0  0  0  0
  1 28  1  0  0  0  0
  2 24  1  0  0  0  0
  2  3  2  0  0  0  0
  3  4  1  0  0  0  0
  3 29  1  0  0  0  0
  4 22  2  0  0  0  0
  4  5  1  0  0  0  0
  5  6  2  0  0  0  0
  6  7  1  0  0  0  0
  6 30  1  0  0  0  0
  7  8  1  0  0  0  0
  7 22  1  0  0  0  0
  8  9  1  0  0  0  0
  8 31  1  0  0  0  0
  8 32  1  0  0  0  0
  9 10  1  0  0  0  0
  9 11  1  0  0  0  0
  9 33  1  0  0  0  0
 10 34  1  0  0  0  0
 11 12  1  0  0  0  0
 11 35  1  0  0  0  0
 11 36  1  0  0  0  0
 12 21  1  0  0  0  0
 12 13  1  0  0  0  0
 13 14  1  0  0  0  0
 13 37  1  0  0  0  0
 13 38  1  0  0  0  0
 14 15  1  0  0  0  0
 14 39  1  0  0  0  0
 14 40  1  0  0  0  0
 15 16  1  0  0  0  0
 16 17  1  0  0  0  0
 16 21  1  0  0  0  0
 16 41  1  0  0  0  0
 17 18  1  0  0  0  0
 17 42  1  0  0  0  0
 17 43  1  0  0  0  0
 18 19  1  0  0  0  0
 18 20  1  0  0  0  0
 19 44  1  0  0  0  0
 19 45  1  0  0  0  0
 19 46  1  0  0  0  0
 20 47  1  0  0  0  0
 20 48  1  0  0  0  0
 20 49  1  0  0  0  0
 21 50  1  0  0  0  0
 21 51  1  0  0  0  0
 22 23  1  0  0  0  0
 23 24  2  0  0  0  0
 23 52  1  0  0  0  0
 24 25  1  0  0  0  0
 25 53  1  0  0  0  0
 25 54  1  0  0  0  0
 25 55  1  0  0  0  0
M  END
> <s_m_source_file>
AV-unprocessed.smi

> <i_m_source_file_index>
1005

> <i_lp_mmshare_version>
43012

> <i_f3d_flags>
0

> <s_epik_input>
W0NIM11jKFtjSF0xKWMoW0NIM10pW2NIXWMoYzEyKW4oW2NIXW4yKVtDSDJdW0NASF0oW09IXSlbQ0gyXU4zW0NIMl1bQ0gyXU9bQ0BIXShbQ0gyXTMpW0NIMl1OKFtDSDNdKVtDSDNd

> <s_epik_cmdline>
J2VwaWtfcHl0aG9uJywgJy1waCcsICc3LjAnLCAnLXRuJywgJzgnLCAnLW1hJywgJzIwMCcsICctbWV0YWxfYmluZGluZycsICctaW1hZScsICc8aW5maWxlLm1hZT4nLCAnLW9tYWUnLCAnPG91dGZpbGUubWFlPic=

> <r_epik_Ionization_Penalty>
2.78613

> <r_epik_Ionization_Penalty_Charging>
0

> <r_epik_Ionization_Penalty_Neutral>
2.78613

> <r_epik_State_Penalty>
2.57336

> <r_epik_Charging_Adjusted_Penalty>
2.57336

> <i_epik_Tot_Q>
0

> <i_epik_Tot_abs_Q>
0

> <r_epik_Metal_State_Penalty>
2.49087

> <b_epik_Metal_Only>
0

> <s_lp_Force_Field>
OPLS_2005

> <r_lp_Energy>
32.9837

> <b_lp_Chiralities_Consistent>
1

> <s_lp_Variant>
AV-unprocessed.smi:1005-28

> <Gold.Version>
5.8.1

> <Gold.Id.Protein>
6NUR|6NUR_protein|mol2

> <Gold.PLP.Fitness>
58.9102

> <Gold.PLP.PLP>
-55.1604

> <Gold.PLP.part.hbond>
-1.2569

> <Gold.PLP.part.metal>
0.0000

> <Gold.PLP.part.buried>
-6.4739

> <Gold.PLP.part.nonpolar>
-47.3286

> <Gold.PLP.part.repulsive>
0.2504

> <Gold.PLP.ligand.clash>
0.0000

> <Gold.PLP.ligand.torsion>
1.1448

> <Gold.PLP.Chemscore.Hbond>
1.0000

> <Gold.PLP.Chemscore.CHOScore>
0.9846

> <Gold.PLP.Chemscore.Metal>
0.0000

> <Gold.Chemscore.Hbonds>
donor molecule, donor type, donor heavy atom, donor atom, acceptor molecule, acceptor atom, score
      L1  H    10    34       P1  8028  1.00
      L1  C     6    30       P1  8029  0.95

> <Gold.PLP.Chemscore.Internal.Correction>
0.0856

> <Gold.Rescore>
     Score         DG    S(hbond)    S(metal)    S(lipo)     H(rot)  DE(clash)    DE(int)     intcor
     17.76     -20.40       0.98        0.00     149.70       2.29       0.07       2.57       ----

> <Gold.Chemscore.Fitness>
17.7565

> <Gold.Chemscore.DG>
-20.3953

> <Gold.Chemscore.ZeroCoef>
-5.4800

> <Gold.Chemscore.Hbond>
0.9765

> <Gold.Chemscore.Metal>
0.0000

> <Gold.Chemscore.Lipo>
149.6990

> <Gold.Chemscore.Internal_Hbond>
0.0000

> <Gold.Chemscore.DEClash>
0.0661

> <Gold.Chemscore.DEInternal>
2.5726

> <Gold.Chemscore.Rot>
2.2895

> <Gold.Chemscore.Internal.Correction>
   9.000000E+99

> <Gold.Chemscore.Hbonds>
donor molecule, donor type, donor heavy atom, donor atom, acceptor molecule, acceptor atom, score
      L1  H    10    34       P1  8028  0.90

> <Gold.Chemscore.Hbond.Weighted>
-3.2616

> <Gold.Chemscore.Metal.Weighted>
-0.0000

> <Gold.Chemscore.Lipo.Weighted>
-17.5148

> <Gold.Chemscore.Internal_Hbond.Weighted>
0.0000

> <Gold.Chemscore.DEClash.Weighted>
0.0661

> <Gold.Chemscore.DEInternal.Weighted>
2.5726

> <Gold.Chemscore.Rot.Weighted>
5.8612

> <Gold.Chemscore.Internal.Correction.Weighted>
   9.000000E+99

> <Gold.Protein.RotatedTorsions>
[ 6907 6896 6895 6894 ] final -161.78 input  -60.11 | X-H torsion
[ 7974 7965 7964 7962 ] final  153.52 input  175.53 | X-H torsion
[ 8008 7997 7996 7995 ] final   68.85 input   59.86 | X-H torsion
[ 10167 10162 10161 10158 ] final -171.28 input  -65.29 | X-H torsion
[ 10718 10713 10712 10709 ] final   -5.64 input   66.30 | X-H torsion
[ 10763 10752 10751 10750 ] final   26.44 input  -60.55 | X-H torsion
[ 11005 11000 10999 10996 ] final -124.83 input  -57.11 | X-H torsion

> <Gold.Protein.ActiveResidues>
 VAL166  LYS551  ARG553  GLY616  TRP617  ASP618  TYR619  PRO620  LYS621  CYS622 
 ASP623  PHE694  ASN695  SER759  ASP760  ASP761  ALA762  ILE779  LEU786  VAL792 
 PHE793  MET794  SER795  GLU796  ALA797  LYS798  CYS799  TRP800  GLU811  SER814 

> <Gold.Protein.RotatedAtoms>
  151.3700  133.3858  159.2698 H   0  0  0  0  0  0  0  0  0  0  0  0  # atno 6907 bound_to 6896
  150.9658  134.9040  159.7769 H   0  0  0  0  0  0  0  0  0  0  0  0  # atno 6908 bound_to 6896
  152.5166  134.3660  159.9354 H   0  0  0  0  0  0  0  0  0  0  0  0  # atno 6909 bound_to 6896
  144.8149  139.6811  143.6125 H   0  0  0  0  0  0  0  0  0  0  0  0  # atno 7974 bound_to 7965
  155.7147  140.3494  155.4989 H   0  0  0  0  0  0  0  0  0  0  0  0  # atno 8008 bound_to 7997
  155.9324  140.1086  157.1143 H   0  0  0  0  0  0  0  0  0  0  0  0  # atno 8009 bound_to 7997
  154.4087  140.1228  156.4807 H   0  0  0  0  0  0  0  0  0  0  0  0  # atno 8010 bound_to 7997
  139.5812  144.1420  152.1517 H   0  0  0  0  0  0  0  0  0  0  0  0  # atno 10167 bound_to 10162
  156.7437  130.5217  149.5819 H   0  0  0  0  0  0  0  0  0  0  0  0  # atno 10718 bound_to 10713
  153.0623  135.6560  154.0435 H   0  0  0  0  0  0  0  0  0  0  0  0  # atno 10763 bound_to 10752
  154.0100  135.2929  155.3395 H   0  0  0  0  0  0  0  0  0  0  0  0  # atno 10764 bound_to 10752
  154.6966  135.5261  153.8535 H   0  0  0  0  0  0  0  0  0  0  0  0  # atno 10765 bound_to 10752
  140.9810  134.0673  157.3765 H   0  0  0  0  0  0  0  0  0  0  0  0  # atno 11005 bound_to 11000
  146.2451  139.6082  142.9465 LP  0  0  0  0  0  0  0  0  0  0  0  0  # atno 17320 bound_to 7965
  145.5237  141.0430  143.2421 LP  0  0  0  0  0  0  0  0  0  0  0  0  # atno 17321 bound_to 7965
  140.0973  144.5569  150.7013 LP  0  0  0  0  0  0  0  0  0  0  0  0  # atno 17342 bound_to 10162
  140.7090  143.2490  151.4640 LP  0  0  0  0  0  0  0  0  0  0  0  0  # atno 17343 bound_to 10162
  156.1448  130.6269  151.0516 LP  0  0  0  0  0  0  0  0  0  0  0  0  # atno 17370 bound_to 10713
  157.6807  131.0838  150.7376 LP  0  0  0  0  0  0  0  0  0  0  0  0  # atno 17371 bound_to 10713
  139.8950  135.0139  156.6980 LP  0  0  0  0  0  0  0  0  0  0  0  0  # atno 17394 bound_to 11000
  140.7187  133.9160  155.8132 LP  0  0  0  0  0  0  0  0  0  0  0  0  # atno 17395 bound_to 11000

$$$$
