#       Name:                AV-unprocessed.smi:1817
#       Creating user name   scv26
#       Creation time:       Fri Mar 27 09:04:12 2020


#       File generated by GOLD software.
#

@<TRIPOS>MOLECULE
AV-unprocessed.smi:1817
    48    49     1
SMALL
NO_CHARGES


@<TRIPOS>ATOM
      1 ****        -2.9752   1.2381  -3.2988 C.3            1 S1                 0.0000
      2 ****        -2.0431   1.7696  -2.2003 C.3            1 S1                 0.0000
      3 ****        -2.3309   1.1803  -0.8691 N.4            1 S1                 1.0000
      4 ****        -1.7411   1.9757   0.2366 C.3            1 S1                 0.0000
      5 ****        -2.0651   1.3410   1.6084 C.3            1 S1                 0.0000
      6 ****        -1.5823  -0.0449   1.7059 N.3            1 S1                 0.0000
      7 ****        -0.1083  -0.1810   1.7138 C.3            1 S1                 0.0000
      8 ****         0.4896   0.5458   2.9414 C.3            1 S1                 0.0000
      9 ****         0.3490  -1.6657   1.6975 C.3            1 S1                 0.0000
     10 ****         1.8000  -1.7948   1.6000 N.am           1 S1                 0.0000
     11 ****         2.5259  -1.5856   0.4916 C.2            1 S1                 0.0000
     12 ****         1.9636  -1.2777  -0.5627 O.2            1 S1                 0.0000
     13 ****         3.8565  -1.7398   0.6728 N.pl3          1 S1                -1.0000
     14 ****         4.6999  -1.5436  -0.3541 C.2            1 S1                 0.0000
     15 ****         5.3267  -0.3736  -0.5561 N.2            1 S1                 0.0000
     16 ****         6.1563  -0.3835  -1.6692 N.2            1 S1                 0.0000
     17 ****         6.1397  -1.5696  -2.2766 C.2            1 S1                 0.0000
     18 ****         5.1089  -2.7814  -1.5448 S.3            1 S1                 0.0000
     19 ****        -2.2853  -0.7862   0.6495 C.3            1 S1                 0.0000
     20 ****        -1.9390  -0.2471  -0.7539 C.3            1 S1                 0.0000
     21 ****        -2.7992   1.7655  -4.2365 H              1 S1                 0.0000
     22 ****        -4.0227   1.3808  -3.0320 H              1 S1                 0.0000
     23 ****        -2.8163   0.1777  -3.4929 H              1 S1                 0.0000
     24 ****        -0.9990   1.5984  -2.4670 H              1 S1                 0.0000
     25 ****        -2.1749   2.8509  -2.1436 H              1 S1                 0.0000
     26 ****        -0.6657   2.0846   0.0922 H              1 S1                 0.0000
     27 ****        -2.1553   2.9840   0.2076 H              1 S1                 0.0000
     28 ****        -1.6713   1.9560   2.4153 H              1 S1                 0.0000
     29 ****        -3.1459   1.3436   1.7576 H              1 S1                 0.0000
     30 ****         0.2977   0.2918   0.8215 H              1 S1                 0.0000
     31 ****         1.5642   0.3833   3.0223 H              1 S1                 0.0000
     32 ****         0.0372   0.1952   3.8695 H              1 S1                 0.0000
     33 ****         0.3625   1.6259   2.8884 H              1 S1                 0.0000
     34 ****         0.0154  -2.1743   2.6024 H              1 S1                 0.0000
     35 ****        -0.0656  -2.2214   0.8578 H              1 S1                 0.0000
     36 ****         2.2964  -2.0472   2.4420 H              1 S1                 0.0000
     37 ****         6.7394  -1.7328  -3.1596 H              1 S1                 0.0000
     38 ****        -2.0928  -1.8549   0.7158 H              1 S1                 0.0000
     39 ****        -3.3599  -0.6930   0.8139 H              1 S1                 0.0000
     40 ****        -2.4796  -0.8375  -1.4926 H              1 S1                 0.0000
     41 ****        -0.8781  -0.3708  -0.9754 H              1 S1                 0.0000
     42 ****        -3.3316   1.2191  -0.7397 H              1 S1                 0.0000
     43 ****        -1.7988  -0.4408   2.5984 LP             1 S1                 0.0000
     44 ****         0.9683  -1.1845  -0.5898 LP             1 S1                 0.0000
     45 ****         2.5032  -1.1214  -1.3900 LP             1 S1                 0.0000
     46 ****         4.2126  -1.9997   1.5704 LP             1 S1                 0.0000
     47 ****         5.2080   0.4240   0.0353 LP             1 S1                 0.0000
     48 ****         6.6973   0.3995  -1.9760 LP             1 S1                 0.0000
@<TRIPOS>BOND
    1    1    2 1     
    2    1   21 1     
    3    1   22 1     
    4    1   23 1     
    5    2    3 1     
    6    2   24 1     
    7    2   25 1     
    8    3   20 1     
    9    3    4 1     
   10    3   42 1     
   11    4    5 1     
   12    4   26 1     
   13    4   27 1     
   14    5    6 1     
   15    5   28 1     
   16    5   29 1     
   17    6    7 1     
   18    6   19 1     
   19    7    8 1     
   20    7    9 1     
   21    7   30 1     
   22    8   31 1     
   23    8   32 1     
   24    8   33 1     
   25    9   10 1     
   26    9   34 1     
   27    9   35 1     
   28   10   11 am    
   29   10   36 1     
   30   11   12 2     
   31   11   13 1     
   32   13   14 1     
   33   14   18 1     
   34   14   15 2     
   35   15   16 1     
   36   16   17 2     
   37   17   18 1     
   38   17   37 1     
   39   19   20 1     
   40   19   38 1     
   41   19   39 1     
   42   20   40 1     
   43   20   41 1     
   44    6   43 1     
   45   12   44 1     
   46   12   45 1     
   47   13   46 1     
   48   15   47 1     
   49   16   48 1     
@<TRIPOS>SUBSTRUCTURE
      1 S1             1
@<TRIPOS>SET
LONE_PAIRS      STATIC     ATOMS    <user>   **** ""
6 43 44 45 46 47 48
DONOR_HYDROGENS      STATIC     ATOMS    <user>   **** ""
2 42 36
ATOM$BLUE        STATIC     ATOMS    COLORGROUP SYSTEM
6 43 44 45 46 47 48
ATOM$RED        STATIC     ATOMS    COLORGROUP SYSTEM
2 42 36
