AV-unprocessed.smi:3312|AV-procd|sdf|12728|dock9
  -GOLD-   2272019 73D 1   1.00000     0.00000
 Structure written by MMmdl.
 38 39  0  0  0  0  0  0  0  0  1 V2000
  144.6075  132.1600  150.3937 C   0  0  0  0  0  0  0  0  0  0  0  0
  145.6543  132.5779  151.3860 C   0  0  0  0  0  0  0  0  0  0  0  0
  145.6197  133.6850  152.2809 C   0  0  0  0  0  0  0  0  0  0  0  0
  146.7085  133.7777  153.0268 N   0  0  0  0  0  0  0  0  0  0  0  0
  147.4758  132.7392  152.6340 N   0  0  0  0  0  0  0  0  0  0  0  0
  148.7732  132.5242  153.2507 C   0  0  0  0  0  0  0  0  0  0  0  0
  148.9510  133.3242  154.5528 C   0  0  0  0  0  0  0  0  0  0  0  0
  149.6624  134.5711  154.2860 N   0  0  0  0  0  0  0  0  0  0  0  0
  149.8604  135.3861  155.4971 C   0  0  0  0  0  0  0  0  0  0  0  0
  151.1859  136.1730  155.5606 C   0  0  0  0  0  0  0  0  0  0  0  0
  152.1282  135.7093  156.2055 O   0  0  0  0  0  0  0  0  0  0  0  0
  151.2850  137.3470  154.8912 N   0  0  0  0  0  0  0  0  0  0  0  0
  152.4678  138.2107  154.9545 C   0  0  0  0  0  0  0  0  0  0  0  0
  152.0568  139.5470  155.5997 C   0  0  0  0  0  0  0  0  0  0  0  0
  151.0017  140.1421  154.8474 O   0  0  0  0  0  0  0  0  0  0  0  0
  149.8491  139.3093  154.7417 C   0  0  0  0  0  0  0  0  0  0  0  0
  150.2377  137.9754  154.0799 C   0  0  0  0  0  0  0  0  0  0  0  0
  146.8623  131.9962  151.6479 C   0  0  0  0  0  0  0  0  0  0  0  0
  143.6214  132.5402  150.6615 H   0  0  0  0  0  0  0  0  0  0  0  0
  144.5252  131.0749  150.3263 H   0  0  0  0  0  0  0  0  0  0  0  0
  144.8337  132.5287  149.3931 H   0  0  0  0  0  0  0  0  0  0  0  0
  144.8392  134.4203  152.4100 H   0  0  0  0  0  0  0  0  0  0  0  0
  148.8802  131.4580  153.4543 H   0  0  0  0  0  0  0  0  0  0  0  0
  149.5529  132.7829  152.5330 H   0  0  0  0  0  0  0  0  0  0  0  0
  147.9776  133.5381  154.9967 H   0  0  0  0  0  0  0  0  0  0  0  0
  149.4992  132.7143  155.2703 H   0  0  0  0  0  0  0  0  0  0  0  0
  149.1508  135.0852  153.5831 H   0  0  0  0  0  0  0  0  0  0  0  0
  149.0459  136.1089  155.5530 H   0  0  0  0  0  0  0  0  0  0  0  0
  149.7669  134.7356  156.3675 H   0  0  0  0  0  0  0  0  0  0  0  0
  153.2898  137.7693  155.5192 H   0  0  0  0  0  0  0  0  0  0  0  0
  152.8489  138.3796  153.9463 H   0  0  0  0  0  0  0  0  0  0  0  0
  151.7389  139.3974  156.6329 H   0  0  0  0  0  0  0  0  0  0  0  0
  152.9042  140.2323  155.6222 H   0  0  0  0  0  0  0  0  0  0  0  0
  149.4153  139.1427  155.7290 H   0  0  0  0  0  0  0  0  0  0  0  0
  149.0966  139.8230  154.1435 H   0  0  0  0  0  0  0  0  0  0  0  0
  150.6263  138.1585  153.0771 H   0  0  0  0  0  0  0  0  0  0  0  0
  149.3530  137.3573  153.9394 H   0  0  0  0  0  0  0  0  0  0  0  0
  147.3333  131.1254  151.2160 H   0  0  0  0  0  0  0  0  0  0  0  0
  1  2  1  0  0  0  0
  1 19  1  0  0  0  0
  1 20  1  0  0  0  0
  1 21  1  0  0  0  0
  2 18  2  0  0  0  0
  2  3  1  0  0  0  0
  3  4  2  0  0  0  0
  3 22  1  0  0  0  0
  4  5  1  0  0  0  0
  5  6  1  0  0  0  0
  5 18  1  0  0  0  0
  6  7  1  0  0  0  0
  6 23  1  0  0  0  0
  6 24  1  0  0  0  0
  7  8  1  0  0  0  0
  7 25  1  0  0  0  0
  7 26  1  0  0  0  0
  8  9  1  0  0  0  0
  8 27  1  0  0  0  0
  9 10  1  0  0  0  0
  9 28  1  0  0  0  0
  9 29  1  0  0  0  0
 10 11  2  0  0  0  0
 10 12  1  0  0  0  0
 12 17  1  0  0  0  0
 12 13  1  0  0  0  0
 13 14  1  0  0  0  0
 13 30  1  0  0  0  0
 13 31  1  0  0  0  0
 14 15  1  0  0  0  0
 14 32  1  0  0  0  0
 14 33  1  0  0  0  0
 15 16  1  0  0  0  0
 16 17  1  0  0  0  0
 16 34  1  0  0  0  0
 16 35  1  0  0  0  0
 17 36  1  0  0  0  0
 17 37  1  0  0  0  0
 18 38  1  0  0  0  0
M  END
> <s_m_source_file>
AV-unprocessed.smi

> <i_m_source_file_index>
3312

> <i_lp_mmshare_version>
43012

> <i_f3d_flags>
0

> <s_epik_input>
W0NIM11jMVtjSF1ubihbY0hdMSlbQ0gyXVtDSDJdW05IXVtDSDJdQyg9TylOMltDSDJdW0NIMl1PW0NIMl1bQ0gyXTI=

> <s_epik_cmdline>
J2VwaWtfcHl0aG9uJywgJy1waCcsICc3LjAnLCAnLXRuJywgJzgnLCAnLW1hJywgJzIwMCcsICctbWV0YWxfYmluZGluZycsICctaW1hZScsICc8aW5maWxlLm1hZT4nLCAnLW9tYWUnLCAnPG91dGZpbGUubWFlPic=

> <r_lp_tautomer_probability>
1

> <r_epik_Ionization_Penalty>
0.513825

> <r_epik_Ionization_Penalty_Charging>
0

> <r_epik_Ionization_Penalty_Neutral>
0.513825

> <r_epik_State_Penalty>
0.518565

> <r_epik_Charging_Adjusted_Penalty>
0.518565

> <i_epik_Tot_Q>
0

> <i_epik_Tot_abs_Q>
0

> <r_epik_Metal_State_Penalty>
0.515505

> <b_epik_Metal_Only>
0

> <s_lp_Force_Field>
OPLS_2005

> <r_lp_Energy>
26.2636

> <b_lp_Chiralities_Consistent>
1

> <s_lp_Variant>
AV-unprocessed.smi:3312-2

> <Gold.Version>
5.8.1

> <Gold.Id.Protein>
6NUR|6NUR_protein|mol2

> <Gold.PLP.Fitness>
45.5609

> <Gold.PLP.PLP>
-35.5035

> <Gold.PLP.part.hbond>
-3.0095

> <Gold.PLP.part.metal>
0.0000

> <Gold.PLP.part.buried>
-3.0978

> <Gold.PLP.part.nonpolar>
-29.8550

> <Gold.PLP.part.repulsive>
0.1598

> <Gold.PLP.ligand.clash>
0.0000

> <Gold.PLP.ligand.torsion>
0.9828

> <Gold.PLP.Chemscore.Hbond>
3.0000

> <Gold.PLP.Chemscore.CHOScore>
1.0000

> <Gold.PLP.Chemscore.Metal>
0.0000

> <Gold.Chemscore.Hbonds>
donor molecule, donor type, donor heavy atom, donor atom, acceptor molecule, acceptor atom, score
      L1  H     8    27       P1  7948  0.98
      P1  H  7989  7998       L1    15  1.00
      P1  H 10752 10763       L1    11  1.00
      L1  C    18    38       P1 10747  0.70

> <Gold.PLP.Chemscore.Internal.Correction>
0.0230

> <Gold.Rescore>
     Score         DG    S(hbond)    S(metal)    S(lipo)     H(rot)  DE(clash)    DE(int)     intcor
     15.71     -17.10       2.28        0.00      74.16       1.82       0.21       1.19       ----

> <Gold.Chemscore.Fitness>
15.7099

> <Gold.Chemscore.DG>
-17.1046

> <Gold.Chemscore.ZeroCoef>
-5.4800

> <Gold.Chemscore.Hbond>
2.2787

> <Gold.Chemscore.Metal>
0.0000

> <Gold.Chemscore.Lipo>
74.1560

> <Gold.Chemscore.Internal_Hbond>
0.0000

> <Gold.Chemscore.DEClash>
0.2066

> <Gold.Chemscore.DEInternal>
1.1881

> <Gold.Chemscore.Rot>
1.8213

> <Gold.Chemscore.Internal.Correction>
   9.000000E+99

> <Gold.Chemscore.Hbonds>
donor molecule, donor type, donor heavy atom, donor atom, acceptor molecule, acceptor atom, score
      L1  H     8    27       P1  7948  0.27
      P1  H  7989  7998       L1    15  0.69
      P1  H 10752 10763       L1    11  0.58

> <Gold.Chemscore.Hbond.Weighted>
-7.6107

> <Gold.Chemscore.Metal.Weighted>
-0.0000

> <Gold.Chemscore.Lipo.Weighted>
-8.6763

> <Gold.Chemscore.Internal_Hbond.Weighted>
0.0000

> <Gold.Chemscore.DEClash.Weighted>
0.2066

> <Gold.Chemscore.DEInternal.Weighted>
1.1881

> <Gold.Chemscore.Rot.Weighted>
4.6624

> <Gold.Chemscore.Internal.Correction.Weighted>
   9.000000E+99

> <Gold.Protein.RotatedTorsions>
[ 6907 6896 6895 6894 ] final   -1.34 input  -60.11 | X-H torsion
[ 7974 7965 7964 7962 ] final -115.67 input  175.53 | X-H torsion
[ 8008 7997 7996 7995 ] final   62.43 input   59.86 | X-H torsion
[ 10167 10162 10161 10158 ] final   76.79 input  -65.29 | X-H torsion
[ 10718 10713 10712 10709 ] final  131.65 input   66.30 | X-H torsion
[ 10763 10752 10751 10750 ] final  100.70 input  -60.55 | X-H torsion
[ 11005 11000 10999 10996 ] final  -88.01 input  -57.11 | X-H torsion

> <Gold.Protein.ActiveResidues>
 VAL166  LYS551  ARG553  GLY616  TRP617  ASP618  TYR619  PRO620  LYS621  CYS622 
 ASP623  PHE694  ASN695  SER759  ASP760  ASP761  ALA762  ILE779  LEU786  VAL792 
 PHE793  MET794  SER795  GLU796  ALA797  LYS798  CYS799  TRP800  GLU811  SER814 

> <Gold.Protein.RotatedAtoms>
  151.5477  135.1068  159.9941 H   0  0  0  0  0  0  0  0  0  0  0  0  # atno 6907 bound_to 6896
  152.4506  133.7617  159.6761 H   0  0  0  0  0  0  0  0  0  0  0  0  # atno 6908 bound_to 6896
  150.8433  133.7834  159.3077 H   0  0  0  0  0  0  0  0  0  0  0  0  # atno 6909 bound_to 6896
  145.1057  140.8580  143.3900 H   0  0  0  0  0  0  0  0  0  0  0  0  # atno 7974 bound_to 7965
  155.6142  140.3495  155.4631 H   0  0  0  0  0  0  0  0  0  0  0  0  # atno 8008 bound_to 7997
  156.0130  140.1237  157.0458 H   0  0  0  0  0  0  0  0  0  0  0  0  # atno 8009 bound_to 7997
  154.4287  140.1077  156.5843 H   0  0  0  0  0  0  0  0  0  0  0  0  # atno 8010 bound_to 7997
  139.9884  144.5775  150.7839 H   0  0  0  0  0  0  0  0  0  0  0  0  # atno 10167 bound_to 10162
  157.4947  131.1092  150.9509 H   0  0  0  0  0  0  0  0  0  0  0  0  # atno 10718 bound_to 10713
  153.3173  135.4070  155.1387 H   0  0  0  0  0  0  0  0  0  0  0  0  # atno 10763 bound_to 10752
  154.8591  135.3579  154.5644 H   0  0  0  0  0  0  0  0  0  0  0  0  # atno 10764 bound_to 10752
  153.6075  135.7069  153.5418 H   0  0  0  0  0  0  0  0  0  0  0  0  # atno 10765 bound_to 10752
  141.1608  133.7545  156.9390 H   0  0  0  0  0  0  0  0  0  0  0  0  # atno 11005 bound_to 11000
  145.0904  139.2894  143.5738 LP  0  0  0  0  0  0  0  0  0  0  0  0  # atno 17320 bound_to 7965
  146.3528  140.0440  142.8641 LP  0  0  0  0  0  0  0  0  0  0  0  0  # atno 17321 bound_to 7965
  140.7463  143.2889  151.3385 LP  0  0  0  0  0  0  0  0  0  0  0  0  # atno 17342 bound_to 10162
  139.6358  144.0634  152.2514 LP  0  0  0  0  0  0  0  0  0  0  0  0  # atno 17343 bound_to 10162
  157.0200  130.5670  149.5330 LP  0  0  0  0  0  0  0  0  0  0  0  0  # atno 17370 bound_to 10713
  156.0193  130.5288  150.8229 LP  0  0  0  0  0  0  0  0  0  0  0  0  # atno 17371 bound_to 10713
  140.1335  134.9341  157.2369 LP  0  0  0  0  0  0  0  0  0  0  0  0  # atno 17394 bound_to 11000
  140.2924  134.3225  155.7311 LP  0  0  0  0  0  0  0  0  0  0  0  0  # atno 17395 bound_to 11000

$$$$
