AV-unprocessed.smi:830|AV-procd|sdf|3870|dock10
  -GOLD-   22720 1323D 1   1.00000     0.00000
 Structure written by MMmdl.
 52 54  0  0  0  0  0  0  0  0  1 V2000
  150.6234  134.4816  155.7212 C   0  0  0  0  0  0  0  0  0  0  0  0
  149.2809  135.2226  155.6026 C   0  0  2  0  0  0  0  0  0  0  0  0
  148.5349  134.7404  154.4417 N   0  0  0  0  0  0  0  0  0  0  0  0
  147.9172  133.5552  154.3437 C   0  0  0  0  0  0  0  0  0  0  0  0
  147.8947  132.7186  155.2469 O   0  0  0  0  0  0  0  0  0  0  0  0
  147.3556  133.4014  153.1336 N   0  0  0  0  0  0  0  0  0  0  0  0
  146.7043  132.2458  152.6209 C   0  0  0  0  0  0  0  0  0  0  0  0
  147.1212  130.9452  152.9941 C   0  0  0  0  0  0  0  0  0  0  0  0
  146.4059  129.8307  152.5238 C   0  0  0  0  0  0  0  0  0  0  0  0
  145.2855  130.0572  151.7074 C   0  0  0  0  0  0  0  0  0  0  0  0
  144.8686  131.2895  151.3539 N   0  0  0  0  0  0  0  0  0  0  0  0
  145.5568  132.3750  151.7864 C   0  0  0  0  0  0  0  0  0  0  0  0
  145.0827  133.6398  151.3665 N   0  0  0  0  0  0  0  0  0  0  0  0
  145.9586  134.5583  150.6462 C   0  0  0  0  0  0  0  0  0  0  0  0
  145.2576  135.9121  150.7163 C   0  0  0  0  0  0  0  0  0  0  0  0
  144.6133  135.8739  152.0984 C   0  0  0  0  0  0  0  0  0  0  0  0
  144.2329  134.4009  152.2784 C   0  0  0  0  0  0  0  0  0  0  0  0
  149.4255  136.7491  155.5778 C   0  0  0  0  0  0  0  0  0  0  0  0
  149.2370  137.4158  156.5966 O   0  0  0  0  0  0  0  0  0  0  0  0
  149.7525  137.2933  154.3955 N   0  0  0  0  0  0  0  0  0  0  0  0
  149.9480  138.7196  154.1527 C   0  0  0  0  0  0  0  0  0  0  0  0
  151.1985  139.2267  154.8926 C   0  0  0  0  0  0  0  0  0  0  0  0
  150.6814  140.0506  156.0718 C   0  0  0  0  0  0  0  0  0  0  0  0
  149.3768  140.6524  155.5589 C   0  0  0  0  0  0  0  0  0  0  0  0
  148.7648  139.5520  154.6893 C   0  0  0  0  0  0  0  0  0  0  0  0
  151.1886  134.8211  156.5896 H   0  0  0  0  0  0  0  0  0  0  0  0
  151.2433  134.6417  154.8382 H   0  0  0  0  0  0  0  0  0  0  0  0
  150.4729  133.4072  155.8311 H   0  0  0  0  0  0  0  0  0  0  0  0
  148.6960  134.9918  156.4954 H   0  0  0  0  0  0  0  0  0  0  0  0
  148.4927  135.3640  153.6486 H   0  0  0  0  0  0  0  0  0  0  0  0
  147.5351  134.1332  152.4616 H   0  0  0  0  0  0  0  0  0  0  0  0
  147.9636  130.7892  153.6509 H   0  0  0  0  0  0  0  0  0  0  0  0
  146.7017  128.8277  152.7933 H   0  0  0  0  0  0  0  0  0  0  0  0
  144.7045  129.2277  151.3320 H   0  0  0  0  0  0  0  0  0  0  0  0
  146.9308  134.6289  151.1353 H   0  0  0  0  0  0  0  0  0  0  0  0
  146.1142  134.2352  149.6165 H   0  0  0  0  0  0  0  0  0  0  0  0
  145.9405  136.7517  150.5846 H   0  0  0  0  0  0  0  0  0  0  0  0
  144.4864  135.9750  149.9472 H   0  0  0  0  0  0  0  0  0  0  0  0
  145.3485  136.1575  152.8526 H   0  0  0  0  0  0  0  0  0  0  0  0
  143.7603  136.5467  152.1908 H   0  0  0  0  0  0  0  0  0  0  0  0
  143.1913  134.2506  151.9937 H   0  0  0  0  0  0  0  0  0  0  0  0
  144.3501  134.0834  153.3155 H   0  0  0  0  0  0  0  0  0  0  0  0
  149.8832  136.6744  153.6082 H   0  0  0  0  0  0  0  0  0  0  0  0
  150.0796  138.8939  153.0830 H   0  0  0  0  0  0  0  0  0  0  0  0
  151.8697  138.4276  155.2107 H   0  0  0  0  0  0  0  0  0  0  0  0
  151.7690  139.8765  154.2276 H   0  0  0  0  0  0  0  0  0  0  0  0
  150.4768  139.3940  156.9185 H   0  0  0  0  0  0  0  0  0  0  0  0
  151.3941  140.8074  156.3998 H   0  0  0  0  0  0  0  0  0  0  0  0
  148.7134  140.9684  156.3645 H   0  0  0  0  0  0  0  0  0  0  0  0
  149.5943  141.5271  154.9444 H   0  0  0  0  0  0  0  0  0  0  0  0
  148.1552  139.9633  153.8843 H   0  0  0  0  0  0  0  0  0  0  0  0
  148.1074  138.9363  155.3057 H   0  0  0  0  0  0  0  0  0  0  0  0
  1  2  1  0  0  0  0
  1 26  1  0  0  0  0
  1 27  1  0  0  0  0
  1 28  1  0  0  0  0
  2  3  1  0  0  0  0
  2 18  1  0  0  0  0
  2 29  1  0  0  0  0
  3  4  1  0  0  0  0
  3 30  1  0  0  0  0
  4  5  2  0  0  0  0
  4  6  1  0  0  0  0
  6  7  1  0  0  0  0
  6 31  1  0  0  0  0
  7 12  1  0  0  0  0
  7  8  2  0  0  0  0
  8  9  1  0  0  0  0
  8 32  1  0  0  0  0
  9 10  2  0  0  0  0
  9 33  1  0  0  0  0
 10 11  1  0  0  0  0
 10 34  1  0  0  0  0
 11 12  2  0  0  0  0
 12 13  1  0  0  0  0
 13 17  1  0  0  0  0
 13 14  1  0  0  0  0
 14 15  1  0  0  0  0
 14 35  1  0  0  0  0
 14 36  1  0  0  0  0
 15 16  1  0  0  0  0
 15 37  1  0  0  0  0
 15 38  1  0  0  0  0
 16 17  1  0  0  0  0
 16 39  1  0  0  0  0
 16 40  1  0  0  0  0
 17 41  1  0  0  0  0
 17 42  1  0  0  0  0
 18 19  2  0  0  0  0
 18 20  1  0  0  0  0
 20 21  1  0  0  0  0
 20 43  1  0  0  0  0
 21 25  1  0  0  0  0
 21 22  1  0  0  0  0
 21 44  1  0  0  0  0
 22 23  1  0  0  0  0
 22 45  1  0  0  0  0
 22 46  1  0  0  0  0
 23 24  1  0  0  0  0
 23 47  1  0  0  0  0
 23 48  1  0  0  0  0
 24 25  1  0  0  0  0
 24 49  1  0  0  0  0
 24 50  1  0  0  0  0
 25 51  1  0  0  0  0
 25 52  1  0  0  0  0
M  END
> <s_m_source_file>
AV-unprocessed.smi

> <i_m_source_file_index>
830

> <i_lp_mmshare_version>
43012

> <i_f3d_flags>
0

> <s_epik_input>
W0NIMl0xW0NIMl1bQ0gyXVtDSDJdW0NIXTFbTkhdQyg9TylbQ0BIXShbQ0gzXSlbTkhdQyg9TylbTkhdYzJbY0hdW2NIXVtjSF1uYzJOM1tDSDJdW0NIMl1bQ0gyXVtDSDJdMw==

> <s_epik_cmdline>
J2VwaWtfcHl0aG9uJywgJy1waCcsICc3LjAnLCAnLXRuJywgJzgnLCAnLW1hJywgJzIwMCcsICctbWV0YWxfYmluZGluZycsICctaW1hZScsICc8aW5maWxlLm1hZT4nLCAnLW9tYWUnLCAnPG91dGZpbGUubWFlPic=

> <r_lp_tautomer_probability>
1

> <r_epik_Ionization_Penalty>
0.0827694

> <r_epik_Ionization_Penalty_Charging>
0

> <r_epik_Ionization_Penalty_Neutral>
0.0827694

> <r_epik_State_Penalty>
0.0729202

> <r_epik_Charging_Adjusted_Penalty>
0.0729202

> <i_epik_Tot_Q>
0

> <i_epik_Tot_abs_Q>
0

> <r_epik_Metal_State_Penalty>
0.0639723

> <b_epik_Metal_Only>
0

> <s_lp_Force_Field>
OPLS_2005

> <r_lp_Energy>
46.0812

> <b_lp_Chiralities_Consistent>
1

> <s_lp_Variant>
AV-unprocessed.smi:830-1

> <Gold.Version>
5.8.1

> <Gold.Id.Protein>
6NUR|6NUR_protein|mol2

> <Gold.PLP.Fitness>
39.7675

> <Gold.PLP.PLP>
-36.6535

> <Gold.PLP.part.hbond>
-2.0000

> <Gold.PLP.part.metal>
0.0000

> <Gold.PLP.part.buried>
-3.5791

> <Gold.PLP.part.nonpolar>
-31.2192

> <Gold.PLP.part.repulsive>
0.2925

> <Gold.PLP.ligand.clash>
0.0000

> <Gold.PLP.ligand.torsion>
1.3620

> <Gold.PLP.Chemscore.Hbond>
1.8000

> <Gold.PLP.Chemscore.CHOScore>
0.0000

> <Gold.PLP.Chemscore.Metal>
0.0000

> <Gold.Chemscore.Hbonds>
donor molecule, donor type, donor heavy atom, donor atom, acceptor molecule, acceptor atom, score
      L1  H     3    30       P1  7948  1.00
      L1  H    20    43       P1  7948  0.80

> <Gold.PLP.Chemscore.Internal.Correction>
0.4379

> <Gold.Rescore>
     Score         DG    S(hbond)    S(metal)    S(lipo)     H(rot)  DE(clash)    DE(int)     intcor
     12.76     -18.05       1.89        0.00      89.29       1.64       0.49       4.79       ----

> <Gold.Chemscore.Fitness>
12.7590

> <Gold.Chemscore.DG>
-18.0481

> <Gold.Chemscore.ZeroCoef>
-5.4800

> <Gold.Chemscore.Hbond>
1.8907

> <Gold.Chemscore.Metal>
0.0000

> <Gold.Chemscore.Lipo>
89.2885

> <Gold.Chemscore.Internal_Hbond>
0.0000

> <Gold.Chemscore.DEClash>
0.4949

> <Gold.Chemscore.DEInternal>
4.7942

> <Gold.Chemscore.Rot>
1.6382

> <Gold.Chemscore.Internal.Correction>
   9.000000E+99

> <Gold.Chemscore.Hbonds>
donor molecule, donor type, donor heavy atom, donor atom, acceptor molecule, acceptor atom, score
      L1  H     3    30       P1  7948  0.92
      L1  H    20    43       P1  7948  0.27

> <Gold.Chemscore.Hbond.Weighted>
-6.3151

> <Gold.Chemscore.Metal.Weighted>
-0.0000

> <Gold.Chemscore.Lipo.Weighted>
-10.4467

> <Gold.Chemscore.Internal_Hbond.Weighted>
0.0000

> <Gold.Chemscore.DEClash.Weighted>
0.4949

> <Gold.Chemscore.DEInternal.Weighted>
4.7942

> <Gold.Chemscore.Rot.Weighted>
4.1937

> <Gold.Chemscore.Internal.Correction.Weighted>
   9.000000E+99

> <Gold.Protein.RotatedTorsions>
[ 6907 6896 6895 6894 ] final   50.46 input  -60.11 | X-H torsion
[ 7974 7965 7964 7962 ] final  136.60 input  175.53 | X-H torsion
[ 8008 7997 7996 7995 ] final -173.75 input   59.86 | X-H torsion
[ 10167 10162 10161 10158 ] final -174.77 input  -65.29 | X-H torsion
[ 10718 10713 10712 10709 ] final  -44.68 input   66.30 | X-H torsion
[ 10763 10752 10751 10750 ] final  -17.49 input  -60.55 | X-H torsion
[ 11005 11000 10999 10996 ] final  151.11 input  -57.11 | X-H torsion

> <Gold.Protein.ActiveResidues>
 VAL166  LYS551  ARG553  GLY616  TRP617  ASP618  TYR619  PRO620  LYS621  CYS622 
 ASP623  PHE694  ASN695  SER759  ASP760  ASP761  ALA762  ILE779  LEU786  VAL792 
 PHE793  MET794  SER795  GLU796  ALA797  LYS798  CYS799  TRP800  GLU811  SER814 

> <Gold.Protein.RotatedAtoms>
  152.3020  134.7599  160.0355 H   0  0  0  0  0  0  0  0  0  0  0  0  # atno 6907 bound_to 6896
  151.8109  133.3376  159.3563 H   0  0  0  0  0  0  0  0  0  0  0  0  # atno 6908 bound_to 6896
  150.7278  134.5594  159.5879 H   0  0  0  0  0  0  0  0  0  0  0  0  # atno 6909 bound_to 6896
  144.9548  139.4776  143.5508 H   0  0  0  0  0  0  0  0  0  0  0  0  # atno 7974 bound_to 7965
  155.9614  140.1145  157.0892 H   0  0  0  0  0  0  0  0  0  0  0  0  # atno 8008 bound_to 7997
  154.4133  140.1181  156.5251 H   0  0  0  0  0  0  0  0  0  0  0  0  # atno 8009 bound_to 7997
  155.6715  140.3473  155.4822 H   0  0  0  0  0  0  0  0  0  0  0  0  # atno 8010 bound_to 7997
  139.5616  144.1855  152.1248 H   0  0  0  0  0  0  0  0  0  0  0  0  # atno 10167 bound_to 10162
  156.2360  130.4176  149.8817 H   0  0  0  0  0  0  0  0  0  0  0  0  # atno 10718 bound_to 10713
  153.5746  135.7006  153.5489 H   0  0  0  0  0  0  0  0  0  0  0  0  # atno 10763 bound_to 10752
  153.3314  135.4046  155.1498 H   0  0  0  0  0  0  0  0  0  0  0  0  # atno 10764 bound_to 10752
  154.8627  135.3720  154.5271 H   0  0  0  0  0  0  0  0  0  0  0  0  # atno 10765 bound_to 10752
  140.1190  134.8876  157.2045 H   0  0  0  0  0  0  0  0  0  0  0  0  # atno 11005 bound_to 11000
  146.3333  139.8659  142.8848 LP  0  0  0  0  0  0  0  0  0  0  0  0  # atno 17320 bound_to 7965
  145.2788  141.0132  143.3729 LP  0  0  0  0  0  0  0  0  0  0  0  0  # atno 17321 bound_to 7965
  140.1370  144.5237  150.6767 LP  0  0  0  0  0  0  0  0  0  0  0  0  # atno 17342 bound_to 10162
  140.6896  143.2369  151.5166 LP  0  0  0  0  0  0  0  0  0  0  0  0  # atno 17343 bound_to 10162
  156.6415  130.8706  151.3514 LP  0  0  0  0  0  0  0  0  0  0  0  0  # atno 17370 bound_to 10713
  157.7154  130.9491  150.1238 LP  0  0  0  0  0  0  0  0  0  0  0  0  # atno 17371 bound_to 10713
  140.2990  134.3153  155.7295 LP  0  0  0  0  0  0  0  0  0  0  0  0  # atno 17394 bound_to 11000
  141.2147  133.7580  156.9613 LP  0  0  0  0  0  0  0  0  0  0  0  0  # atno 17395 bound_to 11000

$$$$
