AV-unprocessed.smi:1205|AV-procd|sdf|5046|dock9
  -GOLD-   22720 4 73D 1   1.00000     0.00000
 Structure written by MMmdl.
 49 50  0  0  0  0  0  0  0  0  2 V2000
  152.2785  139.2912  155.4160 C   0  0  0  0  0  0  0  0  0  0  0  0
  151.1112  140.2200  155.5755 C   0  0  0  0  0  0  0  0  0  0  0  0
  150.7363  140.9695  156.7287 C   0  0  0  0  0  0  0  0  0  0  0  0
  149.6129  141.6270  156.3075 C   0  0  0  0  0  0  0  0  0  0  0  0
  148.8163  142.4867  156.9965 N   0  0  0  0  0  0  0  0  0  0  0  0
  148.3076  142.3521  158.2334 C   0  0  0  0  0  0  0  0  0  0  0  0
  148.4875  141.3912  158.9819 O   0  0  0  0  0  0  0  0  0  0  0  0
  147.5695  143.4188  158.5719 N   0  0  0  0  0  0  0  0  0  0  0  0
  146.8856  143.5894  159.8498 C   0  0  0  0  0  0  0  0  0  0  0  0
  146.3235  145.0224  160.0364 C   0  0  1  0  0  0  0  0  0  0  0  0
  147.3403  145.9805  160.6861 C   0  0  0  0  0  0  0  0  0  0  0  0
  145.7785  145.6079  158.7768 N   0  3  2  0  0  0  0  0  0  0  0  0
  145.2844  147.0012  158.9363 C   0  0  0  0  0  0  0  0  0  0  0  0
  144.9862  147.6326  157.5669 C   0  0  0  0  0  0  0  0  0  0  0  0
  143.9894  146.7791  156.7713 C   0  0  0  0  0  0  0  0  0  0  0  0
  144.4974  145.3318  156.6497 C   0  0  2  0  0  0  0  0  0  0  0  0
  143.5019  144.4506  155.8821 C   0  0  0  0  0  0  0  0  0  0  0  0
  144.7991  144.7559  158.0474 C   0  0  0  0  0  0  0  0  0  0  0  0
  149.3554  141.2769  155.0006 N   0  0  0  0  0  0  0  0  0  0  0  0
  148.2799  141.7033  154.1265 C   0  0  0  0  0  0  0  0  0  0  0  0
  150.2859  140.4074  154.5517 N   0  0  0  0  0  0  0  0  0  0  0  0
  152.8785  139.2521  156.3252 H   0  0  0  0  0  0  0  0  0  0  0  0
  152.9295  139.6140  154.6031 H   0  0  0  0  0  0  0  0  0  0  0  0
  151.9454  138.2769  155.1947 H   0  0  0  0  0  0  0  0  0  0  0  0
  151.2221  141.0011  157.6921 H   0  0  0  0  0  0  0  0  0  0  0  0
  148.5940  143.3446  156.5137 H   0  0  0  0  0  0  0  0  0  0  0  0
  147.4707  144.1638  157.8976 H   0  0  0  0  0  0  0  0  0  0  0  0
  146.0802  142.8556  159.8774 H   0  0  0  0  0  0  0  0  0  0  0  0
  147.5694  143.3283  160.6586 H   0  0  0  0  0  0  0  0  0  0  0  0
  145.4881  144.9667  160.7356 H   0  0  0  0  0  0  0  0  0  0  0  0
  147.6055  145.6528  161.6917 H   0  0  0  0  0  0  0  0  0  0  0  0
  146.9293  146.9864  160.7761 H   0  0  0  0  0  0  0  0  0  0  0  0
  148.2648  146.0468  160.1127 H   0  0  0  0  0  0  0  0  0  0  0  0
  144.3859  147.0105  159.5542 H   0  0  0  0  0  0  0  0  0  0  0  0
  146.0308  147.6070  159.4518 H   0  0  0  0  0  0  0  0  0  0  0  0
  144.5910  148.6403  157.6989 H   0  0  0  0  0  0  0  0  0  0  0  0
  145.9134  147.7359  157.0014 H   0  0  0  0  0  0  0  0  0  0  0  0
  143.0184  146.7921  157.2687 H   0  0  0  0  0  0  0  0  0  0  0  0
  143.8383  147.2121  155.7818 H   0  0  0  0  0  0  0  0  0  0  0  0
  145.4292  145.3459  156.0819 H   0  0  0  0  0  0  0  0  0  0  0  0
  142.5439  144.3902  156.3997 H   0  0  0  0  0  0  0  0  0  0  0  0
  143.8820  143.4352  155.7671 H   0  0  0  0  0  0  0  0  0  0  0  0
  143.3160  144.8470  154.8835 H   0  0  0  0  0  0  0  0  0  0  0  0
  145.1893  143.7442  157.9397 H   0  0  0  0  0  0  0  0  0  0  0  0
  143.8730  144.6802  158.6188 H   0  0  0  0  0  0  0  0  0  0  0  0
  148.1838  142.7888  154.1630 H   0  0  0  0  0  0  0  0  0  0  0  0
  147.3434  141.2505  154.4524 H   0  0  0  0  0  0  0  0  0  0  0  0
  148.4806  141.4034  153.0971 H   0  0  0  0  0  0  0  0  0  0  0  0
  146.5779  145.6867  158.1647 H   0  0  0  0  0  0  0  0  0  0  0  0
  1  2  1  0  0  0  0
  1 22  1  0  0  0  0
  1 23  1  0  0  0  0
  1 24  1  0  0  0  0
  2 21  2  0  0  0  0
  2  3  1  0  0  0  0
  3  4  2  0  0  0  0
  3 25  1  0  0  0  0
  4  5  1  0  0  0  0
  4 19  1  0  0  0  0
  5  6  1  0  0  0  0
  5 26  1  0  0  0  0
  6  7  2  0  0  0  0
  6  8  1  0  0  0  0
  8  9  1  0  0  0  0
  8 27  1  0  0  0  0
  9 10  1  0  0  0  0
  9 28  1  0  0  0  0
  9 29  1  0  0  0  0
 10 11  1  0  0  0  0
 10 12  1  0  0  0  0
 10 30  1  0  0  0  0
 11 31  1  0  0  0  0
 11 32  1  0  0  0  0
 11 33  1  0  0  0  0
 12 18  1  0  0  0  0
 12 13  1  0  0  0  0
 12 49  1  0  0  0  0
 13 14  1  0  0  0  0
 13 34  1  0  0  0  0
 13 35  1  0  0  0  0
 14 15  1  0  0  0  0
 14 36  1  0  0  0  0
 14 37  1  0  0  0  0
 15 16  1  0  0  0  0
 15 38  1  0  0  0  0
 15 39  1  0  0  0  0
 16 17  1  0  0  0  0
 16 18  1  0  0  0  0
 16 40  1  0  0  0  0
 17 41  1  0  0  0  0
 17 42  1  0  0  0  0
 17 43  1  0  0  0  0
 18 44  1  0  0  0  0
 18 45  1  0  0  0  0
 19 20  1  0  0  0  0
 19 21  1  0  0  0  0
 20 46  1  0  0  0  0
 20 47  1  0  0  0  0
 20 48  1  0  0  0  0
M  CHG  1  12   1
M  END
> <s_m_source_file>
AV-unprocessed.smi

> <i_m_source_file_index>
1205

> <i_lp_mmshare_version>
43012

> <i_f3d_flags>
0

> <s_epik_input>
W0NIM11jMVtjSF1jKG4objEpW0NIM10pW05IXUMoPU8pW05IXVtDSDJdW0NASF0oW0NIM10pTjJbQ0gyXVtDSDJdW0NIMl1bQ0BASF0oW0NIM10pW0NIMl0y

> <s_epik_cmdline>
J2VwaWtfcHl0aG9uJywgJy1waCcsICc3LjAnLCAnLXRuJywgJzgnLCAnLW1hJywgJzIwMCcsICctbWV0YWxfYmluZGluZycsICctaW1hZScsICc8aW5maWxlLm1hZT4nLCAnLW9tYWUnLCAnPG91dGZpbGUubWFlPic=

> <r_lp_tautomer_probability>
1

> <r_epik_Ionization_Penalty>
0.0020309

> <r_epik_Ionization_Penalty_Charging>
0.00195276

> <r_epik_Ionization_Penalty_Neutral>
7.81448e-05

> <r_epik_State_Penalty>
0.00133177

> <r_epik_Charging_Adjusted_Penalty>
0.00328452

> <i_epik_Tot_Q>
1

> <i_epik_Tot_abs_Q>
1

> <r_epik_Metal_State_Penalty>
-0

> <b_epik_Metal_Only>
0

> <s_lp_Force_Field>
OPLS_2005

> <r_lp_Energy>
21.2667

> <b_lp_Chiralities_Consistent>
1

> <s_lp_Variant>
AV-unprocessed.smi:1205-8

> <Gold.Version>
5.8.1

> <Gold.Id.Protein>
6NUR|6NUR_protein|mol2

> <Gold.PLP.Fitness>
47.2538

> <Gold.PLP.PLP>
-34.9247

> <Gold.PLP.part.hbond>
-6.0000

> <Gold.PLP.part.metal>
0.0000

> <Gold.PLP.part.buried>
0.1166

> <Gold.PLP.part.nonpolar>
-29.3732

> <Gold.PLP.part.repulsive>
0.2577

> <Gold.PLP.ligand.clash>
0.0000

> <Gold.PLP.ligand.torsion>
0.7895

> <Gold.PLP.Chemscore.Hbond>
4.6000

> <Gold.PLP.Chemscore.CHOScore>
0.0000

> <Gold.PLP.Chemscore.Metal>
0.0000

> <Gold.Chemscore.Hbonds>
donor molecule, donor type, donor heavy atom, donor atom, acceptor molecule, acceptor atom, score
      L1  H     5    26       P1  8028  1.00
      L1  H     8    27       P1  8029  0.85
      L1  H    12    49       P1  8029  2.00
      P1  H  7989  7998       L1    21  0.60

> <Gold.PLP.Chemscore.Internal.Correction>
0.1082

> <Gold.Rescore>
     Score         DG    S(hbond)    S(metal)    S(lipo)     H(rot)  DE(clash)    DE(int)     intcor
     16.21     -18.48       2.74        0.00      64.87       1.47       1.61       0.66       ----

> <Gold.Chemscore.Fitness>
16.2132

> <Gold.Chemscore.DG>
-18.4805

> <Gold.Chemscore.ZeroCoef>
-5.4800

> <Gold.Chemscore.Hbond>
2.7434

> <Gold.Chemscore.Metal>
0.0000

> <Gold.Chemscore.Lipo>
64.8736

> <Gold.Chemscore.Internal_Hbond>
0.0000

> <Gold.Chemscore.DEClash>
1.6074

> <Gold.Chemscore.DEInternal>
0.6599

> <Gold.Chemscore.Rot>
1.4658

> <Gold.Chemscore.Internal.Correction>
   9.000000E+99

> <Gold.Chemscore.Hbonds>
donor molecule, donor type, donor heavy atom, donor atom, acceptor molecule, acceptor atom, score
      L1  H     5    26       P1  8028  0.69
      L1  H     8    27       P1  8029  0.14
      L1  H    12    49       P1  8029  0.96
      P1  H  7989  7998       L1    21  0.04

> <Gold.Chemscore.Hbond.Weighted>
-9.1628

> <Gold.Chemscore.Metal.Weighted>
-0.0000

> <Gold.Chemscore.Lipo.Weighted>
-7.5902

> <Gold.Chemscore.Internal_Hbond.Weighted>
0.0000

> <Gold.Chemscore.DEClash.Weighted>
1.6074

> <Gold.Chemscore.DEInternal.Weighted>
0.6599

> <Gold.Chemscore.Rot.Weighted>
3.7526

> <Gold.Chemscore.Internal.Correction.Weighted>
   9.000000E+99

> <Gold.Protein.RotatedTorsions>
[ 6907 6896 6895 6894 ] final  -51.84 input  -60.11 | X-H torsion
[ 7974 7965 7964 7962 ] final  -52.48 input  175.53 | X-H torsion
[ 8008 7997 7996 7995 ] final  -46.00 input   59.86 | X-H torsion
[ 10167 10162 10161 10158 ] final   75.61 input  -65.29 | X-H torsion
[ 10718 10713 10712 10709 ] final   36.94 input   66.30 | X-H torsion
[ 10763 10752 10751 10750 ] final -114.48 input  -60.55 | X-H torsion
[ 11005 11000 10999 10996 ] final  146.77 input  -57.11 | X-H torsion

> <Gold.Protein.ActiveResidues>
 VAL166  LYS551  ARG553  GLY616  TRP617  ASP618  TYR619  PRO620  LYS621  CYS622 
 ASP623  PHE694  ASN695  SER759  ASP760  ASP761  ALA762  ILE779  LEU786  VAL792 
 PHE793  MET794  SER795  GLU796  ALA797  LYS798  CYS799  TRP800  GLU811  SER814 

> <Gold.Protein.RotatedAtoms>
  150.8573  134.7915  159.7055 H   0  0  0  0  0  0  0  0  0  0  0  0  # atno 6907 bound_to 6896
  152.4621  134.5157  159.9777 H   0  0  0  0  0  0  0  0  0  0  0  0  # atno 6908 bound_to 6896
  151.5267  133.3418  159.2946 H   0  0  0  0  0  0  0  0  0  0  0  0  # atno 6909 bound_to 6896
  145.9075  140.7943  142.9712 H   0  0  0  0  0  0  0  0  0  0  0  0  # atno 7974 bound_to 7965
  154.4004  140.1382  156.3940 H   0  0  0  0  0  0  0  0  0  0  0  0  # atno 8008 bound_to 7997
  155.7887  140.3479  155.5317 H   0  0  0  0  0  0  0  0  0  0  0  0  # atno 8009 bound_to 7997
  155.8601  140.0955  157.1609 H   0  0  0  0  0  0  0  0  0  0  0  0  # atno 8010 bound_to 7997
  140.0012  144.5685  150.7736 H   0  0  0  0  0  0  0  0  0  0  0  0  # atno 10167 bound_to 10162
  157.3410  130.7548  149.6912 H   0  0  0  0  0  0  0  0  0  0  0  0  # atno 10718 bound_to 10713
  154.8441  135.4416  154.1512 H   0  0  0  0  0  0  0  0  0  0  0  0  # atno 10763 bound_to 10752
  153.2672  135.6942  153.7523 H   0  0  0  0  0  0  0  0  0  0  0  0  # atno 10764 bound_to 10752
  153.6777  135.3408  155.3145 H   0  0  0  0  0  0  0  0  0  0  0  0  # atno 10765 bound_to 10752
  140.0820  134.9091  157.1516 H   0  0  0  0  0  0  0  0  0  0  0  0  # atno 11005 bound_to 11000
  144.6740  140.1773  143.7409 LP  0  0  0  0  0  0  0  0  0  0  0  0  # atno 17320 bound_to 7965
  145.8714  139.2274  143.1659 LP  0  0  0  0  0  0  0  0  0  0  0  0  # atno 17321 bound_to 7965
  140.7418  143.2823  151.3562 LP  0  0  0  0  0  0  0  0  0  0  0  0  # atno 17342 bound_to 10162
  139.6271  144.0793  152.2443 LP  0  0  0  0  0  0  0  0  0  0  0  0  # atno 17343 bound_to 10162
  155.9707  130.4168  150.4247 LP  0  0  0  0  0  0  0  0  0  0  0  0  # atno 17370 bound_to 10713
  157.2294  131.0500  151.2501 LP  0  0  0  0  0  0  0  0  0  0  0  0  # atno 17371 bound_to 10713
  140.3474  134.2636  155.7203 LP  0  0  0  0  0  0  0  0  0  0  0  0  # atno 17394 bound_to 11000
  141.2050  133.7872  157.0257 LP  0  0  0  0  0  0  0  0  0  0  0  0  # atno 17395 bound_to 11000

$$$$
