AV-unprocessed.smi:227|AV-procd|sdf|1731|dock5
  -GOLD-   2262020223D 1   1.00000     0.00000
 Structure written by MMmdl.
 54 58  0  0  0  0  0  0  0  0  1 V2000
  151.5244  140.0272  155.1016 O   0  0  0  0  0  0  0  0  0  0  0  0
  152.1745  139.6421  156.2964 C   0  0  0  0  0  0  0  0  0  0  0  0
  151.2154  139.6749  157.5156 C   0  0  2  0  0  0  0  0  0  0  0  0
  149.8045  139.1236  157.1762 C   0  0  0  0  0  0  0  0  0  0  0  0
  149.3377  138.1034  158.0971 N   0  0  0  0  0  0  0  0  0  0  0  0
  150.1050  137.1458  158.7172 C   0  0  0  0  0  0  0  0  0  0  0  0
  149.4470  136.3211  159.4845 N   0  0  0  0  0  0  0  0  0  0  0  0
  148.1238  136.7368  159.3840 C   0  0  0  0  0  0  0  0  0  0  0  0
  146.8874  136.2745  159.9223 C   0  0  0  0  0  0  0  0  0  0  0  0
  146.7697  135.1788  160.7208 N   0  0  0  0  0  0  0  0  0  0  0  0
  147.6435  134.9887  161.8688 C   0  0  2  0  0  0  0  0  0  0  0  0
  147.3019  133.5531  162.3032 C   0  0  0  0  0  0  0  0  0  0  0  0
  145.7993  133.4918  161.9821 C   0  0  0  0  0  0  0  0  0  0  0  0
  145.5422  134.9170  161.4596 C   0  0  1  0  0  0  0  0  0  0  0  0
  145.5765  135.8930  162.6635 C   0  0  2  0  0  0  0  0  0  0  0  0
  144.9023  137.2535  162.3967 C   0  0  0  0  0  0  0  0  0  0  0  0
  143.4982  137.1079  162.3887 O   0  0  0  0  0  0  0  0  0  0  0  0
  147.0954  135.9795  162.9173 C   0  0  0  0  0  0  0  0  0  0  0  0
  145.7705  136.9855  159.6127 N   0  0  0  0  0  0  0  0  0  0  0  0
  145.8430  138.0476  158.8062 C   0  0  0  0  0  0  0  0  0  0  0  0
  146.9153  138.5683  158.2088 N   0  0  0  0  0  0  0  0  0  0  0  0
  148.0443  137.8759  158.5326 C   0  0  0  0  0  0  0  0  0  0  0  0
  151.1023  141.1063  158.1039 C   0  0  2  0  0  0  0  0  0  0  0  0
  150.8965  142.2118  157.0802 C   0  0  0  0  0  0  0  0  0  0  0  0
  151.2983  143.4605  157.8577 C   0  0  0  0  0  0  0  0  0  0  0  0
  152.2958  143.0383  158.7797 O   0  0  0  0  0  0  0  0  0  0  0  0
  152.3715  141.6171  158.7968 C   0  0  0  0  0  0  0  0  0  0  0  0
  150.6207  139.7539  155.1489 H   0  0  0  0  0  0  0  0  0  0  0  0
  152.5605  138.6401  156.1187 H   0  0  0  0  0  0  0  0  0  0  0  0
  153.0403  140.2828  156.4671 H   0  0  0  0  0  0  0  0  0  0  0  0
  151.6449  139.0418  158.2939 H   0  0  0  0  0  0  0  0  0  0  0  0
  149.0659  139.9250  157.1817 H   0  0  0  0  0  0  0  0  0  0  0  0
  149.7979  138.7088  156.1677 H   0  0  0  0  0  0  0  0  0  0  0  0
  151.1728  137.0711  158.5716 H   0  0  0  0  0  0  0  0  0  0  0  0
  148.7067  135.1194  161.6643 H   0  0  0  0  0  0  0  0  0  0  0  0
  147.8516  132.8226  161.7084 H   0  0  0  0  0  0  0  0  0  0  0  0
  147.5198  133.3693  163.3560 H   0  0  0  0  0  0  0  0  0  0  0  0
  145.6058  132.7535  161.2027 H   0  0  0  0  0  0  0  0  0  0  0  0
  145.1881  133.2348  162.8479 H   0  0  0  0  0  0  0  0  0  0  0  0
  144.6195  134.9705  160.8848 H   0  0  0  0  0  0  0  0  0  0  0  0
  145.0748  135.4327  163.5166 H   0  0  0  0  0  0  0  0  0  0  0  0
  145.1703  137.9951  163.1483 H   0  0  0  0  0  0  0  0  0  0  0  0
  145.2151  137.6483  161.4297 H   0  0  0  0  0  0  0  0  0  0  0  0
  143.1754  137.2571  163.2642 H   0  0  0  0  0  0  0  0  0  0  0  0
  147.3685  135.7067  163.9373 H   0  0  0  0  0  0  0  0  0  0  0  0
  147.4730  136.9861  162.7319 H   0  0  0  0  0  0  0  0  0  0  0  0
  144.9069  138.5475  158.6065 H   0  0  0  0  0  0  0  0  0  0  0  0
  150.2794  141.1399  158.8201 H   0  0  0  0  0  0  0  0  0  0  0  0
  151.5638  142.0720  156.2284 H   0  0  0  0  0  0  0  0  0  0  0  0
  149.8747  142.2777  156.7066 H   0  0  0  0  0  0  0  0  0  0  0  0
  151.6654  144.2546  157.2075 H   0  0  0  0  0  0  0  0  0  0  0  0
  150.4484  143.8479  158.4206 H   0  0  0  0  0  0  0  0  0  0  0  0
  152.4696  141.2474  159.8178 H   0  0  0  0  0  0  0  0  0  0  0  0
  153.2622  141.3173  158.2427 H   0  0  0  0  0  0  0  0  0  0  0  0
  1  2  1  0  0  0  0
  1 28  1  0  0  0  0
  2  3  1  0  0  0  0
  2 29  1  0  0  0  0
  2 30  1  0  0  0  0
  3  4  1  0  0  0  0
  3 23  1  0  0  0  0
  3 31  1  0  0  0  0
  4  5  1  0  0  0  0
  4 32  1  0  0  0  0
  4 33  1  0  0  0  0
  5 22  1  0  0  0  0
  5  6  1  0  0  0  0
  6  7  2  0  0  0  0
  6 34  1  0  0  0  0
  7  8  1  0  0  0  0
  8 22  2  0  0  0  0
  8  9  1  0  0  0  0
  9 10  1  0  0  0  0
  9 19  2  0  0  0  0
 10 14  1  0  0  0  0
 10 11  1  0  0  0  0
 11 18  1  0  0  0  0
 11 12  1  0  0  0  0
 11 35  1  0  0  0  0
 12 13  1  0  0  0  0
 12 36  1  0  0  0  0
 12 37  1  0  0  0  0
 13 14  1  0  0  0  0
 13 38  1  0  0  0  0
 13 39  1  0  0  0  0
 14 15  1  0  0  0  0
 14 40  1  0  0  0  0
 15 16  1  0  0  0  0
 15 18  1  0  0  0  0
 15 41  1  0  0  0  0
 16 17  1  0  0  0  0
 16 42  1  0  0  0  0
 16 43  1  0  0  0  0
 17 44  1  0  0  0  0
 18 45  1  0  0  0  0
 18 46  1  0  0  0  0
 19 20  1  0  0  0  0
 20 21  2  0  0  0  0
 20 47  1  0  0  0  0
 21 22  1  0  0  0  0
 23 27  1  0  0  0  0
 23 24  1  0  0  0  0
 23 48  1  0  0  0  0
 24 25  1  0  0  0  0
 24 49  1  0  0  0  0
 24 50  1  0  0  0  0
 25 26  1  0  0  0  0
 25 51  1  0  0  0  0
 25 52  1  0  0  0  0
 26 27  1  0  0  0  0
 27 53  1  0  0  0  0
 27 54  1  0  0  0  0
M  END
> <s_m_source_file>
AV-unprocessed.smi

> <i_m_source_file_index>
227

> <i_lp_mmshare_version>
43012

> <i_f3d_flags>
0

> <s_epik_input>
W0NIMl0xT1tDSDJdW0NIMl1bQ0BIXTFbQ0BIXShbQ0gyXVtPSF0pW0NIMl1uKFtjSF1uMiljKGMyMyluW2NIXW5jM04oW0NASF00NSlbQ0BASF0oW0NIMl1bQ0gyXTQpW0NASF0oW0NIMl01KVtDSDJdW09IXQ==

> <s_epik_cmdline>
J2VwaWtfcHl0aG9uJywgJy1waCcsICc3LjAnLCAnLXRuJywgJzgnLCAnLW1hJywgJzIwMCcsICctbWV0YWxfYmluZGluZycsICctaW1hZScsICc8aW5maWxlLm1hZT4nLCAnLW9tYWUnLCAnPG91dGZpbGUubWFlPic=

> <r_lp_tautomer_probability>
1

> <r_epik_Ionization_Penalty>
0.0055791

> <r_epik_Ionization_Penalty_Charging>
0

> <r_epik_Ionization_Penalty_Neutral>
0.0055791

> <r_epik_State_Penalty>
0.00401299

> <r_epik_Charging_Adjusted_Penalty>
0.00401299

> <i_epik_Tot_Q>
0

> <i_epik_Tot_abs_Q>
0

> <r_epik_Metal_State_Penalty>
-0

> <b_epik_Metal_Only>
0

> <s_lp_Force_Field>
OPLS_2005

> <r_lp_Energy>
88.0051

> <b_lp_Chiralities_Consistent>
1

> <s_lp_Variant>
AV-unprocessed.smi:227-5

> <Gold.Version>
5.8.1

> <Gold.Id.Protein>
6NUR|6NUR_protein|mol2

> <Gold.PLP.Fitness>
44.3622

> <Gold.PLP.PLP>
-41.6847

> <Gold.PLP.part.hbond>
-3.1610

> <Gold.PLP.part.metal>
0.0000

> <Gold.PLP.part.buried>
-7.8762

> <Gold.PLP.part.nonpolar>
-31.8504

> <Gold.PLP.part.repulsive>
0.0017

> <Gold.PLP.ligand.clash>
0.0000

> <Gold.PLP.ligand.torsion>
1.7815

> <Gold.PLP.Chemscore.Hbond>
2.0000

> <Gold.PLP.Chemscore.CHOScore>
0.0000

> <Gold.PLP.Chemscore.Metal>
0.0000

> <Gold.Chemscore.Hbonds>
donor molecule, donor type, donor heavy atom, donor atom, acceptor molecule, acceptor atom, score
      P1  H  6896  6907       L1     7  0.99
      P1  H  7989  7998       L1     1  1.00

> <Gold.PLP.Chemscore.Internal.Correction>
0.2405

> <Gold.Rescore>
     Score         DG    S(hbond)    S(metal)    S(lipo)     H(rot)  DE(clash)    DE(int)     intcor
     11.27     -14.24       1.77        0.00     103.29       3.61       0.00       2.97       ----

> <Gold.Chemscore.Fitness>
11.2742

> <Gold.Chemscore.DG>
-14.2440

> <Gold.Chemscore.ZeroCoef>
-5.4800

> <Gold.Chemscore.Hbond>
1.7703

> <Gold.Chemscore.Metal>
0.0000

> <Gold.Chemscore.Lipo>
103.2944

> <Gold.Chemscore.Internal_Hbond>
0.0000

> <Gold.Chemscore.DEClash>
0.0009

> <Gold.Chemscore.DEInternal>
2.9689

> <Gold.Chemscore.Rot>
3.6071

> <Gold.Chemscore.Internal.Correction>
   9.000000E+99

> <Gold.Chemscore.Hbonds>
donor molecule, donor type, donor heavy atom, donor atom, acceptor molecule, acceptor atom, score
      P1  H  6896  6907       L1     7  0.28
      P1  H  7989  7998       L1     1  0.44

> <Gold.Chemscore.Hbond.Weighted>
-5.9128

> <Gold.Chemscore.Metal.Weighted>
-0.0000

> <Gold.Chemscore.Lipo.Weighted>
-12.0854

> <Gold.Chemscore.Internal_Hbond.Weighted>
0.0000

> <Gold.Chemscore.DEClash.Weighted>
0.0009

> <Gold.Chemscore.DEInternal.Weighted>
2.9689

> <Gold.Chemscore.Rot.Weighted>
9.2342

> <Gold.Chemscore.Internal.Correction.Weighted>
   9.000000E+99

> <Gold.Protein.RotatedTorsions>
[ 6907 6896 6895 6894 ] final  -55.54 input  -60.11 | X-H torsion
[ 7974 7965 7964 7962 ] final  -59.25 input  175.53 | X-H torsion
[ 8008 7997 7996 7995 ] final   28.18 input   59.86 | X-H torsion
[ 10167 10162 10161 10158 ] final  -99.75 input  -65.29 | X-H torsion
[ 10718 10713 10712 10709 ] final  -69.31 input   66.30 | X-H torsion
[ 10763 10752 10751 10750 ] final  165.94 input  -60.55 | X-H torsion
[ 11005 11000 10999 10996 ] final -124.48 input  -57.11 | X-H torsion

> <Gold.Protein.ActiveResidues>
 VAL166  LYS551  ARG553  GLY616  TRP617  ASP618  TYR619  PRO620  LYS621  CYS622 
 ASP623  PHE694  ASN695  SER759  ASP760  ASP761  ALA762  ILE779  LEU786  VAL792 
 PHE793  MET794  SER795  GLU796  ALA797  LYS798  CYS799  TRP800  GLU811  SER814 

> <Gold.Protein.RotatedAtoms>
  150.8243  134.7466  159.6799 H   0  0  0  0  0  0  0  0  0  0  0  0  # atno 6907 bound_to 6896
  152.4356  134.5690  159.9925 H   0  0  0  0  0  0  0  0  0  0  0  0  # atno 6908 bound_to 6896
  151.5867  133.3334  159.3055 H   0  0  0  0  0  0  0  0  0  0  0  0  # atno 6909 bound_to 6896
  145.8297  140.8487  143.0090 H   0  0  0  0  0  0  0  0  0  0  0  0  # atno 7974 bound_to 7965
  155.0546  140.3183  155.4681 H   0  0  0  0  0  0  0  0  0  0  0  0  # atno 8008 bound_to 7997
  156.2827  140.2140  156.5616 H   0  0  0  0  0  0  0  0  0  0  0  0  # atno 8009 bound_to 7997
  154.7182  140.0492  157.0602 H   0  0  0  0  0  0  0  0  0  0  0  0  # atno 8010 bound_to 7997
  140.2592  143.3419  152.0642 H   0  0  0  0  0  0  0  0  0  0  0  0  # atno 10167 bound_to 10162
  156.0462  130.4310  150.2128 H   0  0  0  0  0  0  0  0  0  0  0  0  # atno 10718 bound_to 10713
  154.3315  135.2754  155.2469 H   0  0  0  0  0  0  0  0  0  0  0  0  # atno 10763 bound_to 10752
  154.4779  135.5866  153.6371 H   0  0  0  0  0  0  0  0  0  0  0  0  # atno 10764 bound_to 10752
  152.9866  135.6104  154.3508 H   0  0  0  0  0  0  0  0  0  0  0  0  # atno 10765 bound_to 10752
  140.9837  134.0636  157.3735 H   0  0  0  0  0  0  0  0  0  0  0  0  # atno 11005 bound_to 11000
  144.6741  140.0654  143.7475 LP  0  0  0  0  0  0  0  0  0  0  0  0  # atno 17320 bound_to 7965
  145.9584  139.2783  143.1170 LP  0  0  0  0  0  0  0  0  0  0  0  0  # atno 17321 bound_to 7965
  139.5022  144.6730  151.6197 LP  0  0  0  0  0  0  0  0  0  0  0  0  # atno 17342 bound_to 10162
  140.5979  143.9662  150.6367 LP  0  0  0  0  0  0  0  0  0  0  0  0  # atno 17343 bound_to 10162
  157.0218  130.9981  151.3337 LP  0  0  0  0  0  0  0  0  0  0  0  0  # atno 17370 bound_to 10713
  157.5339  130.8076  149.7949 LP  0  0  0  0  0  0  0  0  0  0  0  0  # atno 17371 bound_to 10713
  139.8961  135.0144  156.7036 LP  0  0  0  0  0  0  0  0  0  0  0  0  # atno 17394 bound_to 11000
  140.7146  133.9193  155.8107 LP  0  0  0  0  0  0  0  0  0  0  0  0  # atno 17395 bound_to 11000

$$$$
