AV-unprocessed.smi:3181|AV-procd|sdf|12137|dock2
  -GOLD-   2272017573D 1   1.00000     0.00000
 Structure written by MMmdl.
 42 43  0  0  0  0  0  0  0  0  2 V2000
  149.2109  141.4584  154.7450 C   0  0  0  0  0  0  0  0  0  0  0  0
  150.3863  141.5379  155.7337 C   0  0  2  0  0  0  0  0  0  0  0  0
  150.6328  140.2055  156.4782 C   0  0  0  0  0  0  0  0  0  0  0  0
  151.1009  139.1485  155.6006 N   0  0  0  0  0  0  0  0  0  0  0  0
  151.3401  137.8593  155.8468 C   0  0  0  0  0  0  0  0  0  0  0  0
  151.7671  137.1833  154.7898 N   0  0  0  0  0  0  0  0  0  0  0  0
  151.7625  138.1848  153.8601 C   0  0  0  0  0  0  0  0  0  0  0  0
  151.3702  139.3826  154.2948 N   0  0  0  0  0  0  0  0  0  0  0  0
  150.1434  142.6410  156.6903 N   0  3  0  0  0  0  0  0  0  0  0  0
  151.3238  143.1133  157.4484 C   0  0  1  0  0  0  0  0  0  0  0  0
  151.1022  144.5589  157.9250 C   0  0  0  0  0  0  0  0  0  0  0  0
  152.2873  145.0576  158.7692 C   0  0  0  0  0  0  0  0  0  0  0  0
  152.5778  144.1374  159.9730 C   0  0  1  0  0  0  0  0  0  0  0  0
  151.5070  144.2880  161.0727 C   0  0  0  0  0  0  0  0  0  0  0  0
  152.7914  142.6797  159.4888 C   0  0  1  0  0  0  0  0  0  0  0  0
  153.1314  141.7033  160.6271 C   0  0  0  0  0  0  0  0  0  0  0  0
  151.6027  142.1802  158.6418 C   0  0  0  0  0  0  0  0  0  0  0  0
  149.3973  140.7298  153.9556 H   0  0  0  0  0  0  0  0  0  0  0  0
  149.0413  142.4198  154.2592 H   0  0  0  0  0  0  0  0  0  0  0  0
  148.2869  141.1733  155.2494 H   0  0  0  0  0  0  0  0  0  0  0  0
  151.2762  141.7900  155.1546 H   0  0  0  0  0  0  0  0  0  0  0  0
  151.3757  140.3320  157.2661 H   0  0  0  0  0  0  0  0  0  0  0  0
  149.7165  139.8732  156.9694 H   0  0  0  0  0  0  0  0  0  0  0  0
  151.2034  137.4071  156.8183 H   0  0  0  0  0  0  0  0  0  0  0  0
  152.0568  138.0260  152.8330 H   0  0  0  0  0  0  0  0  0  0  0  0
  149.7944  143.4293  156.1640 H   0  0  0  0  0  0  0  0  0  0  0  0
  152.2020  143.1091  156.8006 H   0  0  0  0  0  0  0  0  0  0  0  0
  150.9678  145.2163  157.0650 H   0  0  0  0  0  0  0  0  0  0  0  0
  150.1810  144.6250  158.5051 H   0  0  0  0  0  0  0  0  0  0  0  0
  153.1746  145.1110  158.1370 H   0  0  0  0  0  0  0  0  0  0  0  0
  152.0998  146.0769  159.1087 H   0  0  0  0  0  0  0  0  0  0  0  0
  153.5167  144.4774  160.4128 H   0  0  0  0  0  0  0  0  0  0  0  0
  150.5328  143.9192  160.7533 H   0  0  0  0  0  0  0  0  0  0  0  0
  151.3844  145.3344  161.3537 H   0  0  0  0  0  0  0  0  0  0  0  0
  151.7844  143.7488  161.9781 H   0  0  0  0  0  0  0  0  0  0  0  0
  153.6630  142.6936  158.8325 H   0  0  0  0  0  0  0  0  0  0  0  0
  152.2865  141.5550  161.2998 H   0  0  0  0  0  0  0  0  0  0  0  0
  153.9728  142.0655  161.2186 H   0  0  0  0  0  0  0  0  0  0  0  0
  153.4069  140.7255  160.2314 H   0  0  0  0  0  0  0  0  0  0  0  0
  150.7117  142.0932  159.2650 H   0  0  0  0  0  0  0  0  0  0  0  0
  151.8145  141.1750  158.2750 H   0  0  0  0  0  0  0  0  0  0  0  0
  149.4262  142.3553  157.3418 H   0  0  0  0  0  0  0  0  0  0  0  0
  1  2  1  0  0  0  0
  1 18  1  0  0  0  0
  1 19  1  0  0  0  0
  1 20  1  0  0  0  0
  2  3  1  0  0  0  0
  2  9  1  0  0  0  0
  2 21  1  0  0  0  0
  3  4  1  0  0  0  0
  3 22  1  0  0  0  0
  3 23  1  0  0  0  0
  4  8  1  0  0  0  0
  4  5  1  0  0  0  0
  5  6  2  0  0  0  0
  5 24  1  0  0  0  0
  6  7  1  0  0  0  0
  7  8  2  0  0  0  0
  7 25  1  0  0  0  0
  9 10  1  0  0  0  0
  9 26  1  0  0  0  0
  9 42  1  0  0  0  0
 10 17  1  0  0  0  0
 10 11  1  0  0  0  0
 10 27  1  0  0  0  0
 11 12  1  0  0  0  0
 11 28  1  0  0  0  0
 11 29  1  0  0  0  0
 12 13  1  0  0  0  0
 12 30  1  0  0  0  0
 12 31  1  0  0  0  0
 13 14  1  0  0  0  0
 13 15  1  0  0  0  0
 13 32  1  0  0  0  0
 14 33  1  0  0  0  0
 14 34  1  0  0  0  0
 14 35  1  0  0  0  0
 15 16  1  0  0  0  0
 15 17  1  0  0  0  0
 15 36  1  0  0  0  0
 16 37  1  0  0  0  0
 16 38  1  0  0  0  0
 16 39  1  0  0  0  0
 17 40  1  0  0  0  0
 17 41  1  0  0  0  0
M  CHG  1   9   1
M  END
> <s_m_source_file>
AV-unprocessed.smi

> <i_m_source_file_index>
3181

> <i_lp_mmshare_version>
43012

> <i_f3d_flags>
0

> <s_epik_input>
bjFbY0hdbltjSF1uMVtDSDJdW0NAQEhdKFtDSDNdKVtOSF1bQ0BASF0yW0NIMl1bQ0gyXVtDQEBIXShbQ0gzXSlbQ0BASF0oW0NIM10pW0NIMl0y

> <s_epik_cmdline>
J2VwaWtfcHl0aG9uJywgJy1waCcsICc3LjAnLCAnLXRuJywgJzgnLCAnLW1hJywgJzIwMCcsICctbWV0YWxfYmluZGluZycsICctaW1hZScsICc8aW5maWxlLm1hZT4nLCAnLW9tYWUnLCAnPG91dGZpbGUubWFlPic=

> <r_lp_tautomer_probability>
1

> <r_epik_Ionization_Penalty>
0.000617007

> <r_epik_Ionization_Penalty_Charging>
0.000616215

> <r_epik_Ionization_Penalty_Neutral>
7.92544e-07

> <r_epik_State_Penalty>
0.000388807

> <r_epik_Charging_Adjusted_Penalty>
0.00100502

> <i_epik_Tot_Q>
1

> <i_epik_Tot_abs_Q>
1

> <r_epik_Metal_State_Penalty>
-0

> <b_epik_Metal_Only>
0

> <s_lp_Force_Field>
OPLS_2005

> <r_lp_Energy>
21.565

> <b_lp_Chiralities_Consistent>
1

> <s_lp_Variant>
AV-unprocessed.smi:3181-3

> <Gold.Version>
5.8.1

> <Gold.Id.Protein>
6NUR|6NUR_protein|mol2

> <Gold.PLP.Fitness>
55.7936

> <Gold.PLP.PLP>
-41.5312

> <Gold.PLP.part.hbond>
-3.0000

> <Gold.PLP.part.metal>
0.0000

> <Gold.PLP.part.buried>
-4.2295

> <Gold.PLP.part.nonpolar>
-35.1381

> <Gold.PLP.part.repulsive>
0.2869

> <Gold.PLP.ligand.clash>
0.0000

> <Gold.PLP.ligand.torsion>
0.3930

> <Gold.PLP.Chemscore.Hbond>
4.0000

> <Gold.PLP.Chemscore.CHOScore>
1.0000

> <Gold.PLP.Chemscore.Metal>
0.0000

> <Gold.Chemscore.Hbonds>
donor molecule, donor type, donor heavy atom, donor atom, acceptor molecule, acceptor atom, score
      L1  H     9    26       P1  8028  2.00
      P1  H  7989  7998       L1     8  1.00
      P1  H 10752 10765       L1     6  1.00
      L1  C     7    25       P1  7949  0.72

> <Gold.PLP.Chemscore.Internal.Correction>
0.0483

> <Gold.Rescore>
     Score         DG    S(hbond)    S(metal)    S(lipo)     H(rot)  DE(clash)    DE(int)     intcor
     20.71     -22.91       2.90        0.00     112.29       2.11       0.30       1.90       ----

> <Gold.Chemscore.Fitness>
20.7057

> <Gold.Chemscore.DG>
-22.9112

> <Gold.Chemscore.ZeroCoef>
-5.4800

> <Gold.Chemscore.Hbond>
2.9022

> <Gold.Chemscore.Metal>
0.0000

> <Gold.Chemscore.Lipo>
112.2909

> <Gold.Chemscore.Internal_Hbond>
0.0000

> <Gold.Chemscore.DEClash>
0.3024

> <Gold.Chemscore.DEInternal>
1.9031

> <Gold.Chemscore.Rot>
2.1095

> <Gold.Chemscore.Internal.Correction>
   9.000000E+99

> <Gold.Chemscore.Hbonds>
donor molecule, donor type, donor heavy atom, donor atom, acceptor molecule, acceptor atom, score
      L1  H     9    26       P1  8028  1.00
      P1  H  7989  7998       L1     8  0.99
      P1  H 10752 10765       L1     6  0.86

> <Gold.Chemscore.Hbond.Weighted>
-9.6934

> <Gold.Chemscore.Metal.Weighted>
-0.0000

> <Gold.Chemscore.Lipo.Weighted>
-13.1380

> <Gold.Chemscore.Internal_Hbond.Weighted>
0.0000

> <Gold.Chemscore.DEClash.Weighted>
0.3024

> <Gold.Chemscore.DEInternal.Weighted>
1.9031

> <Gold.Chemscore.Rot.Weighted>
5.4003

> <Gold.Chemscore.Internal.Correction.Weighted>
   9.000000E+99

> <Gold.Protein.RotatedTorsions>
[ 6907 6896 6895 6894 ] final  -17.37 input  -60.11 | X-H torsion
[ 7974 7965 7964 7962 ] final  -72.58 input  175.53 | X-H torsion
[ 8008 7997 7996 7995 ] final  155.89 input   59.86 | X-H torsion
[ 10167 10162 10161 10158 ] final   95.37 input  -65.29 | X-H torsion
[ 10718 10713 10712 10709 ] final   -5.18 input   66.30 | X-H torsion
[ 10763 10752 10751 10750 ] final  167.04 input  -60.55 | X-H torsion
[ 11005 11000 10999 10996 ] final -147.12 input  -57.11 | X-H torsion

> <Gold.Protein.ActiveResidues>
 VAL166  LYS551  ARG553  GLY616  TRP617  ASP618  TYR619  PRO620  LYS621  CYS622 
 ASP623  PHE694  ASN695  SER759  ASP760  ASP761  ALA762  ILE779  LEU786  VAL792 
 PHE793  MET794  SER795  GLU796  ALA797  LYS798  CYS799  TRP800  GLU811  SER814 

> <Gold.Protein.RotatedAtoms>
  151.2944  135.0751  159.9215 H   0  0  0  0  0  0  0  0  0  0  0  0  # atno 6907 bound_to 6896
  152.5310  133.9898  159.7856 H   0  0  0  0  0  0  0  0  0  0  0  0  # atno 6908 bound_to 6896
  151.0174  133.5857  159.2706 H   0  0  0  0  0  0  0  0  0  0  0  0  # atno 6909 bound_to 6896
  145.6633  140.9245  143.0922 H   0  0  0  0  0  0  0  0  0  0  0  0  # atno 7974 bound_to 7965
  156.2453  140.1927  156.6871 H   0  0  0  0  0  0  0  0  0  0  0  0  # atno 8008 bound_to 7997
  154.6279  140.0600  156.9722 H   0  0  0  0  0  0  0  0  0  0  0  0  # atno 8009 bound_to 7997
  155.1758  140.3272  155.4387 H   0  0  0  0  0  0  0  0  0  0  0  0  # atno 8010 bound_to 7997
  139.7995  144.6819  150.9784 H   0  0  0  0  0  0  0  0  0  0  0  0  # atno 10167 bound_to 10162
  156.7504  130.5238  149.5805 H   0  0  0  0  0  0  0  0  0  0  0  0  # atno 10718 bound_to 10713
  154.3479  135.2753  155.2388 H   0  0  0  0  0  0  0  0  0  0  0  0  # atno 10763 bound_to 10752
  154.4630  135.5902  153.6272 H   0  0  0  0  0  0  0  0  0  0  0  0  # atno 10764 bound_to 10752
  152.9852  135.6069  154.3686 H   0  0  0  0  0  0  0  0  0  0  0  0  # atno 10765 bound_to 10752
  140.7749  134.3146  157.5063 H   0  0  0  0  0  0  0  0  0  0  0  0  # atno 11005 bound_to 11000
  144.7081  139.8477  143.7423 LP  0  0  0  0  0  0  0  0  0  0  0  0  # atno 17320 bound_to 7965
  146.1107  139.4111  143.0289 LP  0  0  0  0  0  0  0  0  0  0  0  0  # atno 17321 bound_to 7965
  140.7820  143.4296  151.0714 LP  0  0  0  0  0  0  0  0  0  0  0  0  # atno 17342 bound_to 10162
  139.7969  143.8139  152.3158 LP  0  0  0  0  0  0  0  0  0  0  0  0  # atno 17343 bound_to 10162
  156.1405  130.6241  151.0460 LP  0  0  0  0  0  0  0  0  0  0  0  0  # atno 17370 bound_to 10713
  157.6779  131.0845  150.7446 LP  0  0  0  0  0  0  0  0  0  0  0  0  # atno 17371 bound_to 10713
  139.8750  134.9283  156.3448 LP  0  0  0  0  0  0  0  0  0  0  0  0  # atno 17394 bound_to 11000
  140.9538  133.7433  156.0308 LP  0  0  0  0  0  0  0  0  0  0  0  0  # atno 17395 bound_to 11000

$$$$
