AV-unprocessed.smi:1575|AV-procd|sdf|6340|dock9
  -GOLD-   22720 6553D 1   1.00000     0.00000
 Structure written by MMmdl.
 41 41  0  0  0  0  0  0  0  0  1 V2000
  148.4276  141.8118  154.0656 C   0  0  0  0  0  0  0  0  0  0  0  0
  148.8403  142.2361  155.3942 N   0  0  0  0  0  0  0  0  0  0  0  0
  149.4284  141.4345  156.2936 C   0  0  0  0  0  0  0  0  0  0  0  0
  149.6685  140.2450  156.0782 O   0  0  0  0  0  0  0  0  0  0  0  0
  149.7770  142.0742  157.6488 C   0  0  1  0  0  0  0  0  0  0  0  0
  151.1436  142.7845  157.5000 C   0  0  0  0  0  0  0  0  0  0  0  0
  151.6228  143.5562  158.7511 C   0  0  0  0  0  0  0  0  0  0  0  0
  152.4808  144.7636  158.3445 C   0  0  0  0  0  0  0  0  0  0  0  0
  152.3938  142.6597  159.7345 C   0  0  0  0  0  0  0  0  0  0  0  0
  148.7664  143.0695  158.0069 N   0  0  0  0  0  0  0  0  0  0  0  0
  147.5572  142.7976  158.5212 C   0  0  0  0  0  0  0  0  0  0  0  0
  147.1798  141.6558  158.7882 O   0  0  0  0  0  0  0  0  0  0  0  0
  146.6498  144.0060  158.7896 C   0  0  0  0  0  0  0  0  0  0  0  0
  145.5597  143.7015  159.7275 N   0  0  0  0  0  0  0  0  0  0  0  0
  144.2373  143.7676  159.3120 C   0  0  0  0  0  0  0  0  0  0  0  0
  143.1861  143.5150  160.1274 C   0  0  0  0  0  0  0  0  0  0  0  0
  143.4047  143.1514  161.5233 C   0  0  0  0  0  0  0  0  0  0  0  0
  142.5193  142.9040  162.3389 O   0  0  0  0  0  0  0  0  0  0  0  0
  144.7481  143.0967  161.9033 N   0  0  0  0  0  0  0  0  0  0  0  0
  145.8361  143.3564  161.0685 C   0  0  0  0  0  0  0  0  0  0  0  0
  146.9835  143.2830  161.5071 O   0  0  0  0  0  0  0  0  0  0  0  0
  144.9489  142.8509  162.8617 H   0  0  0  0  0  0  0  0  0  0  0  0
  147.9308  142.6339  153.5506 H   0  0  0  0  0  0  0  0  0  0  0  0
  147.7303  140.9750  154.1229 H   0  0  0  0  0  0  0  0  0  0  0  0
  149.2900  141.5071  153.4713 H   0  0  0  0  0  0  0  0  0  0  0  0
  148.6729  143.1997  155.6451 H   0  0  0  0  0  0  0  0  0  0  0  0
  149.8317  141.2964  158.4121 H   0  0  0  0  0  0  0  0  0  0  0  0
  151.9077  142.0531  157.2311 H   0  0  0  0  0  0  0  0  0  0  0  0
  151.0925  143.4789  156.6592 H   0  0  0  0  0  0  0  0  0  0  0  0
  150.7511  143.9509  159.2741 H   0  0  0  0  0  0  0  0  0  0  0  0
  153.3850  144.4498  157.8216 H   0  0  0  0  0  0  0  0  0  0  0  0
  152.7848  145.3423  159.2174 H   0  0  0  0  0  0  0  0  0  0  0  0
  151.9303  145.4343  157.6843 H   0  0  0  0  0  0  0  0  0  0  0  0
  153.2557  142.1946  159.2549 H   0  0  0  0  0  0  0  0  0  0  0  0
  151.7641  141.8658  160.1352 H   0  0  0  0  0  0  0  0  0  0  0  0
  152.7594  143.2359  160.5849 H   0  0  0  0  0  0  0  0  0  0  0  0
  148.9940  144.0346  157.8167 H   0  0  0  0  0  0  0  0  0  0  0  0
  147.2709  144.8154  159.1761 H   0  0  0  0  0  0  0  0  0  0  0  0
  146.2391  144.3814  157.8497 H   0  0  0  0  0  0  0  0  0  0  0  0
  144.0272  144.0376  158.2870 H   0  0  0  0  0  0  0  0  0  0  0  0
  142.1780  143.5836  159.7451 H   0  0  0  0  0  0  0  0  0  0  0  0
  1  2  1  0  0  0  0
  1 23  1  0  0  0  0
  1 24  1  0  0  0  0
  1 25  1  0  0  0  0
  2  3  1  0  0  0  0
  2 26  1  0  0  0  0
  3  4  2  0  0  0  0
  3  5  1  0  0  0  0
  5  6  1  0  0  0  0
  5 10  1  0  0  0  0
  5 27  1  0  0  0  0
  6  7  1  0  0  0  0
  6 28  1  0  0  0  0
  6 29  1  0  0  0  0
  7  8  1  0  0  0  0
  7  9  1  0  0  0  0
  7 30  1  0  0  0  0
  8 31  1  0  0  0  0
  8 32  1  0  0  0  0
  8 33  1  0  0  0  0
  9 34  1  0  0  0  0
  9 35  1  0  0  0  0
  9 36  1  0  0  0  0
 10 11  1  0  0  0  0
 10 37  1  0  0  0  0
 11 12  2  0  0  0  0
 11 13  1  0  0  0  0
 13 14  1  0  0  0  0
 13 38  1  0  0  0  0
 13 39  1  0  0  0  0
 14 20  1  0  0  0  0
 14 15  1  0  0  0  0
 15 16  2  0  0  0  0
 15 40  1  0  0  0  0
 16 17  1  0  0  0  0
 16 41  1  0  0  0  0
 17 18  2  0  0  0  0
 17 19  1  0  0  0  0
 19 22  1  0  0  0  0
 19 20  1  0  0  0  0
 20 21  2  0  0  0  0
M  END
> <s_m_source_file>
AV-unprocessed.smi

> <i_m_source_file_index>
1575

> <i_lp_mmshare_version>
43012

> <i_f3d_flags>
0

> <s_epik_input>
W0NIM11bTkhdQyg9TylbQ0BIXShbQ0gyXVtDSF0oW0NIM10pW0NIM10pW05IXUMoPU8pW0NIMl1uMVtjSF1bY0hdYyg9TylbbkhdYzE9Tw==

> <s_epik_cmdline>
J2VwaWtfcHl0aG9uJywgJy1waCcsICc3LjAnLCAnLXRuJywgJzgnLCAnLW1hJywgJzIwMCcsICctbWV0YWxfYmluZGluZycsICctaW1hZScsICc8aW5maWxlLm1hZT4nLCAnLW9tYWUnLCAnPG91dGZpbGUubWFlPic=

> <r_lp_tautomer_probability>
0.999537

> <r_epik_Ionization_Penalty>
0.00357166

> <r_epik_Ionization_Penalty_Charging>
0.00357161

> <r_epik_Ionization_Penalty_Neutral>
5.44484e-08

> <r_epik_State_Penalty>
0.00253761

> <r_epik_Charging_Adjusted_Penalty>
0.00610921

> <i_epik_Tot_Q>
0

> <i_epik_Tot_abs_Q>
0

> <r_epik_Metal_State_Penalty>
0.368734

> <b_epik_Metal_Only>
0

> <s_lp_Force_Field>
OPLS_2005

> <r_lp_Energy>
5.11716

> <b_lp_Chiralities_Consistent>
1

> <s_lp_Variant>
AV-unprocessed.smi:1575-2

> <Gold.Version>
5.8.1

> <Gold.Id.Protein>
6NUR|6NUR_protein|mol2

> <Gold.PLP.Fitness>
39.8821

> <Gold.PLP.PLP>
-34.8828

> <Gold.PLP.part.hbond>
-6.9425

> <Gold.PLP.part.metal>
0.0000

> <Gold.PLP.part.buried>
-2.7994

> <Gold.PLP.part.nonpolar>
-25.5209

> <Gold.PLP.part.repulsive>
0.5954

> <Gold.PLP.ligand.clash>
0.0000

> <Gold.PLP.ligand.torsion>
1.5401

> <Gold.PLP.Chemscore.Hbond>
2.6709

> <Gold.PLP.Chemscore.CHOScore>
0.0000

> <Gold.PLP.Chemscore.Metal>
0.0000

> <Gold.Chemscore.Hbonds>
donor molecule, donor type, donor heavy atom, donor atom, acceptor molecule, acceptor atom, score
      L1  H     2    26       P1  8028  0.99
      L1  H    10    37       P1  8029  0.11
      P1  H  6933  6944       L1    21  1.00
      P1  H  6934  6946       L1    12  0.39

> <Gold.PLP.Chemscore.Internal.Correction>
0.0667

> <Gold.Rescore>
     Score         DG    S(hbond)    S(metal)    S(lipo)     H(rot)  DE(clash)    DE(int)     intcor
     10.62     -14.00       2.54        0.00      61.62       2.81       1.66       1.71       ----

> <Gold.Chemscore.Fitness>
10.6250

> <Gold.Chemscore.DG>
-14.0021

> <Gold.Chemscore.ZeroCoef>
-5.4800

> <Gold.Chemscore.Hbond>
2.5446

> <Gold.Chemscore.Metal>
0.0000

> <Gold.Chemscore.Lipo>
61.6216

> <Gold.Chemscore.Internal_Hbond>
0.0000

> <Gold.Chemscore.DEClash>
1.6625

> <Gold.Chemscore.DEInternal>
1.7147

> <Gold.Chemscore.Rot>
2.8072

> <Gold.Chemscore.Internal.Correction>
   9.000000E+99

> <Gold.Chemscore.Hbonds>
donor molecule, donor type, donor heavy atom, donor atom, acceptor molecule, acceptor atom, score
      L1  H     2    26       P1  8028  0.92
      P1  H  6933  6944       L1    21  0.95
      P1  H  6934  6946       L1    12  0.38

> <Gold.Chemscore.Hbond.Weighted>
-8.4988

> <Gold.Chemscore.Metal.Weighted>
-0.0000

> <Gold.Chemscore.Lipo.Weighted>
-7.2097

> <Gold.Chemscore.Internal_Hbond.Weighted>
0.0000

> <Gold.Chemscore.DEClash.Weighted>
1.6625

> <Gold.Chemscore.DEInternal.Weighted>
1.7147

> <Gold.Chemscore.Rot.Weighted>
7.1864

> <Gold.Chemscore.Internal.Correction.Weighted>
   9.000000E+99

> <Gold.Protein.RotatedTorsions>
[ 6907 6896 6895 6894 ] final   72.13 input  -60.11 | X-H torsion
[ 7974 7965 7964 7962 ] final   32.02 input  175.53 | X-H torsion
[ 8008 7997 7996 7995 ] final -172.68 input   59.86 | X-H torsion
[ 10167 10162 10161 10158 ] final  166.78 input  -65.29 | X-H torsion
[ 10718 10713 10712 10709 ] final  -22.40 input   66.30 | X-H torsion
[ 10763 10752 10751 10750 ] final  130.39 input  -60.55 | X-H torsion
[ 11005 11000 10999 10996 ] final -132.45 input  -57.11 | X-H torsion

> <Gold.Protein.ActiveResidues>
 VAL166  LYS551  ARG553  GLY616  TRP617  ASP618  TYR619  PRO620  LYS621  CYS622 
 ASP623  PHE694  ASN695  SER759  ASP760  ASP761  ALA762  ILE779  LEU786  VAL792 
 PHE793  MET794  SER795  GLU796  ALA797  LYS798  CYS799  TRP800  GLU811  SER814 

> <Gold.Protein.RotatedAtoms>
  152.4850  134.4616  159.9606 H   0  0  0  0  0  0  0  0  0  0  0  0  # atno 6907 bound_to 6896
  151.4614  133.3585  159.2817 H   0  0  0  0  0  0  0  0  0  0  0  0  # atno 6908 bound_to 6896
  150.8954  134.8386  159.7383 H   0  0  0  0  0  0  0  0  0  0  0  0  # atno 6909 bound_to 6896
  146.1513  139.6580  142.9097 H   0  0  0  0  0  0  0  0  0  0  0  0  # atno 7974 bound_to 7965
  155.9477  140.1120  157.1003 H   0  0  0  0  0  0  0  0  0  0  0  0  # atno 8008 bound_to 7997
  154.4103  140.1206  156.5077 H   0  0  0  0  0  0  0  0  0  0  0  0  # atno 8009 bound_to 7997
  155.6882  140.3473  155.4885 H   0  0  0  0  0  0  0  0  0  0  0  0  # atno 8010 bound_to 7997
  139.4931  144.3992  151.9429 H   0  0  0  0  0  0  0  0  0  0  0  0  # atno 10167 bound_to 10162
  156.5050  130.4597  149.6680 H   0  0  0  0  0  0  0  0  0  0  0  0  # atno 10718 bound_to 10713
  153.7572  135.3201  155.3331 H   0  0  0  0  0  0  0  0  0  0  0  0  # atno 10763 bound_to 10752
  154.8243  135.4581  154.0873 H   0  0  0  0  0  0  0  0  0  0  0  0  # atno 10764 bound_to 10752
  153.2093  135.6933  153.8216 H   0  0  0  0  0  0  0  0  0  0  0  0  # atno 10765 bound_to 10752
  140.9169  134.1495  157.4345 H   0  0  0  0  0  0  0  0  0  0  0  0  # atno 11005 bound_to 11000
  145.4817  141.0438  143.2642 LP  0  0  0  0  0  0  0  0  0  0  0  0  # atno 17320 bound_to 7965
  144.7907  139.6334  143.7114 LP  0  0  0  0  0  0  0  0  0  0  0  0  # atno 17321 bound_to 7965
  140.3430  144.3180  150.5963 LP  0  0  0  0  0  0  0  0  0  0  0  0  # atno 17342 bound_to 10162
  140.5549  143.2200  151.7864 LP  0  0  0  0  0  0  0  0  0  0  0  0  # atno 17343 bound_to 10162
  156.3295  130.7324  151.2251 LP  0  0  0  0  0  0  0  0  0  0  0  0  # atno 17370 bound_to 10713
  157.7458  131.0433  150.4739 LP  0  0  0  0  0  0  0  0  0  0  0  0  # atno 17371 bound_to 10713
  139.8768  134.9957  156.5756 LP  0  0  0  0  0  0  0  0  0  0  0  0  # atno 17394 bound_to 11000
  140.8038  133.8484  155.8750 LP  0  0  0  0  0  0  0  0  0  0  0  0  # atno 17395 bound_to 11000

$$$$
