AV-unprocessed.smi:2569|AV-procd|sdf|10103|dock3
  -GOLD-   2272014113D 1   1.00000     0.00000
 Structure written by MMmdl.
 39 41  0  0  0  0  0  0  0  0  1 V2000
  153.2573  142.2550  161.9471 C   0  0  0  0  0  0  0  0  0  0  0  0
  152.6888  142.1013  160.5474 C   0  0  0  0  0  0  0  0  0  0  0  0
  152.9816  140.9310  159.8111 C   0  0  0  0  0  0  0  0  0  0  0  0
  152.4731  140.7502  158.5063 C   0  0  0  0  0  0  0  0  0  0  0  0
  152.6270  139.6986  157.6191 N   0  0  0  0  0  0  0  0  0  0  0  0
  151.9160  140.1204  156.5774 C   0  0  0  0  0  0  0  0  0  0  0  0
  151.3175  141.3220  156.6855 N   0  0  0  0  0  0  0  0  0  0  0  0
  150.4984  141.9814  155.6842 C   0  0  0  0  0  0  0  0  0  0  0  0
  149.2161  141.1884  155.3530 C   0  0  1  0  0  0  0  0  0  0  0  0
  148.2182  142.0631  154.8645 O   0  0  0  0  0  0  0  0  0  0  0  0
  149.4280  140.0779  154.3054 C   0  0  0  0  0  0  0  0  0  0  0  0
  149.6233  138.7685  154.9053 N   0  0  0  0  0  0  0  0  0  0  0  0
  148.6369  138.1721  155.6199 N   0  0  0  0  0  0  0  0  0  0  0  0
  149.1037  137.0227  156.0150 N   0  0  0  0  0  0  0  0  0  0  0  0
  150.4015  136.8305  155.5795 N   0  0  0  0  0  0  0  0  0  0  0  0
  150.6743  137.9382  154.9025 C   0  0  0  0  0  0  0  0  0  0  0  0
  151.9669  138.2364  154.2169 C   0  0  0  0  0  0  0  0  0  0  0  0
  151.6592  141.7815  157.9528 C   0  0  0  0  0  0  0  0  0  0  0  0
  151.3607  142.9501  158.6752 C   0  0  0  0  0  0  0  0  0  0  0  0
  151.8743  143.1135  159.9788 C   0  0  0  0  0  0  0  0  0  0  0  0
  151.5422  144.3772  160.7524 C   0  0  0  0  0  0  0  0  0  0  0  0
  153.8528  141.3875  162.2331 H   0  0  0  0  0  0  0  0  0  0  0  0
  152.4544  142.3639  162.6764 H   0  0  0  0  0  0  0  0  0  0  0  0
  153.8992  143.1344  162.0037 H   0  0  0  0  0  0  0  0  0  0  0  0
  153.6009  140.1593  160.2441 H   0  0  0  0  0  0  0  0  0  0  0  0
  151.8240  139.5212  155.6833 H   0  0  0  0  0  0  0  0  0  0  0  0
  150.2483  142.9816  156.0402 H   0  0  0  0  0  0  0  0  0  0  0  0
  151.1090  142.1141  154.7905 H   0  0  0  0  0  0  0  0  0  0  0  0
  148.8329  140.7412  156.2706 H   0  0  0  0  0  0  0  0  0  0  0  0
  148.3930  142.9320  155.1930 H   0  0  0  0  0  0  0  0  0  0  0  0
  148.5717  140.0222  153.6324 H   0  0  0  0  0  0  0  0  0  0  0  0
  150.2939  140.3090  153.6827 H   0  0  0  0  0  0  0  0  0  0  0  0
  152.7341  137.5273  154.5291 H   0  0  0  0  0  0  0  0  0  0  0  0
  152.3060  139.2424  154.4644 H   0  0  0  0  0  0  0  0  0  0  0  0
  151.8435  138.1605  153.1366 H   0  0  0  0  0  0  0  0  0  0  0  0
  150.7385  143.7124  158.2300 H   0  0  0  0  0  0  0  0  0  0  0  0
  150.9157  145.0497  160.1657 H   0  0  0  0  0  0  0  0  0  0  0  0
  152.4531  144.9143  161.0175 H   0  0  0  0  0  0  0  0  0  0  0  0
  151.0036  144.1334  161.6686 H   0  0  0  0  0  0  0  0  0  0  0  0
  1  2  1  0  0  0  0
  1 22  1  0  0  0  0
  1 23  1  0  0  0  0
  1 24  1  0  0  0  0
  2 20  1  0  0  0  0
  2  3  2  0  0  0  0
  3  4  1  0  0  0  0
  3 25  1  0  0  0  0
  4 18  2  0  0  0  0
  4  5  1  0  0  0  0
  5  6  2  0  0  0  0
  6  7  1  0  0  0  0
  6 26  1  0  0  0  0
  7  8  1  0  0  0  0
  7 18  1  0  0  0  0
  8  9  1  0  0  0  0
  8 27  1  0  0  0  0
  8 28  1  0  0  0  0
  9 10  1  0  0  0  0
  9 11  1  0  0  0  0
  9 29  1  0  0  0  0
 10 30  1  0  0  0  0
 11 12  1  0  0  0  0
 11 31  1  0  0  0  0
 11 32  1  0  0  0  0
 12 16  1  0  0  0  0
 12 13  1  0  0  0  0
 13 14  2  0  0  0  0
 14 15  1  0  0  0  0
 15 16  2  0  0  0  0
 16 17  1  0  0  0  0
 17 33  1  0  0  0  0
 17 34  1  0  0  0  0
 17 35  1  0  0  0  0
 18 19  1  0  0  0  0
 19 20  2  0  0  0  0
 19 36  1  0  0  0  0
 20 21  1  0  0  0  0
 21 37  1  0  0  0  0
 21 38  1  0  0  0  0
 21 39  1  0  0  0  0
M  END
> <s_m_source_file>
AV-unprocessed.smi

> <i_m_source_file_index>
2569

> <i_lp_mmshare_version>
43012

> <i_f3d_flags>
0

> <s_epik_input>
W0NIM11jKFtjSF0xKWMoW0NIM10pW2NIXWMoYzEyKW4oW2NIXW4yKVtDSDJdW0NASF0oW09IXSlbQ0gyXW4zbm5uYzNbQ0gzXQ==

> <s_epik_cmdline>
J2VwaWtfcHl0aG9uJywgJy1waCcsICc3LjAnLCAnLXRuJywgJzgnLCAnLW1hJywgJzIwMCcsICctbWV0YWxfYmluZGluZycsICctaW1hZScsICc8aW5maWxlLm1hZT4nLCAnLW9tYWUnLCAnPG91dGZpbGUubWFlPic=

> <r_lp_tautomer_probability>
1

> <r_epik_Ionization_Penalty>
0.0946713

> <r_epik_Ionization_Penalty_Charging>
0

> <r_epik_Ionization_Penalty_Neutral>
0.0946713

> <r_epik_State_Penalty>
0.0848712

> <r_epik_Charging_Adjusted_Penalty>
0.0848712

> <i_epik_Tot_Q>
0

> <i_epik_Tot_abs_Q>
0

> <r_epik_Metal_State_Penalty>
0.0730911

> <b_epik_Metal_Only>
0

> <s_lp_Force_Field>
OPLS_2005

> <r_lp_Energy>
9.51249

> <b_lp_Chiralities_Consistent>
1

> <s_lp_Variant>
AV-unprocessed.smi:2569-2

> <Gold.Version>
5.8.1

> <Gold.Id.Protein>
6NUR|6NUR_protein|mol2

> <Gold.PLP.Fitness>
46.6242

> <Gold.PLP.PLP>
-42.2814

> <Gold.PLP.part.hbond>
-2.0000

> <Gold.PLP.part.metal>
0.0000

> <Gold.PLP.part.buried>
-5.3864

> <Gold.PLP.part.nonpolar>
-34.3665

> <Gold.PLP.part.repulsive>
0.1443

> <Gold.PLP.ligand.clash>
0.0000

> <Gold.PLP.ligand.torsion>
0.8310

> <Gold.PLP.Chemscore.Hbond>
2.0000

> <Gold.PLP.Chemscore.CHOScore>
0.0000

> <Gold.PLP.Chemscore.Metal>
0.0000

> <Gold.Chemscore.Hbonds>
donor molecule, donor type, donor heavy atom, donor atom, acceptor molecule, acceptor atom, score
      L1  H    10    30       P1  8028  1.00
      P1  H  7997  8009       L1     5  0.95

> <Gold.PLP.Chemscore.Internal.Correction>
0.0047

> <Gold.Rescore>
     Score         DG    S(hbond)    S(metal)    S(lipo)     H(rot)  DE(clash)    DE(int)     intcor
     15.11     -16.21       1.29        0.00     110.24       2.53       0.27       0.83       ----

> <Gold.Chemscore.Fitness>
15.1113

> <Gold.Chemscore.DG>
-16.2086

> <Gold.Chemscore.ZeroCoef>
-5.4800

> <Gold.Chemscore.Hbond>
1.2873

> <Gold.Chemscore.Metal>
0.0000

> <Gold.Chemscore.Lipo>
110.2396

> <Gold.Chemscore.Internal_Hbond>
0.0000

> <Gold.Chemscore.DEClash>
0.2659

> <Gold.Chemscore.DEInternal>
0.8314

> <Gold.Chemscore.Rot>
2.5270

> <Gold.Chemscore.Internal.Correction>
   9.000000E+99

> <Gold.Chemscore.Hbonds>
donor molecule, donor type, donor heavy atom, donor atom, acceptor molecule, acceptor atom, score
      L1  H    10    30       P1  8028  1.00
      P1  H  7997  8009       L1     5  0.06

> <Gold.Chemscore.Hbond.Weighted>
-4.2997

> <Gold.Chemscore.Metal.Weighted>
-0.0000

> <Gold.Chemscore.Lipo.Weighted>
-12.8980

> <Gold.Chemscore.Internal_Hbond.Weighted>
0.0000

> <Gold.Chemscore.DEClash.Weighted>
0.2659

> <Gold.Chemscore.DEInternal.Weighted>
0.8314

> <Gold.Chemscore.Rot.Weighted>
6.4691

> <Gold.Chemscore.Internal.Correction.Weighted>
   9.000000E+99

> <Gold.Protein.RotatedTorsions>
[ 6907 6896 6895 6894 ] final -152.79 input  -60.11 | X-H torsion
[ 7974 7965 7964 7962 ] final -132.16 input  175.53 | X-H torsion
[ 8008 7997 7996 7995 ] final  163.15 input   59.86 | X-H torsion
[ 10167 10162 10161 10158 ] final   52.74 input  -65.29 | X-H torsion
[ 10718 10713 10712 10709 ] final    8.12 input   66.30 | X-H torsion
[ 10763 10752 10751 10750 ] final   37.40 input  -60.55 | X-H torsion
[ 11005 11000 10999 10996 ] final   61.54 input  -57.11 | X-H torsion

> <Gold.Protein.ActiveResidues>
 VAL166  LYS551  ARG553  GLY616  TRP617  ASP618  TYR619  PRO620  LYS621  CYS622 
 ASP623  PHE694  ASN695  SER759  ASP760  ASP761  ALA762  ILE779  LEU786  VAL792 
 PHE793  MET794  SER795  GLU796  ALA797  LYS798  CYS799  TRP800  GLU811  SER814 

> <Gold.Protein.RotatedAtoms>
  151.2330  133.4440  159.2604 H   0  0  0  0  0  0  0  0  0  0  0  0  # atno 6907 bound_to 6896
  151.0777  134.9838  159.8350 H   0  0  0  0  0  0  0  0  0  0  0  0  # atno 6908 bound_to 6896
  152.5420  134.2271  159.8863 H   0  0  0  0  0  0  0  0  0  0  0  0  # atno 6909 bound_to 6896
  144.9311  140.7129  143.4905 H   0  0  0  0  0  0  0  0  0  0  0  0  # atno 7974 bound_to 7965
  156.1979  140.1731  156.7961 H   0  0  0  0  0  0  0  0  0  0  0  0  # atno 8008 bound_to 7997
  154.5553  140.0710  156.8764 H   0  0  0  0  0  0  0  0  0  0  0  0  # atno 8009 bound_to 7997
  155.2951  140.3358  155.4253 H   0  0  0  0  0  0  0  0  0  0  0  0  # atno 8010 bound_to 7997
  140.2482  144.3509  150.6357 H   0  0  0  0  0  0  0  0  0  0  0  0  # atno 10167 bound_to 10162
  156.9469  130.5882  149.5655 H   0  0  0  0  0  0  0  0  0  0  0  0  # atno 10718 bound_to 10713
  153.0039  135.6279  154.2138 H   0  0  0  0  0  0  0  0  0  0  0  0  # atno 10763 bound_to 10752
  154.1882  135.2810  155.3032 H   0  0  0  0  0  0  0  0  0  0  0  0  # atno 10764 bound_to 10752
  154.5781  135.5656  153.7218 H   0  0  0  0  0  0  0  0  0  0  0  0  # atno 10765 bound_to 10752
  140.0154  134.6233  155.9718 H   0  0  0  0  0  0  0  0  0  0  0  0  # atno 11005 bound_to 11000
  145.3141  139.1809  143.4623 LP  0  0  0  0  0  0  0  0  0  0  0  0  # atno 17320 bound_to 7965
  146.3247  140.3149  142.8629 LP  0  0  0  0  0  0  0  0  0  0  0  0  # atno 17321 bound_to 7965
  140.6061  143.2168  151.6978 LP  0  0  0  0  0  0  0  0  0  0  0  0  # atno 17342 bound_to 10162
  139.5055  144.3716  152.0464 LP  0  0  0  0  0  0  0  0  0  0  0  0  # atno 17343 bound_to 10162
  156.0379  130.5465  150.8700 LP  0  0  0  0  0  0  0  0  0  0  0  0  # atno 17370 bound_to 10713
  157.5747  131.0946  150.9363 LP  0  0  0  0  0  0  0  0  0  0  0  0  # atno 17371 bound_to 10713
  141.1739  133.6539  156.4755 LP  0  0  0  0  0  0  0  0  0  0  0  0  # atno 17394 bound_to 11000
  140.4480  134.6954  157.5025 LP  0  0  0  0  0  0  0  0  0  0  0  0  # atno 17395 bound_to 11000

$$$$
