AV-unprocessed.smi:2537|AV-procd|sdf|9980|dock3
  -GOLD-   2272014 23D 1   1.00000     0.00000
 Structure written by MMmdl.
 17 17  0  0  0  0  0  0  0  0  2 V2000
  151.1841  144.1840  157.4969 N   0  0  0  0  0  0  0  0  0  0  0  0
  151.3062  142.8897  157.8005 C   0  0  0  0  0  0  0  0  0  0  0  0
  152.2428  142.4670  158.4770 O   0  0  0  0  0  0  0  0  0  0  0  0
  150.2140  141.9574  157.2598 C   0  0  0  0  0  0  0  0  0  0  0  0
  150.7050  141.0334  156.2506 N   0  0  0  0  0  0  0  0  0  0  0  0
  151.8164  140.2174  156.3005 C   0  0  0  0  0  0  0  0  0  0  0  0
  151.7926  139.5719  155.0957 C   0  0  0  0  0  0  0  0  0  0  0  0
  152.7731  138.5620  154.6166 C   0  0  0  0  0  0  0  0  0  0  0  0
  153.9669  138.6559  154.9795 O   0  0  0  0  0  0  0  0  0  0  0  0
  152.3844  137.6432  153.8620 O   0  5  0  0  0  0  0  0  0  0  0  0
  150.6840  140.0184  154.3734 N   0  0  0  0  0  0  0  0  0  0  0  0
  150.0395  140.8945  155.0783 N   0  0  0  0  0  0  0  0  0  0  0  0
  151.8760  144.8414  157.8265 H   0  0  0  0  0  0  0  0  0  0  0  0
  150.4042  144.5016  156.9399 H   0  0  0  0  0  0  0  0  0  0  0  0
  149.7776  141.3888  158.0825 H   0  0  0  0  0  0  0  0  0  0  0  0
  149.4135  142.5538  156.8205 H   0  0  0  0  0  0  0  0  0  0  0  0
  152.4907  140.1644  157.1422 H   0  0  0  0  0  0  0  0  0  0  0  0
  1  2  1  0  0  0  0
  1 13  1  0  0  0  0
  1 14  1  0  0  0  0
  2  3  2  0  0  0  0
  2  4  1  0  0  0  0
  4  5  1  0  0  0  0
  4 15  1  0  0  0  0
  4 16  1  0  0  0  0
  5 12  1  0  0  0  0
  5  6  1  0  0  0  0
  6  7  2  0  0  0  0
  6 17  1  0  0  0  0
  7  8  1  0  0  0  0
  7 11  1  0  0  0  0
  8  9  2  0  0  0  0
  8 10  1  0  0  0  0
 11 12  2  0  0  0  0
M  CHG  1  10  -1
M  END
> <s_m_source_file>
AV-unprocessed.smi

> <i_m_source_file_index>
2537

> <i_lp_mmshare_version>
43012

> <i_f3d_flags>
0

> <s_epik_input>
W05IMl1DKD1PKVtDSDJdbjFbY0hdYyhubjEpQyg9TylbT0hd

> <s_epik_cmdline>
J2VwaWtfcHl0aG9uJywgJy1waCcsICc3LjAnLCAnLXRuJywgJzgnLCAnLW1hJywgJzIwMCcsICctbWV0YWxfYmluZGluZycsICctaW1hZScsICc8aW5maWxlLm1hZT4nLCAnLW9tYWUnLCAnPG91dGZpbGUubWFlPic=

> <r_epik_Ionization_Penalty>
0.000900147

> <r_epik_Ionization_Penalty_Charging>
0.00089877

> <r_epik_Ionization_Penalty_Neutral>
1.37672e-06

> <r_epik_State_Penalty>
0.000581682

> <r_epik_Charging_Adjusted_Penalty>
0.00148045

> <i_epik_Tot_Q>
-1

> <i_epik_Tot_abs_Q>
1

> <r_epik_Metal_State_Penalty>
-0

> <b_epik_Metal_Only>
0

> <s_lp_Force_Field>
OPLS_2005

> <r_lp_Energy>
4.32314

> <b_lp_Chiralities_Consistent>
1

> <s_lp_Variant>
AV-unprocessed.smi:2537-1

> <Gold.Version>
5.8.1

> <Gold.Id.Protein>
6NUR|6NUR_protein|mol2

> <Gold.PLP.Fitness>
37.1690

> <Gold.PLP.PLP>
-24.2084

> <Gold.PLP.part.hbond>
-5.0000

> <Gold.PLP.part.metal>
0.0000

> <Gold.PLP.part.buried>
-4.7178

> <Gold.PLP.part.nonpolar>
-15.6440

> <Gold.PLP.part.repulsive>
0.3945

> <Gold.PLP.ligand.clash>
0.0000

> <Gold.PLP.ligand.torsion>
0.5888

> <Gold.PLP.Chemscore.Hbond>
4.7120

> <Gold.PLP.Chemscore.CHOScore>
0.0000

> <Gold.PLP.Chemscore.Metal>
0.0000

> <Gold.Chemscore.Hbonds>
donor molecule, donor type, donor heavy atom, donor atom, acceptor molecule, acceptor atom, score
      L1  H     1    14       P1  8028  1.00
      P1  H  7989  7998       L1    11  0.45
      P1  H  7997  8010       L1     9  1.44
      P1  H 10752 10765       L1    10  1.55

> <Gold.PLP.Chemscore.Internal.Correction>
0.0022

> <Gold.Rescore>
     Score         DG    S(hbond)    S(metal)    S(lipo)     H(rot)  DE(clash)    DE(int)     intcor
     11.22     -11.83       2.50        0.00      20.14       1.70       0.03       0.58       ----

> <Gold.Chemscore.Fitness>
11.2152

> <Gold.Chemscore.DG>
-11.8279

> <Gold.Chemscore.ZeroCoef>
-5.4800

> <Gold.Chemscore.Hbond>
2.4963

> <Gold.Chemscore.Metal>
0.0000

> <Gold.Chemscore.Lipo>
20.1437

> <Gold.Chemscore.Internal_Hbond>
0.0000

> <Gold.Chemscore.DEClash>
0.0318

> <Gold.Chemscore.DEInternal>
0.5810

> <Gold.Chemscore.Rot>
1.6979

> <Gold.Chemscore.Internal.Correction>
   9.000000E+99

> <Gold.Chemscore.Hbonds>
donor molecule, donor type, donor heavy atom, donor atom, acceptor molecule, acceptor atom, score
      L1  H     1    14       P1  8028  0.84
      P1  H  7989  7998       L1    11  0.01
      P1  H  7997  8010       L1     9  0.69
      P1  H 10752 10765       L1    10  0.72

> <Gold.Chemscore.Hbond.Weighted>
-8.3378

> <Gold.Chemscore.Metal.Weighted>
-0.0000

> <Gold.Chemscore.Lipo.Weighted>
-2.3568

> <Gold.Chemscore.Internal_Hbond.Weighted>
0.0000

> <Gold.Chemscore.DEClash.Weighted>
0.0318

> <Gold.Chemscore.DEInternal.Weighted>
0.5810

> <Gold.Chemscore.Rot.Weighted>
4.3467

> <Gold.Chemscore.Internal.Correction.Weighted>
   9.000000E+99

> <Gold.Protein.RotatedTorsions>
[ 6907 6896 6895 6894 ] final -162.35 input  -60.11 | X-H torsion
[ 7974 7965 7964 7962 ] final  -54.58 input  175.53 | X-H torsion
[ 8008 7997 7996 7995 ] final  102.88 input   59.86 | X-H torsion
[ 10167 10162 10161 10158 ] final -117.39 input  -65.29 | X-H torsion
[ 10718 10713 10712 10709 ] final   -8.75 input   66.30 | X-H torsion
[ 10763 10752 10751 10750 ] final  138.90 input  -60.55 | X-H torsion
[ 11005 11000 10999 10996 ] final   46.23 input  -57.11 | X-H torsion

> <Gold.Protein.ActiveResidues>
 VAL166  LYS551  ARG553  GLY616  TRP617  ASP618  TYR619  PRO620  LYS621  CYS622 
 ASP623  PHE694  ASN695  SER759  ASP760  ASP761  ALA762  ILE779  LEU786  VAL792 
 PHE793  MET794  SER795  GLU796  ALA797  LYS798  CYS799  TRP800  GLU811  SER814 

> <Gold.Protein.RotatedAtoms>
  151.3789  133.3828  159.2707 H   0  0  0  0  0  0  0  0  0  0  0  0  # atno 6907 bound_to 6896
  150.9593  134.8984  159.7731 H   0  0  0  0  0  0  0  0  0  0  0  0  # atno 6908 bound_to 6896
  152.5143  134.3748  159.9383 H   0  0  0  0  0  0  0  0  0  0  0  0  # atno 6909 bound_to 6896
  145.8840  140.8123  142.9825 H   0  0  0  0  0  0  0  0  0  0  0  0  # atno 7974 bound_to 7965
  156.1434  140.3174  155.8531 H   0  0  0  0  0  0  0  0  0  0  0  0  # atno 8008 bound_to 7997
  155.4111  140.0506  157.3048 H   0  0  0  0  0  0  0  0  0  0  0  0  # atno 8009 bound_to 7997
  154.4995  140.2124  155.9388 H   0  0  0  0  0  0  0  0  0  0  0  0  # atno 8010 bound_to 7997
  140.0689  143.4896  152.1991 H   0  0  0  0  0  0  0  0  0  0  0  0  # atno 10167 bound_to 10162
  156.6980  130.5085  149.5925 H   0  0  0  0  0  0  0  0  0  0  0  0  # atno 10718 bound_to 10713
  153.8973  135.3026  155.3448 H   0  0  0  0  0  0  0  0  0  0  0  0  # atno 10763 bound_to 10752
  154.7687  135.4897  153.9609 H   0  0  0  0  0  0  0  0  0  0  0  0  # atno 10764 bound_to 10752
  153.1264  135.6794  153.9349 H   0  0  0  0  0  0  0  0  0  0  0  0  # atno 10765 bound_to 10752
  140.1388  134.4610  155.8465 H   0  0  0  0  0  0  0  0  0  0  0  0  # atno 11005 bound_to 11000
  144.6728  140.1427  143.7436 LP  0  0  0  0  0  0  0  0  0  0  0  0  # atno 17320 bound_to 7965
  145.8989  139.2419  143.1505 LP  0  0  0  0  0  0  0  0  0  0  0  0  # atno 17321 bound_to 7965
  139.5848  144.7526  151.3548 LP  0  0  0  0  0  0  0  0  0  0  0  0  # atno 17342 bound_to 10162
  140.7135  143.7327  150.7611 LP  0  0  0  0  0  0  0  0  0  0  0  0  # atno 17343 bound_to 10162
  156.1749  130.6461  151.0882 LP  0  0  0  0  0  0  0  0  0  0  0  0  # atno 17370 bound_to 10713
  157.6984  131.0785  150.6899 LP  0  0  0  0  0  0  0  0  0  0  0  0  # atno 17371 bound_to 10713
  141.2182  133.6825  156.7208 LP  0  0  0  0  0  0  0  0  0  0  0  0  # atno 17394 bound_to 11000
  140.2748  134.8363  157.3880 LP  0  0  0  0  0  0  0  0  0  0  0  0  # atno 17395 bound_to 11000

$$$$
