AV-unprocessed.smi:3314|AV-procd|sdf|12740|dock5
  -GOLD-   2272019 83D 1   1.00000     0.00000
 Structure written by MMmdl.
 38 39  0  0  0  0  0  0  0  0  2 V2000
  151.8867  145.6020  159.9312 C   0  0  0  0  0  0  0  0  0  0  0  0
  151.8992  144.2220  159.3061 C   0  0  0  0  0  0  0  0  0  0  0  0
  152.5997  143.1270  159.9556 C   0  0  0  0  0  0  0  0  0  0  0  0
  152.5982  141.9103  159.3851 C   0  0  0  0  0  0  0  0  0  0  0  0
  153.2958  140.7031  159.9761 C   0  0  0  0  0  0  0  0  0  0  0  0
  151.9357  141.6861  158.1848 N   0  0  0  0  0  0  0  0  0  0  0  0
  151.2369  142.6920  157.4943 C   0  0  0  0  0  0  0  0  0  0  0  0
  150.6023  142.5348  156.3688 N   0  0  0  0  0  0  0  0  0  0  0  0
  150.5362  141.3111  155.7080 C   0  0  0  0  0  0  0  0  0  0  0  0
  151.4383  140.5061  155.4587 O   0  0  0  0  0  0  0  0  0  0  0  0
  149.1102  140.9864  155.2473 C   0  0  1  0  0  0  0  0  0  0  0  0
  148.0660  141.6986  156.1336 C   0  0  0  0  0  0  0  0  0  0  0  0
  146.6986  141.4569  155.6186 N   0  3  1  0  0  0  0  0  0  0  0  0
  145.6544  142.0853  156.4556 C   0  0  0  0  0  0  0  0  0  0  0  0
  146.5953  141.8390  154.1920 C   0  0  0  0  0  0  0  0  0  0  0  0
  147.6757  141.1192  153.3691 C   0  0  0  0  0  0  0  0  0  0  0  0
  148.9591  141.4259  153.8995 O   0  0  0  0  0  0  0  0  0  0  0  0
  151.2570  143.9982  158.1353 C   0  0  0  0  0  0  0  0  0  0  0  0
  152.4491  145.6177  160.8653 H   0  0  0  0  0  0  0  0  0  0  0  0
  150.8634  145.9122  160.1448 H   0  0  0  0  0  0  0  0  0  0  0  0
  152.3333  146.3296  159.2530 H   0  0  0  0  0  0  0  0  0  0  0  0
  153.1174  143.2905  160.8895 H   0  0  0  0  0  0  0  0  0  0  0  0
  153.7802  140.9505  160.9212 H   0  0  0  0  0  0  0  0  0  0  0  0
  154.0578  140.3321  159.2902 H   0  0  0  0  0  0  0  0  0  0  0  0
  152.5791  139.9023  160.1605 H   0  0  0  0  0  0  0  0  0  0  0  0
  148.9558  139.9055  155.2832 H   0  0  0  0  0  0  0  0  0  0  0  0
  148.1344  141.3342  157.1599 H   0  0  0  0  0  0  0  0  0  0  0  0
  148.2576  142.7733  156.1617 H   0  0  0  0  0  0  0  0  0  0  0  0
  145.7569  143.1712  156.4613 H   0  0  0  0  0  0  0  0  0  0  0  0
  145.7217  141.7297  157.4843 H   0  0  0  0  0  0  0  0  0  0  0  0
  144.6604  141.8372  156.0816 H   0  0  0  0  0  0  0  0  0  0  0  0
  145.6059  141.5825  153.8116 H   0  0  0  0  0  0  0  0  0  0  0  0
  146.7085  142.9197  154.0915 H   0  0  0  0  0  0  0  0  0  0  0  0
  147.5154  140.0399  153.3713 H   0  0  0  0  0  0  0  0  0  0  0  0
  147.6360  141.4450  152.3295 H   0  0  0  0  0  0  0  0  0  0  0  0
  150.7474  144.8366  157.6821 H   0  0  0  0  0  0  0  0  0  0  0  0
  151.9808  140.7440  157.8237 H   0  0  0  0  0  0  0  0  0  0  0  0
  146.5446  140.4596  155.6632 H   0  0  0  0  0  0  0  0  0  0  0  0
  1  2  1  0  0  0  0
  1 19  1  0  0  0  0
  1 20  1  0  0  0  0
  1 21  1  0  0  0  0
  2 18  2  0  0  0  0
  2  3  1  0  0  0  0
  3  4  2  0  0  0  0
  3 22  1  0  0  0  0
  4  5  1  0  0  0  0
  4  6  1  0  0  0  0
  5 23  1  0  0  0  0
  5 24  1  0  0  0  0
  5 25  1  0  0  0  0
  6  7  1  0  0  0  0
  6 37  1  0  0  0  0
  7  8  2  0  0  0  0
  7 18  1  0  0  0  0
  8  9  1  0  0  0  0
  9 10  2  0  0  0  0
  9 11  1  0  0  0  0
 11 17  1  0  0  0  0
 11 12  1  0  0  0  0
 11 26  1  0  0  0  0
 12 13  1  0  0  0  0
 12 27  1  0  0  0  0
 12 28  1  0  0  0  0
 13 14  1  0  0  0  0
 13 15  1  0  0  0  0
 13 38  1  0  0  0  0
 14 29  1  0  0  0  0
 14 30  1  0  0  0  0
 14 31  1  0  0  0  0
 15 16  1  0  0  0  0
 15 32  1  0  0  0  0
 15 33  1  0  0  0  0
 16 17  1  0  0  0  0
 16 34  1  0  0  0  0
 16 35  1  0  0  0  0
 18 36  1  0  0  0  0
M  CHG  1  13   1
M  END
> <s_m_source_file>
AV-unprocessed.smi

> <i_m_source_file_index>
3314

> <i_lp_mmshare_version>
43012

> <i_f3d_flags>
0

> <s_epik_input>
W0NIM11jMVtjSF1jKFtDSDNdKW5jKFtjSF0xKVtOSF1DKD1PKVtDQEBIXTJbQ0gyXU4oW0NIM10pW0NIMl1bQ0gyXU8y

> <s_epik_cmdline>
J2VwaWtfcHl0aG9uJywgJy1waCcsICc3LjAnLCAnLXRuJywgJzgnLCAnLW1hJywgJzIwMCcsICctbWV0YWxfYmluZGluZycsICctaW1hZScsICc8aW5maWxlLm1hZT4nLCAnLW9tYWUnLCAnPG91dGZpbGUubWFlPic=

> <r_epik_Ionization_Penalty>
0.519783

> <r_epik_Ionization_Penalty_Charging>
0.519783

> <r_epik_Ionization_Penalty_Neutral>
1.74183e-13

> <r_epik_State_Penalty>
2.39351

> <r_epik_Charging_Adjusted_Penalty>
2.91329

> <i_epik_Tot_Q>
1

> <i_epik_Tot_abs_Q>
1

> <r_epik_Metal_State_Penalty>
2.41924

> <b_epik_Metal_Only>
0

> <s_lp_Force_Field>
OPLS_2005

> <r_lp_Energy>
34.3137

> <b_lp_Chiralities_Consistent>
1

> <s_lp_Variant>
AV-unprocessed.smi:3314-10

> <Gold.Version>
5.8.1

> <Gold.Id.Protein>
6NUR|6NUR_protein|mol2

> <Gold.PLP.Fitness>
41.0474

> <Gold.PLP.PLP>
-38.5900

> <Gold.PLP.part.hbond>
-2.3224

> <Gold.PLP.part.metal>
0.0000

> <Gold.PLP.part.buried>
-4.7247

> <Gold.PLP.part.nonpolar>
-33.2563

> <Gold.PLP.part.repulsive>
2.0609

> <Gold.PLP.ligand.clash>
0.0000

> <Gold.PLP.ligand.torsion>
1.1078

> <Gold.PLP.Chemscore.Hbond>
1.5576

> <Gold.PLP.Chemscore.CHOScore>
0.0000

> <Gold.PLP.Chemscore.Metal>
0.0000

> <Gold.Chemscore.Hbonds>
donor molecule, donor type, donor heavy atom, donor atom, acceptor molecule, acceptor atom, score
      P1  H  7989  7998       L1    10  0.81
      P1  H  8011  8017       L1    17  0.73

> <Gold.PLP.Chemscore.Internal.Correction>
0.0002

> <Gold.Rescore>
     Score         DG    S(hbond)    S(metal)    S(lipo)     H(rot)  DE(clash)    DE(int)     intcor
     13.75     -17.85       1.23        0.00      92.62       1.00       2.02       2.08       ----

> <Gold.Chemscore.Fitness>
13.7476

> <Gold.Chemscore.DG>
-17.8513

> <Gold.Chemscore.ZeroCoef>
-5.4800

> <Gold.Chemscore.Hbond>
1.2258

> <Gold.Chemscore.Metal>
0.0000

> <Gold.Chemscore.Lipo>
92.6241

> <Gold.Chemscore.Internal_Hbond>
0.0000

> <Gold.Chemscore.DEClash>
2.0233

> <Gold.Chemscore.DEInternal>
2.0804

> <Gold.Chemscore.Rot>
1.0000

> <Gold.Chemscore.Internal.Correction>
   9.000000E+99

> <Gold.Chemscore.Hbonds>
donor molecule, donor type, donor heavy atom, donor atom, acceptor molecule, acceptor atom, score
      P1  H  7989  7998       L1    10  0.17
      P1  H  8011  8017       L1    17  0.21

> <Gold.Chemscore.Hbond.Weighted>
-4.0943

> <Gold.Chemscore.Metal.Weighted>
-0.0000

> <Gold.Chemscore.Lipo.Weighted>
-10.8370

> <Gold.Chemscore.Internal_Hbond.Weighted>
0.0000

> <Gold.Chemscore.DEClash.Weighted>
2.0233

> <Gold.Chemscore.DEInternal.Weighted>
2.0804

> <Gold.Chemscore.Rot.Weighted>
2.5600

> <Gold.Chemscore.Internal.Correction.Weighted>
   9.000000E+99

> <Gold.Protein.RotatedTorsions>
[ 6907 6896 6895 6894 ] final -171.04 input  -60.11 | X-H torsion
[ 7974 7965 7964 7962 ] final -133.20 input  175.53 | X-H torsion
[ 8008 7997 7996 7995 ] final -157.88 input   59.86 | X-H torsion
[ 10167 10162 10161 10158 ] final  111.37 input  -65.29 | X-H torsion
[ 10718 10713 10712 10709 ] final -153.42 input   66.30 | X-H torsion
[ 10763 10752 10751 10750 ] final -135.92 input  -60.55 | X-H torsion
[ 11005 11000 10999 10996 ] final   63.42 input  -57.11 | X-H torsion

> <Gold.Protein.ActiveResidues>
 VAL166  LYS551  ARG553  GLY616  TRP617  ASP618  TYR619  PRO620  LYS621  CYS622 
 ASP623  PHE694  ASN695  SER759  ASP760  ASP761  ALA762  ILE779  LEU786  VAL792 
 PHE793  MET794  SER795  GLU796  ALA797  LYS798  CYS799  TRP800  GLU811  SER814 

> <Gold.Protein.RotatedAtoms>
  151.5175  133.3473  159.2895 H   0  0  0  0  0  0  0  0  0  0  0  0  # atno 6907 bound_to 6896
  150.8673  134.8042  159.7139 H   0  0  0  0  0  0  0  0  0  0  0  0  # atno 6908 bound_to 6896
  152.4673  134.5053  159.9789 H   0  0  0  0  0  0  0  0  0  0  0  0  # atno 6909 bound_to 6896
  144.9215  140.7020  143.4962 H   0  0  0  0  0  0  0  0  0  0  0  0  # atno 7974 bound_to 7965
  155.7392  140.0812  157.2253 H   0  0  0  0  0  0  0  0  0  0  0  0  # atno 8008 bound_to 7997
  154.4024  140.1581  156.2652 H   0  0  0  0  0  0  0  0  0  0  0  0  # atno 8009 bound_to 7997
  155.9036  140.3408  155.6048 H   0  0  0  0  0  0  0  0  0  0  0  0  # atno 8010 bound_to 7997
  139.6616  144.7128  151.1854 H   0  0  0  0  0  0  0  0  0  0  0  0  # atno 10167 bound_to 10162
  156.4857  130.8324  151.2549 H   0  0  0  0  0  0  0  0  0  0  0  0  # atno 10718 bound_to 10713
  154.8694  135.3688  154.4977 H   0  0  0  0  0  0  0  0  0  0  0  0  # atno 10763 bound_to 10752
  153.5620  135.7022  153.5548 H   0  0  0  0  0  0  0  0  0  0  0  0  # atno 10764 bound_to 10752
  153.3619  135.4044  155.1688 H   0  0  0  0  0  0  0  0  0  0  0  0  # atno 10765 bound_to 10752
  140.0026  134.6419  155.9907 H   0  0  0  0  0  0  0  0  0  0  0  0  # atno 11005 bound_to 11000
  145.3288  139.1766  143.4548 LP  0  0  0  0  0  0  0  0  0  0  0  0  # atno 17320 bound_to 7965
  146.3207  140.3315  142.8641 LP  0  0  0  0  0  0  0  0  0  0  0  0  # atno 17321 bound_to 7965
  140.7582  143.5984  150.8724 LP  0  0  0  0  0  0  0  0  0  0  0  0  # atno 17342 bound_to 10162
  139.9642  143.6129  152.2993 LP  0  0  0  0  0  0  0  0  0  0  0  0  # atno 17343 bound_to 10162
  157.7479  131.0030  150.3022 LP  0  0  0  0  0  0  0  0  0  0  0  0  # atno 17370 bound_to 10713
  156.3477  130.3826  149.7355 LP  0  0  0  0  0  0  0  0  0  0  0  0  # atno 17371 bound_to 10713
  141.1653  133.6537  156.4458 LP  0  0  0  0  0  0  0  0  0  0  0  0  # atno 17394 bound_to 11000
  140.4701  134.6762  157.5125 LP  0  0  0  0  0  0  0  0  0  0  0  0  # atno 17395 bound_to 11000

$$$$
