#       Name:                AV-unprocessed.smi:2741
#       Creating user name   scv26
#       Creation time:       Fri Mar 27 15:01:22 2020


#       File generated by GOLD software.
#

@<TRIPOS>MOLECULE
AV-unprocessed.smi:2741
    45    46     1
SMALL
NO_CHARGES


@<TRIPOS>ATOM
      1 ****        -0.4074   0.6054  -1.0342 O.2            1 S1                 0.0000
      2 ****         0.2771  -0.4044  -0.8631 C.2            1 S1                 0.0000
      3 ****         1.7975  -0.3731  -1.0765 C.3            1 S1                 0.0000
      4 ****         2.2517   0.7797  -1.8726 N.am           1 S1                 0.0000
      5 ****         2.7309   1.8996  -1.1646 C.2            1 S1                 0.0000
      6 ****         3.1551   3.0243  -1.7720 C.2            1 S1                 0.0000
      7 ****         3.7125   4.1967  -0.9798 C.3            1 S1                 0.0000
      8 ****         4.5552   4.9200  -1.7174 F              1 S1                 0.0000
      9 ****         2.7181   4.9907  -0.5857 F              1 S1                 0.0000
     10 ****         4.3619   3.7755   0.1062 F              1 S1                 0.0000
     11 ****         3.1295   3.0238  -3.2214 C.2            1 S1                 0.0000
     12 ****         2.6805   1.9587  -3.9140 C.2            1 S1                 0.0000
     13 ****         2.1999   0.7515  -3.2381 C.2            1 S1                 0.0000
     14 ****         1.7777  -0.2239  -3.8598 O.2            1 S1                 0.0000
     15 ****        -0.2356  -1.5795  -0.4681 N.am           1 S1                 0.0000
     16 ****        -1.6476  -1.8314  -0.2010 C.3            1 S1                 0.0000
     17 ****        -2.0807  -1.3048   1.1808 C.3            1 S1                 0.0000
     18 ****        -1.3121  -1.9131   2.3696 C.3            1 S1                 0.0000
     19 ****        -2.3283  -2.0793   3.5113 C.3            1 S1                 0.0000
     20 ****        -3.6192  -1.4194   3.0175 C.3            1 S1                 0.0000
     21 ****        -4.7718  -2.0251   3.5634 O.3            1 S1                 0.0000
     22 ****        -3.5557  -1.5628   1.4986 C.3            1 S1                 0.0000
     23 ****         2.2775  -0.3743  -0.0969 H              1 S1                 0.0000
     24 ****         2.1145  -1.3046  -1.5494 H              1 S1                 0.0000
     25 ****         2.7268   1.7880  -0.0900 H              1 S1                 0.0000
     26 ****         3.4709   3.8939  -3.7625 H              1 S1                 0.0000
     27 ****         2.6727   1.9945  -4.9935 H              1 S1                 0.0000
     28 ****         0.3970  -2.3573  -0.3469 H              1 S1                 0.0000
     29 ****        -2.2593  -1.3829  -0.9857 H              1 S1                 0.0000
     30 ****        -1.8144  -2.9074  -0.2599 H              1 S1                 0.0000
     31 ****        -1.9317  -0.2240   1.2081 H              1 S1                 0.0000
     32 ****        -0.8901  -2.8853   2.1120 H              1 S1                 0.0000
     33 ****        -0.4823  -1.2689   2.6625 H              1 S1                 0.0000
     34 ****        -2.4914  -3.1432   3.6902 H              1 S1                 0.0000
     35 ****        -1.9791  -1.6416   4.4470 H              1 S1                 0.0000
     36 ****        -3.6121  -0.3612   3.2831 H              1 S1                 0.0000
     37 ****        -5.5341  -1.5866   3.2175 H              1 S1                 0.0000
     38 ****        -4.2232  -0.8721   0.9826 H              1 S1                 0.0000
     39 ****        -3.8299  -2.5776   1.2044 H              1 S1                 0.0000
     40 ****         0.0260   1.4614  -1.3161 LP             1 S1                 0.0000
     41 ****        -1.3965   0.5692  -0.8913 LP             1 S1                 0.0000
     42 ****         1.4576  -1.0318  -3.3651 LP             1 S1                 0.0000
     43 ****         1.7549  -0.2080  -4.8595 LP             1 S1                 0.0000
     44 ****        -4.7573  -1.9406   4.5597 LP             1 S1                 0.0000
     45 ****        -4.7959  -2.9924   3.3112 LP             1 S1                 0.0000
@<TRIPOS>BOND
    1    1    2 2     
    2    2    3 1     
    3    2   15 am    
    4    3    4 1     
    5    3   23 1     
    6    3   24 1     
    7    4   13 am    
    8    4    5 1     
    9    5    6 2     
   10    5   25 1     
   11    6    7 1     
   12    6   11 1     
   13    7    8 1     
   14    7    9 1     
   15    7   10 1     
   16   11   12 2     
   17   11   26 1     
   18   12   13 1     
   19   12   27 1     
   20   13   14 2     
   21   15   16 1     
   22   15   28 1     
   23   16   17 1     
   24   16   29 1     
   25   16   30 1     
   26   17   22 1     
   27   17   18 1     
   28   17   31 1     
   29   18   19 1     
   30   18   32 1     
   31   18   33 1     
   32   19   20 1     
   33   19   34 1     
   34   19   35 1     
   35   20   21 1     
   36   20   22 1     
   37   20   36 1     
   38   21   37 1     
   39   22   38 1     
   40   22   39 1     
   41    1   40 1     
   42    1   41 1     
   43   14   42 1     
   44   14   43 1     
   45   21   44 1     
   46   21   45 1     
@<TRIPOS>SUBSTRUCTURE
      1 S1             1
@<TRIPOS>SET
LONE_PAIRS      STATIC     ATOMS    <user>   **** ""
6 40 41 42 43 44 45
DONOR_HYDROGENS      STATIC     ATOMS    <user>   **** ""
2 28 37
ATOM$BLUE        STATIC     ATOMS    COLORGROUP SYSTEM
6 40 41 42 43 44 45
ATOM$RED        STATIC     ATOMS    COLORGROUP SYSTEM
2 28 37
