AV-unprocessed.smi:2074|AV-procd|sdf|8452|dock7
  -GOLD-   2272011143D 1   1.00000     0.00000
 Structure written by MMmdl.
 43 44  0  0  0  0  0  0  0  0  1 V2000
  153.8313  137.4935  163.8484 C   0  0  0  0  0  0  0  0  0  0  0  0
  153.8312  136.0740  163.3588 C   0  0  0  0  0  0  0  0  0  0  0  0
  153.5061  135.0992  164.1909 N   0  0  0  0  0  0  0  0  0  0  0  0
  153.6130  133.9157  163.4542 O   0  0  0  0  0  0  0  0  0  0  0  0
  154.0056  134.2286  162.1932 C   0  0  0  0  0  0  0  0  0  0  0  0
  154.1863  133.0906  161.2471 C   0  0  0  0  0  0  0  0  0  0  0  0
  154.1582  135.5814  162.0620 C   0  0  0  0  0  0  0  0  0  0  0  0
  154.5790  136.3663  160.8442 C   0  0  0  0  0  0  0  0  0  0  0  0
  153.4620  137.3223  160.4174 C   0  0  0  0  0  0  0  0  0  0  0  0
  152.3542  136.8833  160.1065 O   0  0  0  0  0  0  0  0  0  0  0  0
  153.7701  138.6281  160.3920 N   0  0  0  0  0  0  0  0  0  0  0  0
  152.8767  139.6903  159.9377 C   0  0  0  0  0  0  0  0  0  0  0  0
  153.5465  141.0947  159.9702 C   0  0  2  0  0  0  0  0  0  0  0  0
  153.4361  141.6621  161.4083 C   0  0  0  0  0  0  0  0  0  0  0  0
  153.0170  142.0279  158.9488 N   0  0  0  0  0  0  0  0  0  0  0  0
  153.4204  143.4189  159.1865 C   0  0  0  0  0  0  0  0  0  0  0  0
  152.8426  144.3941  158.1461 C   0  0  0  0  0  0  0  0  0  0  0  0
  151.4253  144.2947  158.1301 O   0  0  0  0  0  0  0  0  0  0  0  0
  150.9871  142.9778  157.8269 C   0  0  0  0  0  0  0  0  0  0  0  0
  151.5518  141.9925  158.8647 C   0  0  0  0  0  0  0  0  0  0  0  0
  153.5079  138.1789  163.0650 H   0  0  0  0  0  0  0  0  0  0  0  0
  154.8313  137.7942  164.1616 H   0  0  0  0  0  0  0  0  0  0  0  0
  153.1619  137.6260  164.6990 H   0  0  0  0  0  0  0  0  0  0  0  0
  155.0691  133.2414  160.6258 H   0  0  0  0  0  0  0  0  0  0  0  0
  153.3219  132.9948  160.5902 H   0  0  0  0  0  0  0  0  0  0  0  0
  154.3102  132.1498  161.7841 H   0  0  0  0  0  0  0  0  0  0  0  0
  155.4757  136.9551  161.0390 H   0  0  0  0  0  0  0  0  0  0  0  0
  154.8308  135.6970  160.0204 H   0  0  0  0  0  0  0  0  0  0  0  0
  154.7008  138.9031  160.6703 H   0  0  0  0  0  0  0  0  0  0  0  0
  152.5375  139.4143  158.9406 H   0  0  0  0  0  0  0  0  0  0  0  0
  151.9904  139.6868  160.5728 H   0  0  0  0  0  0  0  0  0  0  0  0
  154.6085  140.9470  159.7667 H   0  0  0  0  0  0  0  0  0  0  0  0
  153.7402  140.9434  162.1675 H   0  0  0  0  0  0  0  0  0  0  0  0
  152.4123  141.9608  161.6363 H   0  0  0  0  0  0  0  0  0  0  0  0
  154.0819  142.5263  161.5590 H   0  0  0  0  0  0  0  0  0  0  0  0
  153.1095  143.7291  160.1854 H   0  0  0  0  0  0  0  0  0  0  0  0
  154.5024  143.5217  159.1441 H   0  0  0  0  0  0  0  0  0  0  0  0
  153.1242  145.4184  158.3904 H   0  0  0  0  0  0  0  0  0  0  0  0
  153.2421  144.1804  157.1534 H   0  0  0  0  0  0  0  0  0  0  0  0
  149.8973  142.9552  157.8381 H   0  0  0  0  0  0  0  0  0  0  0  0
  151.3027  142.7022  156.8193 H   0  0  0  0  0  0  0  0  0  0  0  0
  151.2072  140.9996  158.5814 H   0  0  0  0  0  0  0  0  0  0  0  0
  151.1202  142.2109  159.8427 H   0  0  0  0  0  0  0  0  0  0  0  0
  1  2  1  0  0  0  0
  1 21  1  0  0  0  0
  1 22  1  0  0  0  0
  1 23  1  0  0  0  0
  2  7  1  0  0  0  0
  2  3  2  0  0  0  0
  3  4  1  0  0  0  0
  4  5  1  0  0  0  0
  5  6  1  0  0  0  0
  5  7  2  0  0  0  0
  6 24  1  0  0  0  0
  6 25  1  0  0  0  0
  6 26  1  0  0  0  0
  7  8  1  0  0  0  0
  8  9  1  0  0  0  0
  8 27  1  0  0  0  0
  8 28  1  0  0  0  0
  9 10  2  0  0  0  0
  9 11  1  0  0  0  0
 11 12  1  0  0  0  0
 11 29  1  0  0  0  0
 12 13  1  0  0  0  0
 12 30  1  0  0  0  0
 12 31  1  0  0  0  0
 13 14  1  0  0  0  0
 13 15  1  0  0  0  0
 13 32  1  0  0  0  0
 14 33  1  0  0  0  0
 14 34  1  0  0  0  0
 14 35  1  0  0  0  0
 15 20  1  0  0  0  0
 15 16  1  0  0  0  0
 16 17  1  0  0  0  0
 16 36  1  0  0  0  0
 16 37  1  0  0  0  0
 17 18  1  0  0  0  0
 17 38  1  0  0  0  0
 17 39  1  0  0  0  0
 18 19  1  0  0  0  0
 19 20  1  0  0  0  0
 19 40  1  0  0  0  0
 19 41  1  0  0  0  0
 20 42  1  0  0  0  0
 20 43  1  0  0  0  0
M  END
> <s_m_source_file>
AV-unprocessed.smi

> <i_m_source_file_index>
2074

> <i_lp_mmshare_version>
43012

> <i_f3d_flags>
0

> <s_epik_input>
W0NIM11jMW5vYyhbQ0gzXSljMVtDSDJdQyg9TylbTkhdW0NIMl1bQ0BIXShbQ0gzXSlOMltDSDJdW0NIMl1PW0NIMl1bQ0gyXTI=

> <s_epik_cmdline>
J2VwaWtfcHl0aG9uJywgJy1waCcsICc3LjAnLCAnLXRuJywgJzgnLCAnLW1hJywgJzIwMCcsICctbWV0YWxfYmluZGluZycsICctaW1hZScsICc8aW5maWxlLm1hZT4nLCAnLW9tYWUnLCAnPG91dGZpbGUubWFlPic=

> <r_epik_Ionization_Penalty>
0.234179

> <r_epik_Ionization_Penalty_Charging>
0

> <r_epik_Ionization_Penalty_Neutral>
0.234179

> <r_epik_State_Penalty>
0.224936

> <r_epik_Charging_Adjusted_Penalty>
0.224936

> <i_epik_Tot_Q>
0

> <i_epik_Tot_abs_Q>
0

> <r_epik_Metal_State_Penalty>
0.224936

> <b_epik_Metal_Only>
0

> <s_lp_Force_Field>
OPLS_2005

> <r_lp_Energy>
22.7236

> <b_lp_Chiralities_Consistent>
1

> <s_lp_Variant>
AV-unprocessed.smi:2074-1

> <Gold.Version>
5.8.1

> <Gold.Id.Protein>
6NUR|6NUR_protein|mol2

> <Gold.PLP.Fitness>
37.4710

> <Gold.PLP.PLP>
-35.5923

> <Gold.PLP.part.hbond>
-1.0000

> <Gold.PLP.part.metal>
0.0000

> <Gold.PLP.part.buried>
-5.1847

> <Gold.PLP.part.nonpolar>
-28.9862

> <Gold.PLP.part.repulsive>
0.2353

> <Gold.PLP.ligand.clash>
0.0000

> <Gold.PLP.ligand.torsion>
0.5798

> <Gold.PLP.Chemscore.Hbond>
1.0000

> <Gold.PLP.Chemscore.CHOScore>
0.0000

> <Gold.PLP.Chemscore.Metal>
0.0000

> <Gold.Chemscore.Hbonds>
donor molecule, donor type, donor heavy atom, donor atom, acceptor molecule, acceptor atom, score
      P1  H  6896  6908       L1    10  1.00

> <Gold.PLP.Chemscore.Internal.Correction>
0.0384

> <Gold.Rescore>
     Score         DG    S(hbond)    S(metal)    S(lipo)     H(rot)  DE(clash)    DE(int)     intcor
     16.30     -17.02       1.00        0.00     107.80       1.72       0.08       0.63       ----

> <Gold.Chemscore.Fitness>
16.3039

> <Gold.Chemscore.DG>
-17.0150

> <Gold.Chemscore.ZeroCoef>
-5.4800

> <Gold.Chemscore.Hbond>
0.9953

> <Gold.Chemscore.Metal>
0.0000

> <Gold.Chemscore.Lipo>
107.7987

> <Gold.Chemscore.Internal_Hbond>
0.0000

> <Gold.Chemscore.DEClash>
0.0764

> <Gold.Chemscore.DEInternal>
0.6347

> <Gold.Chemscore.Rot>
1.7195

> <Gold.Chemscore.Internal.Correction>
   9.000000E+99

> <Gold.Chemscore.Hbonds>
donor molecule, donor type, donor heavy atom, donor atom, acceptor molecule, acceptor atom, score
      P1  H  6896  6908       L1    10  1.00

> <Gold.Chemscore.Hbond.Weighted>
-3.3244

> <Gold.Chemscore.Metal.Weighted>
-0.0000

> <Gold.Chemscore.Lipo.Weighted>
-12.6124

> <Gold.Chemscore.Internal_Hbond.Weighted>
0.0000

> <Gold.Chemscore.DEClash.Weighted>
0.0764

> <Gold.Chemscore.DEInternal.Weighted>
0.6347

> <Gold.Chemscore.Rot.Weighted>
4.4018

> <Gold.Chemscore.Internal.Correction.Weighted>
   9.000000E+99

> <Gold.Protein.RotatedTorsions>
[ 6907 6896 6895 6894 ] final -106.39 input  -60.11 | X-H torsion
[ 7974 7965 7964 7962 ] final -140.85 input  175.53 | X-H torsion
[ 8008 7997 7996 7995 ] final  -10.36 input   59.86 | X-H torsion
[ 10167 10162 10161 10158 ] final   14.73 input  -65.29 | X-H torsion
[ 10718 10713 10712 10709 ] final  130.19 input   66.30 | X-H torsion
[ 10763 10752 10751 10750 ] final -169.16 input  -60.55 | X-H torsion
[ 11005 11000 10999 10996 ] final   63.92 input  -57.11 | X-H torsion

> <Gold.Protein.ActiveResidues>
 VAL166  LYS551  ARG553  GLY616  TRP617  ASP618  TYR619  PRO620  LYS621  CYS622 
 ASP623  PHE694  ASN695  SER759  ASP760  ASP761  ALA762  ILE779  LEU786  VAL792 
 PHE793  MET794  SER795  GLU796  ALA797  LYS798  CYS799  TRP800  GLU811  SER814 

> <Gold.Protein.RotatedAtoms>
  150.7387  133.9983  159.3629 H   0  0  0  0  0  0  0  0  0  0  0  0  # atno 6907 bound_to 6896
  151.7935  135.0727  160.0400 H   0  0  0  0  0  0  0  0  0  0  0  0  # atno 6908 bound_to 6896
  152.3191  133.5798  159.5768 H   0  0  0  0  0  0  0  0  0  0  0  0  # atno 6909 bound_to 6896
  144.8565  140.6150  143.5356 H   0  0  0  0  0  0  0  0  0  0  0  0  # atno 7974 bound_to 7965
  154.5561  140.2331  155.8407 H   0  0  0  0  0  0  0  0  0  0  0  0  # atno 8008 bound_to 7997
  156.1990  140.3057  155.9446 H   0  0  0  0  0  0  0  0  0  0  0  0  # atno 8009 bound_to 7997
  155.2977  140.0429  157.3018 H   0  0  0  0  0  0  0  0  0  0  0  0  # atno 8010 bound_to 7997
  140.5916  143.8784  150.6879 H   0  0  0  0  0  0  0  0  0  0  0  0  # atno 10167 bound_to 10162
  157.5085  131.1096  150.9327 H   0  0  0  0  0  0  0  0  0  0  0  0  # atno 10718 bound_to 10713
  154.6552  135.2917  154.9937 H   0  0  0  0  0  0  0  0  0  0  0  0  # atno 10763 bound_to 10752
  154.1016  135.6576  153.4873 H   0  0  0  0  0  0  0  0  0  0  0  0  # atno 10764 bound_to 10752
  153.0398  135.5244  154.7478 H   0  0  0  0  0  0  0  0  0  0  0  0  # atno 10765 bound_to 10752
  139.9993  134.6468  155.9958 H   0  0  0  0  0  0  0  0  0  0  0  0  # atno 11005 bound_to 11000
  145.4397  139.1537  143.3977 LP  0  0  0  0  0  0  0  0  0  0  0  0  # atno 17320 bound_to 7965
  146.2827  140.4517  142.8770 LP  0  0  0  0  0  0  0  0  0  0  0  0  # atno 17321 bound_to 7965
  140.2309  143.3737  152.1567 LP  0  0  0  0  0  0  0  0  0  0  0  0  # atno 17342 bound_to 10162
  139.5231  144.7067  151.5332 LP  0  0  0  0  0  0  0  0  0  0  0  0  # atno 17343 bound_to 10162
  156.9975  130.5587  149.5308 LP  0  0  0  0  0  0  0  0  0  0  0  0  # atno 17370 bound_to 10713
  156.0273  130.5367  150.8442 LP  0  0  0  0  0  0  0  0  0  0  0  0  # atno 17371 bound_to 10713
  141.1629  133.6538  156.4380 LP  0  0  0  0  0  0  0  0  0  0  0  0  # atno 17394 bound_to 11000
  140.4759  134.6710  157.5150 LP  0  0  0  0  0  0  0  0  0  0  0  0  # atno 17395 bound_to 11000

$$$$
