AV-unprocessed.smi:1410|AV-procd|sdf|5738|dock4
  -GOLD-   22720 5373D 1   1.00000     0.00000
 Structure written by MMmdl.
 40 41  0  0  0  0  0  0  0  0  4 V2000
  142.0185  142.0548  154.3959 N   0  5  0  0  0  0  0  0  0  0  0  0
  143.0025  142.2420  155.2986 C   0  0  0  0  0  0  0  0  0  0  0  0
  143.0461  141.8481  156.4618 O   0  0  0  0  0  0  0  0  0  0  0  0
  144.1691  143.0570  154.7305 C   0  0  0  0  0  0  0  0  0  0  0  0
  145.3156  142.1742  154.3944 N   0  3  2  0  0  0  0  0  0  0  0  0
  145.8888  141.5144  155.5944 C   0  0  0  0  0  0  0  0  0  0  0  0
  146.9694  140.4910  155.2035 C   0  0  0  0  0  0  0  0  0  0  0  0
  148.0839  141.1250  154.3471 C   0  0  2  0  0  0  0  0  0  0  0  0
  148.9207  142.0365  155.1276 N   0  0  0  0  0  0  0  0  0  0  0  0
  149.7519  141.6720  156.1150 C   0  0  0  0  0  0  0  0  0  0  0  0
  149.8962  140.5070  156.4843 O   0  0  0  0  0  0  0  0  0  0  0  0
  150.3737  142.7378  156.6487 N   0  0  0  0  0  0  0  0  0  0  0  0
  151.3171  142.7689  157.7118 C   0  0  0  0  0  0  0  0  0  0  0  0
  151.4923  141.5873  158.4661 C   0  0  0  0  0  0  0  0  0  0  0  0
  152.4063  141.5761  159.5394 C   0  0  0  0  0  0  0  0  0  0  0  0
  153.0986  142.6945  159.8446 N   0  3  0  0  0  0  0  0  0  0  0  0
  152.9544  143.8511  159.1630 C   0  0  0  0  0  0  0  0  0  0  0  0
  152.0551  143.9230  158.0797 C   0  0  0  0  0  0  0  0  0  0  0  0
  147.4588  141.8600  153.1487 C   0  0  0  0  0  0  0  0  0  0  0  0
  146.3638  142.8511  153.5841 C   0  0  0  0  0  0  0  0  0  0  0  0
  142.1499  142.3965  153.4365 H   0  0  0  0  0  0  0  0  0  0  0  0
  143.8529  143.6211  153.8514 H   0  0  0  0  0  0  0  0  0  0  0  0
  144.4626  143.7926  155.4817 H   0  0  0  0  0  0  0  0  0  0  0  0
  146.3025  142.2692  156.2650 H   0  0  0  0  0  0  0  0  0  0  0  0
  145.0980  141.0026  156.1444 H   0  0  0  0  0  0  0  0  0  0  0  0
  147.3855  140.0263  156.0980 H   0  0  0  0  0  0  0  0  0  0  0  0
  146.5022  139.6839  154.6377 H   0  0  0  0  0  0  0  0  0  0  0  0
  148.7249  140.3309  153.9593 H   0  0  0  0  0  0  0  0  0  0  0  0
  148.8683  143.0161  154.8890 H   0  0  0  0  0  0  0  0  0  0  0  0
  150.0905  143.6398  156.2946 H   0  0  0  0  0  0  0  0  0  0  0  0
  150.9377  140.6922  158.2242 H   0  0  0  0  0  0  0  0  0  0  0  0
  152.6011  140.7132  160.1591 H   0  0  0  0  0  0  0  0  0  0  0  0
  153.5538  144.6819  159.5060 H   0  0  0  0  0  0  0  0  0  0  0  0
  151.9409  144.8633  157.5622 H   0  0  0  0  0  0  0  0  0  0  0  0
  148.2295  142.3790  152.5773 H   0  0  0  0  0  0  0  0  0  0  0  0
  147.0217  141.1270  152.4690 H   0  0  0  0  0  0  0  0  0  0  0  0
  145.9213  143.2993  152.6942 H   0  0  0  0  0  0  0  0  0  0  0  0
  146.7999  143.6683  154.1606 H   0  0  0  0  0  0  0  0  0  0  0  0
  144.9276  141.4385  153.8203 H   0  0  0  0  0  0  0  0  0  0  0  0
  153.7544  142.6662  160.6261 H   0  0  0  0  0  0  0  0  0  0  0  0
  1  2  1  0  0  0  0
  1 21  1  0  0  0  0
  2  3  2  0  0  0  0
  2  4  1  0  0  0  0
  4  5  1  0  0  0  0
  4 22  1  0  0  0  0
  4 23  1  0  0  0  0
  5 20  1  0  0  0  0
  5  6  1  0  0  0  0
  5 39  1  0  0  0  0
  6  7  1  0  0  0  0
  6 24  1  0  0  0  0
  6 25  1  0  0  0  0
  7  8  1  0  0  0  0
  7 26  1  0  0  0  0
  7 27  1  0  0  0  0
  8  9  1  0  0  0  0
  8 19  1  0  0  0  0
  8 28  1  0  0  0  0
  9 10  1  0  0  0  0
  9 29  1  0  0  0  0
 10 11  2  0  0  0  0
 10 12  1  0  0  0  0
 12 13  1  0  0  0  0
 12 30  1  0  0  0  0
 13 18  1  0  0  0  0
 13 14  2  0  0  0  0
 14 15  1  0  0  0  0
 14 31  1  0  0  0  0
 15 16  2  0  0  0  0
 15 32  1  0  0  0  0
 16 17  1  0  0  0  0
 16 40  1  0  0  0  0
 17 18  2  0  0  0  0
 17 33  1  0  0  0  0
 18 34  1  0  0  0  0
 19 20  1  0  0  0  0
 19 35  1  0  0  0  0
 19 36  1  0  0  0  0
 20 37  1  0  0  0  0
 20 38  1  0  0  0  0
M  CHG  1   1  -1
M  CHG  1   5   1
M  CHG  1  16   1
M  END
> <s_m_source_file>
AV-unprocessed.smi

> <i_m_source_file_index>
1410

> <i_lp_mmshare_version>
43012

> <i_f3d_flags>
0

> <s_epik_input>
W05IMl1DKD1PKVtDSDJdTjFbQ0gyXVtDSDJdW0NIXShbQ0gyXVtDSDJdMSlbTkhdQyg9TylbTkhdYzJbY0hdW2NIXW5bY0hdW2NIXTI=

> <s_epik_cmdline>
J2VwaWtfcHl0aG9uJywgJy1waCcsICc3LjAnLCAnLXRuJywgJzgnLCAnLW1hJywgJzIwMCcsICctbWV0YWxfYmluZGluZycsICctaW1hZScsICc8aW5maWxlLm1hZT4nLCAnLW9tYWUnLCAnPG91dGZpbGUubWFlPic=

> <r_epik_Ionization_Penalty>
6.84067

> <r_epik_Ionization_Penalty_Charging>
6.84065

> <r_epik_Ionization_Penalty_Neutral>
1.84563e-05

> <r_epik_State_Penalty>
7.68217

> <r_epik_Charging_Adjusted_Penalty>
14.5228

> <i_epik_Tot_Q>
1

> <i_epik_Tot_abs_Q>
3

> <r_epik_Metal_State_Penalty>
3.74331

> <b_epik_Metal_Only>
1

> <s_lp_Force_Field>
OPLS_2005

> <r_lp_Energy>
20.5434

> <b_lp_Chiralities_Consistent>
1

> <s_lp_Variant>
AV-unprocessed.smi:1410-10

> <Gold.Version>
5.8.1

> <Gold.Id.Protein>
6NUR|6NUR_protein|mol2

> <Gold.PLP.Fitness>
47.1851

> <Gold.PLP.PLP>
-33.1355

> <Gold.PLP.part.hbond>
-5.0000

> <Gold.PLP.part.metal>
0.0000

> <Gold.PLP.part.buried>
-4.3893

> <Gold.PLP.part.nonpolar>
-22.9295

> <Gold.PLP.part.repulsive>
0.3557

> <Gold.PLP.ligand.clash>
0.0000

> <Gold.PLP.ligand.torsion>
0.3670

> <Gold.PLP.Chemscore.Hbond>
4.9175

> <Gold.PLP.Chemscore.CHOScore>
0.0000

> <Gold.PLP.Chemscore.Metal>
0.0000

> <Gold.Chemscore.Hbonds>
donor molecule, donor type, donor heavy atom, donor atom, acceptor molecule, acceptor atom, score
      L1  H     1    21       P1 10174  0.63
      L1  H     5    39       P1 10175  1.92
      L1  H     9    29       P1  8028  0.86
      L1  H    12    30       P1  8028  1.00

> <Gold.PLP.Chemscore.Internal.Correction>
0.0310

> <Gold.Rescore>
     Score         DG    S(hbond)    S(metal)    S(lipo)     H(rot)  DE(clash)    DE(int)     intcor
     17.63     -21.52       3.31        0.00      85.59       1.96       1.04       2.85       ----

> <Gold.Chemscore.Fitness>
17.6328

> <Gold.Chemscore.DG>
-21.5224

> <Gold.Chemscore.ZeroCoef>
-5.4800

> <Gold.Chemscore.Hbond>
3.3081

> <Gold.Chemscore.Metal>
0.0000

> <Gold.Chemscore.Lipo>
85.5902

> <Gold.Chemscore.Internal_Hbond>
0.0000

> <Gold.Chemscore.DEClash>
1.0434

> <Gold.Chemscore.DEInternal>
2.8462

> <Gold.Chemscore.Rot>
1.9612

> <Gold.Chemscore.Internal.Correction>
   9.000000E+99

> <Gold.Chemscore.Hbonds>
donor molecule, donor type, donor heavy atom, donor atom, acceptor molecule, acceptor atom, score
      L1  H     1    21       P1 10174  0.55
      L1  H     5    39       P1 10175  0.23
      L1  H     9    29       P1  8028  0.85
      L1  H    12    30       P1  8028  0.96

> <Gold.Chemscore.Hbond.Weighted>
-11.0491

> <Gold.Chemscore.Metal.Weighted>
-0.0000

> <Gold.Chemscore.Lipo.Weighted>
-10.0141

> <Gold.Chemscore.Internal_Hbond.Weighted>
0.0000

> <Gold.Chemscore.DEClash.Weighted>
1.0434

> <Gold.Chemscore.DEInternal.Weighted>
2.8462

> <Gold.Chemscore.Rot.Weighted>
5.0208

> <Gold.Chemscore.Internal.Correction.Weighted>
   9.000000E+99

> <Gold.Protein.RotatedTorsions>
[ 6907 6896 6895 6894 ] final  108.97 input  -60.11 | X-H torsion
[ 7974 7965 7964 7962 ] final  -22.46 input  175.53 | X-H torsion
[ 8008 7997 7996 7995 ] final   43.94 input   59.86 | X-H torsion
[ 10167 10162 10161 10158 ] final  112.36 input  -65.29 | X-H torsion
[ 10718 10713 10712 10709 ] final    5.56 input   66.30 | X-H torsion
[ 10763 10752 10751 10750 ] final   83.08 input  -60.55 | X-H torsion
[ 11005 11000 10999 10996 ] final   83.14 input  -57.11 | X-H torsion

> <Gold.Protein.ActiveResidues>
 VAL166  LYS551  ARG553  GLY616  TRP617  ASP618  TYR619  PRO620  LYS621  CYS622 
 ASP623  PHE694  ASN695  SER759  ASP760  ASP761  ALA762  ILE779  LEU786  VAL792 
 PHE793  MET794  SER795  GLU796  ALA797  LYS798  CYS799  TRP800  GLU811  SER814 

> <Gold.Protein.RotatedAtoms>
  152.5088  133.9012  159.7441 H   0  0  0  0  0  0  0  0  0  0  0  0  # atno 6907 bound_to 6896
  150.9427  133.6629  159.2794 H   0  0  0  0  0  0  0  0  0  0  0  0  # atno 6908 bound_to 6896
  151.3935  135.0965  159.9586 H   0  0  0  0  0  0  0  0  0  0  0  0  # atno 6909 bound_to 6896
  146.1674  140.4483  142.8546 H   0  0  0  0  0  0  0  0  0  0  0  0  # atno 7974 bound_to 7965
  155.3111  140.3391  155.4244 H   0  0  0  0  0  0  0  0  0  0  0  0  # atno 8008 bound_to 7997
  156.1955  140.1713  156.8044 H   0  0  0  0  0  0  0  0  0  0  0  0  # atno 8009 bound_to 7997
  154.5494  140.0708  156.8626 H   0  0  0  0  0  0  0  0  0  0  0  0  # atno 8010 bound_to 7997
  139.6542  144.7129  151.1990 H   0  0  0  0  0  0  0  0  0  0  0  0  # atno 10167 bound_to 10162
  156.9092  130.5750  149.5647 H   0  0  0  0  0  0  0  0  0  0  0  0  # atno 10718 bound_to 10713
  153.1260  135.4704  154.9272 H   0  0  0  0  0  0  0  0  0  0  0  0  # atno 10763 bound_to 10752
  154.7620  135.3134  154.8362 H   0  0  0  0  0  0  0  0  0  0  0  0  # atno 10764 bound_to 10752
  153.8915  135.6884  153.4814 H   0  0  0  0  0  0  0  0  0  0  0  0  # atno 10765 bound_to 10752
  139.9041  134.8123  156.2268 H   0  0  0  0  0  0  0  0  0  0  0  0  # atno 11005 bound_to 11000
  144.8112  140.6389  143.6414 LP  0  0  0  0  0  0  0  0  0  0  0  0  # atno 17320 bound_to 7965
  145.4431  139.1533  143.3959 LP  0  0  0  0  0  0  0  0  0  0  0  0  # atno 17321 bound_to 7965
  140.7551  143.6100  150.8615 LP  0  0  0  0  0  0  0  0  0  0  0  0  # atno 17342 bound_to 10162
  139.9751  143.6013  152.2961 LP  0  0  0  0  0  0  0  0  0  0  0  0  # atno 17343 bound_to 10162
  156.0544  130.5608  150.9059 LP  0  0  0  0  0  0  0  0  0  0  0  0  # atno 17370 bound_to 10713
  157.5978  131.0942  150.9012 LP  0  0  0  0  0  0  0  0  0  0  0  0  # atno 17371 bound_to 10713
  141.0370  133.6958  156.1531 LP  0  0  0  0  0  0  0  0  0  0  0  0  # atno 17394 bound_to 11000
  140.7012  134.4562  157.5586 LP  0  0  0  0  0  0  0  0  0  0  0  0  # atno 17395 bound_to 11000

$$$$
