AV-unprocessed.smi:1570|AV-procd|sdf|6315|dock2
  -GOLD-   22720 6523D 1   1.00000     0.00000
 Structure written by MMmdl.
 51 53  0  0  0  0  0  0  0  0  1 V2000
  155.0980  140.2979  160.5548 C   0  0  0  0  0  0  0  0  0  0  0  0
  153.6790  140.7258  160.9487 C   0  0  0  0  0  0  0  0  0  0  0  0
  153.0042  141.4024  159.8436 N   0  0  0  0  0  0  0  0  0  0  0  0
  152.7481  140.8875  158.6178 C   0  0  0  0  0  0  0  0  0  0  0  0
  153.0320  139.7521  158.2362 O   0  0  0  0  0  0  0  0  0  0  0  0
  152.1223  141.8382  157.8848 N   0  0  0  0  0  0  0  0  0  0  0  0
  151.6486  141.7046  156.5083 C   0  0  0  0  0  0  0  0  0  0  0  0
  150.1366  141.3920  156.4534 C   0  0  1  0  0  0  0  0  0  0  0  0
  149.3925  142.4738  156.9781 O   0  0  0  0  0  0  0  0  0  0  0  0
  149.5862  141.0397  155.0508 C   0  0  0  0  0  0  0  0  0  0  0  0
  148.1295  140.9285  154.9002 N   0  0  0  0  0  0  0  0  0  0  0  0
  147.5442  142.2362  154.6260 C   0  0  0  0  0  0  0  0  0  0  0  0
  146.0230  142.1591  154.4079 C   0  0  2  0  0  0  0  0  0  0  0  0
  145.3998  143.5431  154.1976 C   0  0  0  0  0  0  0  0  0  0  0  0
  145.4131  141.5679  155.5529 O   0  0  0  0  0  0  0  0  0  0  0  0
  145.9345  140.2922  155.9262 C   0  0  1  0  0  0  0  0  0  0  0  0
  145.4620  139.1817  154.9723 C   0  0  0  0  0  0  0  0  0  0  0  0
  147.4684  140.3577  156.0722 C   0  0  0  0  0  0  0  0  0  0  0  0
  151.9694  142.9932  158.6648 C   0  0  0  0  0  0  0  0  0  0  0  0
  151.3842  144.2374  158.3720 C   0  0  0  0  0  0  0  0  0  0  0  0
  151.3946  145.2138  159.3957 C   0  0  0  0  0  0  0  0  0  0  0  0
  151.9748  144.9351  160.6604 C   0  0  0  0  0  0  0  0  0  0  0  0
  152.5546  143.6731  160.9294 C   0  0  0  0  0  0  0  0  0  0  0  0
  152.5288  142.7205  159.8959 C   0  0  0  0  0  0  0  0  0  0  0  0
  155.5947  139.7955  161.3848 H   0  0  0  0  0  0  0  0  0  0  0  0
  155.7066  141.1581  160.2747 H   0  0  0  0  0  0  0  0  0  0  0  0
  155.0820  139.6080  159.7104 H   0  0  0  0  0  0  0  0  0  0  0  0
  153.1020  139.8527  161.2573 H   0  0  0  0  0  0  0  0  0  0  0  0
  153.7142  141.3851  161.8164 H   0  0  0  0  0  0  0  0  0  0  0  0
  151.8943  142.6036  155.9428 H   0  0  0  0  0  0  0  0  0  0  0  0
  152.2114  140.8959  156.0392 H   0  0  0  0  0  0  0  0  0  0  0  0
  149.9367  140.5280  157.0890 H   0  0  0  0  0  0  0  0  0  0  0  0
  149.2841  143.1179  156.2948 H   0  0  0  0  0  0  0  0  0  0  0  0
  149.9852  141.7363  154.3120 H   0  0  0  0  0  0  0  0  0  0  0  0
  150.0226  140.0732  154.7936 H   0  0  0  0  0  0  0  0  0  0  0  0
  147.7612  142.9172  155.4506 H   0  0  0  0  0  0  0  0  0  0  0  0
  148.0066  142.6675  153.7372 H   0  0  0  0  0  0  0  0  0  0  0  0
  145.8108  141.5512  153.5279 H   0  0  0  0  0  0  0  0  0  0  0  0
  145.8255  144.0366  153.3235 H   0  0  0  0  0  0  0  0  0  0  0  0
  145.5677  144.1872  155.0613 H   0  0  0  0  0  0  0  0  0  0  0  0
  144.3232  143.4652  154.0437 H   0  0  0  0  0  0  0  0  0  0  0  0
  145.5154  140.0666  156.9071 H   0  0  0  0  0  0  0  0  0  0  0  0
  145.7767  138.2019  155.3317 H   0  0  0  0  0  0  0  0  0  0  0  0
  145.8668  139.3040  153.9679 H   0  0  0  0  0  0  0  0  0  0  0  0
  144.3747  139.1716  154.8959 H   0  0  0  0  0  0  0  0  0  0  0  0
  147.8306  139.3518  156.2661 H   0  0  0  0  0  0  0  0  0  0  0  0
  147.7154  140.9528  156.9528 H   0  0  0  0  0  0  0  0  0  0  0  0
  150.9426  144.4438  157.4084 H   0  0  0  0  0  0  0  0  0  0  0  0
  150.9554  146.1833  159.2121 H   0  0  0  0  0  0  0  0  0  0  0  0
  151.9730  145.6952  161.4276 H   0  0  0  0  0  0  0  0  0  0  0  0
  152.9970  143.4552  161.8901 H   0  0  0  0  0  0  0  0  0  0  0  0
  1  2  1  0  0  0  0
  1 25  1  0  0  0  0
  1 26  1  0  0  0  0
  1 27  1  0  0  0  0
  2  3  1  0  0  0  0
  2 28  1  0  0  0  0
  2 29  1  0  0  0  0
  3 24  1  0  0  0  0
  3  4  1  0  0  0  0
  4  5  2  0  0  0  0
  4  6  1  0  0  0  0
  6  7  1  0  0  0  0
  6 19  1  0  0  0  0
  7  8  1  0  0  0  0
  7 30  1  0  0  0  0
  7 31  1  0  0  0  0
  8  9  1  0  0  0  0
  8 10  1  0  0  0  0
  8 32  1  0  0  0  0
  9 33  1  0  0  0  0
 10 11  1  0  0  0  0
 10 34  1  0  0  0  0
 10 35  1  0  0  0  0
 11 18  1  0  0  0  0
 11 12  1  0  0  0  0
 12 13  1  0  0  0  0
 12 36  1  0  0  0  0
 12 37  1  0  0  0  0
 13 14  1  0  0  0  0
 13 15  1  0  0  0  0
 13 38  1  0  0  0  0
 14 39  1  0  0  0  0
 14 40  1  0  0  0  0
 14 41  1  0  0  0  0
 15 16  1  0  0  0  0
 16 17  1  0  0  0  0
 16 18  1  0  0  0  0
 16 42  1  0  0  0  0
 17 43  1  0  0  0  0
 17 44  1  0  0  0  0
 17 45  1  0  0  0  0
 18 46  1  0  0  0  0
 18 47  1  0  0  0  0
 19 24  2  0  0  0  0
 19 20  1  0  0  0  0
 20 21  2  0  0  0  0
 20 48  1  0  0  0  0
 21 22  1  0  0  0  0
 21 49  1  0  0  0  0
 22 23  2  0  0  0  0
 22 50  1  0  0  0  0
 23 24  1  0  0  0  0
 23 51  1  0  0  0  0
M  END
> <s_m_source_file>
AV-unprocessed.smi

> <i_m_source_file_index>
1570

> <i_lp_mmshare_version>
43012

> <i_f3d_flags>
0

> <s_epik_input>
W2NIXTFbY0hdW2NIXVtjSF1jKGMxMiluKFtDSDJdW0NIM10pYyg9TyluMltDSDJdW0NASF0oW09IXSlbQ0gyXU4zW0NIMl1bQ0BASF0oW0NIM10pT1tDQEBIXShbQ0gzXSlbQ0gyXTM=

> <s_epik_cmdline>
J2VwaWtfcHl0aG9uJywgJy1waCcsICc3LjAnLCAnLXRuJywgJzgnLCAnLW1hJywgJzIwMCcsICctbWV0YWxfYmluZGluZycsICctaW1hZScsICc8aW5maWxlLm1hZT4nLCAnLW9tYWUnLCAnPG91dGZpbGUubWFlPic=

> <r_epik_Ionization_Penalty>
0.214359

> <r_epik_Ionization_Penalty_Charging>
2.30976e-09

> <r_epik_Ionization_Penalty_Neutral>
0.214359

> <r_epik_State_Penalty>
0.204533

> <r_epik_Charging_Adjusted_Penalty>
0.204533

> <i_epik_Tot_Q>
0

> <i_epik_Tot_abs_Q>
0

> <r_epik_Metal_State_Penalty>
0.204533

> <b_epik_Metal_Only>
0

> <s_lp_Force_Field>
OPLS_2005

> <r_lp_Energy>
68.4361

> <b_lp_Chiralities_Consistent>
1

> <s_lp_Variant>
AV-unprocessed.smi:1570-4

> <Gold.Version>
5.8.1

> <Gold.Id.Protein>
6NUR|6NUR_protein|mol2

> <Gold.PLP.Fitness>
52.6791

> <Gold.PLP.PLP>
-47.8895

> <Gold.PLP.part.hbond>
-2.0000

> <Gold.PLP.part.metal>
0.0000

> <Gold.PLP.part.buried>
-6.0343

> <Gold.PLP.part.nonpolar>
-40.4266

> <Gold.PLP.part.repulsive>
0.2130

> <Gold.PLP.ligand.clash>
0.0000

> <Gold.PLP.ligand.torsion>
0.6637

> <Gold.PLP.Chemscore.Hbond>
2.0000

> <Gold.PLP.Chemscore.CHOScore>
0.0000

> <Gold.PLP.Chemscore.Metal>
0.0000

> <Gold.Chemscore.Hbonds>
donor molecule, donor type, donor heavy atom, donor atom, acceptor molecule, acceptor atom, score
      L1  H     9    33       P1  8028  1.00
      P1  H  7997  8008       L1     5  1.00

> <Gold.PLP.Chemscore.Internal.Correction>
0.1170

> <Gold.Rescore>
     Score         DG    S(hbond)    S(metal)    S(lipo)     H(rot)  DE(clash)    DE(int)     intcor
     17.91     -21.54       1.88        0.00     128.59       2.06       1.54       2.08       ----

> <Gold.Chemscore.Fitness>
17.9143

> <Gold.Chemscore.DG>
-21.5388

> <Gold.Chemscore.ZeroCoef>
-5.4800

> <Gold.Chemscore.Hbond>
1.8805

> <Gold.Chemscore.Metal>
0.0000

> <Gold.Chemscore.Lipo>
128.5890

> <Gold.Chemscore.Internal_Hbond>
0.0000

> <Gold.Chemscore.DEClash>
1.5411

> <Gold.Chemscore.DEInternal>
2.0834

> <Gold.Chemscore.Rot>
2.0574

> <Gold.Chemscore.Internal.Correction>
   9.000000E+99

> <Gold.Chemscore.Hbonds>
donor molecule, donor type, donor heavy atom, donor atom, acceptor molecule, acceptor atom, score
      L1  H     9    33       P1  8028  0.98
      P1  H  7997  8008       L1     5  0.37

> <Gold.Chemscore.Hbond.Weighted>
-6.2808

> <Gold.Chemscore.Metal.Weighted>
-0.0000

> <Gold.Chemscore.Lipo.Weighted>
-15.0449

> <Gold.Chemscore.Internal_Hbond.Weighted>
0.0000

> <Gold.Chemscore.DEClash.Weighted>
1.5411

> <Gold.Chemscore.DEInternal.Weighted>
2.0834

> <Gold.Chemscore.Rot.Weighted>
5.2669

> <Gold.Chemscore.Internal.Correction.Weighted>
   9.000000E+99

> <Gold.Protein.RotatedTorsions>
[ 6907 6896 6895 6894 ] final   49.48 input  -60.11 | X-H torsion
[ 7974 7965 7964 7962 ] final  133.84 input  175.53 | X-H torsion
[ 8008 7997 7996 7995 ] final  -72.80 input   59.86 | X-H torsion
[ 10167 10162 10161 10158 ] final  142.56 input  -65.29 | X-H torsion
[ 10718 10713 10712 10709 ] final  177.22 input   66.30 | X-H torsion
[ 10763 10752 10751 10750 ] final    5.79 input  -60.55 | X-H torsion
[ 11005 11000 10999 10996 ] final -171.70 input  -57.11 | X-H torsion

> <Gold.Protein.ActiveResidues>
 VAL166  LYS551  ARG553  GLY616  TRP617  ASP618  TYR619  PRO620  LYS621  CYS622 
 ASP623  PHE694  ASN695  SER759  ASP760  ASP761  ALA762  ILE779  LEU786  VAL792 
 PHE793  MET794  SER795  GLU796  ALA797  LYS798  CYS799  TRP800  GLU811  SER814 

> <Gold.Protein.RotatedAtoms>
  152.2912  134.7719  160.0377 H   0  0  0  0  0  0  0  0  0  0  0  0  # atno 6907 bound_to 6896
  151.8264  133.3397  159.3608 H   0  0  0  0  0  0  0  0  0  0  0  0  # atno 6908 bound_to 6896
  150.7231  134.5454  159.5812 H   0  0  0  0  0  0  0  0  0  0  0  0  # atno 6909 bound_to 6896
  144.9824  139.4490  143.5379 H   0  0  0  0  0  0  0  0  0  0  0  0  # atno 7974 bound_to 7965
  154.5195  140.0790  156.8145 H   0  0  0  0  0  0  0  0  0  0  0  0  # atno 8008 bound_to 7997
  155.3607  140.3417  155.4222 H   0  0  0  0  0  0  0  0  0  0  0  0  # atno 8009 bound_to 7997
  156.1665  140.1605  156.8509 H   0  0  0  0  0  0  0  0  0  0  0  0  # atno 8010 bound_to 7997
  139.4991  144.6099  151.6295 H   0  0  0  0  0  0  0  0  0  0  0  0  # atno 10167 bound_to 10162
  156.9086  130.9902  151.3024 H   0  0  0  0  0  0  0  0  0  0  0  0  # atno 10718 bound_to 10713
  153.2553  135.6918  153.7636 H   0  0  0  0  0  0  0  0  0  0  0  0  # atno 10763 bound_to 10752
  153.6716  135.3343  155.3155 H   0  0  0  0  0  0  0  0  0  0  0  0  # atno 10764 bound_to 10752
  154.8410  135.4501  154.1524 H   0  0  0  0  0  0  0  0  0  0  0  0  # atno 10765 bound_to 10752
  140.5052  134.5855  157.5001 H   0  0  0  0  0  0  0  0  0  0  0  0  # atno 11005 bound_to 11000
  146.3411  139.9105  142.8781 LP  0  0  0  0  0  0  0  0  0  0  0  0  # atno 17320 bound_to 7965
  145.2402  141.0006  143.3940 LP  0  0  0  0  0  0  0  0  0  0  0  0  # atno 17321 bound_to 7965
  140.5771  144.0010  150.6247 LP  0  0  0  0  0  0  0  0  0  0  0  0  # atno 17342 bound_to 10162
  140.3147  143.3175  152.0844 LP  0  0  0  0  0  0  0  0  0  0  0  0  # atno 17343 bound_to 10162
  157.5981  130.8492  149.8760 LP  0  0  0  0  0  0  0  0  0  0  0  0  # atno 17370 bound_to 10713
  156.0547  130.3711  150.1120 LP  0  0  0  0  0  0  0  0  0  0  0  0  # atno 17371 bound_to 10713
  139.9690  134.7324  156.0079 LP  0  0  0  0  0  0  0  0  0  0  0  0  # atno 17394 bound_to 11000
  141.1414  133.6564  156.3742 LP  0  0  0  0  0  0  0  0  0  0  0  0  # atno 17395 bound_to 11000

$$$$
