AV-unprocessed.smi:160|AV-procd|sdf|1357|dock6
  -GOLD-   2262019 63D 1   1.00000     0.00000
 Structure written by MMmdl.
 29 30  0  0  0  0  0  0  0  0  1 V2000
  151.2320  137.8823  158.0268 N   0  0  0  0  0  0  0  0  0  0  0  0
  151.8653  138.9632  157.5598 C   0  0  0  0  0  0  0  0  0  0  0  0
  153.0774  139.1251  157.6921 O   0  0  0  0  0  0  0  0  0  0  0  0
  151.0108  139.9822  156.8581 C   0  0  0  0  0  0  0  0  0  0  0  0
  151.5008  141.2173  156.5410 N   0  0  0  0  0  0  0  0  0  0  0  0
  150.4204  141.7284  155.9648 C   0  0  0  0  0  0  0  0  0  0  0  0
  149.3750  140.8962  155.9242 N   0  0  0  0  0  0  0  0  0  0  0  0
  148.0007  141.1101  155.3621 C   0  0  2  0  0  0  0  0  0  0  0  0
  147.2549  139.9468  155.5694 O   0  0  0  0  0  0  0  0  0  0  0  0
  147.1564  139.2154  154.3514 C   0  0  1  0  0  0  0  0  0  0  0  0
  145.9506  138.2651  154.4069 C   0  0  0  0  0  0  0  0  0  0  0  0
  144.7658  138.9992  154.6313 O   0  0  0  0  0  0  0  0  0  0  0  0
  147.0034  140.3477  153.3349 C   0  0  2  0  0  0  0  0  0  0  0  0
  147.2477  139.9324  152.0040 O   0  0  0  0  0  0  0  0  0  0  0  0
  147.9926  141.3971  153.8406 C   0  0  2  0  0  0  0  0  0  0  0  0
  149.2654  141.2948  153.2191 O   0  0  0  0  0  0  0  0  0  0  0  0
  149.7465  139.7320  156.5145 N   0  0  0  0  0  0  0  0  0  0  0  0
  147.5886  141.9254  155.9577 H   0  0  0  0  0  0  0  0  0  0  0  0
  148.0814  138.6682  154.1599 H   0  0  0  0  0  0  0  0  0  0  0  0
  145.9926  140.7543  153.3967 H   0  0  0  0  0  0  0  0  0  0  0  0
  147.6108  142.4038  153.6674 H   0  0  0  0  0  0  0  0  0  0  0  0
  151.7510  137.1626  158.5076 H   0  0  0  0  0  0  0  0  0  0  0  0
  150.2345  137.7942  157.8945 H   0  0  0  0  0  0  0  0  0  0  0  0
  150.3915  142.7298  155.5610 H   0  0  0  0  0  0  0  0  0  0  0  0
  145.8662  137.6744  153.4943 H   0  0  0  0  0  0  0  0  0  0  0  0
  146.0622  137.5662  155.2363 H   0  0  0  0  0  0  0  0  0  0  0  0
  144.5742  139.5055  153.8568 H   0  0  0  0  0  0  0  0  0  0  0  0
  148.1794  139.8238  151.8904 H   0  0  0  0  0  0  0  0  0  0  0  0
  149.2415  140.5858  152.5948 H   0  0  0  0  0  0  0  0  0  0  0  0
  1  2  1  0  0  0  0
  1 22  1  0  0  0  0
  1 23  1  0  0  0  0
  2  3  2  0  0  0  0
  2  4  1  0  0  0  0
  4 17  2  0  0  0  0
  4  5  1  0  0  0  0
  5  6  2  0  0  0  0
  6  7  1  0  0  0  0
  6 24  1  0  0  0  0
  7  8  1  0  0  0  0
  7 17  1  0  0  0  0
  8 18  1  0  0  0  0
  8 15  1  0  0  0  0
  8  9  1  0  0  0  0
  9 10  1  0  0  0  0
 10 19  1  0  0  0  0
 10 11  1  0  0  0  0
 10 13  1  0  0  0  0
 11 12  1  0  0  0  0
 11 25  1  0  0  0  0
 11 26  1  0  0  0  0
 12 27  1  0  0  0  0
 13 20  1  0  0  0  0
 13 14  1  0  0  0  0
 13 15  1  0  0  0  0
 14 28  1  0  0  0  0
 15 21  1  0  0  0  0
 15 16  1  0  0  0  0
 16 29  1  0  0  0  0
M  END
> <s_m_source_file>
AV-unprocessed.smi

> <i_m_source_file_index>
160

> <i_lp_mmshare_version>
43012

> <i_f3d_flags>
0

> <s_epik_input>
W05IMl1DKD1PKWMxbltjSF1uKG4xKVtDQEBIXTJPW0NASF0oW0NIMl1bT0hdKVtDQEBIXShbT0hdKVtDQEhdMltPSF0=

> <s_epik_cmdline>
J2VwaWtfcHl0aG9uJywgJy1waCcsICc3LjAnLCAnLXRuJywgJzgnLCAnLW1hJywgJzIwMCcsICctbWV0YWxfYmluZGluZycsICctaW1hZScsICc8aW5maWxlLm1hZT4nLCAnLW9tYWUnLCAnPG91dGZpbGUubWFlPic=

> <r_lp_tautomer_probability>
1

> <r_epik_Ionization_Penalty>
1.06932e-05

> <r_epik_Ionization_Penalty_Charging>
0

> <r_epik_Ionization_Penalty_Neutral>
1.06932e-05

> <r_epik_State_Penalty>
-0

> <r_epik_Charging_Adjusted_Penalty>
0

> <i_epik_Tot_Q>
0

> <i_epik_Tot_abs_Q>
0

> <r_epik_Metal_State_Penalty>
0.0142097

> <b_epik_Metal_Only>
0

> <s_epik_Chemistry_Notes>
This compound contains an acetal/aminal-like group ( X-CH(R)-Y where X, Y are N, S, or O) that may be acid/base labile, releasing an aldehyde.

> <s_lp_Force_Field>
OPLS_2005

> <r_lp_Energy>
46.1783

> <b_lp_Chiralities_Consistent>
1

> <s_lp_Variant>
AV-unprocessed.smi:160-15

> <Gold.Version>
5.8.1

> <Gold.Id.Protein>
6NUR|6NUR_protein|mol2

> <Gold.PLP.Fitness>
38.7833

> <Gold.PLP.PLP>
-21.0913

> <Gold.PLP.part.hbond>
-5.0355

> <Gold.PLP.part.metal>
0.0000

> <Gold.PLP.part.buried>
-3.1906

> <Gold.PLP.part.nonpolar>
-12.7810

> <Gold.PLP.part.repulsive>
0.1104

> <Gold.PLP.ligand.clash>
0.0000

> <Gold.PLP.ligand.torsion>
0.0658

> <Gold.PLP.Chemscore.Hbond>
4.9358

> <Gold.PLP.Chemscore.CHOScore>
1.0000

> <Gold.PLP.Chemscore.Metal>
0.0000

> <Gold.Chemscore.Hbonds>
donor molecule, donor type, donor heavy atom, donor atom, acceptor molecule, acceptor atom, score
      L1  H    12    27       P1 10175  1.00
      L1  H    14    28       P1  7957  1.00
      L1  H    16    29       P1  7957  0.96
      P1  H  7997  8010       L1     3  1.00
      P1  H  8011  8017       L1    16  0.98
      L1  C     6    24       P1  8028  1.00

> <Gold.PLP.Chemscore.Internal.Correction>
0.0161

> <Gold.Rescore>
     Score         DG    S(hbond)    S(metal)    S(lipo)     H(rot)  DE(clash)    DE(int)     intcor
     11.88     -12.12       4.39        0.00      20.40       4.06       0.01       0.24       ----

> <Gold.Chemscore.Fitness>
11.8753

> <Gold.Chemscore.DG>
-12.1229

> <Gold.Chemscore.ZeroCoef>
-5.4800

> <Gold.Chemscore.Hbond>
4.3860

> <Gold.Chemscore.Metal>
0.0000

> <Gold.Chemscore.Lipo>
20.4025

> <Gold.Chemscore.Internal_Hbond>
0.0000

> <Gold.Chemscore.DEClash>
0.0110

> <Gold.Chemscore.DEInternal>
0.2365

> <Gold.Chemscore.Rot>
4.0600

> <Gold.Chemscore.Internal.Correction>
   9.000000E+99

> <Gold.Chemscore.Hbonds>
donor molecule, donor type, donor heavy atom, donor atom, acceptor molecule, acceptor atom, score
      L1  H    12    27       P1 10175  1.00
      L1  H    14    28       P1  7957  0.96
      L1  H    16    29       P1  7957  0.90
      P1  H  7997  8010       L1     3  1.00
      P1  H  8011  8017       L1    16  0.23

> <Gold.Chemscore.Hbond.Weighted>
-14.6494

> <Gold.Chemscore.Metal.Weighted>
-0.0000

> <Gold.Chemscore.Lipo.Weighted>
-2.3871

> <Gold.Chemscore.Internal_Hbond.Weighted>
0.0000

> <Gold.Chemscore.DEClash.Weighted>
0.0110

> <Gold.Chemscore.DEInternal.Weighted>
0.2365

> <Gold.Chemscore.Rot.Weighted>
10.3936

> <Gold.Chemscore.Internal.Correction.Weighted>
   9.000000E+99

> <Gold.Protein.RotatedTorsions>
[ 6907 6896 6895 6894 ] final   30.16 input  -60.11 | X-H torsion
[ 7974 7965 7964 7962 ] final    9.39 input  175.53 | X-H torsion
[ 8008 7997 7996 7995 ] final   52.38 input   59.86 | X-H torsion
[ 10167 10162 10161 10158 ] final   96.40 input  -65.29 | X-H torsion
[ 10718 10713 10712 10709 ] final  -59.75 input   66.30 | X-H torsion
[ 10763 10752 10751 10750 ] final -163.18 input  -60.55 | X-H torsion
[ 11005 11000 10999 10996 ] final   55.52 input  -57.11 | X-H torsion

> <Gold.Protein.ActiveResidues>
 VAL166  LYS551  ARG553  GLY616  TRP617  ASP618  TYR619  PRO620  LYS621  CYS622 
 ASP623  PHE694  ASN695  SER759  ASP760  ASP761  ALA762  ILE779  LEU786  VAL792 
 PHE793  MET794  SER795  GLU796  ALA797  LYS798  CYS799  TRP800  GLU811  SER814 

> <Gold.Protein.RotatedAtoms>
  152.0420  134.9706  160.0573 H   0  0  0  0  0  0  0  0  0  0  0  0  # atno 6907 bound_to 6896
  152.1141  133.4312  159.4653 H   0  0  0  0  0  0  0  0  0  0  0  0  # atno 6908 bound_to 6896
  150.6845  134.2532  159.4562 H   0  0  0  0  0  0  0  0  0  0  0  0  # atno 6909 bound_to 6896
  146.2404  139.9791  142.8438 H   0  0  0  0  0  0  0  0  0  0  0  0  # atno 7974 bound_to 7965
  155.4509  140.3458  155.4301 H   0  0  0  0  0  0  0  0  0  0  0  0  # atno 8008 bound_to 7997
  156.1221  140.1490  156.9220 H   0  0  0  0  0  0  0  0  0  0  0  0  # atno 8009 bound_to 7997
  154.4831  140.0864  156.7402 H   0  0  0  0  0  0  0  0  0  0  0  0  # atno 8010 bound_to 7997
  139.7898  144.6856  150.9908 H   0  0  0  0  0  0  0  0  0  0  0  0  # atno 10167 bound_to 10162
  156.1039  130.4183  150.0758 H   0  0  0  0  0  0  0  0  0  0  0  0  # atno 10718 bound_to 10713
  154.7146  135.3013  154.9143 H   0  0  0  0  0  0  0  0  0  0  0  0  # atno 10763 bound_to 10752
  154.0034  135.6704  153.4764 H   0  0  0  0  0  0  0  0  0  0  0  0  # atno 10764 bound_to 10752
  153.0783  135.5022  154.8365 H   0  0  0  0  0  0  0  0  0  0  0  0  # atno 10765 bound_to 10752
  140.0601  134.5615  155.9162 H   0  0  0  0  0  0  0  0  0  0  0  0  # atno 11005 bound_to 11000
  145.1609  140.9672  143.4378 LP  0  0  0  0  0  0  0  0  0  0  0  0  # atno 17320 bound_to 7965
  145.0117  139.3503  143.6116 LP  0  0  0  0  0  0  0  0  0  0  0  0  # atno 17321 bound_to 7965
  140.7820  143.4393  151.0576 LP  0  0  0  0  0  0  0  0  0  0  0  0  # atno 17342 bound_to 10162
  139.8070  143.8004  152.3168 LP  0  0  0  0  0  0  0  0  0  0  0  0  # atno 17343 bound_to 10162
  156.8739  130.9533  151.3606 LP  0  0  0  0  0  0  0  0  0  0  0  0  # atno 17370 bound_to 10713
  157.6213  130.8657  149.9114 LP  0  0  0  0  0  0  0  0  0  0  0  0  # atno 17371 bound_to 10713
  141.1969  133.6594  156.5715 LP  0  0  0  0  0  0  0  0  0  0  0  0  # atno 17394 bound_to 11000
  140.3784  134.7545  157.4645 LP  0  0  0  0  0  0  0  0  0  0  0  0  # atno 17395 bound_to 11000

$$$$
