AV-unprocessed.smi:1816|AV-procd|sdf|7366|dock5
  -GOLD-   22720 9 33D 1   1.00000     0.00000
 Structure written by MMmdl.
 35 36  0  0  0  0  0  0  0  0  3 V2000
  149.4561  136.0808  155.5238 C   0  0  0  0  0  0  0  0  0  0  0  0
  147.9856  135.8443  155.1130 C   0  0  2  0  0  0  0  0  0  0  0  0
  147.1817  135.2705  156.3058 C   0  0  0  0  0  0  0  0  0  0  0  0
  147.5005  135.9383  157.5671 N   0  0  0  0  0  0  0  0  0  0  0  0
  148.5478  135.6889  158.3657 C   0  0  0  0  0  0  0  0  0  0  0  0
  149.3325  134.7798  158.0899 O   0  0  0  0  0  0  0  0  0  0  0  0
  148.6296  136.5220  159.4259 N   0  5  0  0  0  0  0  0  0  0  0  0
  147.9957  136.2160  160.5696 C   0  0  0  0  0  0  0  0  0  0  0  0
  147.7521  137.1153  161.5299 N   0  0  0  0  0  0  0  0  0  0  0  0
  147.0763  136.5831  162.6296 C   0  0  0  0  0  0  0  0  0  0  0  0
  146.7945  135.2489  162.5010 C   0  0  0  0  0  0  0  0  0  0  0  0
  147.3700  134.6178  160.9844 S   0  0  0  0  0  0  0  0  0  0  0  0
  147.8646  134.9722  153.9081 N   0  3  0  0  0  0  0  0  0  0  0  0
  148.3973  133.6040  154.0736 C   0  0  0  0  0  0  0  0  0  0  0  0
  147.8712  132.8314  152.8669 C   0  0  0  0  0  0  0  0  0  0  0  0
  146.5325  133.4967  152.5361 C   0  0  0  0  0  0  0  0  0  0  0  0
  146.5022  134.7918  153.3591 C   0  0  0  0  0  0  0  0  0  0  0  0
  149.5130  136.6478  156.4533 H   0  0  0  0  0  0  0  0  0  0  0  0
  150.0038  136.6530  154.7754 H   0  0  0  0  0  0  0  0  0  0  0  0
  149.9875  135.1411  155.6790 H   0  0  0  0  0  0  0  0  0  0  0  0
  147.5643  136.8187  154.8608 H   0  0  0  0  0  0  0  0  0  0  0  0
  146.1164  135.4148  156.1244 H   0  0  0  0  0  0  0  0  0  0  0  0
  147.3153  134.1918  156.3940 H   0  0  0  0  0  0  0  0  0  0  0  0
  146.8830  136.6863  157.8488 H   0  0  0  0  0  0  0  0  0  0  0  0
  146.8354  137.2278  163.4617 H   0  0  0  0  0  0  0  0  0  0  0  0
  146.2851  134.6029  163.1999 H   0  0  0  0  0  0  0  0  0  0  0  0
  149.4844  133.5742  154.1331 H   0  0  0  0  0  0  0  0  0  0  0  0
  148.0012  133.1652  154.9908 H   0  0  0  0  0  0  0  0  0  0  0  0
  148.5577  132.9527  152.0278 H   0  0  0  0  0  0  0  0  0  0  0  0
  147.7750  131.7635  153.0656 H   0  0  0  0  0  0  0  0  0  0  0  0
  146.4609  133.7041  151.4675 H   0  0  0  0  0  0  0  0  0  0  0  0
  145.6934  132.8532  152.8034 H   0  0  0  0  0  0  0  0  0  0  0  0
  145.7889  134.6780  154.1770 H   0  0  0  0  0  0  0  0  0  0  0  0
  146.1978  135.6506  152.7598 H   0  0  0  0  0  0  0  0  0  0  0  0
  148.4084  135.4055  153.1743 H   0  0  0  0  0  0  0  0  0  0  0  0
  1  2  1  0  0  0  0
  1 18  1  0  0  0  0
  1 19  1  0  0  0  0
  1 20  1  0  0  0  0
  2  3  1  0  0  0  0
  2 13  1  0  0  0  0
  2 21  1  0  0  0  0
  3  4  1  0  0  0  0
  3 22  1  0  0  0  0
  3 23  1  0  0  0  0
  4  5  1  0  0  0  0
  4 24  1  0  0  0  0
  5  6  2  0  0  0  0
  5  7  1  0  0  0  0
  7  8  1  0  0  0  0
  8 12  1  0  0  0  0
  8  9  2  0  0  0  0
  9 10  1  0  0  0  0
 10 11  2  0  0  0  0
 10 25  1  0  0  0  0
 11 12  1  0  0  0  0
 11 26  1  0  0  0  0
 13 17  1  0  0  0  0
 13 14  1  0  0  0  0
 13 35  1  0  0  0  0
 14 15  1  0  0  0  0
 14 27  1  0  0  0  0
 14 28  1  0  0  0  0
 15 16  1  0  0  0  0
 15 29  1  0  0  0  0
 15 30  1  0  0  0  0
 16 17  1  0  0  0  0
 16 31  1  0  0  0  0
 16 32  1  0  0  0  0
 17 33  1  0  0  0  0
 17 34  1  0  0  0  0
M  CHG  1   7  -1
M  CHG  1  13   1
M  END
> <s_m_source_file>
AV-unprocessed.smi

> <i_m_source_file_index>
1816

> <i_lp_mmshare_version>
43012

> <i_f3d_flags>
0

> <s_epik_input>
W0NIMl0xW0NIMl1bQ0gyXVtDSDJdTjFbQ0BIXShbQ0gzXSlbQ0gyXVtOSF1DKD1PKVtOSF1jMm5bY0hdW2NIXXMy

> <s_epik_cmdline>
J2VwaWtfcHl0aG9uJywgJy1waCcsICc3LjAnLCAnLXRuJywgJzgnLCAnLW1hJywgJzIwMCcsICctbWV0YWxfYmluZGluZycsICctaW1hZScsICc8aW5maWxlLm1hZT4nLCAnLW9tYWUnLCAnPG91dGZpbGUubWFlPic=

> <r_lp_tautomer_probability>
0.999

> <r_epik_Ionization_Penalty>
6.21769

> <r_epik_Ionization_Penalty_Charging>
5.38662

> <r_epik_Ionization_Penalty_Neutral>
0.831074

> <r_epik_State_Penalty>
5.38626

> <r_epik_Charging_Adjusted_Penalty>
10.7729

> <i_epik_Tot_Q>
0

> <i_epik_Tot_abs_Q>
2

> <r_epik_Metal_State_Penalty>
1.41347

> <b_epik_Metal_Only>
1

> <s_lp_Force_Field>
OPLS_2005

> <r_lp_Energy>
25.8125

> <b_lp_Chiralities_Consistent>
1

> <s_lp_Variant>
AV-unprocessed.smi:1816-3

> <Gold.Version>
5.8.1

> <Gold.Id.Protein>
6NUR|6NUR_protein|mol2

> <Gold.PLP.Fitness>
40.8161

> <Gold.PLP.PLP>
-28.5711

> <Gold.PLP.part.hbond>
-4.0000

> <Gold.PLP.part.metal>
0.0000

> <Gold.PLP.part.buried>
-3.2341

> <Gold.PLP.part.nonpolar>
-21.3853

> <Gold.PLP.part.repulsive>
0.0058

> <Gold.PLP.ligand.clash>
0.0000

> <Gold.PLP.ligand.torsion>
1.0851

> <Gold.PLP.Chemscore.Hbond>
4.7840

> <Gold.PLP.Chemscore.CHOScore>
0.0000

> <Gold.PLP.Chemscore.Metal>
0.0000

> <Gold.Chemscore.Hbonds>
donor molecule, donor type, donor heavy atom, donor atom, acceptor molecule, acceptor atom, score
      L1  H    13    35       P1  7948  2.00
      P1  H  6896  6907       L1     6  1.00
      P1  H  6931  6943       L1     9  1.00
      P1  H  6934  6947       L1     9  0.67

> <Gold.PLP.Chemscore.Internal.Correction>
0.0631

> <Gold.Rescore>
     Score         DG    S(hbond)    S(metal)    S(lipo)     H(rot)  DE(clash)    DE(int)     intcor
     18.14     -19.16       3.54        0.00      50.15       1.57       0.01       1.02       ----

> <Gold.Chemscore.Fitness>
18.1351

> <Gold.Chemscore.DG>
-19.1647

> <Gold.Chemscore.ZeroCoef>
-5.4800

> <Gold.Chemscore.Hbond>
3.5447

> <Gold.Chemscore.Metal>
0.0000

> <Gold.Chemscore.Lipo>
50.1486

> <Gold.Chemscore.Internal_Hbond>
0.0000

> <Gold.Chemscore.DEClash>
0.0057

> <Gold.Chemscore.DEInternal>
1.0239

> <Gold.Chemscore.Rot>
1.5710

> <Gold.Chemscore.Internal.Correction>
   9.000000E+99

> <Gold.Chemscore.Hbonds>
donor molecule, donor type, donor heavy atom, donor atom, acceptor molecule, acceptor atom, score
      L1  H    13    35       P1  7948  0.98
      P1  H  6896  6907       L1     6  0.84
      P1  H  6931  6943       L1     9  0.84
      P1  H  6934  6947       L1     9  0.59

> <Gold.Chemscore.Hbond.Weighted>
-11.8392

> <Gold.Chemscore.Metal.Weighted>
-0.0000

> <Gold.Chemscore.Lipo.Weighted>
-5.8674

> <Gold.Chemscore.Internal_Hbond.Weighted>
0.0000

> <Gold.Chemscore.DEClash.Weighted>
0.0057

> <Gold.Chemscore.DEInternal.Weighted>
1.0239

> <Gold.Chemscore.Rot.Weighted>
4.0219

> <Gold.Chemscore.Internal.Correction.Weighted>
   9.000000E+99

> <Gold.Protein.RotatedTorsions>
[ 6907 6896 6895 6894 ] final  -77.05 input  -60.11 | X-H torsion
[ 7974 7965 7964 7962 ] final -134.13 input  175.53 | X-H torsion
[ 8008 7997 7996 7995 ] final   40.69 input   59.86 | X-H torsion
[ 10167 10162 10161 10158 ] final  137.54 input  -65.29 | X-H torsion
[ 10718 10713 10712 10709 ] final  167.45 input   66.30 | X-H torsion
[ 10763 10752 10751 10750 ] final   74.01 input  -60.55 | X-H torsion
[ 11005 11000 10999 10996 ] final  -80.61 input  -57.11 | X-H torsion

> <Gold.Protein.ActiveResidues>
 VAL166  LYS551  ARG553  GLY616  TRP617  ASP618  TYR619  PRO620  LYS621  CYS622 
 ASP623  PHE694  ASN695  SER759  ASP760  ASP761  ALA762  ILE779  LEU786  VAL792 
 PHE793  MET794  SER795  GLU796  ALA797  LYS798  CYS799  TRP800  GLU811  SER814 

> <Gold.Protein.RotatedAtoms>
  150.7009  134.4480  159.5322 H   0  0  0  0  0  0  0  0  0  0  0  0  # atno 6907 bound_to 6896
  152.2178  134.8439  160.0499 H   0  0  0  0  0  0  0  0  0  0  0  0  # atno 6908 bound_to 6896
  151.9300  133.3573  159.3964 H   0  0  0  0  0  0  0  0  0  0  0  0  # atno 6909 bound_to 6896
  144.9131  140.6920  143.5013 H   0  0  0  0  0  0  0  0  0  0  0  0  # atno 7974 bound_to 7965
  155.2572  140.3356  155.4276 H   0  0  0  0  0  0  0  0  0  0  0  0  # atno 8008 bound_to 7997
  156.2190  140.1801  156.7564 H   0  0  0  0  0  0  0  0  0  0  0  0  # atno 8009 bound_to 7997
  154.5797  140.0656  156.9070 H   0  0  0  0  0  0  0  0  0  0  0  0  # atno 8010 bound_to 7997
  139.5141  144.6404  151.5584 H   0  0  0  0  0  0  0  0  0  0  0  0  # atno 10167 bound_to 10162
  157.0514  131.0314  151.2679 H   0  0  0  0  0  0  0  0  0  0  0  0  # atno 10718 bound_to 10713
  153.0559  135.5041  154.7979 H   0  0  0  0  0  0  0  0  0  0  0  0  # atno 10763 bound_to 10752
  154.6805  135.2967  154.9621 H   0  0  0  0  0  0  0  0  0  0  0  0  # atno 10764 bound_to 10752
  154.0409  135.6717  153.4842 H   0  0  0  0  0  0  0  0  0  0  0  0  # atno 10765 bound_to 10752
  141.1668  133.7158  156.8299 H   0  0  0  0  0  0  0  0  0  0  0  0  # atno 11005 bound_to 11000
  145.3421  139.1729  143.4480 LP  0  0  0  0  0  0  0  0  0  0  0  0  # atno 17320 bound_to 7965
  146.3168  140.3464  142.8652 LP  0  0  0  0  0  0  0  0  0  0  0  0  # atno 17321 bound_to 7965
  140.6169  143.9332  150.6495 LP  0  0  0  0  0  0  0  0  0  0  0  0  # atno 17342 bound_to 10162
  140.2593  143.3536  152.1337 LP  0  0  0  0  0  0  0  0  0  0  0  0  # atno 17343 bound_to 10162
  157.5027  130.7890  149.7622 LP  0  0  0  0  0  0  0  0  0  0  0  0  # atno 17370 bound_to 10713
  156.0006  130.3882  150.2619 LP  0  0  0  0  0  0  0  0  0  0  0  0  # atno 17371 bound_to 10713
  140.2059  134.8863  157.3220 LP  0  0  0  0  0  0  0  0  0  0  0  0  # atno 17394 bound_to 11000
  140.2138  134.4106  155.7599 LP  0  0  0  0  0  0  0  0  0  0  0  0  # atno 17395 bound_to 11000

$$$$
