AV-unprocessed.smi:1107|AV-procd|sdf|4785|dock4
  -GOLD-   22720 3333D 1   1.00000     0.00000
 Structure written by MMmdl.
 48 49  0  0  0  0  0  0  0  0  3 V2000
  153.0405  141.0577  158.9525 C   0  0  0  0  0  0  0  0  0  0  0  0
  152.4694  140.4406  157.6937 C   0  0  0  0  0  0  0  0  0  0  0  0
  151.5335  141.0494  157.0710 N   0  0  0  0  0  0  0  0  0  0  0  0
  150.9899  140.4785  155.9077 C   0  0  0  0  0  0  0  0  0  0  0  0
  149.8537  141.2501  155.2601 C   0  0  0  0  0  0  0  0  0  0  0  0
  151.4583  139.2940  155.4197 C   0  0  0  0  0  0  0  0  0  0  0  0
  150.8667  138.5839  154.2010 C   0  0  0  0  0  0  0  0  0  0  0  0
  149.4238  138.1053  154.3776 C   0  0  0  0  0  0  0  0  0  0  0  0
  149.1253  137.3827  155.3274 O   0  0  0  0  0  0  0  0  0  0  0  0
  148.5346  138.5567  153.4785 N   0  0  0  0  0  0  0  0  0  0  0  0
  147.0828  138.4299  153.5566 C   0  0  2  0  0  0  0  0  0  0  0  0
  146.5396  139.4195  154.5957 C   0  0  0  0  0  0  0  0  0  0  0  0
  146.6981  136.9724  153.8990 C   0  0  0  0  0  0  0  0  0  0  0  0
  146.3823  136.1411  152.7058 N   0  3  0  0  0  0  0  0  0  0  0  0
  146.0595  134.7370  153.0724 C   0  0  0  0  0  0  0  0  0  0  0  0
  145.8308  133.8620  151.8277 C   0  0  0  0  0  0  0  0  0  0  0  0
  144.7537  134.4615  150.9161 C   0  0  0  0  0  0  0  0  0  0  0  0
  145.1131  135.9108  150.5673 C   0  0  0  0  0  0  0  0  0  0  0  0
  145.3322  136.7425  151.8409 C   0  0  0  0  0  0  0  0  0  0  0  0
  152.5427  138.6289  156.1621 C   0  0  0  0  0  0  0  0  0  0  0  0
  152.9931  137.5544  155.7675 O   0  0  0  0  0  0  0  0  0  0  0  0
  152.9986  139.2340  157.2945 N   0  5  0  0  0  0  0  0  0  0  0  0
  152.8993  142.1393  158.9542 H   0  0  0  0  0  0  0  0  0  0  0  0
  154.1094  140.8560  159.0324 H   0  0  0  0  0  0  0  0  0  0  0  0
  152.5437  140.6440  159.8304 H   0  0  0  0  0  0  0  0  0  0  0  0
  148.9653  140.6253  155.1664 H   0  0  0  0  0  0  0  0  0  0  0  0
  150.1450  141.5917  154.2666 H   0  0  0  0  0  0  0  0  0  0  0  0
  149.5844  142.1269  155.8502 H   0  0  0  0  0  0  0  0  0  0  0  0
  150.8969  139.2386  153.3309 H   0  0  0  0  0  0  0  0  0  0  0  0
  151.4979  137.7344  153.9357 H   0  0  0  0  0  0  0  0  0  0  0  0
  148.8940  139.1257  152.7250 H   0  0  0  0  0  0  0  0  0  0  0  0
  146.6328  138.6976  152.6000 H   0  0  0  0  0  0  0  0  0  0  0  0
  145.4534  139.3561  154.6669 H   0  0  0  0  0  0  0  0  0  0  0  0
  146.7919  140.4463  154.3286 H   0  0  0  0  0  0  0  0  0  0  0  0
  146.9502  139.2232  155.5867 H   0  0  0  0  0  0  0  0  0  0  0  0
  147.5415  136.5186  154.4223 H   0  0  0  0  0  0  0  0  0  0  0  0
  145.8603  136.9492  154.5975 H   0  0  0  0  0  0  0  0  0  0  0  0
  146.8777  134.3141  153.6567 H   0  0  0  0  0  0  0  0  0  0  0  0
  145.1730  134.7227  153.7081 H   0  0  0  0  0  0  0  0  0  0  0  0
  146.7622  133.7610  151.2720 H   0  0  0  0  0  0  0  0  0  0  0  0
  145.5451  132.8539  152.1292 H   0  0  0  0  0  0  0  0  0  0  0  0
  144.6563  133.8674  150.0072 H   0  0  0  0  0  0  0  0  0  0  0  0
  143.7852  134.4306  151.4169 H   0  0  0  0  0  0  0  0  0  0  0  0
  146.0163  135.9305  149.9563 H   0  0  0  0  0  0  0  0  0  0  0  0
  144.3221  136.3557  149.9631 H   0  0  0  0  0  0  0  0  0  0  0  0
  144.3992  136.8216  152.4008 H   0  0  0  0  0  0  0  0  0  0  0  0
  145.6134  137.7545  151.5525 H   0  0  0  0  0  0  0  0  0  0  0  0
  147.2275  136.0980  152.1531 H   0  0  0  0  0  0  0  0  0  0  0  0
  1  2  1  0  0  0  0
  1 23  1  0  0  0  0
  1 24  1  0  0  0  0
  1 25  1  0  0  0  0
  2 22  1  0  0  0  0
  2  3  2  0  0  0  0
  3  4  1  0  0  0  0
  4  5  1  0  0  0  0
  4  6  2  0  0  0  0
  5 26  1  0  0  0  0
  5 27  1  0  0  0  0
  5 28  1  0  0  0  0
  6  7  1  0  0  0  0
  6 20  1  0  0  0  0
  7  8  1  0  0  0  0
  7 29  1  0  0  0  0
  7 30  1  0  0  0  0
  8  9  2  0  0  0  0
  8 10  1  0  0  0  0
 10 11  1  0  0  0  0
 10 31  1  0  0  0  0
 11 12  1  0  0  0  0
 11 13  1  0  0  0  0
 11 32  1  0  0  0  0
 12 33  1  0  0  0  0
 12 34  1  0  0  0  0
 12 35  1  0  0  0  0
 13 14  1  0  0  0  0
 13 36  1  0  0  0  0
 13 37  1  0  0  0  0
 14 19  1  0  0  0  0
 14 15  1  0  0  0  0
 14 48  1  0  0  0  0
 15 16  1  0  0  0  0
 15 38  1  0  0  0  0
 15 39  1  0  0  0  0
 16 17  1  0  0  0  0
 16 40  1  0  0  0  0
 16 41  1  0  0  0  0
 17 18  1  0  0  0  0
 17 42  1  0  0  0  0
 17 43  1  0  0  0  0
 18 19  1  0  0  0  0
 18 44  1  0  0  0  0
 18 45  1  0  0  0  0
 19 46  1  0  0  0  0
 19 47  1  0  0  0  0
 20 21  2  0  0  0  0
 20 22  1  0  0  0  0
M  CHG  1  14   1
M  CHG  1  22  -1
M  END
> <s_m_source_file>
AV-unprocessed.smi

> <i_m_source_file_index>
1107

> <i_lp_mmshare_version>
43012

> <i_f3d_flags>
0

> <s_epik_input>
W0NIM11jMW5jKFtDSDNdKWMoYyg9TylbbkhdMSlbQ0gyXUMoPU8pW05IXVtDQEhdKFtDSDNdKVtDSDJdTjJbQ0gyXVtDSDJdW0NIMl1bQ0gyXVtDSDJdMg==

> <s_epik_cmdline>
J2VwaWtfcHl0aG9uJywgJy1waCcsICc3LjAnLCAnLXRuJywgJzgnLCAnLW1hJywgJzIwMCcsICctbWV0YWxfYmluZGluZycsICctaW1hZScsICc8aW5maWxlLm1hZT4nLCAnLW9tYWUnLCAnPG91dGZpbGUubWFlPic=

> <r_lp_tautomer_probability>
0.839158

> <r_epik_Ionization_Penalty>
6.34615

> <r_epik_Ionization_Penalty_Charging>
0.00266072

> <r_epik_Ionization_Penalty_Neutral>
6.34348

> <r_epik_State_Penalty>
4.30851

> <r_epik_Charging_Adjusted_Penalty>
4.31117

> <i_epik_Tot_Q>
0

> <i_epik_Tot_abs_Q>
2

> <r_epik_Metal_State_Penalty>
0.75957

> <b_epik_Metal_Only>
1

> <s_lp_Force_Field>
OPLS_2005

> <r_lp_Energy>
18.3813

> <b_lp_Chiralities_Consistent>
1

> <s_lp_Variant>
AV-unprocessed.smi:1107-5

> <Gold.Version>
5.8.1

> <Gold.Id.Protein>
6NUR|6NUR_protein|mol2

> <Gold.PLP.Fitness>
48.7535

> <Gold.PLP.PLP>
-35.1585

> <Gold.PLP.part.hbond>
-4.1077

> <Gold.PLP.part.metal>
0.0000

> <Gold.PLP.part.buried>
-4.3178

> <Gold.PLP.part.nonpolar>
-27.8999

> <Gold.PLP.part.repulsive>
0.1578

> <Gold.PLP.ligand.clash>
0.0000

> <Gold.PLP.ligand.torsion>
0.7197

> <Gold.PLP.Chemscore.Hbond>
5.0000

> <Gold.PLP.Chemscore.CHOScore>
0.0000

> <Gold.PLP.Chemscore.Metal>
0.0000

> <Gold.Chemscore.Hbonds>
donor molecule, donor type, donor heavy atom, donor atom, acceptor molecule, acceptor atom, score
      L1  H    10    31       P1  7957  1.00
      L1  H    14    48       P1  7948  2.00
      P1  H  7997  8010       L1    22  1.00
      P1  H 10752 10765       L1    21  0.27

> <Gold.PLP.Chemscore.Internal.Correction>
0.0343

> <Gold.Rescore>
     Score         DG    S(hbond)    S(metal)    S(lipo)     H(rot)  DE(clash)    DE(int)     intcor
     14.99     -16.95       2.30        0.00      74.43       1.92       0.02       1.95       ----

> <Gold.Chemscore.Fitness>
14.9851

> <Gold.Chemscore.DG>
-16.9547

> <Gold.Chemscore.ZeroCoef>
-5.4800

> <Gold.Chemscore.Hbond>
2.3025

> <Gold.Chemscore.Metal>
0.0000

> <Gold.Chemscore.Lipo>
74.4288

> <Gold.Chemscore.Internal_Hbond>
0.0000

> <Gold.Chemscore.DEClash>
0.0185

> <Gold.Chemscore.DEInternal>
1.9511

> <Gold.Chemscore.Rot>
1.9233

> <Gold.Chemscore.Internal.Correction>
   9.000000E+99

> <Gold.Chemscore.Hbonds>
donor molecule, donor type, donor heavy atom, donor atom, acceptor molecule, acceptor atom, score
      L1  H    10    31       P1  7957  0.99
      L1  H    14    48       P1  7948  0.99
      P1  H  7997  8010       L1    22  0.02
      P1  H 10752 10765       L1    21  0.27

> <Gold.Chemscore.Hbond.Weighted>
-7.6903

> <Gold.Chemscore.Metal.Weighted>
-0.0000

> <Gold.Chemscore.Lipo.Weighted>
-8.7082

> <Gold.Chemscore.Internal_Hbond.Weighted>
0.0000

> <Gold.Chemscore.DEClash.Weighted>
0.0185

> <Gold.Chemscore.DEInternal.Weighted>
1.9511

> <Gold.Chemscore.Rot.Weighted>
4.9237

> <Gold.Chemscore.Internal.Correction.Weighted>
   9.000000E+99

> <Gold.Protein.RotatedTorsions>
[ 6907 6896 6895 6894 ] final  -57.92 input  -60.11 | X-H torsion
[ 7974 7965 7964 7962 ] final   87.52 input  175.53 | X-H torsion
[ 8008 7997 7996 7995 ] final   34.54 input   59.86 | X-H torsion
[ 10167 10162 10161 10158 ] final -139.17 input  -65.29 | X-H torsion
[ 10718 10713 10712 10709 ] final  136.01 input   66.30 | X-H torsion
[ 10763 10752 10751 10750 ] final -137.93 input  -60.55 | X-H torsion
[ 11005 11000 10999 10996 ] final  176.27 input  -57.11 | X-H torsion

> <Gold.Protein.ActiveResidues>
 VAL166  LYS551  ARG553  GLY616  TRP617  ASP618  TYR619  PRO620  LYS621  CYS622 
 ASP623  PHE694  ASN695  SER759  ASP760  ASP761  ALA762  ILE779  LEU786  VAL792 
 PHE793  MET794  SER795  GLU796  ALA797  LYS798  CYS799  TRP800  GLU811  SER814 

> <Gold.Protein.RotatedAtoms>
  150.8047  134.7165  159.6633 H   0  0  0  0  0  0  0  0  0  0  0  0  # atno 6907 bound_to 6896
  152.4166  134.6027  160.0014 H   0  0  0  0  0  0  0  0  0  0  0  0  # atno 6908 bound_to 6896
  151.6254  133.3299  159.3133 H   0  0  0  0  0  0  0  0  0  0  0  0  # atno 6909 bound_to 6896
  145.5579  139.2301  143.2476 H   0  0  0  0  0  0  0  0  0  0  0  0  # atno 7974 bound_to 7965
  155.1565  140.3279  155.4420 H   0  0  0  0  0  0  0  0  0  0  0  0  # atno 8008 bound_to 7997
  156.2557  140.1967  156.6625 H   0  0  0  0  0  0  0  0  0  0  0  0  # atno 8009 bound_to 7997
  154.6435  140.0567  156.9860 H   0  0  0  0  0  0  0  0  0  0  0  0  # atno 8010 bound_to 7997
  139.8406  143.7327  152.2663 H   0  0  0  0  0  0  0  0  0  0  0  0  # atno 10167 bound_to 10162
  157.4511  131.1066  151.0032 H   0  0  0  0  0  0  0  0  0  0  0  0  # atno 10718 bound_to 10713
  154.8650  135.3627  154.5303 H   0  0  0  0  0  0  0  0  0  0  0  0  # atno 10763 bound_to 10752
  153.5929  135.7015  153.5420 H   0  0  0  0  0  0  0  0  0  0  0  0  # atno 10764 bound_to 10752
  153.3358  135.4112  155.1494 H   0  0  0  0  0  0  0  0  0  0  0  0  # atno 10765 bound_to 10752
  140.3713  134.7028  157.4394 H   0  0  0  0  0  0  0  0  0  0  0  0  # atno 11005 bound_to 11000
  146.1872  140.6403  142.9162 LP  0  0  0  0  0  0  0  0  0  0  0  0  # atno 17320 bound_to 7965
  144.7497  140.5160  143.6810 LP  0  0  0  0  0  0  0  0  0  0  0  0  # atno 17321 bound_to 7965
  139.7562  144.7520  151.0431 LP  0  0  0  0  0  0  0  0  0  0  0  0  # atno 17342 bound_to 10162
  140.7798  143.4802  151.0028 LP  0  0  0  0  0  0  0  0  0  0  0  0  # atno 17343 bound_to 10162
  157.0861  130.5923  149.5430 LP  0  0  0  0  0  0  0  0  0  0  0  0  # atno 17370 bound_to 10713
  155.9988  130.5062  150.7583 LP  0  0  0  0  0  0  0  0  0  0  0  0  # atno 17371 bound_to 10713
  140.0550  134.6077  155.8816 LP  0  0  0  0  0  0  0  0  0  0  0  0  # atno 17394 bound_to 11000
  141.1953  133.6587  156.5639 LP  0  0  0  0  0  0  0  0  0  0  0  0  # atno 17395 bound_to 11000

$$$$
