AV-unprocessed.smi:2574|AV-procd|sdf|10115|dock4
  -GOLD-   2272014133D 1   1.00000     0.00000
 Structure written by MMmdl.
 38 40  0  0  0  0  0  0  0  0  1 V2000
  153.5659  139.6146  158.1428 O   0  0  0  0  0  0  0  0  0  0  0  0
  153.1171  140.6001  158.7299 C   0  0  0  0  0  0  0  0  0  0  0  0
  153.6352  141.0835  160.0187 C   0  0  0  0  0  0  0  0  0  0  0  0
  154.7799  140.3084  160.6660 C   0  0  0  0  0  0  0  0  0  0  0  0
  154.9778  140.6848  161.9303 F   0  0  0  0  0  0  0  0  0  0  0  0
  154.5215  139.0001  160.6661 F   0  0  0  0  0  0  0  0  0  0  0  0
  155.9161  140.5090  159.9978 F   0  0  0  0  0  0  0  0  0  0  0  0
  153.0923  142.1805  160.6005 C   0  0  0  0  0  0  0  0  0  0  0  0
  152.0042  142.8882  159.9557 C   0  0  0  0  0  0  0  0  0  0  0  0
  151.3685  144.1190  160.5363 C   0  0  0  0  0  0  0  0  0  0  0  0
  150.1257  144.7304  159.9328 C   0  0  0  0  0  0  0  0  0  0  0  0
  151.4440  145.4648  159.8514 C   0  0  0  0  0  0  0  0  0  0  0  0
  151.5468  142.4578  158.8282 N   0  0  0  0  0  0  0  0  0  0  0  0
  152.0819  141.3359  158.2271 N   0  0  0  0  0  0  0  0  0  0  0  0
  151.4407  140.9818  156.9542 C   0  0  0  0  0  0  0  0  0  0  0  0
  150.1252  141.7568  156.7208 C   0  0  1  0  0  0  0  0  0  0  0  0
  150.4372  143.0969  156.3926 O   0  0  0  0  0  0  0  0  0  0  0  0
  149.2914  141.0957  155.6332 C   0  0  0  0  0  0  0  0  0  0  0  0
  149.7137  139.8904  155.0286 C   0  0  0  0  0  0  0  0  0  0  0  0
  148.9291  139.2850  154.0279 C   0  0  0  0  0  0  0  0  0  0  0  0
  147.7161  139.8780  153.6281 C   0  0  0  0  0  0  0  0  0  0  0  0
  147.2870  141.0756  154.2315 C   0  0  0  0  0  0  0  0  0  0  0  0
  148.0715  141.6818  155.2320 C   0  0  0  0  0  0  0  0  0  0  0  0
  153.4554  142.5477  161.5486 H   0  0  0  0  0  0  0  0  0  0  0  0
  151.4410  144.1141  161.6223 H   0  0  0  0  0  0  0  0  0  0  0  0
  149.7377  144.2967  159.0130 H   0  0  0  0  0  0  0  0  0  0  0  0
  149.3749  145.1182  160.6182 H   0  0  0  0  0  0  0  0  0  0  0  0
  151.5690  146.3427  160.4819 H   0  0  0  0  0  0  0  0  0  0  0  0
  151.9198  145.5225  158.8743 H   0  0  0  0  0  0  0  0  0  0  0  0
  152.1224  141.1264  156.1134 H   0  0  0  0  0  0  0  0  0  0  0  0
  151.2339  139.9098  156.9659 H   0  0  0  0  0  0  0  0  0  0  0  0
  149.5310  141.7766  157.6351 H   0  0  0  0  0  0  0  0  0  0  0  0
  149.6395  143.6031  156.4170 H   0  0  0  0  0  0  0  0  0  0  0  0
  150.6405  139.4248  155.3310 H   0  0  0  0  0  0  0  0  0  0  0  0
  149.2579  138.3651  153.5671 H   0  0  0  0  0  0  0  0  0  0  0  0
  147.1145  139.4141  152.8605 H   0  0  0  0  0  0  0  0  0  0  0  0
  146.3554  141.5299  153.9280 H   0  0  0  0  0  0  0  0  0  0  0  0
  147.7318  142.5985  155.6919 H   0  0  0  0  0  0  0  0  0  0  0  0
  1  2  2  0  0  0  0
  2 14  1  0  0  0  0
  2  3  1  0  0  0  0
  3  4  1  0  0  0  0
  3  8  2  0  0  0  0
  4  5  1  0  0  0  0
  4  6  1  0  0  0  0
  4  7  1  0  0  0  0
  8  9  1  0  0  0  0
  8 24  1  0  0  0  0
  9 10  1  0  0  0  0
  9 13  2  0  0  0  0
 10 12  1  0  0  0  0
 10 11  1  0  0  0  0
 10 25  1  0  0  0  0
 11 12  1  0  0  0  0
 11 26  1  0  0  0  0
 11 27  1  0  0  0  0
 12 28  1  0  0  0  0
 12 29  1  0  0  0  0
 13 14  1  0  0  0  0
 14 15  1  0  0  0  0
 15 16  1  0  0  0  0
 15 30  1  0  0  0  0
 15 31  1  0  0  0  0
 16 17  1  0  0  0  0
 16 18  1  0  0  0  0
 16 32  1  0  0  0  0
 17 33  1  0  0  0  0
 18 23  1  0  0  0  0
 18 19  2  0  0  0  0
 19 20  1  0  0  0  0
 19 34  1  0  0  0  0
 20 21  2  0  0  0  0
 20 35  1  0  0  0  0
 21 22  1  0  0  0  0
 21 36  1  0  0  0  0
 22 23  2  0  0  0  0
 22 37  1  0  0  0  0
 23 38  1  0  0  0  0
M  END
> <s_m_source_file>
AV-unprocessed.smi

> <i_m_source_file_index>
2574

> <i_lp_mmshare_version>
43012

> <i_f3d_flags>
0

> <s_epik_input>
Tz1jMWMoQyhGKShGKUYpW2NIXWMoW0NIXTJbQ0gyXVtDSDJdMilubjFbQ0gyXVtDQEhdKFtPSF0pYzNbY0hdW2NIXVtjSF1bY0hdW2NIXTM=

> <s_epik_cmdline>
J2VwaWtfcHl0aG9uJywgJy1waCcsICc3LjAnLCAnLXRuJywgJzgnLCAnLW1hJywgJzIwMCcsICctbWV0YWxfYmluZGluZycsICctaW1hZScsICc8aW5maWxlLm1hZT4nLCAnLW9tYWUnLCAnPG91dGZpbGUubWFlPic=

> <r_lp_tautomer_probability>
1

> <r_epik_Ionization_Penalty>
7.26807e-08

> <r_epik_Ionization_Penalty_Charging>
9.677e-10

> <r_epik_Ionization_Penalty_Neutral>
7.1713e-08

> <r_epik_State_Penalty>
-0

> <r_epik_Charging_Adjusted_Penalty>
9.677e-10

> <i_epik_Tot_Q>
0

> <i_epik_Tot_abs_Q>
0

> <r_epik_Metal_State_Penalty>
-0

> <b_epik_Metal_Only>
0

> <s_lp_Force_Field>
OPLS_2005

> <r_lp_Energy>
33.5512

> <b_lp_Chiralities_Consistent>
1

> <s_lp_Variant>
AV-unprocessed.smi:2574-2

> <Gold.Version>
5.8.1

> <Gold.Id.Protein>
6NUR|6NUR_protein|mol2

> <Gold.PLP.Fitness>
55.5739

> <Gold.PLP.PLP>
-50.4275

> <Gold.PLP.part.hbond>
-1.8800

> <Gold.PLP.part.metal>
0.0000

> <Gold.PLP.part.buried>
-1.3138

> <Gold.PLP.part.nonpolar>
-47.3155

> <Gold.PLP.part.repulsive>
0.0139

> <Gold.PLP.ligand.clash>
0.0110

> <Gold.PLP.ligand.torsion>
0.7316

> <Gold.PLP.Chemscore.Hbond>
2.0000

> <Gold.PLP.Chemscore.CHOScore>
0.0000

> <Gold.PLP.Chemscore.Metal>
0.0000

> <Gold.Chemscore.Hbonds>
donor molecule, donor type, donor heavy atom, donor atom, acceptor molecule, acceptor atom, score
      L1  H    17    33       P1  8028  0.83
      P1  H  7997  8008       L1     1  1.00

> <Gold.PLP.Chemscore.Internal.Correction>
0.6207

> <Gold.Rescore>
     Score         DG    S(hbond)    S(metal)    S(lipo)     H(rot)  DE(clash)    DE(int)     intcor
     16.26     -18.83       1.33        0.00     121.94       2.09       0.35       2.22       ----

> <Gold.Chemscore.Fitness>
16.2637

> <Gold.Chemscore.DG>
-18.8277

> <Gold.Chemscore.ZeroCoef>
-5.4800

> <Gold.Chemscore.Hbond>
1.3272

> <Gold.Chemscore.Metal>
0.0000

> <Gold.Chemscore.Lipo>
121.9381

> <Gold.Chemscore.Internal_Hbond>
0.0000

> <Gold.Chemscore.DEClash>
0.3488

> <Gold.Chemscore.DEInternal>
2.2152

> <Gold.Chemscore.Rot>
2.0906

> <Gold.Chemscore.Internal.Correction>
   9.000000E+99

> <Gold.Chemscore.Hbonds>
donor molecule, donor type, donor heavy atom, donor atom, acceptor molecule, acceptor atom, score
      L1  H    17    33       P1  8028  0.79
      P1  H  7997  8008       L1     1  0.76

> <Gold.Chemscore.Hbond.Weighted>
-4.4329

> <Gold.Chemscore.Metal.Weighted>
-0.0000

> <Gold.Chemscore.Lipo.Weighted>
-14.2668

> <Gold.Chemscore.Internal_Hbond.Weighted>
0.0000

> <Gold.Chemscore.DEClash.Weighted>
0.3488

> <Gold.Chemscore.DEInternal.Weighted>
2.2152

> <Gold.Chemscore.Rot.Weighted>
5.3520

> <Gold.Chemscore.Internal.Correction.Weighted>
   9.000000E+99

> <Gold.Protein.RotatedTorsions>
[ 6907 6896 6895 6894 ] final   60.17 input  -60.11 | X-H torsion
[ 7974 7965 7964 7962 ] final  -16.73 input  175.53 | X-H torsion
[ 8008 7997 7996 7995 ] final  -95.86 input   59.86 | X-H torsion
[ 10167 10162 10161 10158 ] final   55.53 input  -65.29 | X-H torsion
[ 10718 10713 10712 10709 ] final -125.80 input   66.30 | X-H torsion
[ 10763 10752 10751 10750 ] final   77.62 input  -60.55 | X-H torsion
[ 11005 11000 10999 10996 ] final   -7.51 input  -57.11 | X-H torsion

> <Gold.Protein.ActiveResidues>
 VAL166  LYS551  ARG553  GLY616  TRP617  ASP618  TYR619  PRO620  LYS621  CYS622 
 ASP623  PHE694  ASN695  SER759  ASP760  ASP761  ALA762  ILE779  LEU786  VAL792 
 PHE793  MET794  SER795  GLU796  ALA797  LYS798  CYS799  TRP800  GLU811  SER814 

> <Gold.Protein.RotatedAtoms>
  152.3979  134.6334  160.0081 H   0  0  0  0  0  0  0  0  0  0  0  0  # atno 6907 bound_to 6896
  151.6548  133.3314  159.3168 H   0  0  0  0  0  0  0  0  0  0  0  0  # atno 6908 bound_to 6896
  150.7884  134.6931  159.6553 H   0  0  0  0  0  0  0  0  0  0  0  0  # atno 6909 bound_to 6896
  146.1974  140.3679  142.8436 H   0  0  0  0  0  0  0  0  0  0  0  0  # atno 7974 bound_to 7965
  154.7669  140.0476  157.1020 H   0  0  0  0  0  0  0  0  0  0  0  0  # atno 8008 bound_to 7997
  154.9868  140.3108  155.4903 H   0  0  0  0  0  0  0  0  0  0  0  0  # atno 8009 bound_to 7997
  156.2914  140.2226  156.4970 H   0  0  0  0  0  0  0  0  0  0  0  0  # atno 8010 bound_to 7997
  140.2184  144.3815  150.6460 H   0  0  0  0  0  0  0  0  0  0  0  0  # atno 10167 bound_to 10162
  156.1708  130.6666  151.0177 H   0  0  0  0  0  0  0  0  0  0  0  0  # atno 10718 bound_to 10713
  153.0812  135.4907  154.8507 H   0  0  0  0  0  0  0  0  0  0  0  0  # atno 10763 bound_to 10752
  154.7153  135.3028  154.9135 H   0  0  0  0  0  0  0  0  0  0  0  0  # atno 10764 bound_to 10752
  153.9816  135.6789  153.4803 H   0  0  0  0  0  0  0  0  0  0  0  0  # atno 10765 bound_to 10752
  140.7136  133.8888  155.8768 H   0  0  0  0  0  0  0  0  0  0  0  0  # atno 11005 bound_to 11000
  144.8609  140.7138  143.6108 LP  0  0  0  0  0  0  0  0  0  0  0  0  # atno 17320 bound_to 7965
  145.3599  139.1684  143.4389 LP  0  0  0  0  0  0  0  0  0  0  0  0  # atno 17321 bound_to 7965
  140.6273  143.2183  151.6570 LP  0  0  0  0  0  0  0  0  0  0  0  0  # atno 17342 bound_to 10162
  139.5153  144.3382  152.0764 LP  0  0  0  0  0  0  0  0  0  0  0  0  # atno 17343 bound_to 10162
  157.6801  131.0840  150.7392 LP  0  0  0  0  0  0  0  0  0  0  0  0  # atno 17370 bound_to 10713
  156.7451  130.4751  149.5469 LP  0  0  0  0  0  0  0  0  0  0  0  0  # atno 17371 bound_to 10713
  141.0064  134.1081  157.4266 LP  0  0  0  0  0  0  0  0  0  0  0  0  # atno 17394 bound_to 11000
  139.8865  135.0082  156.6505 LP  0  0  0  0  0  0  0  0  0  0  0  0  # atno 17395 bound_to 11000

$$$$
