#       Name:                AV-unprocessed.smi:3166
#       Creating user name   scv26
#       Creation time:       Fri Mar 27 17:53:08 2020


#       File generated by GOLD software.
#

@<TRIPOS>MOLECULE
AV-unprocessed.smi:3166
    44    45     1
SMALL
NO_CHARGES


@<TRIPOS>ATOM
      1 ****        -2.6974  -2.0872  -1.5245 C.3            1 S1                 0.0000
      2 ****        -2.3981  -0.6943  -0.9480 C.3            1 S1                 0.0000
      3 ****        -2.9832  -0.5041   0.4742 C.3            1 S1                 0.0000
      4 ****        -2.4682  -1.4509   1.4512 N.pl3          1 S1                 0.0000
      5 ****        -1.3121  -1.3663   2.1992 C.2            1 S1                 0.0000
      6 ****        -1.2483  -2.4846   2.9796 C.2            1 S1                 0.0000
      7 ****        -2.4279  -3.2026   2.6371 C.2            1 S1                 0.0000
      8 ****        -3.1581  -2.5799   1.7262 N.2            1 S1                 0.0000
      9 ****        -0.9541  -0.4442  -1.0106 N.3            1 S1                 0.0000
     10 ****        -0.5321   0.9240  -0.7009 C.3            1 S1                 0.0000
     11 ****         0.9864   1.1309  -0.9004 C.3            1 S1                 0.0000
     12 ****         1.2429   1.0199  -2.2892 O.3            1 S1                 0.0000
     13 ****         1.3700   2.5663  -0.4683 C.3            1 S1                 0.0000
     14 ****         2.8836   2.8365  -0.5440 C.3            1 S1                 0.0000
     15 ****         3.6747   1.8013   0.2670 C.3            1 S1                 0.0000
     16 ****         3.3467   0.3757  -0.1973 C.3            1 S1                 0.0000
     17 ****         1.8355   0.0928  -0.1226 C.3            1 S1                 0.0000
     18 ****        -3.7669  -2.2975  -1.5038 H              1 S1                 0.0000
     19 ****        -2.1921  -2.8746  -0.9642 H              1 S1                 0.0000
     20 ****        -2.3690  -2.1600  -2.5617 H              1 S1                 0.0000
     21 ****        -2.8955   0.0266  -1.5980 H              1 S1                 0.0000
     22 ****        -2.8094   0.5053   0.8461 H              1 S1                 0.0000
     23 ****        -4.0683  -0.6121   0.4328 H              1 S1                 0.0000
     24 ****        -0.6378  -0.5273   2.1130 H              1 S1                 0.0000
     25 ****        -0.4768  -2.7494   3.6873 H              1 S1                 0.0000
     26 ****        -2.7741  -4.1505   3.0221 H              1 S1                 0.0000
     27 ****        -0.6044  -0.7005  -1.9286 H              1 S1                 0.0000
     28 ****        -1.0812   1.6324  -1.3228 H              1 S1                 0.0000
     29 ****        -0.7821   1.1641   0.3318 H              1 S1                 0.0000
     30 ****         2.1660   1.1612  -2.4339 H              1 S1                 0.0000
     31 ****         0.8358   3.2999  -1.0741 H              1 S1                 0.0000
     32 ****         1.0419   2.7308   0.5591 H              1 S1                 0.0000
     33 ****         3.2128   2.8184  -1.5836 H              1 S1                 0.0000
     34 ****         3.0982   3.8391  -0.1730 H              1 S1                 0.0000
     35 ****         4.7443   1.9887   0.1681 H              1 S1                 0.0000
     36 ****         3.4380   1.9055   1.3267 H              1 S1                 0.0000
     37 ****         3.6991   0.2332  -1.2196 H              1 S1                 0.0000
     38 ****         3.8875  -0.3461   0.4154 H              1 S1                 0.0000
     39 ****         1.5303   0.0946   0.9246 H              1 S1                 0.0000
     40 ****         1.6447  -0.9158  -0.4906 H              1 S1                 0.0000
     41 ****        -4.0265  -2.8781   1.3298 LP             1 S1                 0.0000
     42 ****        -0.5626  -1.0128  -0.2872 LP             1 S1                 0.0000
     43 ****         0.7138   1.7075  -2.7865 LP             1 S1                 0.0000
     44 ****         0.9867   0.1074  -2.6082 LP             1 S1                 0.0000
@<TRIPOS>BOND
    1    1    2 1     
    2    1   18 1     
    3    1   19 1     
    4    1   20 1     
    5    2    3 1     
    6    2    9 1     
    7    2   21 1     
    8    3    4 1     
    9    3   22 1     
   10    3   23 1     
   11    4    8 1     
   12    4    5 1     
   13    5    6 2     
   14    5   24 1     
   15    6    7 1     
   16    6   25 1     
   17    7    8 2     
   18    7   26 1     
   19    9   10 1     
   20    9   27 1     
   21   10   11 1     
   22   10   28 1     
   23   10   29 1     
   24   11   17 1     
   25   11   12 1     
   26   11   13 1     
   27   12   30 1     
   28   13   14 1     
   29   13   31 1     
   30   13   32 1     
   31   14   15 1     
   32   14   33 1     
   33   14   34 1     
   34   15   16 1     
   35   15   35 1     
   36   15   36 1     
   37   16   17 1     
   38   16   37 1     
   39   16   38 1     
   40   17   39 1     
   41   17   40 1     
   42    8   41 1     
   43    9   42 1     
   44   12   43 1     
   45   12   44 1     
@<TRIPOS>SUBSTRUCTURE
      1 S1             1
@<TRIPOS>SET
LONE_PAIRS      STATIC     ATOMS    <user>   **** ""
4 41 42 43 44
DONOR_HYDROGENS      STATIC     ATOMS    <user>   **** ""
2 27 30
ATOM$BLUE        STATIC     ATOMS    COLORGROUP SYSTEM
4 41 42 43 44
ATOM$RED        STATIC     ATOMS    COLORGROUP SYSTEM
2 27 30
